data_PCOD9154426
_publ_section_title
;
Structure prediction by ZEFSAII (Michael W. Deem and Ramdas Pophale) SiO2 
 PCOD9154426
Probable space group: P 2/M
;
_chemical_formula_sum "Si O2"
_cell_formula_units_Z 21
_cell_length_a 14.611418
_cell_length_b 17.612349
_cell_length_c 12.504167
_cell_angle_alpha 90.000000
_cell_angle_beta 160.788416
_cell_angle_gamma 90.000000
_cell_volume 1058.854541
_symmetry_space_group_name_H-M "P 2/M"
_symmetry_group_IT_number 10
_symmetry_cell_setting 'monoclinic'
loop_
_space_group_symop_operation_xyz
x,y,z
-x,y,-z
-x,-y,-z
x,-y,z
loop_
_atom_site_type_symbol
_atom_site_label
_atom_site_fract_x
_atom_site_fract_y
_atom_site_fract_z
Si Si1 0.913495 0.230306 0.786087
Si Si2 0.977150 0.587265 0.602837
Si Si3 0.489396 0.319571 0.804960
Si Si4 0.690143 0.156701 0.113808
Si Si5 0.500000 0.000000 0.500000
Si Si6 0.383240 0.131099 0.204524
O O1 0.730793 0.294201 0.527647
O O2 0.700581 0.159675 0.558693
O O3 0.000000 0.252673 0.000000
O O4 0.176934 0.199793 0.010151
O O5 0.992342 0.500000 0.655276
O O6 0.000000 0.589194 0.500000
O O7 0.687357 0.624910 0.315329
O O8 0.235250 0.637289 0.929433
O O9 0.579185 0.241332 0.962060
O O10 0.000000 0.162350 0.500000
O O11 0.500000 0.125662 0.000000
O O12 0.678902 0.112570 0.988280
O O13 0.635001 0.934285 0.728276
#
# Coordination Sequence:
#
# PCOD9154426 Si02
#       6
#     4   4   4   4   1   4
#     4  11  21  40  59  91 118 145 205 256 292 340
#     4  11  22  35  53  83 119 153 193 238 292 363
#     4  11  21  34  60  83 113 158 192 244 302 339
#     4  11  21  38  60  89 123 153 201 251 300 357
#     4  12  24  46  64  90 128 158 202 240 300 366
#     4  11  24  38  64  90 119 160 195 250 297 353
#
# _framework density 19.832754000000001
#
# number of rings (size 3 to 8) (size 9 to 14) (size 15 to 20)
#    0.000    0.952    1.905    8.571    0.000    3.048 
#    0.000    0.952    0.000    3.429    0.000    0.000 
#    0.000    0.000    0.000    0.000    0.000    0.000 
#
# Total GULP energy -117084.971208 kJ/mol
# GULP energy per Si atom -5575.474819 kJ/mol
# Density = 1.978761 g / cm^3
# Si number density = 19.832754 Si / 1000 Ang^3
#
#
#
# Elastic Constant Matrix: (Units=GPa)
#
#
# Indices 1 2 3 4 5 6 
#
# 1 91.2291 14.6813 60.2767 0.0000 -9.6825 0.0000
# 2 14.6813 59.4386 24.2733 0.0000 -17.0315 0.0000
# 3 60.2767 24.2733 133.8501 0.0000 -23.0020 0.0000
# 4 0.0000 0.0000 0.0000 -1.6183 0.0000 -10.8082
# 5 -9.6825 -17.0315 -23.0020 0.0000 47.0452 0.0000
# 6 0.0000 0.0000 0.0000 -10.8082 0.0000 56.7235
#
#
#
# Elastic Compliance Matrix: (Units=1/GPa)
#
#
# Indices 1 2 3 4 5 6 
#
# 1 0.015682 -0.001210 -0.006947 0.000000 -0.000607 0.000000
# 2 -0.001210 0.019625 -0.002004 0.000000 0.005876 0.000000
# 3 -0.006947 -0.002004 0.011564 0.000000 0.003499 0.000000
# 4 0.000000 0.000000 0.000000 -0.271907 0.000000 -0.051810
# 5 -0.000607 0.005876 0.003499 0.000000 0.024969 0.000000
# 6 0.000000 0.000000 0.000000 -0.051810 0.000000 0.007758
#
#
# Mechanical properties :
#
#
# Convention : Reuss Voigt Hill
#
# Bulk Modulus (GPa) = 37.66735 53.66450 45.66592
# Shear Modulus (GPa) = -30.64905 32.78250 1.06672
#
# Velocity S-wave (km/s) = -3.93539 4.07006 0.73418
# Velocity P-wave (km/s) = 1.27122 7.01459 4.87793
#
# Compressibility (1/GPa) = 0.02654819
#
# Stress axis : x y z
#
# Youngs Moduli (GPa) = 63.76902 50.95507 86.47473
#
# Poissons Ratio (x) = 0.06168 0.60072
# Poissons Ratio (y) = 0.07719 0.17331
# Poissons Ratio (z) = 0.44299 0.10212
#
# Static dielectric constant tensor:
#      x y z
#    x 1.757350 0.000000 -0.006160 
#    y 0.000000 1.676550 0.000000 
#    z -0.006160 0.000000 1.681990 
# 
# From -- ./inp_files/7023.got.cif
#   From: 2010.05.17/outbox.cif.g08.bks.cpg/sg10_4_cif.got.tgz:7023.got - 2010.06.03 11:33:40.
