data_PCOD9154424
_publ_section_title
;
Structure prediction by ZEFSAII (Michael W. Deem and Ramdas Pophale) SiO2 
 PCOD9154424
Probable space group: P 2/M
;
_chemical_formula_sum "Si O2"
_cell_formula_units_Z 20
_cell_length_a 13.544643
_cell_length_b 10.314324
_cell_length_c 8.463202
_cell_angle_alpha 90.000000
_cell_angle_beta 57.502918
_cell_angle_gamma 90.000000
_cell_volume 997.209302
_symmetry_space_group_name_H-M "P 2/M"
_symmetry_group_IT_number 10
_symmetry_cell_setting 'monoclinic'
loop_
_space_group_symop_operation_xyz
x,y,z
-x,y,-z
-x,-y,-z
x,-y,z
loop_
_atom_site_type_symbol
_atom_site_label
_atom_site_fract_x
_atom_site_fract_y
_atom_site_fract_z
Si Si1 0.689833 0.734330 0.495757
Si Si2 0.624008 0.000000 0.695940
Si Si3 0.170737 0.500000 0.473197
Si Si4 0.342104 0.000000 0.956770
Si Si5 0.481306 0.645261 0.846369
Si Si6 0.088189 0.500000 0.181963
Si Si7 0.757367 0.724912 0.073863
O O1 0.758567 0.629136 0.541004
O O2 0.553193 0.701167 0.639193
O O3 0.735002 0.725917 0.279950
O O4 0.690209 0.877147 0.565831
O O5 0.643934 0.000000 0.866420
O O6 0.481438 0.000000 0.781836
O O7 0.140796 0.500000 0.314245
O O8 0.050886 0.500000 0.676018
O O9 0.269581 0.127776 0.963099
O O10 0.525781 0.500000 0.826632
O O11 0.347071 0.647798 0.921215
O O12 0.500000 0.714237 0.000000
O O13 0.131243 0.634296 0.062319
#
# Coordination Sequence:
#
# PCOD9154424 Si02
#       7
#     4   2   2   2   4   2   4
#     4  12  24  38  62  94 129 162 203 260 315 367
#     4  11  23  39  62  91 131 174 206 246 306 381
#     4  11  25  46  69  90 119 165 217 261 306 369
#     4  11  23  39  62  91 131 174 206 246 306 381
#     4  11  21  34  57  88 126 165 205 249 304 376
#     4  11  25  46  69  90 119 165 217 261 306 369
#     4  12  24  38  62  94 129 162 203 260 315 367
#
# _framework density 20.055971
#
# number of rings (size 3 to 8) (size 9 to 14) (size 15 to 20)
#    0.000    0.600    4.000    5.400    0.000    3.200 
#    0.000    1.000    0.000    6.000    0.000    0.000 
#    0.000    0.000    0.000    0.000    0.000    0.000 
#
# Total GULP energy -111591.927000 kJ/mol
# GULP energy per Si atom -5579.596350 kJ/mol
# Density = 2.001032 g / cm^3
# Si number density = 20.055971 Si / 1000 Ang^3
#
#
#
# Elastic Constant Matrix: (Units=GPa)
#
#
# Indices 1 2 3 4 5 6 
#
# 1 21.5847 17.2279 3.8964 0.0000 -5.4039 0.0000
# 2 17.2279 160.4841 45.7133 0.0000 -6.5191 0.0000
# 3 3.8964 45.7133 104.5757 0.0000 -3.1573 0.0000
# 4 0.0000 0.0000 0.0000 206.5354 0.0000 -71.0198
# 5 -5.4039 -6.5191 -3.1573 0.0000 35.8227 0.0000
# 6 0.0000 0.0000 0.0000 -71.0198 0.0000 46.7540
#
#
#
# Elastic Compliance Matrix: (Units=1/GPa)
#
#
# Indices 1 2 3 4 5 6 
#
# 1 0.052362 -0.005532 0.000677 0.000000 0.006952 0.000000
# 2 -0.005532 0.007739 -0.003168 0.000000 0.000295 0.000000
# 3 0.000677 -0.003168 0.010937 0.000000 0.000490 0.000000
# 4 0.000000 0.000000 0.000000 0.010136 0.000000 0.015397
# 5 0.006952 0.000295 0.000490 0.000000 0.029061 0.000000
# 6 0.000000 0.000000 0.000000 0.015397 0.000000 0.044777
#
#
# Mechanical properties :
#
#
# Convention : Reuss Voigt Hill
#
# Bulk Modulus (GPa) = 18.18404 46.70218 32.44311
# Shear Modulus (GPa) = 26.40067 72.47621 49.43844
#
# Velocity S-wave (km/s) = 3.63209 6.01793 4.97029
# Velocity P-wave (km/s) = 5.16486 8.46308 7.01069
#
# Compressibility (1/GPa) = 0.05499328
#
# Stress axis : x y z
#
# Youngs Moduli (GPa) = 19.09766 129.20985 91.43373
#
# Poissons Ratio (x) = 0.71472 -0.06189
# Poissons Ratio (y) = 0.10564 0.28967
# Poissons Ratio (z) = -0.01293 0.40935
#
# Static dielectric constant tensor:
#      x y z
#    x 1.672790 0.000000 0.004620 
#    y 0.000000 1.766970 0.000000 
#    z 0.004620 0.000000 1.716660 
# 
# From -- ./inp_files/27732.got.cif
#   From: 2010.05.17/outbox.cif.g08.bks.cpg/sg10_14_cif.got.tgz:27732.got - 2010.06.03 11:33:40.
