data_PCOD9154165
_publ_section_title
;
Structure prediction by ZEFSAII (Michael W. Deem and Ramdas Pophale) SiO2 
 PCOD9154165
Probable space group: P 2/M
;
_chemical_formula_sum "Si O2"
_cell_formula_units_Z 20
_cell_length_a 8.258509
_cell_length_b 8.626194
_cell_length_c 12.433059
_cell_angle_alpha 90.000000
_cell_angle_beta 96.054285
_cell_angle_gamma 90.000000
_cell_volume 880.784709
_symmetry_space_group_name_H-M "P 2/M"
_symmetry_group_IT_number 10
_symmetry_cell_setting 'monoclinic'
loop_
_space_group_symop_operation_xyz
x,y,z
-x,y,-z
-x,-y,-z
x,-y,z
loop_
_atom_site_type_symbol
_atom_site_label
_atom_site_fract_x
_atom_site_fract_y
_atom_site_fract_z
Si Si1 0.792478 0.315815 0.735718
Si Si2 0.607617 0.674505 0.114767
Si Si3 0.911875 0.181255 0.379229
Si Si4 0.188323 0.170888 0.026153
Si Si5 0.544894 0.820448 0.328804
O O1 0.787651 0.500000 0.743164
O O2 0.779852 0.244486 0.854835
O O3 0.629314 0.259681 0.659663
O O4 0.961952 0.263033 0.692992
O O5 0.597322 0.500000 0.157837
O O6 0.564124 0.796019 0.202118
O O7 0.500000 0.684861 0.000000
O O8 0.775471 0.717543 0.071931
O O9 0.724452 0.239605 0.377888
O O10 0.000000 0.188858 0.500000
O O11 0.898493 0.000000 0.345107
O O12 0.269631 0.000000 0.022573
O O13 0.000000 0.147712 0.000000
O O14 0.530875 0.000000 0.359014
#
# Coordination Sequence:
#
# PCOD9154165 Si02
#       5
#     4   4   4   4   4
#     4  12  25  41  64  95 131 168 209 261 320 382
#     4  11  22  36  57  89 127 164 202 249 306 365
#     4  10  24  47  71  95 124 162 213 270 325 380
#     4  11  23  38  59  88 123 166 214 258 304 368
#     4  11  23  41  68  96 127 170 216 263 313 375
#
# _framework density 22.707024000000001
#
# number of rings (size 3 to 8) (size 9 to 14) (size 15 to 20)
#    0.000    1.000    2.000    4.800    0.000   10.000 
#    0.000    4.000    0.000    0.000    0.000    0.000 
#    0.000    0.000    0.000    0.000    0.000    0.000 
#
# Total GULP energy -111607.615786 kJ/mol
# GULP energy per Si atom -5580.380789 kJ/mol
# Density = 2.265534 g / cm^3
# Si number density = 22.707024 Si / 1000 Ang^3
#
#
#
# Elastic Constant Matrix: (Units=GPa)
#
#
# Indices 1 2 3 4 5 6 
#
# 1 129.2163 23.1818 23.1881 0.0000 30.4982 0.0000
# 2 23.1818 55.1032 15.3244 0.0000 13.6489 0.0000
# 3 23.1881 15.3244 44.0000 0.0000 0.5982 0.0000
# 4 0.0000 0.0000 0.0000 -66.7080 0.0000 36.8874
# 5 30.4982 13.6489 0.5982 0.0000 31.5766 0.0000
# 6 0.0000 0.0000 0.0000 36.8874 0.0000 -18.3563
#
#
#
# Elastic Compliance Matrix: (Units=1/GPa)
#
#
# Indices 1 2 3 4 5 6 
#
# 1 0.011361 -0.000582 -0.005640 0.000000 -0.010614 0.000000
# 2 -0.000582 0.022735 -0.007487 0.000000 -0.009123 0.000000
# 3 -0.005640 -0.007487 0.028197 0.000000 0.008150 0.000000
# 4 0.000000 0.000000 0.000000 0.134808 0.000000 0.270899
# 5 -0.010614 -0.009123 0.008150 0.000000 0.045710 0.000000
# 6 0.000000 0.000000 0.000000 0.270899 0.000000 0.489900
#
#
# Mechanical properties :
#
#
# Convention : Reuss Voigt Hill
#
# Bulk Modulus (GPa) = 28.67534 39.07869 33.87702
# Shear Modulus (GPa) = 6.47876 0.41080 3.44478
#
# Velocity S-wave (km/s) = 1.69097 0.42580 1.23302
# Velocity P-wave (km/s) = 4.05812 4.18199 4.12052
#
# Compressibility (1/GPa) = 0.03487317
#
# Stress axis : x y z
#
# Youngs Moduli (GPa) = 88.02238 43.98589 35.46520
#
# Poissons Ratio (x) = 0.02559 0.20003
# Poissons Ratio (y) = 0.05120 0.26554
# Poissons Ratio (z) = 0.49647 0.32934
#
# Static dielectric constant tensor:
#      x y z
#    x 1.899200 0.000000 0.050140 
#    y 0.000000 1.805870 0.000000 
#    z 0.050140 0.000000 1.813810 
# 
# From -- ./inp_files/26772.got.cif
#   From: 2010.05.17/outbox.cif.g08.bks.cpg/sg10_14_cif.got.tgz:26772.got - 2010.06.03 11:33:40.
