data_PCOD9154647
_publ_section_title
;
Structure prediction by ZEFSAII (Michael W. Deem and Ramdas Pophale) SiO2 
 PCOD9154647
Probable space group: P 2/M
;
_chemical_formula_sum "Si O2"
_cell_formula_units_Z 20
_cell_length_a 13.699966
_cell_length_b 17.016262
_cell_length_c 11.959440
_cell_angle_alpha 90.000000
_cell_angle_beta 20.905561
_cell_angle_gamma 90.000000
_cell_volume 994.842289
_symmetry_space_group_name_H-M "P 2/M"
_symmetry_group_IT_number 10
_symmetry_cell_setting 'monoclinic'
loop_
_space_group_symop_operation_xyz
x,y,z
-x,y,-z
-x,-y,-z
x,-y,z
loop_
_atom_site_type_symbol
_atom_site_label
_atom_site_fract_x
_atom_site_fract_y
_atom_site_fract_z
Si Si1 0.034943 0.408378 0.216197
Si Si2 0.310024 0.908644 0.813332
Si Si3 0.210480 0.719580 0.368841
Si Si4 0.756923 0.815559 0.438265
Si Si5 0.591846 0.349040 0.526426
O O1 0.078093 0.500000 0.189878
O O2 0.884439 0.363527 0.477491
O O3 0.843953 0.396029 0.310910
O O4 0.323719 0.365367 0.887685
O O5 0.500000 0.901426 0.500000
O O6 0.508021 0.876540 0.698163
O O7 0.236186 0.000000 0.904897
O O8 0.037416 0.856770 0.101429
O O9 0.214130 0.777994 0.470361
O O10 0.000000 0.746079 0.500000
O O11 0.500000 0.712578 0.000000
O O12 0.678278 0.742008 0.442955
O O13 0.500000 0.370440 0.500000
#
# Coordination Sequence:
#
# PCOD9154647 Si02
#       5
#     4   4   4   4   4
#     4  11  24  40  60  90 122 155 203 256 306 361
#     4  11  23  39  64  98 131 160 189 233 298 361
#     4  11  23  41  63  86 114 157 210 259 307 348
#     4  11  22  40  63  89 124 160 204 249 289 357
#     4  11  23  39  60  89 124 164 202 238 295 367
#
# _framework density 20.103691000000001
#
# number of rings (size 3 to 8) (size 9 to 14) (size 15 to 20)
#    0.000    1.000    0.000    9.000    0.000    8.000 
#    0.000    0.000    0.000   12.000    0.000    0.000 
#    0.000    0.000    0.000    0.000    0.000    0.000 
#
# Total GULP energy -111911.171518 kJ/mol
# GULP energy per Si atom -5595.558576 kJ/mol
# Density = 2.005793 g / cm^3
# Si number density = 20.103691 Si / 1000 Ang^3
#
#
#
# Elastic Constant Matrix: (Units=GPa)
#
#
# Indices 1 2 3 4 5 6 
#
# 1 77.5170 19.6553 8.2869 0.0000 -14.0454 0.0000
# 2 19.6553 128.1833 66.0755 0.0000 -6.5815 0.0000
# 3 8.2869 66.0755 140.1178 0.0000 -28.7028 0.0000
# 4 0.0000 0.0000 0.0000 -15.4802 0.0000 -5.4762
# 5 -14.0454 -6.5815 -28.7028 0.0000 36.4851 0.0000
# 6 0.0000 0.0000 0.0000 -5.4762 0.0000 17.3154
#
#
#
# Elastic Compliance Matrix: (Units=1/GPa)
#
#
# Indices 1 2 3 4 5 6 
#
# 1 0.014612 -0.002840 0.001815 0.000000 0.006540 0.000000
# 2 -0.002840 0.011029 -0.005781 0.000000 -0.003652 0.000000
# 3 0.001815 -0.005781 0.011546 0.000000 0.008739 0.000000
# 4 0.000000 0.000000 0.000000 -0.058099 0.000000 -0.018374
# 5 0.006540 -0.003652 0.008739 0.000000 0.036143 0.000000
# 6 0.000000 0.000000 0.000000 -0.018374 0.000000 0.051941
#
#
# Mechanical properties :
#
#
# Convention : Reuss Voigt Hill
#
# Bulk Modulus (GPa) = 42.41972 59.31705 50.86839
# Shear Modulus (GPa) = 56.40606 24.45074 40.42840
#
# Velocity S-wave (km/s) = 5.30269 3.49123 4.48928
# Velocity P-wave (km/s) = 7.65752 6.76914 7.22699
#
# Compressibility (1/GPa) = 0.02357394
#
# Stress axis : x y z
#
# Youngs Moduli (GPa) = 68.43865 90.66628 86.61035
#
# Poissons Ratio (x) = 0.25752 -0.15720
# Poissons Ratio (y) = 0.19439 0.50072
# Poissons Ratio (z) = -0.12422 0.52417
#
# Static dielectric constant tensor:
#      x y z
#    x 1.725920 0.000000 0.002850 
#    y 0.000000 1.704020 0.000000 
#    z 0.002850 0.000000 1.686880 
# 
# From -- ./inp_files/51789.got.cif
#   From: 2010.05.17/outbox.cif.g08.bks.cpg/sg10_26_cif.got.tgz:51789.got - 2010.06.03 11:33:40.
