data_PCOD9154720
_publ_section_title
;
Structure prediction by ZEFSAII (Michael W. Deem and Ramdas Pophale) SiO2 
 PCOD9154720
Probable space group: P 2/M
;
_chemical_formula_sum "Si O2"
_cell_formula_units_Z 32
_cell_length_a 8.759762
_cell_length_b 24.326775
_cell_length_c 15.334501
_cell_angle_alpha 90.000000
_cell_angle_beta 31.033262
_cell_angle_gamma 90.000000
_cell_volume 1684.632420
_symmetry_space_group_name_H-M "P 2/M"
_symmetry_group_IT_number 10
_symmetry_cell_setting 'monoclinic'
loop_
_space_group_symop_operation_xyz
x,y,z
-x,y,-z
-x,-y,-z
x,-y,z
loop_
_atom_site_type_symbol
_atom_site_label
_atom_site_fract_x
_atom_site_fract_y
_atom_site_fract_z
Si Si1 0.160340 0.563654 0.682528
Si Si2 0.686049 0.635896 1.000000
Si Si3 0.624952 0.062460 0.796306
Si Si4 0.337525 0.826431 0.321263
Si Si5 0.316471 0.763268 0.000000
Si Si6 0.792076 0.436346 0.682528
Si Si7 0.698684 0.826431 0.321263
Si Si8 0.986128 0.062460 0.796307
O O1 0.500000 0.578992 0.500000
O O2 0.150800 0.500000 0.717433
O O3 0.987268 0.603304 0.832757
O O4 0.987635 0.565756 0.674910
O O5 0.730834 0.699438 1.000000
O O6 0.500000 0.634532 0.000000
O O7 0.485539 0.603304 0.167243
O O8 0.661667 0.109704 0.708045
O O9 0.858000 0.070630 0.761333
O O10 0.656155 0.000000 0.748191
O O11 0.300702 0.067101 1.000000
O O12 0.518212 0.819528 0.321192
O O13 0.000000 0.808434 0.500000
O O14 0.497480 0.793412 0.165894
O O15 0.004837 0.793412 0.165894
O O16 0.500000 0.766794 0.000000
O O17 0.696905 0.500000 0.717430
O O18 0.000000 0.421007 0.500000
O O19 0.500000 0.808434 0.500000
O O20 0.785803 0.890296 0.291954
O O21 0.099272 0.000000 0.748191
#
# Coordination Sequence:
#
# PCOD9154720 Si02
#       8
#     4   4   4   4   4   4   4   4
#     4   9  17  32  55  84 117 150 186 228 276 333
#     4   9  19  35  58  83 109 150 193 230 280 339
#     4   9  18  35  61  90 120 152 185 229 288 349
#     4  12  25  41  62  87 115 153 197 241 292 349
#     4  11  23  42  62  83 116 152 195 249 296 343
#     4   9  17  32  55  84 117 150 186 228 276 333
#     4  12  25  41  62  87 115 153 197 241 292 349
#     4   9  18  35  61  90 120 152 185 229 288 349
#
# _framework density 18.995242000000001
#
# number of rings (size 3 to 8) (size 9 to 14) (size 15 to 20)
#    0.000    2.000    1.250    3.750    0.000    3.500 
#    0.000    6.875    0.000    3.000    0.000    0.000 
#    0.000    0.000    0.000    0.000    0.000    0.000 
#
# Total GULP energy -178787.623090 kJ/mol
# GULP energy per Si atom -5587.113222 kJ/mol
# Density = 1.895201 g / cm^3
# Si number density = 18.995242 Si / 1000 Ang^3
#
#
#
# Elastic Constant Matrix: (Units=GPa)
#
#
# Indices 1 2 3 4 5 6 
#
# 1 71.3471 49.0840 60.1736 0.0000 -1.7248 0.0000
# 2 49.0840 121.9138 97.5023 0.0000 -1.5813 0.0000
# 3 60.1736 97.5023 163.4276 0.0000 -1.2822 0.0000
# 4 0.0000 0.0000 0.0000 -5.3465 0.0000 0.7039
# 5 -1.7248 -1.5813 -1.2822 0.0000 31.9782 0.0000
# 6 0.0000 0.0000 0.0000 0.7039 0.0000 16.2049
#
#
#
# Elastic Compliance Matrix: (Units=1/GPa)
#
#
# Indices 1 2 3 4 5 6 
#
# 1 0.021539 -0.004445 -0.005273 0.000000 0.000730 0.000000
# 2 -0.004445 0.016611 -0.008271 0.000000 0.000250 0.000000
# 3 -0.005273 -0.008271 0.012994 0.000000 -0.000172 0.000000
# 4 0.000000 0.000000 0.000000 -0.185974 0.000000 0.008078
# 5 0.000730 0.000250 -0.000172 0.000000 0.031316 0.000000
# 6 0.000000 0.000000 0.000000 0.008078 0.000000 0.061359
#
#
# Mechanical properties :
#
#
# Convention : Reuss Voigt Hill
#
# Bulk Modulus (GPa) = 65.94396 85.57871 75.76133
# Shear Modulus (GPa) = -4455.26007 18.56256 -2218.34875
#
# Velocity S-wave (km/s) = -48.48250 3.12945 -34.21081
# Velocity P-wave (km/s) = 55.67117 7.62944 38.99404
#
# Compressibility (1/GPa) = 0.01516439
#
# Stress axis : x y z
#
# Youngs Moduli (GPa) = 46.42780 60.20239 76.96080
#
# Poissons Ratio (x) = 0.26763 0.40578
# Poissons Ratio (y) = 0.20639 0.63656
# Poissons Ratio (z) = 0.24479 0.49795
#
# Static dielectric constant tensor:
#      x y z
#    x 1.635050 0.000000 -0.000360 
#    y 0.000000 1.651280 0.000000 
#    z -0.000360 0.000000 1.646040 
# 
# From -- ./inp_files/62669.got.cif
#   From: 2010.05.17/outbox.cif.g08.bks.cpg/sg10_32_cif.got.tgz:62669.got - 2010.06.03 11:33:40.
