data_PCOD9154846
_publ_section_title
;
Structure prediction by ZEFSAII (Michael W. Deem and Ramdas Pophale) SiO2 
 PCOD9154846
Probable space group: P 2/M
;
_chemical_formula_sum "Si O2"
_cell_formula_units_Z 24
_cell_length_a 10.784907
_cell_length_b 15.951582
_cell_length_c 19.350683
_cell_angle_alpha 90.000000
_cell_angle_beta 158.576027
_cell_angle_gamma 90.000000
_cell_volume 1215.979029
_symmetry_space_group_name_H-M "P 2/M"
_symmetry_group_IT_number 10
_symmetry_cell_setting 'monoclinic'
loop_
_space_group_symop_operation_xyz
x,y,z
-x,y,-z
-x,-y,-z
x,-y,z
loop_
_atom_site_type_symbol
_atom_site_label
_atom_site_fract_x
_atom_site_fract_y
_atom_site_fract_z
Si Si1 0.526272 0.836648 0.312642
Si Si2 0.771846 0.648459 0.988080
Si Si3 0.086094 0.000000 0.464453
Si Si4 0.964363 0.500000 0.181209
Si Si5 0.464422 0.351678 0.681598
Si Si6 0.730771 0.500000 0.512935
Si Si7 0.218363 0.162868 0.007250
Si Si8 0.397420 0.000000 0.024970
O O1 0.673296 0.743158 0.396681
O O2 0.475682 0.853467 0.204584
O O3 0.713871 0.913964 0.444494
O O4 0.151622 0.833591 0.150329
O O5 0.778845 0.580757 0.052333
O O6 0.153934 0.647339 0.153312
O O7 0.526710 0.629604 0.795302
O O8 0.706178 0.743261 0.979534
O O9 0.000000 0.000000 0.500000
O O10 0.747264 0.000000 0.246843
O O11 0.349600 0.500000 0.349054
O O12 0.014952 0.500000 0.290022
O O13 0.254431 0.419124 0.529252
O O14 0.218230 0.086041 0.954724
O O15 0.500000 0.000000 0.000000
#
# Coordination Sequence:
#
# PCOD9154846 Si02
#       8
#     4   4   2   2   4   2   4   2
#     4   9  17  32  58  83  99 131 180 223 256 297
#     4   8  14  25  45  68  94 131 170 202 243 300
#     4  12  21  35  57  81 102 130 177 222 258 307
#     4   9  15  23  37  65 101 137 165 192 243 306
#     4   8  14  25  43  70  99 125 162 211 255 288
#     4   9  15  23  37  65 105 133 155 203 257 293
#     4   9  17  34  56  78 105 137 174 216 259 304
#     4  12  25  39  51  75 110 141 169 210 267 320
#
# _framework density 19.737183000000002
#
# number of rings (size 3 to 8) (size 9 to 14) (size 15 to 20)
#    0.000    2.833    1.667    3.000    0.000    3.333 
#    3.000    1.667    0.000    0.000    0.000    2.333 
#    0.000    0.000    0.000    0.000    0.000    0.000 
#
# Total GULP energy -133825.184287 kJ/mol
# GULP energy per Si atom -5576.049345 kJ/mol
# Density = 1.969226 g / cm^3
# Si number density = 19.737183 Si / 1000 Ang^3
#
#
#
# Elastic Constant Matrix: (Units=GPa)
#
#
# Indices 1 2 3 4 5 6 
#
# 1 73.8237 70.8247 22.1216 0.0000 -28.4733 0.0000
# 2 70.8247 178.5703 47.8639 0.0000 -32.0287 0.0000
# 3 22.1216 47.8639 44.5928 0.0000 -20.8753 0.0000
# 4 0.0000 0.0000 0.0000 -5.1110 0.0000 -12.9670
# 5 -28.4733 -32.0287 -20.8753 0.0000 25.5074 0.0000
# 6 0.0000 0.0000 0.0000 -12.9670 0.0000 -4.4717
#
#
#
# Elastic Compliance Matrix: (Units=1/GPa)
#
#
# Indices 1 2 3 4 5 6 
#
# 1 0.031944 -0.009480 0.008833 0.000000 0.030984 0.000000
# 2 -0.009480 0.011057 -0.009110 0.000000 -0.004154 0.000000
# 3 0.008833 -0.009110 0.043902 0.000000 0.034351 0.000000
# 4 0.000000 0.000000 0.000000 0.030778 0.000000 -0.089250
# 5 0.030984 -0.004154 0.034351 0.000000 0.096687 0.000000
# 6 0.000000 0.000000 0.000000 -0.089250 0.000000 0.035178
#
#
# Mechanical properties :
#
#
# Convention : Reuss Voigt Hill
#
# Bulk Modulus (GPa) = 14.83911 64.28968 39.56439
# Shear Modulus (GPa) = 17.15136 13.59672 15.37404
#
# Velocity S-wave (km/s) = 2.95106 2.62752 2.79397
# Velocity P-wave (km/s) = 4.37565 6.46906 5.52246
#
# Compressibility (1/GPa) = 0.06738948
#
# Stress axis : x y z
#
# Youngs Moduli (GPa) = 31.30482 90.44362 22.77810
#
# Poissons Ratio (x) = 0.85740 -0.20120
# Poissons Ratio (y) = 0.29677 0.20750
# Poissons Ratio (z) = -0.27652 0.82390
#
# Static dielectric constant tensor:
#      x y z
#    x 1.668170 0.000000 0.031920 
#    y 0.000000 1.744300 0.000000 
#    z 0.031920 0.000000 1.696020 
# 
# From -- ./inp_files/84178.got.cif
#   From: 2010.05.17/outbox.cif.g08.bks.cpg/sg10_43_cif.got.tgz:84178.got - 2010.06.03 11:33:40.
