data_PCOD9154091
_publ_section_title
;
Structure prediction by ZEFSAII (Michael W. Deem and Ramdas Pophale) SiO2 
 PCOD9154091
Probable space group: P 2/M
;
_chemical_formula_sum "Si O2"
_cell_formula_units_Z 28
_cell_length_a 9.789289
_cell_length_b 14.194681
_cell_length_c 13.516788
_cell_angle_alpha 90.000000
_cell_angle_beta 120.596045
_cell_angle_gamma 90.000000
_cell_volume 1616.743135
_symmetry_space_group_name_H-M "P 2/M"
_symmetry_group_IT_number 10
_symmetry_cell_setting 'monoclinic'
loop_
_space_group_symop_operation_xyz
x,y,z
-x,y,-z
-x,-y,-z
x,-y,z
loop_
_atom_site_type_symbol
_atom_site_label
_atom_site_fract_x
_atom_site_fract_y
_atom_site_fract_z
Si Si1 0.262961 0.293338 0.172133
Si Si2 0.011942 0.388400 0.213436
Si Si3 0.379648 0.891807 0.304373
Si Si4 0.461947 0.392072 0.602288
Si Si5 0.268414 0.891867 0.491837
Si Si6 0.333173 0.389146 0.991418
Si Si7 0.876157 0.697690 0.537313
O O1 0.098483 0.333846 0.155343
O O2 0.290427 0.182974 0.203023
O O3 0.397638 0.341783 0.289065
O O4 0.297299 0.326104 0.073851
O O5 0.052630 0.500000 0.223389
O O6 0.075362 0.344388 0.338683
O O7 0.821807 0.379718 0.135075
O O8 0.315901 0.882754 0.393521
O O9 0.569285 0.875213 0.386001
O O10 0.356542 0.000000 0.264768
O O11 0.500000 0.388807 0.500000
O O12 0.451900 0.500000 0.630557
O O13 0.295180 0.342011 0.554650
O O14 0.142874 0.810527 0.465654
O O15 0.218159 0.000000 0.490328
O O16 0.341483 0.500000 0.024310
O O17 0.500000 0.366010 0.000000
O O18 0.000000 0.669025 0.500000
#
# Coordination Sequence:
#
# PCOD9154091 Si02
#       7
#     4   4   4   4   4   4   4
#     4  12  20  36  63  83 111 145 192 238 276 335
#     4  11  23  39  57  81 113 152 194 234 275 333
#     4   9  17  31  59  88 110 142 188 236 281 332
#     4  11  21  34  54  83 116 151 186 227 279 343
#     4   9  17  34  54  80 116 151 189 230 278 338
#     4  10  24  42  59  81 110 151 197 236 278 330
#     4  12  24  35  53  86 124 154 184 228 292 345
#
# _framework density 17.318767000000001
#
# number of rings (size 3 to 8) (size 9 to 14) (size 15 to 20)
#    0.000    1.429    4.286    3.000    2.000    2.571 
#    0.000    0.000    0.000    3.000    0.000    0.000 
#    0.000    0.000    0.000    0.000    0.000    0.000 
#
# Total GULP energy -156320.200041 kJ/mol
# GULP energy per Si atom -5582.864287 kJ/mol
# Density = 1.727935 g / cm^3
# Si number density = 17.318767 Si / 1000 Ang^3
#
#
#
# Elastic Constant Matrix: (Units=GPa)
#
#
# Indices 1 2 3 4 5 6 
#
# 1 95.2013 32.9124 17.6717 0.0000 5.9388 0.0000
# 2 32.9124 98.0530 16.0965 0.0000 5.0133 0.0000
# 3 17.6717 16.0965 32.1042 0.0000 8.6359 0.0000
# 4 0.0000 0.0000 0.0000 27.0768 0.0000 -2.6883
# 5 5.9388 5.0133 8.6359 0.0000 23.8049 0.0000
# 6 0.0000 0.0000 0.0000 -2.6883 0.0000 17.1652
#
#
#
# Elastic Compliance Matrix: (Units=1/GPa)
#
#
# Indices 1 2 3 4 5 6 
#
# 1 0.012659 -0.003379 -0.005115 0.000000 -0.000591 0.000000
# 2 -0.003379 0.012018 -0.004113 0.000000 -0.000196 0.000000
# 3 -0.005115 -0.004113 0.039283 0.000000 -0.012109 0.000000
# 4 0.000000 0.000000 0.000000 0.037515 0.000000 0.005875
# 5 -0.000591 -0.000196 -0.012109 0.000000 0.046590 0.000000
# 6 0.000000 0.000000 0.000000 0.005875 0.000000 0.059178
#
#
# Mechanical properties :
#
#
# Convention : Reuss Voigt Hill
#
# Bulk Modulus (GPa) = 25.80880 39.85776 32.83328
# Shear Modulus (GPa) = 20.37725 24.18789 22.28257
#
# Velocity S-wave (km/s) = 3.43388 3.74120 3.59083
# Velocity P-wave (km/s) = 5.53684 6.45959 6.01593
#
# Compressibility (1/GPa) = 0.03874648
#
# Stress axis : x y z
#
# Youngs Moduli (GPa) = 78.99806 83.20864 25.45605
#
# Poissons Ratio (x) = 0.28117 0.13020
# Poissons Ratio (y) = 0.26694 0.10470
# Poissons Ratio (z) = 0.40405 0.34223
#
# Static dielectric constant tensor:
#      x y z
#    x 1.592330 0.000000 0.015650 
#    y 0.000000 1.608330 0.000000 
#    z 0.015650 0.000000 1.579030 
# 
# From -- ./inp_files/25404.got.cif
#   From: 2010.05.17/outbox.cif.g08.bks.cpg/sg10_13_cif.got.tgz:25404.got - 2010.06.03 11:33:40.
