data_PCOD9154572
_publ_section_title
;
Structure prediction by ZEFSAII (Michael W. Deem and Ramdas Pophale) SiO2 
 PCOD9154572
Probable space group: P 2/M
;
_chemical_formula_sum "Si O2"
_cell_formula_units_Z 24
_cell_length_a 7.654543
_cell_length_b 15.848657
_cell_length_c 13.428673
_cell_angle_alpha 90.000000
_cell_angle_beta 40.875066
_cell_angle_gamma 90.000000
_cell_volume 1066.095147
_symmetry_space_group_name_H-M "P 2/M"
_symmetry_group_IT_number 10
_symmetry_cell_setting 'monoclinic'
loop_
_space_group_symop_operation_xyz
x,y,z
-x,y,-z
-x,-y,-z
x,-y,z
loop_
_atom_site_type_symbol
_atom_site_label
_atom_site_fract_x
_atom_site_fract_y
_atom_site_fract_z
Si Si1 0.913541 0.500000 0.885400
Si Si2 0.329808 0.318717 0.222919
Si Si3 0.694035 0.500000 0.765126
Si Si4 0.872522 0.000000 0.217122
Si Si5 0.744454 0.855195 0.662157
Si Si6 0.098409 0.318463 0.100217
Si Si7 0.329507 0.821389 0.666258
Si Si8 0.579127 0.000000 0.124580
O O1 0.891970 0.500000 0.774830
O O2 0.030777 0.410018 0.867610
O O3 0.608456 0.500000 0.059069
O O4 0.278612 0.408747 0.297662
O O5 0.184864 0.235762 0.324055
O O6 0.230543 0.329292 0.152398
O O7 0.649360 0.301876 0.080473
O O8 0.793169 0.086466 0.305868
O O9 0.717956 0.000000 0.175750
O O10 0.183565 0.000000 0.055909
O O11 0.532916 0.836401 0.667647
O O12 0.604293 0.917339 0.800121
O O13 0.000000 0.895577 0.500000
O O14 0.895586 0.242141 0.198064
O O15 0.500000 0.787908 0.500000
#
# Coordination Sequence:
#
# PCOD9154572 Si02
#       8
#     2   4   2   2   4   4   4   2
#     4   7  12  26  50  77 104 135 169 209 258 307
#     4   9  17  32  55  81 107 136 173 215 259 309
#     4   7  12  26  50  77 104 135 169 209 258 307
#     4   9  19  36  57  79 102 131 168 211 260 312
#     4  11  22  36  54  76 106 141 175 212 257 308
#     4   9  17  32  55  81 107 136 173 215 259 309
#     4  11  22  36  54  76 106 141 175 212 257 308
#     4   9  19  36  57  79 102 131 168 211 260 312
#
# _framework density 22.512060999999999
#
# number of rings (size 3 to 8) (size 9 to 14) (size 15 to 20)
#    0.000    2.667    0.000    4.500    0.000    2.000 
#    0.000    4.167    0.000    9.000    0.000    0.000 
#    0.000    0.000    0.000    0.000    0.000    0.000 
#
# Total GULP energy -133991.905246 kJ/mol
# GULP energy per Si atom -5582.996052 kJ/mol
# Density = 2.246082 g / cm^3
# Si number density = 22.512061 Si / 1000 Ang^3
#
#
#
# Elastic Constant Matrix: (Units=GPa)
#
#
# Indices 1 2 3 4 5 6 
#
# 1 36.9128 17.7139 11.1132 0.0000 -8.1776 0.0000
# 2 17.7139 134.7504 22.8297 0.0000 -13.5078 0.0000
# 3 11.1132 22.8297 60.4024 0.0000 -14.3457 0.0000
# 4 0.0000 0.0000 0.0000 20.1165 0.0000 24.7283
# 5 -8.1776 -13.5078 -14.3457 0.0000 26.6165 0.0000
# 6 0.0000 0.0000 0.0000 24.7283 0.0000 -5.1143
#
#
#
# Elastic Compliance Matrix: (Units=1/GPa)
#
#
# Indices 1 2 3 4 5 6 
#
# 1 0.030809 -0.002894 -0.003068 0.000000 0.006343 0.000000
# 2 -0.002894 0.008382 -0.002106 0.000000 0.002229 0.000000
# 3 -0.003068 -0.002106 0.019998 0.000000 0.008767 0.000000
# 4 0.000000 0.000000 0.000000 0.007159 0.000000 0.034615
# 5 0.006343 0.002229 0.008767 0.000000 0.045376 0.000000
# 6 0.000000 0.000000 0.000000 0.034615 0.000000 -0.028160
#
#
# Mechanical properties :
#
#
# Convention : Reuss Voigt Hill
#
# Bulk Modulus (GPa) = 23.22754 37.26438 30.24596
# Shear Modulus (GPa) = 43.83961 20.35099 32.09530
#
# Velocity S-wave (km/s) = 4.41770 3.00993 3.77993
# Velocity P-wave (km/s) = 6.03007 5.35430 5.70220
#
# Compressibility (1/GPa) = 0.04305234
#
# Stress axis : x y z
#
# Youngs Moduli (GPa) = 32.45836 119.30459 50.00422
#
# Poissons Ratio (x) = 0.34532 0.15341
# Poissons Ratio (y) = 0.09395 0.10531
# Poissons Ratio (z) = 0.09958 0.25126
#
# Static dielectric constant tensor:
#      x y z
#    x 1.890990 0.000000 0.040160 
#    y 0.000000 1.884660 0.000000 
#    z 0.040160 0.000000 1.807160 
# 
# From -- ./inp_files/61726.got.cif
#   From: 2010.05.17/outbox.cif.g08.bks.cpg/sg10_31_cif.got.tgz:61726.got - 2010.06.03 11:33:40.
