data_PCOD9154801
_publ_section_title
;
Structure prediction by ZEFSAII (Michael W. Deem and Ramdas Pophale) SiO2 
 PCOD9154801
Probable space group: P 2/M
;
_chemical_formula_sum "Si O2"
_cell_formula_units_Z 28
_cell_length_a 17.266934
_cell_length_b 18.644065
_cell_length_c 10.309657
_cell_angle_alpha 90.000000
_cell_angle_beta 152.905320
_cell_angle_gamma 90.000000
_cell_volume 1511.654144
_symmetry_space_group_name_H-M "P 2/M"
_symmetry_group_IT_number 10
_symmetry_cell_setting 'monoclinic'
loop_
_space_group_symop_operation_xyz
x,y,z
-x,y,-z
-x,-y,-z
x,-y,z
loop_
_atom_site_type_symbol
_atom_site_label
_atom_site_fract_x
_atom_site_fract_y
_atom_site_fract_z
Si Si1 0.284793 0.579787 0.322146
Si Si2 0.695025 0.580952 0.949102
Si Si3 0.997941 0.915779 0.839571
Si Si4 0.307535 0.181207 0.209990
Si Si5 0.800825 0.727994 0.708509
Si Si6 0.309437 0.814984 0.700401
Si Si7 0.797959 0.267390 0.202200
O O1 0.228872 0.500000 0.275916
O O2 0.489834 0.582227 0.637748
O O3 0.243047 0.591002 0.107463
O O4 0.213080 0.642833 0.302349
O O5 0.745383 0.500000 0.066277
O O6 0.753296 0.648685 0.119349
O O7 0.832717 0.875369 0.536949
O O8 0.994570 0.000000 0.804486
O O9 0.000000 0.908673 0.000000
O O10 0.164539 0.878060 0.027369
O O11 0.500000 0.152887 0.500000
O O12 0.282551 0.239459 0.286790
O O13 0.276012 0.222523 0.028849
O O14 0.705972 0.762206 0.445608
O O15 0.000000 0.747594 0.000000
O O16 0.267086 0.768175 0.763281
O O17 0.500000 0.844171 0.000000
O O18 0.000000 0.260366 0.500000
#
# Coordination Sequence:
#
# PCOD9154801 Si02
#       7
#     4   4   4   4   4   4   4
#     4   9  18  33  57  87 116 158 215 266 303 352
#     4   9  18  34  56  85 120 160 210 260 309 361
#     4  11  24  46  70  96 127 162 204 249 306 375
#     4  12  22  41  69  94 122 164 213 253 294 362
#     4  12  21  39  63  89 126 164 214 260 302 363
#     4  12  24  41  63  94 129 164 201 249 316 372
#     4  12  23  37  61  94 126 162 208 261 307 361
#
# _framework density 18.522755
#
# number of rings (size 3 to 8) (size 9 to 14) (size 15 to 20)
#    0.000    1.000    5.714    3.429    0.000    1.143 
#    0.000    2.143    0.000    2.571    0.000    0.000 
#    0.000    0.000    0.000    0.000    0.000    0.000 
#
# Total GULP energy -156414.757610 kJ/mol
# GULP energy per Si atom -5586.241343 kJ/mol
# Density = 1.848060 g / cm^3
# Si number density = 18.522755 Si / 1000 Ang^3
#
#
#
# Elastic Constant Matrix: (Units=GPa)
#
#
# Indices 1 2 3 4 5 6 
#
# 1 -40.8864 17.4494 34.0844 0.0000 -28.5428 0.0000
# 2 17.4494 155.2457 54.6369 0.0000 -7.3720 0.0000
# 3 34.0844 54.6369 123.1758 0.0000 8.5576 0.0000
# 4 0.0000 0.0000 0.0000 5.0639 0.0000 0.9801
# 5 -28.5428 -7.3720 8.5576 0.0000 36.3504 0.0000
# 6 0.0000 0.0000 0.0000 0.9801 0.0000 2.8789
#
#
#
# Elastic Compliance Matrix: (Units=1/GPa)
#
#
# Indices 1 2 3 4 5 6 
#
# 1 -0.012910 -0.000741 0.004693 0.000000 -0.011392 0.000000
# 2 -0.000741 0.007799 -0.003379 0.000000 0.001795 0.000000
# 3 0.004693 -0.003379 0.008245 0.000000 0.001058 0.000000
# 4 0.000000 0.000000 0.000000 0.211408 0.000000 -0.071974
# 5 -0.011392 0.001795 0.001058 0.000000 0.018680 0.000000
# 6 0.000000 0.000000 0.000000 -0.071974 0.000000 0.371863
#
#
# Mechanical properties :
#
#
# Convention : Reuss Voigt Hill
#
# Bulk Modulus (GPa) = 233.69586 49.98628 141.84107
# Shear Modulus (GPa) = 8.25946 17.61626 12.93786
#
# Velocity S-wave (km/s) = 2.11395 3.08727 2.64575
# Velocity P-wave (km/s) = 11.50648 6.30503 9.27773
#
# Compressibility (1/GPa) = 0.00427907
#
# Stress axis : x y z
#
# Youngs Moduli (GPa) = -77.46087 128.21865 121.28186
#
# Poissons Ratio (x) = 0.09507 -0.56913
# Poissons Ratio (y) = -0.05743 0.40981
# Poissons Ratio (z) = 0.36350 0.43325
#
# Static dielectric constant tensor:
#      x y z
#    x 1.640330 0.000000 -0.000940 
#    y 0.000000 1.638380 0.000000 
#    z -0.000940 0.000000 1.647420 
# 
# From -- ./inp_files/30491.got.cif
#   From: 2010.05.17/outbox.cif.g08.bks.cpg/sg10_16_cif.got.tgz:30491.got - 2010.06.03 11:33:40.
