data_PCOD9154768
_publ_section_title
;
Structure prediction by ZEFSAII (Michael W. Deem and Ramdas Pophale) SiO2 
 PCOD9154768
Probable space group: P 2/M
;
_chemical_formula_sum "Si O2"
_cell_formula_units_Z 24
_cell_length_a 22.262786
_cell_length_b 7.653626
_cell_length_c 8.954278
_cell_angle_alpha 90.000000
_cell_angle_beta 127.107540
_cell_angle_gamma 90.000000
_cell_volume 1216.775583
_symmetry_space_group_name_H-M "P 2/M"
_symmetry_group_IT_number 10
_symmetry_cell_setting 'monoclinic'
loop_
_space_group_symop_operation_xyz
x,y,z
-x,y,-z
-x,-y,-z
x,-y,z
loop_
_atom_site_type_symbol
_atom_site_label
_atom_site_fract_x
_atom_site_fract_y
_atom_site_fract_z
Si Si1 0.680210 0.299541 0.845129
Si Si2 0.417871 0.000000 0.804191
Si Si3 0.319790 0.700460 0.804498
Si Si4 0.164362 0.212581 0.421436
Si Si5 0.000000 0.795635 0.181642
Si Si6 0.417871 0.000000 0.449421
Si Si7 0.164362 0.787419 0.071650
O O1 0.656518 0.500000 0.789034
O O2 0.628915 0.167676 0.675745
O O3 0.766070 0.279748 0.918797
O O4 0.675518 0.255596 0.013277
O O5 0.371085 0.832324 0.789000
O O6 0.423775 0.000000 0.635663
O O7 0.500000 0.000000 0.000000
O O8 0.343482 0.500000 0.819479
O O9 0.233930 0.720253 0.620588
O O10 0.081545 0.275880 0.349144
O O11 0.174185 0.260057 0.261277
O O12 0.164429 0.000000 0.427635
O O13 0.000000 0.000000 0.224957
O O14 0.000000 0.790609 0.000000
O O15 0.918455 0.724120 0.104508
O O16 0.500000 0.000000 0.500000
O O17 0.164430 0.000000 0.065652
#
# Coordination Sequence:
#
# PCOD9154768 Si02
#       7
#     4   2   4   4   4   2   4
#     4  11  24  41  62  91 128 166 202 245 298 359
#     4  12  26  46  72  97 122 155 194 244 301 360
#     4  11  24  41  62  91 128 166 202 245 298 359
#     4   9  16  30  55  85 117 159 207 256 304 353
#     4   7  12  24  46  79 116 153 202 255 302 351
#     4  12  26  46  72  97 122 155 194 244 301 360
#     4   9  16  30  55  85 117 159 207 256 304 353
#
# _framework density 19.724263000000001
#
# number of rings (size 3 to 8) (size 9 to 14) (size 15 to 20)
#    0.000    2.167    1.667    4.500    0.000    3.333 
#    0.000    1.667    0.000    8.000    0.000    0.000 
#    0.000    0.000    0.000    0.000    0.000    0.000 
#
# Total GULP energy -134010.484302 kJ/mol
# GULP energy per Si atom -5583.770179 kJ/mol
# Density = 1.967937 g / cm^3
# Si number density = 19.724263 Si / 1000 Ang^3
#
#
#
# Elastic Constant Matrix: (Units=GPa)
#
#
# Indices 1 2 3 4 5 6 
#
# 1 147.3688 54.8311 76.6307 0.0000 10.9315 0.0000
# 2 54.8311 73.0437 56.2746 0.0000 -4.0953 0.0000
# 3 76.6307 56.2746 139.8409 0.0000 10.4256 0.0000
# 4 0.0000 0.0000 0.0000 20.0200 0.0000 -34.9509
# 5 10.9315 -4.0953 10.4256 0.0000 34.8780 0.0000
# 6 0.0000 0.0000 0.0000 -34.9509 0.0000 7.7004
#
#
#
# Elastic Compliance Matrix: (Units=1/GPa)
#
#
# Indices 1 2 3 4 5 6 
#
# 1 0.010942 -0.005713 -0.003469 0.000000 -0.003064 0.000000
# 2 -0.005713 0.023652 -0.006881 0.000000 0.006625 0.000000
# 3 -0.003469 -0.006881 0.012069 0.000000 -0.003328 0.000000
# 4 0.000000 0.000000 0.000000 -0.007214 0.000000 -0.032744
# 5 -0.003064 0.006625 -0.003328 0.000000 0.031404 0.000000
# 6 0.000000 0.000000 0.000000 -0.032744 0.000000 -0.018756
#
#
# Mechanical properties :
#
#
# Convention : Reuss Voigt Hill
#
# Bulk Modulus (GPa) = 68.78954 81.74735 75.26845
# Shear Modulus (GPa) = 56.13563 24.02080 40.07822
#
# Velocity S-wave (km/s) = 5.34060 3.49353 4.51258
# Velocity P-wave (km/s) = 8.54287 7.60316 8.08668
#
# Compressibility (1/GPa) = 0.01453709
#
# Stress axis : x y z
#
# Youngs Moduli (GPa) = 91.38731 42.27956 82.85707
#
# Poissons Ratio (x) = 0.24156 0.28740
# Poissons Ratio (y) = 0.52214 0.57014
# Poissons Ratio (z) = 0.31699 0.29093
#
# Static dielectric constant tensor:
#      x y z
#    x 1.680090 0.000000 0.019120 
#    y 0.000000 1.723890 0.000000 
#    z 0.019120 0.000000 1.673350 
# 
# From -- ./inp_files/34025.got.cif
#   From: 2010.05.17/outbox.cif.g08.bks.cpg/sg10_18_cif.got.tgz:34025.got - 2010.06.03 11:33:40.
