data_PCOD9154143
_publ_section_title
;
Structure prediction by ZEFSAII (Michael W. Deem and Ramdas Pophale) SiO2 
 PCOD9154143
Probable space group: P 2/M
;
_chemical_formula_sum "Si O2"
_cell_formula_units_Z 24
_cell_length_a 12.024987
_cell_length_b 17.896614
_cell_length_c 13.033611
_cell_angle_alpha 90.000000
_cell_angle_beta 23.515302
_cell_angle_gamma 90.000000
_cell_volume 1119.145566
_symmetry_space_group_name_H-M "P 2/M"
_symmetry_group_IT_number 10
_symmetry_cell_setting 'monoclinic'
loop_
_space_group_symop_operation_xyz
x,y,z
-x,y,-z
-x,-y,-z
x,-y,z
loop_
_atom_site_type_symbol
_atom_site_label
_atom_site_fract_x
_atom_site_fract_y
_atom_site_fract_z
Si Si1 0.328528 0.758562 0.746768
Si Si2 0.158677 0.211613 0.114773
Si Si3 0.236887 0.644311 0.579019
Si Si4 0.708440 0.420388 0.689566
Si Si5 0.827167 0.500000 0.245979
Si Si6 0.500000 0.288124 0.000000
Si Si7 0.167242 0.911945 0.256631
O O1 0.500000 0.789648 0.500000
O O2 0.459603 0.675774 0.647598
O O3 0.337692 0.792121 0.856699
O O4 0.000000 0.759049 0.000000
O O5 0.075181 0.130390 0.229121
O O6 0.939220 0.278705 0.279441
O O7 0.296249 0.238341 0.105902
O O8 0.252696 0.600267 0.459809
O O9 0.109173 0.579669 0.755855
O O10 0.553878 0.500000 0.832169
O O11 0.588551 0.346331 0.838909
O O12 0.000000 0.427878 0.500000
O O13 0.500000 0.500000 0.500000
O O14 0.000000 0.500000 0.000000
O O15 0.000000 0.884661 0.500000
O O16 0.104722 0.000000 0.297919
O O17 0.500000 0.906700 0.000000
#
# Coordination Sequence:
#
# PCOD9154143 Si02
#       7
#     4   4   4   4   2   2   4
#     4  12  27  46  70 100 136 181 243 298 353 409
#     4  12  26  41  74 105 143 182 237 290 348 434
#     4  12  26  45  67  96 132 185 242 295 361 415
#     4  11  23  40  56  88 132 177 221 283 349 429
#     4  12  32  48  69  90 133 184 250 316 354 403
#     4  12  23  38  65  98 132 178 228 282 355 417
#     4  10  24  45  73 112 155 190 224 279 355 431
#
# _framework density 21.444932000000001
#
# number of rings (size 3 to 8) (size 9 to 14) (size 15 to 20)
#    0.000    0.500    6.667    0.750    9.333    0.000 
#    1.500    0.000    0.000    1.000    0.000    0.000 
#    0.000    0.000    0.000    0.000    0.000    0.000 
#
# Total GULP energy -133688.147383 kJ/mol
# GULP energy per Si atom -5570.339474 kJ/mol
# Density = 2.139612 g / cm^3
# Si number density = 21.444932 Si / 1000 Ang^3
#
#
#
# Elastic Constant Matrix: (Units=GPa)
#
#
# Indices 1 2 3 4 5 6 
#
# 1 80.9170 32.3148 47.0639 0.0000 34.8639 0.0000
# 2 32.3148 107.6688 33.6007 0.0000 20.0165 0.0000
# 3 47.0639 33.6007 126.6092 0.0000 34.0928 0.0000
# 4 0.0000 0.0000 0.0000 20.8888 0.0000 0.5296
# 5 34.8639 20.0165 34.0928 0.0000 48.2132 0.0000
# 6 0.0000 0.0000 0.0000 0.5296 0.0000 21.7164
#
#
#
# Elastic Compliance Matrix: (Units=1/GPa)
#
#
# Indices 1 2 3 4 5 6 
#
# 1 0.020460 -0.002906 -0.003922 0.000000 -0.010815 0.000000
# 2 -0.002906 0.010865 -0.001426 0.000000 -0.001401 0.000000
# 3 -0.003922 -0.001426 0.010884 0.000000 -0.004268 0.000000
# 4 0.000000 0.000000 0.000000 0.047902 0.000000 -0.001168
# 5 -0.010815 -0.001401 -0.004268 0.000000 0.032162 0.000000
# 6 0.000000 0.000000 0.000000 -0.001168 0.000000 0.046077
#
#
# Mechanical properties :
#
#
# Convention : Reuss Voigt Hill
#
# Bulk Modulus (GPa) = 38.90873 60.12821 49.51847
# Shear Modulus (GPa) = 25.84982 31.64473 28.74727
#
# Velocity S-wave (km/s) = 3.47566 3.84556 3.66528
# Velocity P-wave (km/s) = 5.85576 6.91499 6.40730
#
# Compressibility (1/GPa) = 0.02570117
#
# Stress axis : x y z
#
# Youngs Moduli (GPa) = 48.87616 92.03484 91.87791
#
# Poissons Ratio (x) = 0.26746 0.36034
# Poissons Ratio (y) = 0.14204 0.13102
# Poissons Ratio (z) = 0.19169 0.13124
#
# Static dielectric constant tensor:
#      x y z
#    x 1.718300 0.000000 -0.126970 
#    y 0.000000 2.905190 0.000000 
#    z -0.126970 0.000000 1.729050 
# 
# From -- ./inp_files/47877.got.cif
#   From: 2010.05.17/outbox.cif.g08.bks.cpg/sg10_24_cif.got.tgz:47877.got - 2010.06.03 11:33:40.
