data_PCOD9154799
_publ_section_title
;
Structure prediction by ZEFSAII (Michael W. Deem and Ramdas Pophale) SiO2 
 PCOD9154799
Probable space group: P 2/M
;
_chemical_formula_sum "Si O2"
_cell_formula_units_Z 18
_cell_length_a 7.993111
_cell_length_b 13.574522
_cell_length_c 8.278027
_cell_angle_alpha 90.000000
_cell_angle_beta 95.771672
_cell_angle_gamma 90.000000
_cell_volume 893.634640
_symmetry_space_group_name_H-M "P 2/M"
_symmetry_group_IT_number 10
_symmetry_cell_setting 'monoclinic'
loop_
_space_group_symop_operation_xyz
x,y,z
-x,y,-z
-x,-y,-z
x,-y,z
loop_
_atom_site_type_symbol
_atom_site_label
_atom_site_fract_x
_atom_site_fract_y
_atom_site_fract_z
Si Si1 0.000000 0.328826 0.500000
Si Si2 0.639635 0.394187 0.374927
Si Si3 0.039867 0.000000 0.694807
Si Si4 0.533495 0.785640 0.815138
Si Si5 0.561690 0.000000 0.320341
Si Si6 0.925860 0.790405 0.814315
O O1 0.824544 0.385994 0.469667
O O2 0.998013 0.266397 0.665746
O O3 0.500000 0.397294 0.500000
O O4 0.630248 0.500000 0.283536
O O5 0.589718 0.295357 0.274735
O O6 0.241741 0.000000 0.708313
O O7 0.000000 0.000000 0.500000
O O8 0.964961 0.095580 0.776301
O O9 0.728463 0.765468 0.797823
O O10 0.503728 0.896869 0.754153
O O11 0.500000 0.782567 0.000000
O O12 0.500000 0.000000 0.500000
O O13 0.000000 0.767861 0.000000
#
# Coordination Sequence:
#
# PCOD9154799 Si02
#       6
#     2   4   2   4   2   4
#     4  12  23  45  72 100 138 177 230 286 353 404
#     4  11  24  45  72 101 136 182 231 284 346 411
#     4  12  23  40  61  97 135 184 228 279 340 411
#     4  12  25  45  68 101 140 180 230 285 345 410
#     4  12  25  40  67  98 136 180 231 276 342 415
#     4  12  25  42  66  99 138 182 230 284 344 412
#
# _framework density 20.14246
#
# number of rings (size 3 to 8) (size 9 to 14) (size 15 to 20)
#    0.000    0.222    3.333    7.667    0.000    0.444 
#    0.000    0.000    0.000    3.333    0.000    0.000 
#    0.000    0.000    0.000    0.000    0.000    0.000 
#
# Total GULP energy -100532.865217 kJ/mol
# GULP energy per Si atom -5585.159179 kJ/mol
# Density = 2.009662 g / cm^3
# Si number density = 20.142460 Si / 1000 Ang^3
#
#
#
# Elastic Constant Matrix: (Units=GPa)
#
#
# Indices 1 2 3 4 5 6 
#
# 1 151.7834 33.7086 31.5647 0.0000 6.8231 0.0000
# 2 33.7086 140.7171 58.3535 0.0000 11.7777 0.0000
# 3 31.5647 58.3535 121.8526 0.0000 -2.8454 0.0000
# 4 0.0000 0.0000 0.0000 -110.8403 0.0000 -22.7321
# 5 6.8231 11.7777 -2.8454 0.0000 39.5444 0.0000
# 6 0.0000 0.0000 0.0000 -22.7321 0.0000 95.2117
#
#
#
# Elastic Compliance Matrix: (Units=1/GPa)
#
#
# Indices 1 2 3 4 5 6 
#
# 1 0.007154 -0.001061 -0.001369 0.000000 -0.001017 0.000000
# 2 -0.001061 0.009383 -0.004287 0.000000 -0.002920 0.000000
# 3 -0.001369 -0.004287 0.010667 0.000000 0.002280 0.000000
# 4 0.000000 0.000000 0.000000 -0.008601 0.000000 -0.002053
# 5 -0.001017 -0.002920 0.002280 0.000000 0.026497 0.000000
# 6 0.000000 0.000000 0.000000 -0.002053 0.000000 0.010013
#
#
# Mechanical properties :
#
#
# Convention : Reuss Voigt Hill
#
# Bulk Modulus (GPa) = 72.61492 73.51185 73.06338
# Shear Modulus (GPa) = 68.36531 24.16491 46.26511
#
# Velocity S-wave (km/s) = 5.83220 3.46743 4.79779
# Velocity P-wave (km/s) = 9.02672 7.25299 8.18803
#
# Compressibility (1/GPa) = 0.01377128
#
# Stress axis : x y z
#
# Youngs Moduli (GPa) = 139.77488 106.58058 93.74500
#
# Poissons Ratio (x) = 0.11309 0.12833
# Poissons Ratio (y) = 0.14831 0.40184
# Poissons Ratio (z) = 0.19134 0.45686
#
# Static dielectric constant tensor:
#      x y z
#    x 1.631010 0.000000 -0.006570 
#    y 0.000000 1.580320 0.000000 
#    z -0.006570 0.000000 1.677860 
# 
# From -- ./inp_files/17436.got.cif
#   From: 2010.05.17/outbox.cif.g08.bks.cpg/sg10_9_cif.got.tgz:17436.got - 2010.06.03 11:33:40.
