data_PCOD9154629
_publ_section_title
;
Structure prediction by ZEFSAII (Michael W. Deem and Ramdas Pophale) SiO2 
 PCOD9154629
Probable space group: P 2/M
;
_chemical_formula_sum "Si O2"
_cell_formula_units_Z 24
_cell_length_a 12.899572
_cell_length_b 8.151590
_cell_length_c 17.597943
_cell_angle_alpha 90.000000
_cell_angle_beta 32.438830
_cell_angle_gamma 90.000000
_cell_volume 992.584296
_symmetry_space_group_name_H-M "P 2/M"
_symmetry_group_IT_number 10
_symmetry_cell_setting 'monoclinic'
loop_
_space_group_symop_operation_xyz
x,y,z
-x,y,-z
-x,-y,-z
x,-y,z
loop_
_atom_site_type_symbol
_atom_site_label
_atom_site_fract_x
_atom_site_fract_y
_atom_site_fract_z
Si Si1 0.714868 0.301971 0.729366
Si Si2 0.911836 0.690253 0.284957
Si Si3 0.628026 0.189788 0.350818
Si Si4 0.694663 0.186273 0.992595
Si Si5 0.214258 0.307377 0.897646
Si Si6 0.857024 0.300441 0.482050
O O1 0.703638 0.500000 0.737499
O O2 0.526446 0.232561 0.885591
O O3 0.921915 0.254042 0.635261
O O4 0.726247 0.248721 0.633536
O O5 0.862158 0.500000 0.302927
O O6 0.816346 0.754259 0.421856
O O7 0.839291 0.793572 0.258745
O O8 0.142621 0.704210 0.147966
O O9 0.500000 0.258190 0.500000
O O10 0.641348 0.280324 0.262525
O O11 0.579078 0.000000 0.369005
O O12 0.726211 0.212498 0.063652
O O13 0.731887 0.000000 0.948114
O O14 0.210628 0.500000 0.919986
O O15 0.000000 0.262353 0.000000
O O16 0.852306 0.500000 0.483167
#
# Coordination Sequence:
#
# PCOD9154629 Si02
#       6
#     4   4   4   4   4   4
#     4   9  18  39  65  90 117 152 197 246 296 354
#     4  11  22  39  61  89 118 156 205 249 291 345
#     4  11  25  42  60  89 126 160 192 237 299 358
#     4  12  25  39  58  88 123 160 196 242 303 359
#     4  11  23  41  65  89 114 155 205 248 287 344
#     4   8  18  37  64  91 117 150 196 250 298 342
#
# _framework density 24.179307000000001
#
# number of rings (size 3 to 8) (size 9 to 14) (size 15 to 20)
#    0.000    1.667    1.667    4.000    2.333    2.667 
#    0.000    7.500    0.000    0.000    0.000    0.000 
#    0.000    0.000    0.000    0.000    0.000    0.000 
#
# Total GULP energy -134274.570292 kJ/mol
# GULP energy per Si atom -5594.773762 kJ/mol
# Density = 2.412427 g / cm^3
# Si number density = 24.179307 Si / 1000 Ang^3
#
#
#
# Elastic Constant Matrix: (Units=GPa)
#
#
# Indices 1 2 3 4 5 6 
#
# 1 40.3937 1.9507 2.2048 0.0000 11.9761 0.0000
# 2 1.9507 49.4000 -6.5948 0.0000 -3.8245 0.0000
# 3 2.2048 -6.5948 99.3969 0.0000 1.9722 0.0000
# 4 0.0000 0.0000 0.0000 22.8541 0.0000 -5.9101
# 5 11.9761 -3.8245 1.9722 0.0000 45.8864 0.0000
# 6 0.0000 0.0000 0.0000 -5.9101 0.0000 24.9660
#
#
#
# Elastic Compliance Matrix: (Units=1/GPa)
#
#
# Indices 1 2 3 4 5 6 
#
# 1 0.026993 -0.001696 -0.000569 0.000000 -0.007162 0.000000
# 2 -0.001696 0.020655 0.001366 0.000000 0.002106 0.000000
# 3 -0.000569 0.001366 0.010167 0.000000 -0.000175 0.000000
# 4 0.000000 0.000000 0.000000 0.046609 0.000000 0.011034
# 5 -0.007162 0.002106 -0.000175 0.000000 0.023845 0.000000
# 6 0.000000 0.000000 0.000000 0.011034 0.000000 0.042666
#
#
# Mechanical properties :
#
#
# Convention : Reuss Voigt Hill
#
# Bulk Modulus (GPa) = 17.85174 20.47911 19.16542
# Shear Modulus (GPa) = 26.12235 31.51662 28.81949
#
# Velocity S-wave (km/s) = 3.29045 3.61426 3.45615
# Velocity P-wave (km/s) = 4.67281 5.08971 4.88571
#
# Compressibility (1/GPa) = 0.05601695
#
# Stress axis : x y z
#
# Youngs Moduli (GPa) = 37.04706 48.41368 98.35340
#
# Poissons Ratio (x) = 0.08213 0.05598
# Poissons Ratio (y) = 0.06284 -0.13438
# Poissons Ratio (z) = 0.02109 -0.06615
#
# Static dielectric constant tensor:
#      x y z
#    x 1.980380 0.000000 -0.045220 
#    y 0.000000 1.819780 0.000000 
#    z -0.045220 0.000000 1.968310 
# 
# From -- ./inp_files/66688.got.cif
#   From: 2010.05.17/outbox.cif.g08.bks.cpg/sg10_34_cif.got.tgz:66688.got - 2010.06.03 11:33:40.
