data_PCOD9154221
_publ_section_title
;
Structure prediction by ZEFSAII (Michael W. Deem and Ramdas Pophale) SiO2 
 PCOD9154221
Probable space group: P 2/M
;
_chemical_formula_sum "Si O2"
_cell_formula_units_Z 24
_cell_length_a 19.580618
_cell_length_b 12.073806
_cell_length_c 13.456035
_cell_angle_alpha 90.000000
_cell_angle_beta 158.286051
_cell_angle_gamma 90.000000
_cell_volume 1176.949064
_symmetry_space_group_name_H-M "P 2/M"
_symmetry_group_IT_number 10
_symmetry_cell_setting 'monoclinic'
loop_
_space_group_symop_operation_xyz
x,y,z
-x,y,-z
-x,-y,-z
x,-y,z
loop_
_atom_site_type_symbol
_atom_site_label
_atom_site_fract_x
_atom_site_fract_y
_atom_site_fract_z
Si Si1 0.230418 0.629343 0.420952
Si Si2 0.211319 0.371007 0.163226
Si Si3 0.781446 0.732268 0.021260
Si Si4 0.668083 0.500000 0.153343
Si Si5 0.106568 0.127911 0.537217
Si Si6 0.944812 0.500000 0.308775
Si Si7 0.582132 0.734828 0.950222
O O1 0.285506 0.500000 0.508933
O O2 0.363196 0.713041 0.659588
O O3 0.012642 0.637623 0.146113
O O4 0.260567 0.651745 0.343952
O O5 0.260626 0.500000 0.210054
O O6 0.288217 0.288477 0.184096
O O7 0.964758 0.807732 0.274310
O O8 0.843785 0.609799 0.139680
O O9 0.640287 0.768962 0.916673
O O10 0.660133 0.612290 0.079961
O O11 0.500000 0.500000 0.000000
O O12 0.854094 0.500000 0.468693
O O13 0.000000 0.134819 0.500000
O O14 0.127248 0.000000 0.537949
O O15 0.304392 0.185622 0.822940
O O16 0.000000 0.500000 0.500000
#
# Coordination Sequence:
#
# PCOD9154221 Si02
#       7
#     4   4   4   2   4   2   4
#     4   9  19  33  48  71 107 138 172 200 246 311
#     4   9  19  33  49  72 102 143 169 201 251 306
#     4  11  19  30  53  75 103 133 167 210 258 302
#     4  12  24  30  45  76 109 139 166 202 254 315
#     4   9  19  35  53  75 103 135 170 213 263 305
#     4  12  18  32  45  74 109 129 164 208 256 309
#     4  11  20  32  50  77 103 132 169 213 252 304
#
# _framework density 20.391707
#
# number of rings (size 3 to 8) (size 9 to 14) (size 15 to 20)
#    0.000    1.833    5.000    1.500    2.333    0.667 
#    0.000    1.667    0.000    5.500    0.000    7.000 
#    0.000    0.000    0.000    0.000    0.000    0.000 
#
# Total GULP energy -133953.817737 kJ/mol
# GULP energy per Si atom -5581.409072 kJ/mol
# Density = 2.034529 g / cm^3
# Si number density = 20.391707 Si / 1000 Ang^3
#
#
#
# Elastic Constant Matrix: (Units=GPa)
#
#
# Indices 1 2 3 4 5 6 
#
# 1 80.2426 5.1202 -2.5332 0.0000 -13.1704 0.0000
# 2 5.1202 89.9604 26.5531 0.0000 -11.0610 0.0000
# 3 -2.5332 26.5531 88.2462 0.0000 1.6127 0.0000
# 4 0.0000 0.0000 0.0000 13.6806 0.0000 -6.0149
# 5 -13.1704 -11.0610 1.6127 0.0000 23.8411 0.0000
# 6 0.0000 0.0000 0.0000 -6.0149 0.0000 21.0745
#
#
#
# Elastic Compliance Matrix: (Units=1/GPa)
#
#
# Indices 1 2 3 4 5 6 
#
# 1 0.013711 0.000086 0.000229 0.000000 0.007599 0.000000
# 2 0.000086 0.013094 -0.004054 0.000000 0.006397 0.000000
# 3 0.000229 -0.004054 0.012606 0.000000 -0.002607 0.000000
# 4 0.000000 0.000000 0.000000 0.083585 0.000000 0.023856
# 5 0.007599 0.006397 -0.002607 0.000000 0.049286 0.000000
# 6 0.000000 0.000000 0.000000 0.023856 0.000000 0.054260
#
#
# Mechanical properties :
#
#
# Convention : Reuss Voigt Hill
#
# Bulk Modulus (GPa) = 31.31561 35.19217 33.25389
# Shear Modulus (GPa) = 20.43601 27.00651 23.72126
#
# Velocity S-wave (km/s) = 3.16915 3.64316 3.41439
# Velocity P-wave (km/s) = 5.36486 5.91544 5.64686
#
# Compressibility (1/GPa) = 0.03193296
#
# Stress axis : x y z
#
# Youngs Moduli (GPa) = 72.93336 76.36863 79.32646
#
# Poissons Ratio (x) = -0.00660 -0.01814
# Poissons Ratio (y) = -0.00630 0.32163
# Poissons Ratio (z) = -0.01668 0.30964
#
# Static dielectric constant tensor:
#      x y z
#    x 1.849060 0.000000 0.039500 
#    y 0.000000 1.670310 0.000000 
#    z 0.039500 0.000000 1.787010 
# 
# From -- ./inp_files/24111.got.cif
#   From: 2010.05.17/outbox.cif.g08.bks.cpg/sg10_13_cif.got.tgz:24111.got - 2010.06.03 11:33:40.
