data_PCOD9154675
_publ_section_title
;
Structure prediction by ZEFSAII (Michael W. Deem and Ramdas Pophale) SiO2 
 PCOD9154675
Probable space group: P 2/M
;
_chemical_formula_sum "Si O2"
_cell_formula_units_Z 32
_cell_length_a 15.202995
_cell_length_b 9.060760
_cell_length_c 14.430052
_cell_angle_alpha 90.000000
_cell_angle_beta 80.502464
_cell_angle_gamma 90.000000
_cell_volume 1960.502922
_symmetry_space_group_name_H-M "P 2/M"
_symmetry_group_IT_number 10
_symmetry_cell_setting 'monoclinic'
loop_
_space_group_symop_operation_xyz
x,y,z
-x,y,-z
-x,-y,-z
x,-y,z
loop_
_atom_site_type_symbol
_atom_site_label
_atom_site_fract_x
_atom_site_fract_y
_atom_site_fract_z
Si Si1 0.146768 0.824936 0.726824
Si Si2 0.357318 0.672047 0.975260
Si Si3 0.013908 0.823214 0.104730
Si Si4 0.687313 0.323382 0.216228
Si Si5 0.862319 0.323763 0.770772
Si Si6 0.501390 0.327282 0.799828
Si Si7 0.325063 0.174697 0.174081
Si Si8 0.001258 0.177248 0.608406
O O1 0.075594 0.791534 0.820852
O O2 0.239338 0.746816 0.731904
O O3 0.095125 0.784622 0.641446
O O4 0.161498 0.000000 0.724186
O O5 0.342464 0.500000 0.003654
O O6 0.296285 0.711435 0.896162
O O7 0.454832 0.681129 0.910006
O O8 0.342349 0.774333 0.065012
O O9 0.093230 0.737409 0.142053
O O10 0.030668 0.000000 0.108639
O O11 0.000000 0.785148 0.000000
O O12 0.690119 0.500000 0.222329
O O13 0.583182 0.280886 0.248801
O O14 0.860682 0.500000 0.771581
O O15 0.764106 0.256974 0.778723
O O16 0.925107 0.261865 0.678092
O O17 0.522062 0.500000 0.780096
O O18 0.588883 0.230137 0.783968
O O19 0.314597 0.000000 0.181621
O O20 0.000000 0.209275 0.500000
O O21 0.988449 0.000000 0.623630
#
# Coordination Sequence:
#
# PCOD9154675 Si02
#       8
#     4   4   4   4   4   4   4   4
#     4   9  17  29  48  75 101 126 159 202 246 291
#     4   8  17  31  44  61  92 134 175 211 248 285
#     4   9  19  34  48  67  98 134 170 207 247 291
#     4   8  17  30  45  65  95 131 166 202 241 288
#     4  11  23  36  51  74 102 132 169 209 252 306
#     4   8  17  32  46  63  93 135 176 212 250 289
#     4  12  22  30  45  68  97 133 174 217 255 291
#     4   9  19  39  62  80 101 128 159 203 259 311
#
# _framework density 16.322341999999999
#
# number of rings (size 3 to 8) (size 9 to 14) (size 15 to 20)
#    0.750    2.000    0.000    3.375    1.750    5.500 
#    0.000    0.000    0.000    0.000    0.000    0.875 
#    0.000    7.000    0.000    0.000    0.000    0.000 
#
# Total GULP energy -178181.403303 kJ/mol
# GULP energy per Si atom -5568.168853 kJ/mol
# Density = 1.628519 g / cm^3
# Si number density = 16.322342 Si / 1000 Ang^3
#
#
#
# Elastic Constant Matrix: (Units=GPa)
#
#
# Indices 1 2 3 4 5 6 
#
# 1 145.9437 61.8890 49.6953 0.0000 19.8865 0.0000
# 2 61.8890 69.7241 36.3390 0.0000 6.5724 0.0000
# 3 49.6953 36.3390 68.8276 0.0000 18.8593 0.0000
# 4 0.0000 0.0000 0.0000 16.1652 0.0000 2.9043
# 5 19.8865 6.5724 18.8593 0.0000 16.3128 0.0000
# 6 0.0000 0.0000 0.0000 2.9043 0.0000 32.0398
#
#
#
# Elastic Compliance Matrix: (Units=1/GPa)
#
#
# Indices 1 2 3 4 5 6 
#
# 1 0.012813 -0.009719 -0.001336 0.000000 -0.010159 0.000000
# 2 -0.009719 0.027570 -0.011331 0.000000 0.013840 0.000000
# 3 -0.001336 -0.011331 0.028950 0.000000 -0.027275 0.000000
# 4 0.000000 0.000000 0.000000 0.062885 0.000000 -0.005700
# 5 -0.010159 0.013840 -0.027275 0.000000 0.099643 0.000000
# 6 0.000000 0.000000 0.000000 -0.005700 0.000000 0.031728
#
#
# Mechanical properties :
#
#
# Convention : Reuss Voigt Hill
#
# Bulk Modulus (GPa) = 40.71636 64.48244 52.59940
# Shear Modulus (GPa) = 15.79541 22.00836 18.90189
#
# Velocity S-wave (km/s) = 3.11419 3.67598 3.40669
# Velocity P-wave (km/s) = 6.15875 7.59003 6.91154
#
# Compressibility (1/GPa) = 0.02456015
#
# Stress axis : x y z
#
# Youngs Moduli (GPa) = 78.04814 36.27129 34.54255
#
# Poissons Ratio (x) = 0.35252 0.04615
# Poissons Ratio (y) = 0.75854 0.39141
# Poissons Ratio (z) = 0.10427 0.41100
#
# Static dielectric constant tensor:
#      x y z
#    x 1.573980 0.000000 0.015020 
#    y 0.000000 1.538370 0.000000 
#    z 0.015020 0.000000 1.534170 
# 
# From -- ./inp_files/66043.got.cif
#   From: 2010.05.17/outbox.cif.g08.bks.cpg/sg10_34_cif.got.tgz:66043.got - 2010.06.03 11:33:40.
