data_PCOD9154118
_publ_section_title
;
Structure prediction by ZEFSAII (Michael W. Deem and Ramdas Pophale) SiO2 
 PCOD9154118
Probable space group: P 2/M
;
_chemical_formula_sum "Si O2"
_cell_formula_units_Z 13
_cell_length_a 5.746697
_cell_length_b 18.711275
_cell_length_c 5.087225
_cell_angle_alpha 90.000000
_cell_angle_beta 85.349089
_cell_angle_gamma 90.000000
_cell_volume 545.218059
_symmetry_space_group_name_H-M "P 2/M"
_symmetry_group_IT_number 10
_symmetry_cell_setting 'monoclinic'
loop_
_space_group_symop_operation_xyz
x,y,z
-x,y,-z
-x,-y,-z
x,-y,z
loop_
_atom_site_type_symbol
_atom_site_label
_atom_site_fract_x
_atom_site_fract_y
_atom_site_fract_z
Si Si1 0.662055 0.779466 0.729540
Si Si2 0.335694 0.385386 0.270514
Si Si3 0.333588 0.000000 0.766242
Si Si4 0.000000 0.500000 0.500000
Si Si5 0.000000 0.879697 0.000000
O O1 0.500000 0.801843 0.500000
O O2 0.736503 0.697222 0.682070
O O3 0.500000 0.778637 0.000000
O O4 0.868790 0.830838 0.799074
O O5 0.500000 0.407226 0.500000
O O6 0.118247 0.437516 0.301909
O O7 0.500000 0.391344 0.000000
O O8 0.500000 0.000000 0.500000
O O9 0.500000 0.000000 0.000000
O O10 0.171521 0.930965 0.819613
#
# Coordination Sequence:
#
# PCOD9154118 Si02
#       5
#     4   4   2   1   2
#     4  10  24  45  71 107 145 182 238 303 354 415
#     4  10  24  44  65  99 142 181 234 299 352 410
#     4  11  28  51  73 108 149 185 232 291 353 428
#     4  12  24  42  72  96 136 196 240 278 354 432
#     4  11  26  48  82 107 140 194 238 285 362 430
#
# _framework density 23.843672999999999
#
# number of rings (size 3 to 8) (size 9 to 14) (size 15 to 20)
#    0.000    1.538    0.000    1.846    0.000   20.923 
#    0.000    5.385    0.000    0.000    0.000    0.000 
#    0.000    0.000    0.000    0.000    0.000    0.000 
#
# Total GULP energy -72605.502251 kJ/mol
# GULP energy per Si atom -5585.038635 kJ/mol
# Density = 2.378940 g / cm^3
# Si number density = 23.843673 Si / 1000 Ang^3
#
#
#
# Elastic Constant Matrix: (Units=GPa)
#
#
# Indices 1 2 3 4 5 6 
#
# 1 115.4851 99.4154 70.8236 0.0000 -0.3962 0.0000
# 2 99.4154 178.4587 46.7087 0.0000 6.9006 0.0000
# 3 70.8236 46.7087 182.2032 0.0000 4.8238 0.0000
# 4 0.0000 0.0000 0.0000 50.3660 0.0000 -11.1414
# 5 -0.3962 6.9006 4.8238 0.0000 51.4459 0.0000
# 6 0.0000 0.0000 0.0000 -11.1414 0.0000 -26.3993
#
#
#
# Elastic Compliance Matrix: (Units=1/GPa)
#
#
# Indices 1 2 3 4 5 6 
#
# 1 0.020922 -0.010282 -0.005551 0.000000 0.002061 0.000000
# 2 -0.010282 0.011082 0.001200 0.000000 -0.001678 0.000000
# 3 -0.005551 0.001200 0.007362 0.000000 -0.000894 0.000000
# 4 0.000000 0.000000 0.000000 0.018159 0.000000 -0.007664
# 5 0.002061 -0.001678 -0.000894 0.000000 0.019763 0.000000
# 6 0.000000 0.000000 0.000000 -0.007664 0.000000 -0.034645
#
#
# Mechanical properties :
#
#
# Convention : Reuss Voigt Hill
#
# Bulk Modulus (GPa) = 99.00790 101.11582 100.06186
# Shear Modulus (GPa) = 66.42331 32.36247 49.39289
#
# Velocity S-wave (km/s) = 5.28378 3.68812 4.55634
# Velocity P-wave (km/s) = 8.87909 7.78692 8.35088
#
# Compressibility (1/GPa) = 0.01010020
#
# Stress axis : x y z
#
# Youngs Moduli (GPa) = 47.79753 90.23596 135.82946
#
# Poissons Ratio (x) = 0.92778 0.75401
# Poissons Ratio (y) = 0.49144 -0.16300
# Poissons Ratio (z) = 0.26533 -0.10829
#
# Static dielectric constant tensor:
#      x y z
#    x 1.778210 0.000000 -0.066460 
#    y 0.000000 1.941380 0.000000 
#    z -0.066460 0.000000 1.791900 
# 
# From -- ./inp_files/761.got.cif
#   From: 2010.05.17/outbox.cif.g08.bks.cpg/sg10_1_cif.got.tgz:761.got - 2010.06.03 11:33:40.
