data_PCOD9154324
_publ_section_title
;
Structure prediction by ZEFSAII (Michael W. Deem and Ramdas Pophale) SiO2 
 PCOD9154324
Probable space group: P 2/M
;
_chemical_formula_sum "Si O2"
_cell_formula_units_Z 20
_cell_length_a 21.089592
_cell_length_b 7.842773
_cell_length_c 10.042642
_cell_angle_alpha 90.000000
_cell_angle_beta 142.274998
_cell_angle_gamma 90.000000
_cell_volume 1016.357646
_symmetry_space_group_name_H-M "P 2/M"
_symmetry_group_IT_number 10
_symmetry_cell_setting 'monoclinic'
loop_
_space_group_symop_operation_xyz
x,y,z
-x,y,-z
-x,-y,-z
x,-y,z
loop_
_atom_site_type_symbol
_atom_site_label
_atom_site_fract_x
_atom_site_fract_y
_atom_site_fract_z
Si Si1 0.276843 0.697351 0.428482
Si Si2 0.105759 0.800680 0.940216
Si Si3 0.118188 0.695258 0.385019
Si Si4 0.354567 0.000000 0.143707
Si Si5 0.585535 0.000000 0.445116
Si Si6 0.839616 0.806288 0.254533
O O1 0.310285 0.500000 0.501232
O O2 0.211829 0.759516 0.449384
O O3 0.366364 0.831159 0.542070
O O4 0.192015 0.706723 0.169233
O O5 0.105097 0.738070 0.786006
O O6 0.992195 0.785150 0.813441
O O7 0.135368 0.000000 0.983610
O O8 0.101956 0.500000 0.317800
O O9 0.147897 0.706804 0.589195
O O10 0.461304 0.000000 0.241179
O O11 0.379880 0.000000 0.342079
O O12 0.280333 0.840403 0.984101
O O13 0.880337 0.000000 0.349364
#
# Coordination Sequence:
#
# PCOD9154324 Si02
#       6
#     4   4   4   2   2   4
#     4  11  23  39  58  90 121 153 201 238 286 352
#     4  11  20  36  59  86 116 161 203 233 284 347
#     4  11  24  35  52  86 127 159 191 237 283 348
#     4   9  20  41  66  90 109 142 205 245 296 358
#     4  11  20  43  68  86 115 150 189 255 308 332
#     4   9  19  38  56  86 111 151 198 236 286 348
#
# _framework density 19.678111999999999
#
# number of rings (size 3 to 8) (size 9 to 14) (size 15 to 20)
#    0.600    1.000    3.000    2.400    2.800    6.400 
#    0.000    5.000    0.000    2.400    0.000    0.000 
#    0.000    0.000    0.000    0.000    0.000    0.000 
#
# Total GULP energy -111629.480944 kJ/mol
# GULP energy per Si atom -5581.474047 kJ/mol
# Density = 1.963332 g / cm^3
# Si number density = 19.678112 Si / 1000 Ang^3
#
#
#
# Elastic Constant Matrix: (Units=GPa)
#
#
# Indices 1 2 3 4 5 6 
#
# 1 152.7354 38.5190 23.6010 0.0000 14.8571 0.0000
# 2 38.5190 59.3091 2.5763 0.0000 12.4913 0.0000
# 3 23.6010 2.5763 31.6472 0.0000 9.5614 0.0000
# 4 0.0000 0.0000 0.0000 14.8334 0.0000 1.0136
# 5 14.8571 12.4913 9.5614 0.0000 40.9328 0.0000
# 6 0.0000 0.0000 0.0000 1.0136 0.0000 39.6299
#
#
#
# Elastic Compliance Matrix: (Units=1/GPa)
#
#
# Indices 1 2 3 4 5 6 
#
# 1 0.008892 -0.005483 -0.006149 0.000000 -0.000118 0.000000
# 2 -0.005483 0.021401 0.004001 0.000000 -0.005475 0.000000
# 3 -0.006149 0.004001 0.038252 0.000000 -0.007924 0.000000
# 4 0.000000 0.000000 0.000000 0.067534 0.000000 -0.001727
# 5 -0.000118 -0.005475 -0.007924 0.000000 0.027995 0.000000
# 6 0.000000 0.000000 0.000000 -0.001727 0.000000 0.025278
#
#
# Mechanical properties :
#
#
# Convention : Reuss Voigt Hill
#
# Bulk Modulus (GPa) = 18.76763 41.45382 30.11072
# Shear Modulus (GPa) = 22.48459 31.01224 26.74842
#
# Velocity S-wave (km/s) = 3.38393 3.97416 3.69087
# Velocity P-wave (km/s) = 4.98257 6.49387 5.78776
#
# Compressibility (1/GPa) = 0.05328325
#
# Stress axis : x y z
#
# Youngs Moduli (GPa) = 112.46522 46.72647 26.14211
#
# Poissons Ratio (x) = 0.25619 0.16075
# Poissons Ratio (y) = 0.61663 -0.10459
# Poissons Ratio (z) = 0.69155 -0.18695
#
# Static dielectric constant tensor:
#      x y z
#    x 1.718830 0.000000 -0.017450 
#    y 0.000000 1.456810 0.000000 
#    z -0.017450 0.000000 1.685730 
# 
# From -- ./inp_files/31713.got.cif
#   From: 2010.05.17/outbox.cif.g08.bks.cpg/sg10_16_cif.got.tgz:31713.got - 2010.06.03 11:33:40.
