data_PCOD9154732
_publ_section_title
;
Structure prediction by ZEFSAII (Michael W. Deem and Ramdas Pophale) SiO2 
 PCOD9154732
Probable space group: P 2/M
;
_chemical_formula_sum "Si O2"
_cell_formula_units_Z 16
_cell_length_a 8.740590
_cell_length_b 13.906364
_cell_length_c 8.740592
_cell_angle_alpha 90.000000
_cell_angle_beta 127.588128
_cell_angle_gamma 90.000000
_cell_volume 841.876631
_symmetry_space_group_name_H-M "P 2/M"
_symmetry_group_IT_number 10
_symmetry_cell_setting 'monoclinic'
loop_
_space_group_symop_operation_xyz
x,y,z
-x,y,-z
-x,-y,-z
x,-y,z
loop_
_atom_site_type_symbol
_atom_site_label
_atom_site_fract_x
_atom_site_fract_y
_atom_site_fract_z
Si Si1 0.856083 0.246121 0.542809
Si Si2 0.457191 0.753880 0.143917
Si Si3 0.897208 0.611609 0.102792
Si Si4 0.790923 0.888612 0.790923
O O1 0.656993 0.277668 0.343007
O O2 0.808778 0.166936 0.641883
O O3 0.000000 0.207675 0.500000
O O4 0.967587 0.332614 0.694908
O O5 0.358117 0.833065 0.191222
O O6 0.500000 0.792325 0.000000
O O7 0.305092 0.667387 0.032413
O O8 0.872681 0.500000 0.127318
O O9 0.000000 0.618211 0.000000
O O10 0.739538 0.000000 0.739537
O O11 0.000000 0.882934 0.000000
#
# Coordination Sequence:
#
# PCOD9154732 Si02
#       4
#     4   4   4   4
#     4  12  23  42  67  93 132 171 211 263 319 375
#     4  12  23  42  67  93 132 171 211 263 319 375
#     4  11  24  44  66  95 130 167 217 264 317 377
#     4  11  23  43  69  95 129 168 213 264 320 382
#
# _framework density 19.005161000000001
#
# number of rings (size 3 to 8) (size 9 to 14) (size 15 to 20)
#    0.000    0.500    7.500    0.750    0.000    5.000 
#    0.000    2.500    0.000    0.000    0.000    0.000 
#    0.000    0.000    0.000    0.000    0.000    0.000 
#
# Total GULP energy -89480.351470 kJ/mol
# GULP energy per Si atom -5592.521967 kJ/mol
# Density = 1.896190 g / cm^3
# Si number density = 19.005161 Si / 1000 Ang^3
#
#
#
# Elastic Constant Matrix: (Units=GPa)
#
#
# Indices 1 2 3 4 5 6 
#
# 1 154.4130 76.9995 65.8397 0.0000 -12.2295 0.0000
# 2 76.9995 146.5392 70.2140 0.0000 -4.0432 0.0000
# 3 65.8397 70.2140 163.2312 0.0000 17.4841 0.0000
# 4 0.0000 0.0000 0.0000 -5.5270 0.0000 -1.1800
# 5 -12.2295 -4.0432 17.4841 0.0000 51.7305 0.0000
# 6 0.0000 0.0000 0.0000 -1.1800 0.0000 -3.5466
#
#
#
# Elastic Compliance Matrix: (Units=1/GPa)
#
#
# Indices 1 2 3 4 5 6 
#
# 1 0.009689 -0.003769 -0.002595 0.000000 0.002873 0.000000
# 2 -0.003769 0.010264 -0.002994 0.000000 0.000923 0.000000
# 3 -0.002595 -0.002994 0.008873 0.000000 -0.003846 0.000000
# 4 0.000000 0.000000 0.000000 -0.194767 0.000000 0.064803
# 5 0.002873 0.000923 -0.003846 0.000000 0.021382 0.000000
# 6 0.000000 0.000000 0.000000 0.064803 0.000000 -0.303522
#
#
# Mechanical properties :
#
#
# Convention : Reuss Voigt Hill
#
# Bulk Modulus (GPa) = 98.89816 98.92109 98.90962
# Shear Modulus (GPa) = -11.73724 25.27341 6.76808
#
# Velocity S-wave (km/s) = -2.48782 3.65062 1.88916
# Velocity P-wave (km/s) = 6.62557 8.36253 7.54421
#
# Compressibility (1/GPa) = 0.01011141
#
# Stress axis : x y z
#
# Youngs Moduli (GPa) = 103.20530 97.42350 112.70398
#
# Poissons Ratio (x) = 0.36716 0.29245
# Poissons Ratio (y) = 0.38895 0.33744
# Poissons Ratio (z) = 0.26780 0.29169
#
# Static dielectric constant tensor:
#      x y z
#    x 1.660980 0.000000 -0.000800 
#    y 0.000000 1.621480 0.000000 
#    z -0.000800 0.000000 1.659640 
# 
# From -- ./inp_files/18337.got.cif
#   From: 2010.05.17/outbox.cif.g08.bks.cpg/sg10_10_cif.got.tgz:18337.got - 2010.06.03 11:33:40.
