data_PCOD9154346
_publ_section_title
;
Structure prediction by ZEFSAII (Michael W. Deem and Ramdas Pophale) SiO2 
 PCOD9154346
Probable space group: P 2/M
;
_chemical_formula_sum "Si O2"
_cell_formula_units_Z 24
_cell_length_a 32.632247
_cell_length_b 7.758665
_cell_length_c 12.847227
_cell_angle_alpha 90.000000
_cell_angle_beta 24.725899
_cell_angle_gamma 90.000000
_cell_volume 1360.529888
_symmetry_space_group_name_H-M "P 2/M"
_symmetry_group_IT_number 10
_symmetry_cell_setting 'monoclinic'
loop_
_space_group_symop_operation_xyz
x,y,z
-x,y,-z
-x,-y,-z
x,-y,z
loop_
_atom_site_type_symbol
_atom_site_label
_atom_site_fract_x
_atom_site_fract_y
_atom_site_fract_z
Si Si1 0.376929 0.699450 0.503568
Si Si2 0.261430 0.198525 0.574608
Si Si3 0.712370 0.302704 0.854199
Si Si4 0.888718 0.500000 0.382683
Si Si5 0.588273 0.196754 0.948059
Si Si6 0.605168 0.709854 0.302963
Si Si7 0.116387 0.500000 0.856209
O O1 0.345805 0.500000 0.578043
O O2 0.306662 0.793740 0.585033
O O3 0.377831 0.771229 0.619019
O O4 0.488066 0.707898 0.204883
O O5 0.346934 0.260810 0.297844
O O6 0.172384 0.330420 0.767086
O O7 0.237256 0.000000 0.602925
O O8 0.670738 0.500000 0.942323
O O9 0.826816 0.336380 0.568625
O O10 0.658171 0.203203 0.887912
O O11 0.684868 0.240120 0.032298
O O12 0.878038 0.500000 0.282579
O O13 0.002047 0.500000 0.149085
O O14 0.560450 0.000000 0.988804
O O15 0.500000 0.764081 0.500000
O O16 0.603564 0.500000 0.313778
#
# Coordination Sequence:
#
# PCOD9154346 Si02
#       7
#     4   4   4   2   4   4   2
#     4  11  21  32  53  79 110 151 190 217 261 325
#     4  11  23  38  55  80 115 148 183 229 275 329
#     4   9  16  33  54  76 108 142 171 225 273 319
#     4   9  20  34  63  83 108 133 182 233 284 335
#     4  11  21  32  48  78 115 149 181 216 271 329
#     4   9  16  28  51  79 107 140 184 222 256 316
#     4  11  20  40  59  88 106 140 186 231 285 333
#
# _framework density 17.640186
#
# number of rings (size 3 to 8) (size 9 to 14) (size 15 to 20)
#    0.500    1.333    4.167    1.500    1.167    2.000 
#    0.000    5.000    0.000    2.000    0.000    1.167 
#    0.000    0.000    0.000    0.000    0.000    0.000 
#
# Total GULP energy -133815.948284 kJ/mol
# GULP energy per Si atom -5575.664512 kJ/mol
# Density = 1.760004 g / cm^3
# Si number density = 17.640186 Si / 1000 Ang^3
#
#
#
# Elastic Constant Matrix: (Units=GPa)
#
#
# Indices 1 2 3 4 5 6 
#
# 1 120.1014 17.5282 57.4045 0.0000 0.2215 0.0000
# 2 17.5282 47.6417 19.7659 0.0000 -5.4142 0.0000
# 3 57.4045 19.7659 114.3518 0.0000 -4.7678 0.0000
# 4 0.0000 0.0000 0.0000 -24.7796 0.0000 -8.5447
# 5 0.2215 -5.4142 -4.7678 0.0000 14.0312 0.0000
# 6 0.0000 0.0000 0.0000 -8.5447 0.0000 4.4112
#
#
#
# Elastic Compliance Matrix: (Units=1/GPa)
#
#
# Indices 1 2 3 4 5 6 
#
# 1 0.011222 -0.002227 -0.005368 0.000000 -0.002860 0.000000
# 2 -0.002227 0.023860 -0.002659 0.000000 0.008339 0.000000
# 3 -0.005368 -0.002659 0.012030 0.000000 0.003147 0.000000
# 4 0.000000 0.000000 0.000000 -0.024195 0.000000 -0.046867
# 5 -0.002860 0.008339 0.003147 0.000000 0.075601 0.000000
# 6 0.000000 0.000000 0.000000 -0.046867 0.000000 0.135913
#
#
# Mechanical properties :
#
#
# Convention : Reuss Voigt Hill
#
# Bulk Modulus (GPa) = 37.58587 52.38801 44.98694
# Shear Modulus (GPa) = 18.95317 11.22564 15.08941
#
# Velocity S-wave (km/s) = 3.28141 2.52537 2.92789
# Velocity P-wave (km/s) = 5.97579 6.18594 6.08177
#
# Compressibility (1/GPa) = 0.02660574
#
# Stress axis : x y z
#
# Youngs Moduli (GPa) = 89.10863 41.91110 83.12277
#
# Poissons Ratio (x) = 0.09333 0.44620
# Poissons Ratio (y) = 0.19843 0.22100
# Poissons Ratio (z) = 0.47833 0.11143
#
# Static dielectric constant tensor:
#      x y z
#    x 1.602050 0.000000 0.032300 
#    y 0.000000 1.631430 0.000000 
#    z 0.032300 0.000000 1.590790 
# 
# From -- ./inp_files/57236.got.cif
#   From: 2010.05.17/outbox.cif.g08.bks.cpg/sg10_29_cif.got.tgz:57236.got - 2010.06.03 11:33:40.
