data_PCOD9154652
_publ_section_title
;
Structure prediction by ZEFSAII (Michael W. Deem and Ramdas Pophale) SiO2 
 PCOD9154652
Probable space group: P 2/M
;
_chemical_formula_sum "Si O2"
_cell_formula_units_Z 26
_cell_length_a 9.555675
_cell_length_b 20.146100
_cell_length_c 9.514963
_cell_angle_alpha 90.000000
_cell_angle_beta 46.532595
_cell_angle_gamma 90.000000
_cell_volume 1329.400965
_symmetry_space_group_name_H-M "P 2/M"
_symmetry_group_IT_number 10
_symmetry_cell_setting 'monoclinic'
loop_
_space_group_symop_operation_xyz
x,y,z
-x,y,-z
-x,-y,-z
x,-y,z
loop_
_atom_site_type_symbol
_atom_site_label
_atom_site_fract_x
_atom_site_fract_y
_atom_site_fract_z
Si Si1 0.431275 0.924462 0.706146
Si Si2 0.334318 0.186576 0.293866
Si Si3 0.086182 0.342432 0.090604
Si Si4 0.000000 0.120242 0.000000
Si Si5 0.854291 0.575796 0.468571
Si Si6 0.047762 0.798394 0.252190
Si Si7 0.514851 0.664342 0.823695
O O1 0.500000 0.908985 0.500000
O O2 0.530046 0.871803 0.742431
O O3 0.490063 0.000000 0.699573
O O4 0.199867 0.919547 0.862888
O O5 0.233630 0.176374 0.211419
O O6 0.445084 0.256930 0.220018
O O7 0.147021 0.192861 0.523847
O O8 0.080329 0.279027 0.198149
O O9 0.967617 0.398915 0.252988
O O10 0.308578 0.357489 0.909070
O O11 0.000000 0.324630 0.000000
O O12 0.985157 0.164794 0.871077
O O13 0.788267 0.500000 0.497000
O O14 0.682333 0.624839 0.629553
O O15 0.000000 0.578053 0.500000
O O16 0.500000 0.649490 0.000000
#
# Coordination Sequence:
#
# PCOD9154652 Si02
#       7
#     4   4   4   2   4   4   4
#     4  11  25  45  66  97 137 176 216 270 336 397
#     4  11  23  42  68  97 132 172 221 281 325 393
#     4  12  25  42  64 101 136 173 219 280 336 387
#     4  12  23  42  68 100 129 174 222 274 327 396
#     4  11  24  44  69  99 137 176 222 274 327 394
#     4  11  22  40  68  99 131 169 222 279 335 380
#     4  12  23  40  72  98 129 174 227 273 329 393
#
# _framework density 19.557682
#
# number of rings (size 3 to 8) (size 9 to 14) (size 15 to 20)
#    0.000    0.615    6.923    1.154    0.000    1.846 
#    0.000    4.615    0.000    0.000    0.000    0.000 
#    0.000    0.000    0.000    0.000    0.000    0.000 
#
# Total GULP energy -145343.599069 kJ/mol
# GULP energy per Si atom -5590.138426 kJ/mol
# Density = 1.951317 g / cm^3
# Si number density = 19.557682 Si / 1000 Ang^3
#
#
#
# Elastic Constant Matrix: (Units=GPa)
#
#
# Indices 1 2 3 4 5 6 
#
# 1 118.5609 50.8356 47.1135 0.0000 -7.5665 0.0000
# 2 50.8356 107.5704 36.0399 0.0000 -1.8542 0.0000
# 3 47.1135 36.0399 100.0188 0.0000 -10.8162 0.0000
# 4 0.0000 0.0000 0.0000 103.8967 0.0000 34.3372
# 5 -7.5665 -1.8542 -10.8162 0.0000 37.4211 0.0000
# 6 0.0000 0.0000 0.0000 34.3372 0.0000 34.2651
#
#
#
# Elastic Compliance Matrix: (Units=1/GPa)
#
#
# Indices 1 2 3 4 5 6 
#
# 1 0.011910 -0.004286 -0.003952 0.000000 0.001054 0.000000
# 2 -0.004286 0.012128 -0.002457 0.000000 -0.000976 0.000000
# 3 -0.003952 -0.002457 0.013053 0.000000 0.002852 0.000000
# 4 0.000000 0.000000 0.000000 0.014391 0.000000 -0.014421
# 5 0.001054 -0.000976 0.002852 0.000000 0.027712 0.000000
# 6 0.000000 0.000000 0.000000 -0.014421 0.000000 0.043636
#
#
# Mechanical properties :
#
#
# Convention : Reuss Voigt Hill
#
# Bulk Modulus (GPa) = 63.68620 66.01423 64.85022
# Shear Modulus (GPa) = 33.45527 47.92732 40.69130
#
# Velocity S-wave (km/s) = 4.14042 4.95569 4.56628
# Velocity P-wave (km/s) = 7.44926 8.15917 7.81228
#
# Compressibility (1/GPa) = 0.01570199
#
# Stress axis : x y z
#
# Youngs Moduli (GPa) = 83.96411 82.45342 76.60966
#
# Poissons Ratio (x) = 0.35341 0.30274
# Poissons Ratio (y) = 0.35989 0.18820
# Poissons Ratio (z) = 0.33180 0.20256
#
# Static dielectric constant tensor:
#      x y z
#    x 0.954620 0.000000 0.016120 
#    y 0.000000 1.664470 0.000000 
#    z 0.016120 0.000000 1.686320 
# 
# From -- ./inp_files/20425.got.cif
#   From: 2010.05.17/outbox.cif.g08.bks.cpg/sg10_11_cif.got.tgz:20425.got - 2010.06.03 11:33:40.
