data_PCOD9154644
_publ_section_title
;
Structure prediction by ZEFSAII (Michael W. Deem and Ramdas Pophale) SiO2 
 PCOD9154644
Probable space group: P 2/M
;
_chemical_formula_sum "Si O2"
_cell_formula_units_Z 32
_cell_length_a 9.409739
_cell_length_b 22.504931
_cell_length_c 8.000022
_cell_angle_alpha 90.000000
_cell_angle_beta 133.636297
_cell_angle_gamma 90.000000
_cell_volume 1226.100091
_symmetry_space_group_name_H-M "P 2/M"
_symmetry_group_IT_number 10
_symmetry_cell_setting 'monoclinic'
loop_
_space_group_symop_operation_xyz
x,y,z
-x,y,-z
-x,-y,-z
x,-y,z
loop_
_atom_site_type_symbol
_atom_site_label
_atom_site_fract_x
_atom_site_fract_y
_atom_site_fract_z
Si Si1 0.728846 0.063924 0.972065
Si Si2 0.712419 0.183899 0.767977
Si Si3 0.276137 0.304591 0.078917
Si Si4 0.048609 0.438250 0.344377
Si Si5 0.401158 0.432227 0.102390
Si Si6 0.852230 0.801960 0.535130
Si Si7 0.829706 0.316295 0.619346
Si Si8 0.740912 0.065227 0.364661
O O1 0.766523 0.120915 0.891477
O O2 0.494838 0.062317 0.811486
O O3 0.786964 0.000000 0.946090
O O4 0.808961 0.068850 0.225981
O O5 0.500000 0.180395 0.500000
O O6 0.680863 0.233545 0.886789
O O7 0.871976 0.200865 0.754274
O O8 0.240851 0.311660 0.248788
O O9 0.417378 0.360396 0.156823
O O10 0.069345 0.310153 0.812135
O O11 0.137134 0.500000 0.359239
O O12 0.838009 0.433100 0.086738
O O13 0.000000 0.440351 0.500000
O O14 0.195389 0.384662 0.444661
O O15 0.448745 0.500000 0.212607
O O16 0.500000 0.435524 0.000000
O O17 0.748043 0.736667 0.438136
O O18 0.780512 0.869896 0.468545
O O19 0.000000 0.799547 0.500000
O O20 0.806022 0.000000 0.484097
#
# Coordination Sequence:
#
# PCOD9154644 Si02
#       8
#     4   4   4   4   4   4   4   4
#     4   9  19  38  64  88 114 149 193 249 294 343
#     4  11  22  40  59  87 117 149 201 244 286 352
#     4   9  20  37  55  81 113 150 187 240 285 342
#     4   9  17  32  55  81 109 143 190 236 277 337
#     4   9  18  36  58  84 115 151 192 241 297 348
#     4  11  23  37  57  85 118 158 188 239 291 349
#     4   9  19  37  56  78 114 151 191 231 287 342
#     4   9  19  38  61  88 118 148 193 243 294 349
#
# _framework density 26.09901
#
# number of rings (size 3 to 8) (size 9 to 14) (size 15 to 20)
#    0.000    2.500    1.250    1.125    1.750    1.500 
#   11.250    2.500    0.000    1.875    0.000    0.000 
#    0.000    0.000    0.000    0.000    0.000    0.000 
#
# Total GULP energy -178158.962699 kJ/mol
# GULP energy per Si atom -5567.467584 kJ/mol
# Density = 2.603961 g / cm^3
# Si number density = 26.099010 Si / 1000 Ang^3
#
#
#
# Elastic Constant Matrix: (Units=GPa)
#
#
# Indices 1 2 3 4 5 6 
#
# 1 79.0362 40.1080 18.4029 0.0000 4.4037 0.0000
# 2 40.1080 308.1514 29.5081 0.0000 -9.5070 0.0000
# 3 18.4029 29.5081 27.0701 0.0000 8.2105 0.0000
# 4 0.0000 0.0000 0.0000 -19.1646 0.0000 42.6327
# 5 4.4037 -9.5070 8.2105 0.0000 38.7658 0.0000
# 6 0.0000 0.0000 0.0000 42.6327 0.0000 -87.1794
#
#
#
# Elastic Compliance Matrix: (Units=1/GPa)
#
#
# Indices 1 2 3 4 5 6 
#
# 1 0.015368 -0.001121 -0.009204 0.000000 -0.000071 0.000000
# 2 -0.001121 0.003833 -0.003996 0.000000 0.001914 0.000000
# 3 -0.009204 -0.003996 0.050798 0.000000 -0.010693 0.000000
# 4 0.000000 0.000000 0.000000 0.593890 0.000000 0.290426
# 5 -0.000071 0.001914 -0.010693 0.000000 0.028538 0.000000
# 6 0.000000 0.000000 0.000000 0.290426 0.000000 0.130554
#
#
# Mechanical properties :
#
#
# Convention : Reuss Voigt Hill
#
# Bulk Modulus (GPa) = 24.18020 65.58841 44.88430
# Shear Modulus (GPa) = 5.77761 8.23360 7.00560
#
# Velocity S-wave (km/s) = 1.48947 1.77809 1.64014
# Velocity P-wave (km/s) = 3.49899 5.42224 4.56309
#
# Compressibility (1/GPa) = 0.04135616
#
# Stress axis : x y z
#
# Youngs Moduli (GPa) = 65.06835 260.90593 19.68582
#
# Poissons Ratio (x) = 0.29251 0.18119
# Poissons Ratio (y) = 0.07295 0.07867
# Poissons Ratio (z) = 0.59890 1.04265
#
# Static dielectric constant tensor:
#      x y z
#    x 2.036470 0.000000 0.091740 
#    y 0.000000 2.237940 0.000000 
#    z 0.091740 0.000000 2.092170 
# 
# From -- ./inp_files/25982.got.cif
#   From: 2010.05.17/outbox.cif.g08.bks.cpg/sg10_13_cif.got.tgz:25982.got - 2010.06.03 11:33:40.
