data_PCOD9154273
_publ_section_title
;
Structure prediction by ZEFSAII (Michael W. Deem and Ramdas Pophale) SiO2 
 PCOD9154273
Probable space group: P 2/M
;
_chemical_formula_sum "Si O2"
_cell_formula_units_Z 28
_cell_length_a 15.811474
_cell_length_b 14.774634
_cell_length_c 8.823780
_cell_angle_alpha 90.000000
_cell_angle_beta 56.078210
_cell_angle_gamma 90.000000
_cell_volume 1710.477041
_symmetry_space_group_name_H-M "P 2/M"
_symmetry_group_IT_number 10
_symmetry_cell_setting 'monoclinic'
loop_
_space_group_symop_operation_xyz
x,y,z
-x,y,-z
-x,-y,-z
x,-y,z
loop_
_atom_site_type_symbol
_atom_site_label
_atom_site_fract_x
_atom_site_fract_y
_atom_site_fract_z
Si Si1 0.617404 0.104746 0.200066
Si Si2 0.199589 0.783033 0.481871
Si Si3 1.000000 0.895753 0.315477
Si Si4 0.199589 0.216966 0.118950
Si Si5 0.119664 0.602644 0.062685
Si Si6 0.880336 0.602644 0.302014
Si Si7 0.617404 0.895254 0.565126
O O1 0.500000 0.124688 0.275609
O O2 0.624507 0.110607 0.375493
O O3 0.638591 0.000000 0.136447
O O4 0.698866 0.170396 0.044303
O O5 0.101422 0.842382 0.631321
O O6 0.200608 0.782761 0.299392
O O7 0.183452 0.681851 0.558467
O O8 0.301134 0.829604 0.442036
O O9 0.000000 0.896603 0.500000
O O10 0.101423 0.842383 0.165834
O O11 0.999999 0.000000 0.264281
O O12 0.183452 0.318148 0.074629
O O13 0.148754 0.500000 0.076909
O O14 0.000000 0.614792 0.222364
O O15 0.127025 0.609238 0.872975
O O16 0.851247 0.500000 0.374416
O O17 0.638591 0.000000 0.586371
#
# Coordination Sequence:
#
# PCOD9154273 Si02
#       7
#     4   4   4   4   4   4   4
#     4   9  19  36  55  74  99 134 176 217 253 295
#     4  11  20  31  50  76 106 137 167 207 256 304
#     4   9  18  30  42  65 104 140 163 191 240 299
#     4  11  20  31  50  76 106 137 167 207 256 304
#     4   9  18  33  52  73 100 135 173 211 250 299
#     4   9  18  33  52  73 100 135 173 211 250 299
#     4   9  19  36  55  74  99 134 176 217 253 295
#
# _framework density 16.369700999999999
#
# number of rings (size 3 to 8) (size 9 to 14) (size 15 to 20)
#    0.000    2.429    1.429    3.429    0.000    2.857 
#    0.000    2.857    0.000    4.286    0.000    6.000 
#    0.000    0.000    0.000    0.000    0.000    0.000 
#
# Total GULP energy -156199.629030 kJ/mol
# GULP energy per Si atom -5578.558180 kJ/mol
# Density = 1.633244 g / cm^3
# Si number density = 16.369701 Si / 1000 Ang^3
#
#
#
# Elastic Constant Matrix: (Units=GPa)
#
#
# Indices 1 2 3 4 5 6 
#
# 1 90.2811 81.3206 34.3071 0.0000 -20.1622 0.0000
# 2 81.3206 166.4217 69.2738 0.0000 -26.1823 0.0000
# 3 34.3071 69.2738 70.0882 0.0000 -23.7250 0.0000
# 4 0.0000 0.0000 0.0000 21.9417 0.0000 -1.6885
# 5 -20.1622 -26.1823 -23.7250 0.0000 15.6059 0.0000
# 6 0.0000 0.0000 0.0000 -1.6885 0.0000 22.7185
#
#
#
# Elastic Compliance Matrix: (Units=1/GPa)
#
#
# Indices 1 2 3 4 5 6 
#
# 1 0.022949 -0.010491 0.006622 0.000000 0.022115 0.000000
# 2 -0.010491 0.015109 -0.011961 0.000000 -0.006389 0.000000
# 3 0.006622 -0.011961 0.039044 0.000000 0.047846 0.000000
# 4 0.000000 0.000000 0.000000 0.045838 0.000000 0.003407
# 5 0.022115 -0.006389 0.047846 0.000000 0.154669 0.000000
# 6 0.000000 0.000000 0.000000 0.003407 0.000000 0.044270
#
#
# Mechanical properties :
#
#
# Convention : Reuss Voigt Hill
#
# Bulk Modulus (GPa) = 22.00599 77.39934 49.70267
# Shear Modulus (GPa) = 13.56174 21.51252 17.53713
#
# Velocity S-wave (km/s) = 2.88143 3.62908 3.27665
# Velocity P-wave (km/s) = 4.95404 8.05885 6.68908
#
# Compressibility (1/GPa) = 0.04544217
#
# Stress axis : x y z
#
# Youngs Moduli (GPa) = 43.57552 66.18738 25.61215
#
# Poissons Ratio (x) = 0.69436 -0.16960
# Poissons Ratio (y) = 0.45714 0.30634
# Poissons Ratio (z) = -0.28856 0.79165
#
# Static dielectric constant tensor:
#      x y z
#    x 1.535940 0.000000 0.009510 
#    y 0.000000 1.539350 0.000000 
#    z 0.009510 0.000000 1.540320 
# 
# From -- ./inp_files/29215.got.cif
#   From: 2010.05.17/outbox.cif.g08.bks.cpg/sg10_15_cif.got.tgz:29215.got - 2010.06.03 11:33:40.
