data_PCOD9154703
_publ_section_title
;
Structure prediction by ZEFSAII (Michael W. Deem and Ramdas Pophale) SiO2 
 PCOD9154703
Probable space group: P 2/M
;
_chemical_formula_sum "Si O2"
_cell_formula_units_Z 14
_cell_length_a 5.060524
_cell_length_b 16.272259
_cell_length_c 9.610383
_cell_angle_alpha 90.000000
_cell_angle_beta 120.071747
_cell_angle_gamma 90.000000
_cell_volume 684.857519
_symmetry_space_group_name_H-M "P 2/M"
_symmetry_group_IT_number 10
_symmetry_cell_setting 'monoclinic'
loop_
_space_group_symop_operation_xyz
x,y,z
-x,y,-z
-x,-y,-z
x,-y,z
loop_
_atom_site_type_symbol
_atom_site_label
_atom_site_fract_x
_atom_site_fract_y
_atom_site_fract_z
Si Si1 0.150735 0.863272 0.887627
Si Si2 0.139754 0.000000 0.383358
Si Si3 0.556951 0.595824 0.679340
Si Si4 0.792210 0.327013 0.170841
O O1 0.158343 0.770296 0.832486
O O2 0.500000 0.891353 0.000000
O O3 0.972914 0.921842 0.735289
O O4 0.000000 0.863466 0.000000
O O5 0.500000 0.000000 0.500000
O O6 0.000000 0.000000 0.500000
O O7 0.500000 0.603945 0.500000
O O8 0.529260 0.500000 0.710147
O O9 0.311655 0.646746 0.702803
O O10 0.899422 0.628218 0.794482
O O11 0.500000 0.349988 0.000000
#
# Coordination Sequence:
#
# PCOD9154703 Si02
#       4
#     4   2   4   4
#     4  11  23  44  67  90 127 170 206 248 313 376
#     4  12  26  42  66 102 130 158 208 258 304 364
#     4  11  24  41  61  89 127 168 206 253 318 375
#     4  11  23  40  64  93 121 161 214 260 303 364
#
# _framework density 20.442207
#
# number of rings (size 3 to 8) (size 9 to 14) (size 15 to 20)
#    0.000    0.857    0.000    8.571    0.000    9.143 
#    0.000    0.000    0.000    0.000    0.000    0.000 
#    0.000    0.000    0.000    0.000    0.000    0.000 
#
# Total GULP energy -78379.667285 kJ/mol
# GULP energy per Si atom -5598.547663 kJ/mol
# Density = 2.039568 g / cm^3
# Si number density = 20.442207 Si / 1000 Ang^3
#
#
#
# Elastic Constant Matrix: (Units=GPa)
#
#
# Indices 1 2 3 4 5 6 
#
# 1 181.4021 67.2432 68.9421 0.0000 -13.0098 0.0000
# 2 67.2432 101.6248 90.9121 0.0000 -14.1302 0.0000
# 3 68.9421 90.9121 117.3328 0.0000 -1.0783 0.0000
# 4 0.0000 0.0000 0.0000 79.6384 0.0000 168.2407
# 5 -13.0098 -14.1302 -1.0783 0.0000 49.8616 0.0000
# 6 0.0000 0.0000 0.0000 168.2407 0.0000 355.7312
#
#
#
# Elastic Compliance Matrix: (Units=1/GPa)
#
#
# Indices 1 2 3 4 5 6 
#
# 1 0.007473 -0.002846 -0.002176 0.000000 0.001096 0.000000
# 2 -0.002846 0.037265 -0.027117 0.000000 0.009232 0.000000
# 3 -0.002176 -0.027117 0.030742 0.000000 -0.007588 0.000000
# 4 0.000000 0.000000 0.000000 14.267659 0.000000 -6.747794
# 5 0.001096 0.009232 -0.007588 0.000000 0.022794 0.000000
# 6 0.000000 0.000000 0.000000 -6.747794 0.000000 3.194135
#
#
# Mechanical properties :
#
#
# Convention : Reuss Voigt Hill
#
# Bulk Modulus (GPa) = 89.25957 94.95053 92.10505
# Shear Modulus (GPa) = 0.28364 108.59704 54.44034
#
# Velocity S-wave (km/s) = 0.37290 7.29652 5.16615
# Velocity P-wave (km/s) = 6.62907 10.84135 8.98553
#
# Compressibility (1/GPa) = 0.01120328
#
# Stress axis : x y z
#
# Youngs Moduli (GPa) = 133.81291 26.83484 32.52843
#
# Poissons Ratio (x) = 0.07637 0.07078
# Poissons Ratio (y) = 0.38080 0.88207
# Poissons Ratio (z) = 0.29118 0.72768
#
# Static dielectric constant tensor:
#      x y z
#    x 1.722340 0.000000 -0.015790 
#    y 0.000000 1.698660 0.000000 
#    z -0.015790 0.000000 1.732400 
# 
# From -- ./inp_files/14231.got.cif
#   From: 2010.05.17/outbox.cif.g08.bks.cpg/sg10_8_cif.got.tgz:14231.got - 2010.06.03 11:33:40.
