data_PCOD9154686
_publ_section_title
;
Structure prediction by ZEFSAII (Michael W. Deem and Ramdas Pophale) SiO2 
 PCOD9154686
Probable space group: P 2/M
;
_chemical_formula_sum "Si O2"
_cell_formula_units_Z 28
_cell_length_a 23.149192
_cell_length_b 8.576709
_cell_length_c 25.502751
_cell_angle_alpha 90.000000
_cell_angle_beta 163.134262
_cell_angle_gamma 90.000000
_cell_volume 1469.048565
_symmetry_space_group_name_H-M "P 2/M"
_symmetry_group_IT_number 10
_symmetry_cell_setting 'monoclinic'
loop_
_space_group_symop_operation_xyz
x,y,z
-x,y,-z
-x,-y,-z
x,-y,z
loop_
_atom_site_type_symbol
_atom_site_label
_atom_site_fract_x
_atom_site_fract_y
_atom_site_fract_z
Si Si1 0.630911 0.822338 0.568041
Si Si2 0.845585 0.189635 0.656661
Si Si3 0.243857 0.315196 0.056314
Si Si4 0.058603 0.177712 0.994625
Si Si5 0.331024 0.186482 0.606830
Si Si6 0.141069 0.688249 0.547925
Si Si7 0.295145 0.310028 0.794972
O O1 0.500000 0.744874 0.500000
O O2 0.671294 0.755267 0.545527
O O3 0.552224 0.000000 0.492973
O O4 0.851404 0.831044 0.783488
O O5 0.796104 0.236014 0.554633
O O6 0.055283 0.252746 0.859419
O O7 0.849056 0.000000 0.663145
O O8 0.249154 0.500000 0.057913
O O9 0.207792 0.263704 0.085366
O O10 0.445747 0.244828 0.209052
O O11 0.130268 0.000000 0.065798
O O12 0.000000 0.247539 0.000000
O O13 0.238710 0.249440 0.580139
O O14 0.331835 0.000000 0.608894
O O15 0.143309 0.500000 0.548865
O O16 0.261394 0.736796 0.704978
O O17 0.909515 0.736731 0.353559
O O18 0.299710 0.500000 0.799532
O O19 0.500000 0.255759 0.000000
#
# Coordination Sequence:
#
# PCOD9154686 Si02
#       7
#     4   4   4   4   4   4   4
#     4   8  14  26  48  75  96 122 172 229 274 323
#     4   9  20  38  57  78 107 144 189 238 284 339
#     4  11  23  38  56  79 113 149 186 237 292 347
#     4   9  18  32  53  77 103 138 183 231 281 345
#     4  11  23  38  59  83 115 155 194 237 287 342
#     4   9  18  33  54  84 115 144 190 235 270 325
#     4   8  15  31  56  83 114 151 186 225 271 322
#
# _framework density 19.059954999999999
#
# number of rings (size 3 to 8) (size 9 to 14) (size 15 to 20)
#    0.000    2.714    0.000    3.429    2.000    2.571 
#    0.000    2.857    0.000    2.571    0.000    0.000 
#    0.000    0.000    0.000    0.000    0.000    0.000 
#
# Total GULP energy -156096.852044 kJ/mol
# GULP energy per Si atom -5574.887573 kJ/mol
# Density = 1.901657 g / cm^3
# Si number density = 19.059955 Si / 1000 Ang^3
#
#
#
# Elastic Constant Matrix: (Units=GPa)
#
#
# Indices 1 2 3 4 5 6 
#
# 1 214.9805 35.5024 93.5474 0.0000 11.3882 0.0000
# 2 35.5024 22.2165 22.2085 0.0000 1.0353 0.0000
# 3 93.5474 22.2085 131.1836 0.0000 -2.3915 0.0000
# 4 0.0000 0.0000 0.0000 -1.7263 0.0000 -2.1823
# 5 11.3882 1.0353 -2.3915 0.0000 22.1185 0.0000
# 6 0.0000 0.0000 0.0000 -2.1823 0.0000 31.1636
#
#
#
# Elastic Compliance Matrix: (Units=1/GPa)
#
#
# Indices 1 2 3 4 5 6 
#
# 1 0.008248 -0.008450 -0.004531 0.000000 -0.004341 0.000000
# 2 -0.008450 0.063114 -0.004643 0.000000 0.000894 0.000000
# 3 -0.004531 -0.004643 0.011709 0.000000 0.003816 0.000000
# 4 0.000000 0.000000 0.000000 -0.532163 0.000000 -0.037266
# 5 -0.004341 0.000894 0.003816 0.000000 0.047817 0.000000
# 6 0.000000 0.000000 0.000000 -0.037266 0.000000 0.029479
#
#
# Mechanical properties :
#
#
# Convention : Reuss Voigt Hill
#
# Bulk Modulus (GPa) = 20.90949 74.54413 47.72681
# Shear Modulus (GPa) = -15.59544 24.78600 4.59528
#
# Velocity S-wave (km/s) = -2.86358 3.61005 1.55441
# Velocity P-wave (km/s) = 0.24651 7.52143 5.32131
#
# Compressibility (1/GPa) = 0.04782516
#
# Stress axis : x y z
#
# Youngs Moduli (GPa) = 121.23480 15.84429 85.40231
#
# Poissons Ratio (x) = 0.13388 0.38693
# Poissons Ratio (y) = 1.02442 0.39651
# Poissons Ratio (z) = 0.54927 0.07356
#
# Static dielectric constant tensor:
#      x y z
#    x 1.683590 0.000000 -0.012010 
#    y 0.000000 1.658900 0.000000 
#    z -0.012010 0.000000 1.659560 
# 
# From -- ./inp_files/90400.got.cif
#   From: 2010.05.17/outbox.cif.g08.bks.cpg/sg10_46_cif.got.tgz:90400.got - 2010.06.03 11:33:40.
