data_PCOD9154816
_publ_section_title
;
Structure prediction by ZEFSAII (Michael W. Deem and Ramdas Pophale) SiO2 
 PCOD9154816
Probable space group: P 2/M
;
_chemical_formula_sum "Si O2"
_cell_formula_units_Z 18
_cell_length_a 5.008887
_cell_length_b 25.686405
_cell_length_c 5.279888
_cell_angle_alpha 90.000000
_cell_angle_beta 93.330625
_cell_angle_gamma 90.000000
_cell_volume 678.164552
_symmetry_space_group_name_H-M "P 2/M"
_symmetry_group_IT_number 10
_symmetry_cell_setting 'monoclinic'
loop_
_space_group_symop_operation_xyz
x,y,z
-x,y,-z
-x,-y,-z
x,-y,z
loop_
_atom_site_type_symbol
_atom_site_label
_atom_site_fract_x
_atom_site_fract_y
_atom_site_fract_z
Si Si1 0.000000 0.000000 0.500000
Si Si2 0.000000 0.500000 0.500000
Si Si3 0.275867 0.919038 0.175856
Si Si4 0.815796 0.806090 0.740011
Si Si5 0.815796 0.693910 0.740011
Si Si6 0.724133 0.419038 0.824144
O O1 0.205438 0.045423 0.407623
O O2 0.794562 0.454577 0.592377
O O3 0.345470 0.859606 0.250360
O O4 0.500000 0.940001 0.000000
O O5 0.000000 0.919703 0.000000
O O6 0.671120 0.750000 0.732159
O O7 0.000000 0.808823 0.500000
O O8 0.000000 0.805793 0.000000
O O9 0.654530 0.640394 0.749640
O O10 0.000000 0.691177 0.500000
O O11 0.000000 0.694207 0.000000
O O12 0.500000 0.440000 0.000000
O O13 0.000000 0.419703 0.000000
#
# Coordination Sequence:
#
# PCOD9154816 Si02
#       6
#     1   1   4   4   4   4
#     4  12  24  46  66  96 128 182 220 288 322 414
#     4  12  24  46  66  96 128 182 220 288 322 414
#     4  11  25  43  66  97 132 174 224 278 337 401
#     4   9  18  38  65  97 134 174 220 277 338 403
#     4   9  18  38  65  97 134 174 220 277 338 403
#     4  11  25  43  66  97 132 174 224 278 337 401
#
# _framework density 26.542228999999999
#
# number of rings (size 3 to 8) (size 9 to 14) (size 15 to 20)
#    0.000    1.778    2.222    1.333    0.000    4.444 
#    0.000    0.000    0.000   13.333    0.000    0.000 
#    0.000    0.000    0.000    0.000    0.000    0.000 
#
# Total GULP energy -100355.153050 kJ/mol
# GULP energy per Si atom -5575.286281 kJ/mol
# Density = 2.648182 g / cm^3
# Si number density = 26.542229 Si / 1000 Ang^3
#
#
#
# Elastic Constant Matrix: (Units=GPa)
#
#
# Indices 1 2 3 4 5 6 
#
# 1 111.2802 9.2598 54.9044 0.0000 -5.3172 0.0000
# 2 9.2598 268.5936 46.3021 0.0000 -44.4357 0.0000
# 3 54.9044 46.3021 199.5840 0.0000 -36.2530 0.0000
# 4 0.0000 0.0000 0.0000 47.1075 0.0000 -78.8086
# 5 -5.3172 -44.4357 -36.2530 0.0000 80.0927 0.0000
# 6 0.0000 0.0000 0.0000 -78.8086 0.0000 -249.9454
#
#
#
# Elastic Compliance Matrix: (Units=1/GPa)
#
#
# Indices 1 2 3 4 5 6 
#
# 1 0.010430 0.000052 -0.002997 0.000000 -0.000635 0.000000
# 2 0.000052 0.004164 -0.000610 0.000000 0.002037 0.000000
# 3 -0.002997 -0.000610 0.006405 0.000000 0.002362 0.000000
# 4 0.000000 0.000000 0.000000 0.013897 0.000000 -0.004382
# 5 -0.000635 0.002037 0.002362 0.000000 0.014643 0.000000
# 6 0.000000 0.000000 0.000000 -0.004382 0.000000 -0.002619
#
#
# Mechanical properties :
#
#
# Convention : Reuss Voigt Hill
#
# Bulk Modulus (GPa) = 71.99827 88.93226 80.46527
# Shear Modulus (GPa) = 85.23777 6.71707 45.97742
#
# Velocity S-wave (km/s) = 5.67307 1.59255 4.16653
# Velocity P-wave (km/s) = 8.37236 6.07950 7.31631
#
# Compressibility (1/GPa) = 0.01388922
#
# Stress axis : x y z
#
# Youngs Moduli (GPa) = 95.87551 240.18138 156.11922
#
# Poissons Ratio (x) = -0.01247 0.46784
# Poissons Ratio (y) = -0.00498 0.09526
# Poissons Ratio (z) = 0.28731 0.14655
#
# Static dielectric constant tensor:
#      x y z
#    x 1.881430 0.000000 0.073560 
#    y 0.000000 2.080760 0.000000 
#    z 0.073560 0.000000 2.050760 
# 
# From -- ./inp_files/1956.got.cif
#   From: 2010.05.17/outbox.cif.g08.bks.cpg/sg10_1_cif.got.tgz:1956.got - 2010.06.03 11:33:40.
