data_PCOD9154432
_publ_section_title
;
Structure prediction by ZEFSAII (Michael W. Deem and Ramdas Pophale) SiO2 
 PCOD9154432
Probable space group: P 2/M
;
_chemical_formula_sum "Si O2"
_cell_formula_units_Z 32
_cell_length_a 12.237553
_cell_length_b 9.044800
_cell_length_c 15.762568
_cell_angle_alpha 90.000000
_cell_angle_beta 86.964561
_cell_angle_gamma 90.000000
_cell_volume 1742.251199
_symmetry_space_group_name_H-M "P 2/M"
_symmetry_group_IT_number 10
_symmetry_cell_setting 'monoclinic'
loop_
_space_group_symop_operation_xyz
x,y,z
-x,y,-z
-x,-y,-z
x,-y,z
loop_
_atom_site_type_symbol
_atom_site_label
_atom_site_fract_x
_atom_site_fract_y
_atom_site_fract_z
Si Si1 0.645648 0.820581 0.343932
Si Si2 0.798783 0.178317 0.180947
Si Si3 0.403269 0.822652 0.312055
Si Si4 0.573266 0.322991 0.870220
Si Si5 0.668719 0.324169 0.043449
Si Si6 0.164085 0.173256 0.544533
Si Si7 0.818567 0.674679 0.626515
Si Si8 0.003840 0.172953 0.713702
O O1 0.710035 0.772795 0.256115
O O2 0.519905 0.774783 0.346921
O O3 0.718785 0.778193 0.421532
O O4 0.647766 0.000000 0.342689
O O5 0.761139 0.242565 0.093201
O O6 0.918100 0.220677 0.211941
O O7 0.796099 0.000000 0.178849
O O8 0.404487 0.768309 0.214832
O O9 0.299532 0.749825 0.360314
O O10 0.396063 0.000000 0.316992
O O11 0.583620 0.500000 0.854313
O O12 0.449015 0.295929 0.907062
O O13 0.651788 0.282785 0.945835
O O14 0.686722 0.500000 0.046095
O O15 0.133936 0.269520 0.465151
O O16 0.081267 0.182488 0.626953
O O17 0.168624 0.000000 0.518858
O O18 0.810219 0.500000 0.629601
O O19 0.897219 0.733126 0.697895
O O20 0.975049 0.000000 0.725507
#
# Coordination Sequence:
#
# PCOD9154432 Si02
#       8
#     4   4   4   4   4   4   4   4
#     4   8  16  31  52  78 103 131 167 210 258 304
#     4   9  16  30  53  81 107 129 168 219 257 296
#     4  11  21  35  55  75 102 139 179 215 253 304
#     4   9  18  32  48  74 111 145 172 202 245 302
#     4   9  17  29  49  77 111 144 169 198 249 310
#     4   9  18  36  59  78 100 130 169 216 263 307
#     4  12  25  37  50  73 105 138 175 215 259 311
#     4   9  19  36  58  79 101 132 172 219 263 302
#
# _framework density 18.367042999999999
#
# number of rings (size 3 to 8) (size 9 to 14) (size 15 to 20)
#    0.000    2.500    1.250    4.125    0.000    3.500 
#    0.000    6.875    0.000    0.750    0.000    5.250 
#    0.000    0.000    0.000    0.000    0.000    0.000 
#
# Total GULP energy -178505.969938 kJ/mol
# GULP energy per Si atom -5578.311561 kJ/mol
# Density = 1.832524 g / cm^3
# Si number density = 18.367043 Si / 1000 Ang^3
#
#
#
# Elastic Constant Matrix: (Units=GPa)
#
#
# Indices 1 2 3 4 5 6 
#
# 1 71.2108 22.7481 14.8011 0.0000 27.3666 0.0000
# 2 22.7481 42.1249 15.4521 0.0000 10.2307 0.0000
# 3 14.8011 15.4521 40.0843 0.0000 25.9608 0.0000
# 4 0.0000 0.0000 0.0000 44.4640 0.0000 5.2528
# 5 27.3666 10.2307 25.9608 0.0000 32.3607 0.0000
# 6 0.0000 0.0000 0.0000 5.2528 0.0000 17.7507
#
#
#
# Elastic Compliance Matrix: (Units=1/GPa)
#
#
# Indices 1 2 3 4 5 6 
#
# 1 0.026583 -0.012339 0.014516 0.000000 -0.030225 0.000000
# 2 -0.012339 0.033379 -0.017140 0.000000 0.013633 0.000000
# 3 0.014516 -0.017140 0.063767 0.000000 -0.058014 0.000000
# 4 0.000000 0.000000 0.000000 0.023305 0.000000 -0.006896
# 5 -0.030225 0.013633 -0.058014 0.000000 0.098693 0.000000
# 6 0.000000 0.000000 0.000000 -0.006896 0.000000 0.058377
#
#
# Mechanical properties :
#
#
# Convention : Reuss Voigt Hill
#
# Bulk Modulus (GPa) = 10.66073 28.82471 19.74272
# Shear Modulus (GPa) = 13.68747 25.60965 19.64856
#
# Velocity S-wave (km/s) = 2.73283 3.73812 3.27429
# Velocity P-wave (km/s) = 3.97174 5.86167 5.00669
#
# Compressibility (1/GPa) = 0.09380219
#
# Stress axis : x y z
#
# Youngs Moduli (GPa) = 37.61797 29.95916 15.68200
#
# Poissons Ratio (x) = 0.36968 -0.22765
# Poissons Ratio (y) = 0.46418 0.26880
# Poissons Ratio (z) = -0.54607 0.51351
#
# Static dielectric constant tensor:
#      x y z
#    x 1.659980 0.000000 0.009570 
#    y 0.000000 1.606240 0.000000 
#    z 0.009570 0.000000 1.636710 
# 
# From -- ./inp_files/63796.got.cif
#   From: 2010.05.17/outbox.cif.g08.bks.cpg/sg10_32_cif.got.tgz:63796.got - 2010.06.03 11:33:40.
