data_PCOD9154353
_publ_section_title
;
Structure prediction by ZEFSAII (Michael W. Deem and Ramdas Pophale) SiO2 
 PCOD9154353
Probable space group: P 2/M
;
_chemical_formula_sum "Si O2"
_cell_formula_units_Z 24
_cell_length_a 16.347520
_cell_length_b 14.254433
_cell_length_c 10.086764
_cell_angle_alpha 90.000000
_cell_angle_beta 146.872039
_cell_angle_gamma 90.000000
_cell_volume 1284.553992
_symmetry_space_group_name_H-M "P 2/M"
_symmetry_group_IT_number 10
_symmetry_cell_setting 'monoclinic'
loop_
_space_group_symop_operation_xyz
x,y,z
-x,y,-z
-x,-y,-z
x,-y,z
loop_
_atom_site_type_symbol
_atom_site_label
_atom_site_fract_x
_atom_site_fract_y
_atom_site_fract_z
Si Si1 0.646709 0.500000 0.001984
Si Si2 0.682571 0.500000 0.497580
Si Si3 0.348129 0.693216 0.376228
Si Si4 0.000000 0.785315 0.500000
Si Si5 0.910848 0.500000 0.576876
Si Si6 0.020967 0.893117 0.253648
Si Si7 0.752733 0.890259 0.679435
Si Si8 0.171652 0.649988 0.889939
O O1 0.772434 0.500000 0.286777
O O2 0.689991 0.587237 0.968316
O O3 0.472202 0.500000 0.797251
O O4 0.676206 0.597875 0.571425
O O5 0.831828 0.500000 0.611822
O O6 0.500000 0.684278 0.500000
O O7 0.348754 0.796764 0.444707
O O8 0.212978 0.693330 0.086405
O O9 0.971944 0.836625 0.600718
O O10 0.859110 0.721932 0.269083
O O11 0.022178 0.587344 0.704105
O O12 0.150433 0.873595 0.322199
O O13 0.038318 0.000000 0.318941
O O14 0.867993 0.888111 0.960272
O O15 0.694323 0.000000 0.595731
#
# Coordination Sequence:
#
# PCOD9154353 Si02
#       8
#     2   2   4   2   2   4   4   4
#     4  11  20  43  57  81 125 162 197 242 303 365
#     4  12  26  38  62  86 125 161 202 246 307 356
#     4  12  24  40  61  85 118 161 206 253 303 361
#     4  12  19  33  62  94 116 156 200 245 305 362
#     4  11  24  38  57  90 120 160 199 252 296 366
#     4   9  19  35  58  90 122 152 193 251 308 357
#     4   9  20  38  60  87 121 158 199 249 301 356
#     4  11  22  37  60  85 120 160 203 246 302 359
#
# _framework density 18.683527999999999
#
# number of rings (size 3 to 8) (size 9 to 14) (size 15 to 20)
#    0.000    1.333    5.000    3.250    2.333    1.667 
#    0.000    0.000    0.000    0.000    0.000    2.333 
#    0.000    0.000    0.000    0.000    0.000    0.000 
#
# Total GULP energy -133633.191932 kJ/mol
# GULP energy per Si atom -5568.049664 kJ/mol
# Density = 1.864100 g / cm^3
# Si number density = 18.683528 Si / 1000 Ang^3
#
#
#
# Elastic Constant Matrix: (Units=GPa)
#
#
# Indices 1 2 3 4 5 6 
#
# 1 88.2689 59.4919 21.1311 0.0000 -6.3861 0.0000
# 2 59.4919 119.1683 25.6425 0.0000 -17.4314 0.0000
# 3 21.1311 25.6425 73.1849 0.0000 -11.4509 0.0000
# 4 0.0000 0.0000 0.0000 9.0033 0.0000 -3.2922
# 5 -6.3861 -17.4314 -11.4509 0.0000 22.7168 0.0000
# 6 0.0000 0.0000 0.0000 -3.2922 0.0000 58.6168
#
#
#
# Elastic Compliance Matrix: (Units=1/GPa)
#
#
# Indices 1 2 3 4 5 6 
#
# 1 0.017547 -0.008656 -0.002498 0.000000 -0.002969 0.000000
# 2 -0.008656 0.014115 -0.001229 0.000000 0.007778 0.000000
# 3 -0.002498 -0.001229 0.015805 0.000000 0.006321 0.000000
# 4 0.000000 0.000000 0.000000 0.113399 0.000000 0.006369
# 5 -0.002969 0.007778 0.006321 0.000000 0.052341 0.000000
# 6 0.000000 0.000000 0.000000 0.006369 0.000000 0.017418
#
#
# Mechanical properties :
#
#
# Convention : Reuss Voigt Hill
#
# Bulk Modulus (GPa) = 44.05331 54.79478 49.42405
# Shear Modulus (GPa) = 19.01445 29.69115 24.35280
#
# Velocity S-wave (km/s) = 3.19362 3.99075 3.61423
# Velocity P-wave (km/s) = 6.10154 7.11522 6.62779
#
# Compressibility (1/GPa) = 0.02269977
#
# Stress axis : x y z
#
# Youngs Moduli (GPa) = 56.99132 70.84523 63.27096
#
# Poissons Ratio (x) = 0.61327 0.15804
# Poissons Ratio (y) = 0.49334 0.07778
# Poissons Ratio (z) = 0.14235 0.08709
#
# Static dielectric constant tensor:
#      x y z
#    x 1.681880 0.000000 -0.037300 
#    y 0.000000 1.711130 0.000000 
#    z -0.037300 0.000000 1.662390 
# 
# From -- ./inp_files/29752.got.cif
#   From: 2010.05.17/outbox.cif.g08.bks.cpg/sg10_15_cif.got.tgz:29752.got - 2010.06.03 11:33:40.
