data_PCOD9154121
_publ_section_title
;
Structure prediction by ZEFSAII (Michael W. Deem and Ramdas Pophale) SiO2 
 PCOD9154121
Probable space group: P 2/M
;
_chemical_formula_sum "Si O2"
_cell_formula_units_Z 19
_cell_length_a 5.160882
_cell_length_b 27.067938
_cell_length_c 5.066593
_cell_angle_alpha 90.000000
_cell_angle_beta 92.994899
_cell_angle_gamma 90.000000
_cell_volume 706.808156
_symmetry_space_group_name_H-M "P 2/M"
_symmetry_group_IT_number 10
_symmetry_cell_setting 'monoclinic'
loop_
_space_group_symop_operation_xyz
x,y,z
-x,y,-z
-x,-y,-z
x,-y,z
loop_
_atom_site_type_symbol
_atom_site_label
_atom_site_fract_x
_atom_site_fract_y
_atom_site_fract_z
Si Si1 0.500000 0.627344 0.500000
Si Si2 0.820720 0.557707 0.227579
Si Si3 0.000000 0.000000 0.500000
Si Si4 0.240231 0.813749 0.815851
Si Si5 0.762381 0.295994 0.192051
Si Si6 0.672484 0.078992 0.272013
O O1 0.559818 0.587906 0.272338
O O2 0.274444 0.665880 0.569875
O O3 0.763726 0.500000 0.180044
O O4 0.000000 0.561260 0.500000
O O5 0.000000 0.576717 0.000000
O O6 0.083264 0.956246 0.714997
O O7 0.226233 0.759546 0.690388
O O8 0.257466 0.864290 0.656294
O O9 0.500000 0.812121 0.000000
O O10 0.000000 0.818798 0.000000
O O11 0.500000 0.301212 0.000000
O O12 0.000000 0.302697 0.000000
O O13 0.500000 0.057327 0.500000
O O14 0.500000 0.078334 0.000000
#
# Coordination Sequence:
#
# PCOD9154121 Si02
#       6
#     2   4   1   4   4   4
#     4  12  25  36  72 102 148 189 248 320 378 452
#     4  10  24  45  69 101 145 198 254 309 374 451
#     4  12  28  46  80 108 154 192 252 320 390 442
#     4   9  21  45  72 101 144 195 248 302 372 457
#     4  10  24  44  68 104 148 195 249 313 383 459
#     4  11  27  47  74 108 149 196 251 310 381 463
#
# _framework density 26.881409000000001
#
# number of rings (size 3 to 8) (size 9 to 14) (size 15 to 20)
#    0.000    1.684    0.000    1.579   13.263    0.842 
#    0.000    3.158    0.000    0.000    0.000    0.000 
#    0.000    0.000    0.000    0.000    0.000    0.000 
#
# Total GULP energy -106058.786777 kJ/mol
# GULP energy per Si atom -5582.041409 kJ/mol
# Density = 2.682023 g / cm^3
# Si number density = 26.881409 Si / 1000 Ang^3
#
#
#
# Elastic Constant Matrix: (Units=GPa)
#
#
# Indices 1 2 3 4 5 6 
#
# 1 175.4964 29.4467 64.1419 0.0000 -8.8445 0.0000
# 2 29.4467 240.9364 36.6179 0.0000 -27.3527 0.0000
# 3 64.1419 36.6179 149.7339 0.0000 -16.6079 0.0000
# 4 0.0000 0.0000 0.0000 70.7457 0.0000 -22.4692
# 5 -8.8445 -27.3527 -16.6079 0.0000 62.4130 0.0000
# 6 0.0000 0.0000 0.0000 -22.4692 0.0000 -50.7718
#
#
#
# Elastic Compliance Matrix: (Units=1/GPa)
#
#
# Indices 1 2 3 4 5 6 
#
# 1 0.006793 -0.000399 -0.002808 0.000000 0.000041 0.000000
# 2 -0.000399 0.004507 -0.000740 0.000000 0.001722 0.000000
# 3 -0.002808 -0.000740 0.008225 0.000000 0.001466 0.000000
# 4 0.000000 0.000000 0.000000 0.012393 0.000000 -0.005485
# 5 0.000041 0.001722 0.001466 0.000000 0.017173 0.000000
# 6 0.000000 0.000000 0.000000 -0.005485 0.000000 -0.017269
#
#
# Mechanical properties :
#
#
# Convention : Reuss Voigt Hill
#
# Bulk Modulus (GPa) = 85.97687 91.84221 88.90954
# Shear Modulus (GPa) = 114.69283 45.54139 80.11711
#
# Velocity S-wave (km/s) = 6.53903 4.12048 5.46522
# Velocity P-wave (km/s) = 9.43743 7.54173 8.54233
#
# Compressibility (1/GPa) = 0.01163103
#
# Stress axis : x y z
#
# Youngs Moduli (GPa) = 147.20147 221.86635 121.57897
#
# Poissons Ratio (x) = 0.08850 0.34140
# Poissons Ratio (y) = 0.05872 0.09002
# Poissons Ratio (z) = 0.41335 0.16427
#
# Static dielectric constant tensor:
#      x y z
#    x 2.246080 0.000000 -0.078170 
#    y 0.000000 2.099030 0.000000 
#    z -0.078170 0.000000 1.931880 
# 
# From -- ./inp_files/2046.got.cif
#   From: 2010.05.17/outbox.cif.g08.bks.cpg/sg10_2_cif.got.tgz:2046.got - 2010.06.03 11:33:40.
