data_PCOD9154056
_publ_section_title
;
Structure prediction by ZEFSAII (Michael W. Deem and Ramdas Pophale) SiO2 
 PCOD9154056
Probable space group: P 2/M
;
_chemical_formula_sum "Si O2"
_cell_formula_units_Z 16
_cell_length_a 5.404489
_cell_length_b 22.077160
_cell_length_c 5.369196
_cell_angle_alpha 90.000000
_cell_angle_beta 92.426532
_cell_angle_gamma 90.000000
_cell_volume 640.055314
_symmetry_space_group_name_H-M "P 2/M"
_symmetry_group_IT_number 10
_symmetry_cell_setting 'monoclinic'
loop_
_space_group_symop_operation_xyz
x,y,z
-x,y,-z
-x,-y,-z
x,-y,z
loop_
_atom_site_type_symbol
_atom_site_label
_atom_site_fract_x
_atom_site_fract_y
_atom_site_fract_z
Si Si1 0.500000 0.157240 0.500000
Si Si2 0.747550 0.239096 0.862262
Si Si3 0.163260 0.930266 0.760912
Si Si4 0.237347 0.368308 0.343037
Si Si5 0.337120 0.500000 0.239652
O O1 0.711674 0.203011 0.604722
O O2 0.609059 0.113683 0.291446
O O3 0.748048 0.311821 0.838967
O O4 0.500000 0.224317 0.000000
O O5 0.000000 0.220615 0.000000
O O6 0.000000 0.927157 0.500000
O O7 0.247678 0.000000 0.791831
O O8 0.000000 0.916317 0.000000
O O9 0.500000 0.368610 0.500000
O O10 0.197335 0.435981 0.236784
O O11 0.000000 0.354884 0.500000
O O12 0.500000 0.500000 0.500000
O O13 0.500000 0.500000 0.000000
#
# Coordination Sequence:
#
# PCOD9154056 Si02
#       5
#     2   4   4   4   2
#     4  12  29  46  78 113 166 206 276 322 412 475
#     4  12  29  48  76 113 157 214 267 331 400 481
#     4  10  25  49  80 117 159 207 265 333 403 479
#     4  11  23  47  73 109 153 203 261 331 399 472
#     4  10  23  44  78 110 150 201 265 329 402 474
#
# _framework density 24.99784
#
# number of rings (size 3 to 8) (size 9 to 14) (size 15 to 20)
#    0.000    1.000    1.250    3.000    7.000    2.000 
#    0.000    9.375    0.000    2.250    0.000    0.000 
#    0.000    0.000    0.000    0.000    0.000    0.000 
#
# Total GULP energy -89659.664881 kJ/mol
# GULP energy per Si atom -5603.729055 kJ/mol
# Density = 2.494094 g / cm^3
# Si number density = 24.997840 Si / 1000 Ang^3
#
#
#
# Elastic Constant Matrix: (Units=GPa)
#
#
# Indices 1 2 3 4 5 6 
#
# 1 156.5267 35.3006 55.3103 0.0000 3.4070 0.0000
# 2 35.3006 200.5866 35.5696 0.0000 4.5399 0.0000
# 3 55.3103 35.5696 125.8896 0.0000 -5.9361 0.0000
# 4 0.0000 0.0000 0.0000 101.7999 0.0000 -63.9739
# 5 3.4070 4.5399 -5.9361 0.0000 57.6432 0.0000
# 6 0.0000 0.0000 0.0000 -63.9739 0.0000 26.2302
#
#
#
# Elastic Compliance Matrix: (Units=1/GPa)
#
#
# Indices 1 2 3 4 5 6 
#
# 1 0.007711 -0.000772 -0.003204 0.000000 -0.000725 0.000000
# 2 -0.000772 0.005344 -0.001194 0.000000 -0.000498 0.000000
# 3 -0.003204 -0.001194 0.009749 0.000000 0.001287 0.000000
# 4 0.000000 0.000000 0.000000 -0.018440 0.000000 -0.044975
# 5 -0.000725 -0.000498 0.001287 0.000000 0.017563 0.000000
# 6 0.000000 0.000000 0.000000 -0.044975 0.000000 -0.071568
#
#
# Mechanical properties :
#
#
# Convention : Reuss Voigt Hill
#
# Bulk Modulus (GPa) = 80.23333 81.70711 80.97022
# Shear Modulus (GPa) = -142.26273 60.92282 -40.66995
#
# Velocity S-wave (km/s) = -7.55206 4.94208 -4.03791
# Velocity P-wave (km/s) = 6.62412 8.08221 3.27438
#
# Compressibility (1/GPa) = 0.01246365
#
# Stress axis : x y z
#
# Youngs Moduli (GPa) = 129.68948 187.11344 102.57339
#
# Poissons Ratio (x) = 0.14454 0.32861
# Poissons Ratio (y) = 0.10018 0.12249
# Poissons Ratio (z) = 0.41548 0.22344
#
# Static dielectric constant tensor:
#      x y z
#    x 1.684560 0.000000 0.086370 
#    y 0.000000 2.051120 0.000000 
#    z 0.086370 0.000000 2.016790 
# 
# From -- ./inp_files/1292.got.cif
#   From: 2010.05.17/outbox.cif.g08.bks.cpg/sg10_1_cif.got.tgz:1292.got - 2010.06.03 11:33:40.
