data_PCOD9154579
_publ_section_title
;
Structure prediction by ZEFSAII (Michael W. Deem and Ramdas Pophale) SiO2 
 PCOD9154579
Probable space group: P 2/M
;
_chemical_formula_sum "Si O2"
_cell_formula_units_Z 28
_cell_length_a 27.184068
_cell_length_b 11.335493
_cell_length_c 27.674870
_cell_angle_alpha 90.000000
_cell_angle_beta 10.981022
_cell_angle_gamma 90.000000
_cell_volume 1624.420989
_symmetry_space_group_name_H-M "P 2/M"
_symmetry_group_IT_number 10
_symmetry_cell_setting 'monoclinic'
loop_
_space_group_symop_operation_xyz
x,y,z
-x,y,-z
-x,-y,-z
x,-y,z
loop_
_atom_site_type_symbol
_atom_site_label
_atom_site_fract_x
_atom_site_fract_y
_atom_site_fract_z
Si Si1 0.555969 0.856070 0.500882
Si Si2 0.575481 0.747921 0.983165
Si Si3 0.113368 0.143392 0.001802
Si Si4 0.778328 0.239286 0.504814
Si Si5 0.225805 0.142417 0.003975
Si Si6 0.823000 0.500000 0.494606
Si Si7 0.610086 0.500000 0.004206
Si Si8 0.878129 0.859241 0.516092
O O1 0.500000 0.818623 0.500000
O O2 0.334938 0.817890 0.751178
O O3 0.555691 0.000000 0.500874
O O4 0.834615 0.817871 0.251496
O O5 0.586815 0.616795 0.994378
O O6 0.853987 0.807499 0.722132
O O7 0.500000 0.744908 0.000000
O O8 0.358711 0.818617 0.222047
O O9 0.169559 0.177027 0.002732
O O10 0.112671 0.000000 0.001850
O O11 0.501032 0.192178 0.755257
O O12 0.783986 0.380659 0.502213
O O13 0.833132 0.192313 0.505974
O O14 0.000338 0.190729 0.255656
O O15 0.230809 0.000000 0.002124
O O16 0.111694 0.500000 0.238070
O O17 0.615974 0.500000 0.737885
O O18 0.890894 0.000000 0.501483
#
# Coordination Sequence:
#
# PCOD9154579 Si02
#       8
#     4   4   4   4   4   2   2   4
#     4   9  15  24  40  63  97 144 192 227 259 309
#     4  12  25  42  65  90 115 148 184 227 279 327
#     4   9  17  28  42  67 102 142 184 224 268 316
#     4  12  23  41  60  84 109 145 189 229 279 332
#     4  11  22  36  57  83 115 150 187 230 277 336
#     4  12  24  42  67  82 112 142 183 236 280 326
#     4  12  21  46  64  88 112 142 184 232 277 328
#     4  12  25  42  62  87 120 151 184 224 272 337
#
# _framework density 17.236910999999999
#
# number of rings (size 3 to 8) (size 9 to 14) (size 15 to 20)
#    0.000    1.000    2.857    5.357    0.000    5.714 
#    0.000    2.143    0.000    0.000    0.000    0.000 
#    0.000    0.000    0.000   45.000    0.000   20.000 
#
# Total GULP energy -156515.368986 kJ/mol
# GULP energy per Si atom -5589.834607 kJ/mol
# Density = 1.719768 g / cm^3
# Si number density = 17.236911 Si / 1000 Ang^3
#
#
#
# Elastic Constant Matrix: (Units=GPa)
#
#
# Indices 1 2 3 4 5 6 
#
# 1 111.1177 106.7049 88.5773 0.0000 3.2886 0.0000
# 2 106.7049 -81.3587 -38.3066 0.0000 -49.0578 0.0000
# 3 88.5773 -38.3066 114.5771 0.0000 -31.0618 0.0000
# 4 0.0000 0.0000 0.0000 24.9147 0.0000 -2.6136
# 5 3.2886 -49.0578 -31.0618 0.0000 26.6128 0.0000
# 6 0.0000 0.0000 0.0000 -2.6136 0.0000 28.0431
#
#
#
# Elastic Compliance Matrix: (Units=1/GPa)
#
#
# Indices 1 2 3 4 5 6 
#
# 1 0.005617 0.004393 -0.001268 0.000000 0.005923 0.000000
# 2 0.004393 -0.000032 -0.005223 0.000000 -0.006698 0.000000
# 3 -0.001268 -0.005223 0.007892 0.000000 -0.000259 0.000000
# 4 0.000000 0.000000 0.000000 0.040533 0.000000 0.003778
# 5 0.005923 -0.006698 -0.000259 0.000000 0.024194 0.000000
# 6 0.000000 0.000000 0.000000 0.003778 0.000000 0.036011
#
#
# Mechanical properties :
#
#
# Convention : Reuss Voigt Hill
#
# Bulk Modulus (GPa) = 107.75789 50.92079 79.33934
# Shear Modulus (GPa) = 41.15078 15.07148 28.11113
#
# Velocity S-wave (km/s) = 4.89137 2.96019 4.04278
# Velocity P-wave (km/s) = 9.72379 6.42569 8.24141
#
# Compressibility (1/GPa) = 0.00928006
#
# Stress axis : x y z
#
# Youngs Moduli (GPa) = 178.03197 -30807.64320 126.71462
#
# Poissons Ratio (x) = 135.32326 0.16069
# Poissons Ratio (y) = -0.78201 0.66177
# Poissons Ratio (z) = 0.22577 -160.89302
#
# Static dielectric constant tensor:
#      x y z
#    x 1.561670 0.000000 0.000220 
#    y 0.000000 1.560220 0.000000 
#    z 0.000220 0.000000 1.570990 
# 
# From -- ./inp_files/94029.got.cif
#   From: 2010.05.17/outbox.cif.g08.bks.cpg/sg10_48_cif.got.tgz:94029.got - 2010.06.03 11:33:40.
