data_PCOD9154858
_publ_section_title
;
Structure prediction by ZEFSAII (Michael W. Deem and Ramdas Pophale) SiO2 
 PCOD9154858
Probable space group: P 2/M
;
_chemical_formula_sum "Si O2"
_cell_formula_units_Z 32
_cell_length_a 27.077393
_cell_length_b 7.745080
_cell_length_c 15.182612
_cell_angle_alpha 90.000000
_cell_angle_beta 32.289160
_cell_angle_gamma 90.000000
_cell_volume 1700.892916
_symmetry_space_group_name_H-M "P 2/M"
_symmetry_group_IT_number 10
_symmetry_cell_setting 'monoclinic'
loop_
_space_group_symop_operation_xyz
x,y,z
-x,y,-z
-x,-y,-z
x,-y,z
loop_
_atom_site_type_symbol
_atom_site_label
_atom_site_fract_x
_atom_site_fract_y
_atom_site_fract_z
Si Si1 0.729320 0.211773 0.683677
Si Si2 0.642332 0.201508 0.439418
Si Si3 0.895276 0.788707 0.555702
Si Si4 0.649512 0.211027 0.624018
Si Si5 0.732109 0.302748 0.131626
Si Si6 0.564202 0.790761 0.259904
Si Si7 0.562295 0.790497 0.059881
Si Si8 0.105207 0.206718 0.244837
O O1 0.821563 0.269407 0.594735
O O2 0.714378 0.269060 0.605845
O O3 0.730004 0.000000 0.683344
O O4 0.640338 0.267701 0.874895
O O5 0.671386 0.270632 0.491493
O O6 0.713613 0.213164 0.252667
O O7 0.540975 0.270283 0.564098
O O8 0.623956 0.000000 0.483284
O O9 0.869202 0.733835 0.694725
O O10 0.001104 0.732596 0.380777
O O11 0.894039 0.000000 0.556481
O O12 0.542718 0.262401 0.802612
O O13 0.652293 0.000000 0.621738
O O14 0.744126 0.500000 0.136198
O O15 0.640895 0.278849 0.209630
O O16 0.818898 0.247906 0.942121
O O17 0.584192 0.744212 0.128041
O O18 0.568730 0.000000 0.261363
O O19 0.562095 0.000000 0.057399
O O20 0.100039 0.000000 0.258252
#
# Coordination Sequence:
#
# PCOD9154858 Si02
#       8
#     4   4   4   4   4   4   4   4
#     4   9  13  19  37  67  98 119 141 180 224 260
#     4   9  18  32  47  64  89 123 157 185 219 264
#     4   8  15  27  47  72  93 117 147 180 221 269
#     4   8  14  23  37  62  95 124 148 178 217 259
#     4  12  23  31  44  67  90 116 153 192 230 266
#     4   9  17  30  47  66  91 123 154 181 216 268
#     4   8  13  21  37  64  96 125 146 168 210 268
#     4   9  17  32  50  68  93 121 148 178 220 275
#
# _framework density 18.813645999999999
#
# number of rings (size 3 to 8) (size 9 to 14) (size 15 to 20)
#    0.000    3.000    0.000    4.875    0.000    5.500 
#    0.000    1.250    0.000    0.750    0.000    9.625 
#    0.000   10.000    0.000    0.000    0.000    0.000 
#
# Total GULP energy -178394.577918 kJ/mol
# GULP energy per Si atom -5574.830560 kJ/mol
# Density = 1.877083 g / cm^3
# Si number density = 18.813646 Si / 1000 Ang^3
#
#
#
# Elastic Constant Matrix: (Units=GPa)
#
#
# Indices 1 2 3 4 5 6 
#
# 1 140.7381 -2.3975 63.4611 0.0000 -4.7564 0.0000
# 2 -2.3975 18.1583 -4.4413 0.0000 -2.5469 0.0000
# 3 63.4611 -4.4413 101.8199 0.0000 12.3085 0.0000
# 4 0.0000 0.0000 0.0000 -29.9615 0.0000 5.7315
# 5 -4.7564 -2.5469 12.3085 0.0000 14.5662 0.0000
# 6 0.0000 0.0000 0.0000 5.7315 0.0000 -52.5043
#
#
#
# Elastic Compliance Matrix: (Units=1/GPa)
#
#
# Indices 1 2 3 4 5 6 
#
# 1 0.011206 0.000977 -0.008247 0.000000 0.010799 0.000000
# 2 0.000977 0.056724 0.000699 0.000000 0.009646 0.000000
# 3 -0.008247 0.000699 0.017044 0.000000 -0.016973 0.000000
# 4 0.000000 0.000000 0.000000 -0.034088 0.000000 -0.003721
# 5 0.010799 0.009646 -0.016973 0.000000 0.088207 0.000000
# 6 0.000000 0.000000 0.000000 -0.003721 0.000000 -0.019452
#
#
# Mechanical properties :
#
#
# Convention : Reuss Voigt Hill
#
# Bulk Modulus (GPa) = 13.92135 41.55120 27.73628
# Shear Modulus (GPa) = 31.90297 0.02634 15.96465
#
# Velocity S-wave (km/s) = 4.12240 0.11845 2.91618
# Velocity P-wave (km/s) = 5.48403 4.70663 5.11013
#
# Compressibility (1/GPa) = 0.07183211
#
# Stress axis : x y z
#
# Youngs Moduli (GPa) = 89.24061 17.62914 58.67332
#
# Poissons Ratio (x) = -0.01722 0.48387
# Poissons Ratio (y) = -0.08719 -0.04102
# Poissons Ratio (z) = 0.73596 -0.01233
#
# Static dielectric constant tensor:
#      x y z
#    x 1.661560 0.000000 0.038480 
#    y 0.000000 1.685140 0.000000 
#    z 0.038480 0.000000 1.756730 
# 
# From -- ./inp_files/72181.got.cif
#   From: 2010.05.17/outbox.cif.g08.bks.cpg/sg10_37_cif.got.tgz:72181.got - 2010.06.03 11:33:40.
