data_PCOD9154949
_publ_section_title
;
Structure prediction by ZEFSAII (Michael W. Deem and Ramdas Pophale) SiO2 
 PCOD9154949
Probable space group: P 2/M
;
_chemical_formula_sum "Si O2"
_cell_formula_units_Z 24
_cell_length_a 16.199578
_cell_length_b 9.832009
_cell_length_c 7.322224
_cell_angle_alpha 90.000000
_cell_angle_beta 76.935041
_cell_angle_gamma 90.000000
_cell_volume 1136.053916
_symmetry_space_group_name_H-M "P 2/M"
_symmetry_group_IT_number 10
_symmetry_cell_setting 'monoclinic'
loop_
_space_group_symop_operation_xyz
x,y,z
-x,y,-z
-x,-y,-z
x,-y,z
loop_
_atom_site_type_symbol
_atom_site_label
_atom_site_fract_x
_atom_site_fract_y
_atom_site_fract_z
Si Si1 0.250505 0.343827 0.098092
Si Si2 0.597096 0.154344 0.419150
Si Si3 0.096355 0.155246 0.729655
Si Si4 0.402900 0.845657 0.016269
Si Si5 0.749488 0.656172 0.348590
Si Si6 0.903656 0.844753 0.826001
O O1 0.251074 0.500000 0.156580
O O2 0.333025 0.259881 0.117997
O O3 0.250632 0.344671 0.874689
O O4 0.166801 0.261908 0.197899
O O5 0.500000 0.196070 0.500000
O O6 0.608484 0.146682 0.195747
O O7 0.666967 0.259876 0.451013
O O8 0.608063 0.000000 0.484913
O O9 0.166812 0.261913 0.635303
O O10 0.000007 0.186248 0.720792
O O11 0.116825 0.000000 0.664530
O O12 0.096579 0.155886 0.951712
O O13 0.391925 0.000000 0.093007
O O14 0.500000 0.803945 0.000000
O O15 0.748913 0.500000 0.407649
O O16 0.883191 0.000000 0.781350
#
# Coordination Sequence:
#
# PCOD9154949 Si02
#       6
#     4   4   4   4   4   4
#     4   9  16  24  35  53  77 104 132 163 200 239
#     4   9  17  29  44  60  79 105 136 168 201 237
#     4   8  13  21  33  49  71 101 134 164 195 234
#     4   9  17  29  44  60  79 105 136 168 201 237
#     4   9  16  24  35  53  77 104 132 163 200 239
#     4   8  13  21  33  49  71 101 134 164 195 234
#
# _framework density 21.12576
#
# number of rings (size 3 to 8) (size 9 to 14) (size 15 to 20)
#    0.000    3.333    0.000    2.000    0.000    5.333 
#    0.000    3.333    0.000    0.000    0.000    0.000 
#    0.000    1.333    0.000   15.333    0.000   19.667 
#
# Total GULP energy -133975.490418 kJ/mol
# GULP energy per Si atom -5582.312101 kJ/mol
# Density = 2.107768 g / cm^3
# Si number density = 21.125760 Si / 1000 Ang^3
#
#
#
# Elastic Constant Matrix: (Units=GPa)
#
#
# Indices 1 2 3 4 5 6 
#
# 1 165.3462 156.5046 32.0332 0.0000 -54.0593 0.0000
# 2 156.5046 201.5967 30.3878 0.0000 -57.7585 0.0000
# 3 32.0332 30.3878 70.9738 0.0000 10.8569 0.0000
# 4 0.0000 0.0000 0.0000 -5.7069 0.0000 -15.4987
# 5 -54.0593 -57.7585 10.8569 0.0000 37.3768 0.0000
# 6 0.0000 0.0000 0.0000 -15.4987 0.0000 28.1195
#
#
#
# Elastic Compliance Matrix: (Units=1/GPa)
#
#
# Indices 1 2 3 4 5 6 
#
# 1 0.029695 -0.014847 -0.010576 0.000000 0.023078 0.000000
# 2 -0.014847 0.019995 -0.003455 0.000000 0.010429 0.000000
# 3 -0.010576 -0.003455 0.024592 0.000000 -0.027780 0.000000
# 4 0.000000 0.000000 0.000000 -0.070179 0.000000 -0.038681
# 5 0.023078 0.010429 -0.027780 0.000000 0.084318 0.000000
# 6 0.000000 0.000000 0.000000 -0.038681 0.000000 0.014243
#
#
# Mechanical properties :
#
#
# Convention : Reuss Voigt Hill
#
# Bulk Modulus (GPa) = 60.51207 97.30755 78.90981
# Shear Modulus (GPa) = 30.13314 26.55729 28.34522
#
# Velocity S-wave (km/s) = 3.78083 3.54941 3.66695
# Velocity P-wave (km/s) = 6.91126 7.93466 7.44058
#
# Compressibility (1/GPa) = 0.01652563
#
# Stress axis : x y z
#
# Youngs Moduli (GPa) = 33.67538 50.01226 40.66358
#
# Poissons Ratio (x) = 0.74253 0.43007
# Poissons Ratio (y) = 0.49997 0.14051
# Poissons Ratio (z) = 0.35616 0.17281
#
# Static dielectric constant tensor:
#      x y z
#    x 1.751010 0.000000 0.074690 
#    y 0.000000 1.712180 0.000000 
#    z 0.074690 0.000000 1.914080 
# 
# From -- ./inp_files/33743.got.cif
#   From: 2010.05.17/outbox.cif.g08.bks.cpg/sg10_17_cif.got.tgz:33743.got - 2010.06.03 11:33:40.
