data_PCOD9154083
_publ_section_title
;
Structure prediction by ZEFSAII (Michael W. Deem and Ramdas Pophale) SiO2 
 PCOD9154083
Probable space group: P 2/M
;
_chemical_formula_sum "Si O2"
_cell_formula_units_Z 16
_cell_length_a 11.793118
_cell_length_b 7.904185
_cell_length_c 9.552018
_cell_angle_alpha 90.000000
_cell_angle_beta 53.140743
_cell_angle_gamma 90.000000
_cell_volume 712.412185
_symmetry_space_group_name_H-M "P 2/M"
_symmetry_group_IT_number 10
_symmetry_cell_setting 'monoclinic'
loop_
_space_group_symop_operation_xyz
x,y,z
-x,y,-z
-x,-y,-z
x,-y,z
loop_
_atom_site_type_symbol
_atom_site_label
_atom_site_fract_x
_atom_site_fract_y
_atom_site_fract_z
Si Si1 0.646489 0.687404 0.975926
Si Si2 0.332160 0.000000 0.188576
Si Si3 0.079875 0.694677 0.795528
Si Si4 0.607170 0.695864 0.314939
Si Si5 0.096626 0.000000 0.567998
O O1 0.711110 0.500000 0.941059
O O2 0.729578 0.827863 0.829898
O O3 0.500000 0.666327 0.000000
O O4 0.617752 0.762286 0.150576
O O5 0.264678 0.000000 0.394261
O O6 0.500000 0.000000 0.000000
O O7 0.041228 0.500000 0.784916
O O8 0.243196 0.692931 0.721155
O O9 0.065063 0.834669 0.686649
O O10 0.000000 0.737763 0.000000
O O11 0.500000 0.781654 0.500000
O O12 0.558431 0.500000 0.327542
O O13 0.000000 0.000000 0.500000
#
# Coordination Sequence:
#
# PCOD9154083 Si02
#       5
#     4   2   4   4   2
#     4   9  19  36  61  90 129 166 202 262 325 378
#     4  10  24  40  60  94 127 164 217 260 315 395
#     4  10  24  47  71  95 131 177 222 269 330 398
#     4   9  19  36  64  98 126 163 216 268 324 384
#     4  12  29  46  66  98 135 173 222 280 331 387
#
# _framework density 22.458908000000001
#
# number of rings (size 3 to 8) (size 9 to 14) (size 15 to 20)
#    0.000    2.250    0.000    0.375   10.500    2.500 
#    0.000    1.250    0.000    0.000    0.000    0.000 
#    0.000    0.000    0.000    0.000    0.000    0.000 
#
# Total GULP energy -89137.078050 kJ/mol
# GULP energy per Si atom -5571.067378 kJ/mol
# Density = 2.240779 g / cm^3
# Si number density = 22.458908 Si / 1000 Ang^3
#
#
#
# Elastic Constant Matrix: (Units=GPa)
#
#
# Indices 1 2 3 4 5 6 
#
# 1 90.8150 18.3564 36.4579 0.0000 11.5967 0.0000
# 2 18.3564 145.0070 90.6017 0.0000 23.4944 0.0000
# 3 36.4579 90.6017 143.9177 0.0000 7.3138 0.0000
# 4 0.0000 0.0000 0.0000 37.8767 0.0000 8.9156
# 5 11.5967 23.4944 7.3138 0.0000 46.7817 0.0000
# 6 0.0000 0.0000 0.0000 8.9156 0.0000 6.7046
#
#
#
# Elastic Compliance Matrix: (Units=1/GPa)
#
#
# Indices 1 2 3 4 5 6 
#
# 1 0.012719 0.001356 -0.003912 0.000000 -0.003223 0.000000
# 2 0.001356 0.012601 -0.008001 0.000000 -0.005414 0.000000
# 3 -0.003912 -0.008001 0.012825 0.000000 0.002983 0.000000
# 4 0.000000 0.000000 0.000000 0.038431 0.000000 -0.051104
# 5 -0.003223 -0.005414 0.002983 0.000000 0.024427 0.000000
# 6 0.000000 0.000000 0.000000 -0.051104 0.000000 0.217108
#
#
# Mechanical properties :
#
#
# Convention : Reuss Voigt Hill
#
# Bulk Modulus (GPa) = 58.71642 74.50797 66.61220
# Shear Modulus (GPa) = 14.49688 33.89418 24.19553
#
# Velocity S-wave (km/s) = 2.54340 3.88901 3.28582
# Velocity P-wave (km/s) = 5.90134 7.30843 6.64225
#
# Compressibility (1/GPa) = 0.01703101
#
# Stress axis : x y z
#
# Youngs Moduli (GPa) = 78.62050 79.35936 77.97277
#
# Poissons Ratio (x) = -0.10764 0.30505
# Poissons Ratio (y) = -0.10664 0.62388
# Poissons Ratio (z) = 0.30758 0.63497
#
# Static dielectric constant tensor:
#      x y z
#    x 1.811540 0.000000 -0.015100 
#    y 0.000000 1.927710 0.000000 
#    z -0.015100 0.000000 2.080320 
# 
# From -- ./inp_files/16606.got.cif
#   From: 2010.05.17/outbox.cif.g08.bks.cpg/sg10_9_cif.got.tgz:16606.got - 2010.06.03 11:33:40.
