data_PCOD9154744
_publ_section_title
;
Structure prediction by ZEFSAII (Michael W. Deem and Ramdas Pophale) SiO2 
 PCOD9154744
Probable space group: P 2/M
;
_chemical_formula_sum "Si O2"
_cell_formula_units_Z 24
_cell_length_a 18.230751
_cell_length_b 7.746268
_cell_length_c 15.855327
_cell_angle_alpha 90.000000
_cell_angle_beta 153.894444
_cell_angle_gamma 90.000000
_cell_volume 985.260034
_symmetry_space_group_name_H-M "P 2/M"
_symmetry_group_IT_number 10
_symmetry_cell_setting 'monoclinic'
loop_
_space_group_symop_operation_xyz
x,y,z
-x,y,-z
-x,-y,-z
x,-y,z
loop_
_atom_site_type_symbol
_atom_site_label
_atom_site_fract_x
_atom_site_fract_y
_atom_site_fract_z
Si Si1 0.727907 0.500000 0.199065
Si Si2 0.913236 0.803469 0.170464
Si Si3 0.149956 0.699313 0.208208
Si Si4 0.383687 0.204387 0.589158
Si Si5 0.317271 0.791304 0.218539
Si Si6 0.941830 0.500000 0.579134
Si Si7 0.580479 0.198190 0.945862
O O1 0.787467 0.500000 0.356517
O O2 0.628509 0.330360 0.068090
O O3 0.895316 0.500000 0.314041
O O4 0.036190 0.667775 0.339847
O O5 0.743808 0.805455 0.052872
O O6 0.977172 0.000000 0.236276
O O7 0.843473 0.753652 0.006370
O O8 0.109824 0.500000 0.181056
O O9 0.213733 0.770562 0.362718
O O10 0.295244 0.716477 0.288165
O O11 0.000000 0.785197 0.000000
O O12 0.526062 0.274607 0.673101
O O13 0.411516 0.000000 0.624322
O O14 0.430209 0.265456 0.730806
O O15 0.330284 0.000000 0.239572
O O16 0.550930 0.000000 0.942984
#
# Coordination Sequence:
#
# PCOD9154744 Si02
#       7
#     2   4   4   4   4   2   4
#     4   9  16  24  38  63  93 126 158 187 233 291
#     4   8  15  27  42  63  91 121 157 199 235 277
#     4  11  24  35  44  68 102 129 158 199 246 294
#     4   9  18  33  52  71  91 123 168 207 239 283
#     4   9  18  33  52  71  91 123 168 207 239 283
#     4   9  16  24  38  63  93 126 158 187 233 291
#     4   8  15  27  42  63  91 121 157 199 235 277
#
# _framework density 24.359051999999998
#
# number of rings (size 3 to 8) (size 9 to 14) (size 15 to 20)
#    0.000    3.000    0.000    3.000    2.333    4.667 
#    0.000    3.333    0.000    0.000    0.000    0.000 
#    0.000    2.667    0.000    7.333    0.000    7.333 
#
# Total GULP energy -134178.489148 kJ/mol
# GULP energy per Si atom -5590.770381 kJ/mol
# Density = 2.430361 g / cm^3
# Si number density = 24.359052 Si / 1000 Ang^3
#
#
#
# Elastic Constant Matrix: (Units=GPa)
#
#
# Indices 1 2 3 4 5 6 
#
# 1 85.5693 25.1184 41.2012 0.0000 -14.7480 0.0000
# 2 25.1184 112.5857 77.5649 0.0000 -35.6544 0.0000
# 3 41.2012 77.5649 217.9164 0.0000 -45.0240 0.0000
# 4 0.0000 0.0000 0.0000 -49.7074 0.0000 20.5015
# 5 -14.7480 -35.6544 -45.0240 0.0000 47.6887 0.0000
# 6 0.0000 0.0000 0.0000 20.5015 0.0000 6.5163
#
#
#
# Elastic Compliance Matrix: (Units=1/GPa)
#
#
# Indices 1 2 3 4 5 6 
#
# 1 0.013147 -0.001275 -0.001725 0.000000 0.001484 0.000000
# 2 -0.001275 0.013467 -0.003173 0.000000 0.006680 0.000000
# 3 -0.001725 -0.003173 0.006763 0.000000 0.003480 0.000000
# 4 0.000000 0.000000 0.000000 -0.008756 0.000000 0.027548
# 5 0.001484 0.006680 0.003480 0.000000 0.029708 0.000000
# 6 0.000000 0.000000 0.000000 0.027548 0.000000 0.066791
#
#
# Mechanical properties :
#
#
# Convention : Reuss Voigt Hill
#
# Bulk Modulus (GPa) = 47.54464 78.20448 62.87456
# Shear Modulus (GPa) = 35.59306 19.04533 27.31919
#
# Velocity S-wave (km/s) = 3.82669 2.79921 3.35255
# Velocity P-wave (km/s) = 6.25183 6.52855 6.39169
#
# Compressibility (1/GPa) = 0.02103286
#
# Stress axis : x y z
#
# Youngs Moduli (GPa) = 76.06228 74.25284 147.85536
#
# Poissons Ratio (x) = 0.09464 0.25512
# Poissons Ratio (y) = 0.09694 0.46908
# Poissons Ratio (z) = 0.13124 0.23557
#
# Static dielectric constant tensor:
#      x y z
#    x 1.962310 0.000000 0.076580 
#    y 0.000000 1.856760 0.000000 
#    z 0.076580 0.000000 1.983700 
# 
# From -- ./inp_files/33815.got.cif
#   From: 2010.05.17/outbox.cif.g08.bks.cpg/sg10_17_cif.got.tgz:33815.got - 2010.06.03 11:33:40.
