data_PCOD9154098
_publ_section_title
;
Structure prediction by ZEFSAII (Michael W. Deem and Ramdas Pophale) SiO2 
 PCOD9154098
Probable space group: P 2/M
;
_chemical_formula_sum "Si O2"
_cell_formula_units_Z 32
_cell_length_a 14.138663
_cell_length_b 18.045410
_cell_length_c 5.931664
_cell_angle_alpha 90.000000
_cell_angle_beta 95.803768
_cell_angle_gamma 90.000000
_cell_volume 1505.635157
_symmetry_space_group_name_H-M "P 2/M"
_symmetry_group_IT_number 10
_symmetry_cell_setting 'monoclinic'
loop_
_space_group_symop_operation_xyz
x,y,z
-x,y,-z
-x,-y,-z
x,-y,z
loop_
_atom_site_type_symbol
_atom_site_label
_atom_site_fract_x
_atom_site_fract_y
_atom_site_fract_z
Si Si1 0.783778 0.086553 0.357484
Si Si2 0.398060 0.853643 0.936530
Si Si3 0.855675 0.311456 0.018427
Si Si4 0.265775 0.803867 0.288591
Si Si5 0.912582 0.583781 0.653082
Si Si6 0.049705 0.817805 0.760784
Si Si7 0.404953 0.287871 0.626797
Si Si8 0.269979 0.413733 0.713266
O O1 0.678614 0.103143 0.233211
O O2 0.788694 0.133146 0.588749
O O3 0.864113 0.123222 0.220940
O O4 0.798577 0.000000 0.390429
O O5 0.416262 0.772795 0.827607
O O6 0.500000 0.890196 0.000000
O O7 0.347430 0.841157 0.161081
O O8 0.909431 0.266226 0.226230
O O9 0.781239 0.370067 0.097569
O O10 0.800845 0.245463 0.880789
O O11 0.914848 0.355498 0.847259
O O12 0.317508 0.747570 0.468558
O O13 0.918819 0.500000 0.749294
O O14 0.810663 0.589939 0.502276
O O15 0.000000 0.590710 0.500000
O O16 0.000000 0.827519 0.500000
O O17 0.000000 0.824264 0.000000
O O18 0.500000 0.290931 0.500000
O O19 0.366083 0.368234 0.687007
O O20 0.287003 0.500000 0.765074
#
# Coordination Sequence:
#
# PCOD9154098 Si02
#       8
#     4   4   4   4   4   4   4   4
#     4  11  27  48  70 105 148 184 224 289 364 436
#     4  11  22  42  72 106 133 177 233 287 350 429
#     4  12  23  42  72  95 136 181 243 300 353 417
#     4  11  21  42  70  99 133 184 235 285 347 426
#     4  10  24  42  63  95 137 185 232 291 374 436
#     4  12  29  48  76 112 143 189 255 306 359 433
#     4  11  21  37  68  96 133 180 233 289 353 418
#     4  11  24  39  59  96 138 179 233 293 363 429
#
# _framework density 21.253488999999998
#
# number of rings (size 3 to 8) (size 9 to 14) (size 15 to 20)
#    0.000    0.875    5.000    1.875    3.500    1.500 
#    0.000    2.500    0.000    2.250    0.000    0.000 
#    0.000    0.000    0.000    0.000    0.000    0.000 
#
# Total GULP energy -178824.753628 kJ/mol
# GULP energy per Si atom -5588.273551 kJ/mol
# Density = 2.120512 g / cm^3
# Si number density = 21.253489 Si / 1000 Ang^3
#
#
#
# Elastic Constant Matrix: (Units=GPa)
#
#
# Indices 1 2 3 4 5 6 
#
# 1 81.2900 37.7025 20.9413 0.0000 -14.6232 0.0000
# 2 37.7025 151.5783 32.4119 0.0000 -17.7755 0.0000
# 3 20.9413 32.4119 70.7091 0.0000 -5.6615 0.0000
# 4 0.0000 0.0000 0.0000 1.8624 0.0000 -2.9066
# 5 -14.6232 -17.7755 -5.6615 0.0000 49.2951 0.0000
# 6 0.0000 0.0000 0.0000 -2.9066 0.0000 12.6180
#
#
#
# Elastic Compliance Matrix: (Units=1/GPa)
#
#
# Indices 1 2 3 4 5 6 
#
# 1 0.014867 -0.002712 -0.002912 0.000000 0.003098 0.000000
# 2 -0.002712 0.008070 -0.002753 0.000000 0.001789 0.000000
# 3 -0.002912 -0.002753 0.016268 0.000000 0.000012 0.000000
# 4 0.000000 0.000000 0.000000 0.838364 0.000000 0.193122
# 5 0.003098 0.001789 0.000012 0.000000 0.021852 0.000000
# 6 0.000000 0.000000 0.000000 0.193122 0.000000 0.123739
#
#
# Mechanical properties :
#
#
# Convention : Reuss Voigt Hill
#
# Bulk Modulus (GPa) = 44.54042 53.96543 49.25293
# Shear Modulus (GPa) = 4.77374 26.92322 15.84848
#
# Velocity S-wave (km/s) = 1.50032 3.56303 2.73369
# Velocity P-wave (km/s) = 4.89934 6.50948 5.76094
#
# Compressibility (1/GPa) = 0.02245151
#
# Stress axis : x y z
#
# Youngs Moduli (GPa) = 67.26381 123.91140 61.47180
#
# Poissons Ratio (x) = 0.33604 0.17900
# Poissons Ratio (y) = 0.18242 0.16922
# Poissons Ratio (z) = 0.19586 0.34111
#
# Static dielectric constant tensor:
#      x y z
#    x 1.821150 0.000000 0.034090 
#    y 0.000000 1.720610 0.000000 
#    z 0.034090 0.000000 1.819310 
# 
# From -- ./inp_files/9817.got.cif
#   From: 2010.05.17/outbox.cif.g08.bks.cpg/sg10_5_cif.got.tgz:9817.got - 2010.06.03 11:33:40.
