data_PCOD9154918
_publ_section_title
;
Structure prediction by ZEFSAII (Michael W. Deem and Ramdas Pophale) SiO2 
 PCOD9154918
Probable space group: P 2/M
;
_chemical_formula_sum "Si O2"
_cell_formula_units_Z 24
_cell_length_a 23.049218
_cell_length_b 7.404409
_cell_length_c 12.705615
_cell_angle_alpha 90.000000
_cell_angle_beta 137.440414
_cell_angle_gamma 90.000000
_cell_volume 1466.621383
_symmetry_space_group_name_H-M "P 2/M"
_symmetry_group_IT_number 10
_symmetry_cell_setting 'monoclinic'
loop_
_space_group_symop_operation_xyz
x,y,z
-x,y,-z
-x,-y,-z
x,-y,z
loop_
_atom_site_type_symbol
_atom_site_label
_atom_site_fract_x
_atom_site_fract_y
_atom_site_fract_z
Si Si1 0.487350 0.219987 0.150949
Si Si2 0.638231 0.780163 0.192755
Si Si3 0.743026 0.212532 0.688206
Si Si4 0.875865 0.500000 0.919406
Si Si5 0.804877 0.212790 0.530365
Si Si6 0.546539 0.220430 0.456101
Si Si7 0.938560 0.500000 0.759470
O O1 0.570121 0.273554 0.192085
O O2 0.499042 0.279828 0.285983
O O3 0.487119 0.000000 0.151148
O O4 0.403478 0.276847 0.973456
O O5 0.733412 0.723484 0.351543
O O6 0.639503 0.000000 0.195845
O O7 0.814156 0.327087 0.844256
O O8 0.761530 0.235556 0.588100
O O9 0.646339 0.272589 0.583426
O O10 0.750565 0.000000 0.721185
O O11 0.911374 0.500000 0.846617
O O12 0.958846 0.500000 0.104303
O O13 0.891527 0.327176 0.646798
O O14 0.821232 0.000000 0.538323
O O15 0.500000 0.279934 0.500000
O O16 0.545899 0.000000 0.454463
#
# Coordination Sequence:
#
# PCOD9154918 Si02
#       7
#     4   4   4   2   4   4   2
#     4   8  12  19  33  55  80 109 143 170 197 236
#     4   8  12  19  35  56  78 107 142 169 194 243
#     4   9  16  27  42  58  80 111 142 169 203 246
#     4   9  18  30  41  57  81 108 138 172 210 254
#     4   9  15  25  41  59  82 110 138 167 204 251
#     4   9  15  23  37  59  86 113 143 174 202 236
#     4   9  18  28  40  60  82 105 135 173 214 252
#
# _framework density 16.364142000000001
#
# number of rings (size 3 to 8) (size 9 to 14) (size 15 to 20)
#    0.000    3.333    1.667    1.000    0.000    0.667 
#    0.000    3.750    0.000    3.000    0.000    0.000 
#    0.000    2.667    0.000   13.000    0.000    0.333 
#
# Total GULP energy -133693.537138 kJ/mol
# GULP energy per Si atom -5570.564047 kJ/mol
# Density = 1.632690 g / cm^3
# Si number density = 16.364142 Si / 1000 Ang^3
#
#
#
# Elastic Constant Matrix: (Units=GPa)
#
#
# Indices 1 2 3 4 5 6 
#
# 1 53.1039 20.2822 57.1064 0.0000 -3.4975 0.0000
# 2 20.2822 65.4998 48.9234 0.0000 10.0635 0.0000
# 3 57.1064 48.9234 187.3411 0.0000 16.5146 0.0000
# 4 0.0000 0.0000 0.0000 25.8914 0.0000 11.0434
# 5 -3.4975 10.0635 16.5146 0.0000 20.4288 0.0000
# 6 0.0000 0.0000 0.0000 11.0434 0.0000 4.2537
#
#
#
# Elastic Compliance Matrix: (Units=1/GPa)
#
#
# Indices 1 2 3 4 5 6 
#
# 1 0.032660 -0.005096 -0.010055 0.000000 0.016231 0.000000
# 2 -0.005096 0.020411 -0.003029 0.000000 -0.008478 0.000000
# 3 -0.010055 -0.003029 0.009921 0.000000 -0.008250 0.000000
# 4 0.000000 0.000000 0.000000 -0.359749 0.000000 0.933985
# 5 0.016231 -0.008478 -0.008250 0.000000 0.062575 0.000000
# 6 0.000000 0.000000 0.000000 0.933985 0.000000 -2.189734
#
#
# Mechanical properties :
#
#
# Convention : Reuss Voigt Hill
#
# Bulk Modulus (GPa) = 37.55214 62.06320 49.80767
# Shear Modulus (GPa) = -2.10201 22.09031 9.99415
#
# Velocity S-wave (km/s) = -1.13460 3.67811 2.47399
# Velocity P-wave (km/s) = 4.61316 7.48643 6.21804
#
# Compressibility (1/GPa) = 0.02662964
#
# Stress axis : x y z
#
# Youngs Moduli (GPa) = 30.61868 48.99428 100.79283
#
# Poissons Ratio (x) = 0.24969 1.01352
# Poissons Ratio (y) = 0.15604 0.30533
# Poissons Ratio (z) = 0.30789 0.14842
#
# Static dielectric constant tensor:
#      x y z
#    x 1.505860 0.000000 -0.004480 
#    y 0.000000 1.611040 0.000000 
#    z -0.004480 0.000000 1.560260 
# 
# From -- ./inp_files/48925.got.cif
#   From: 2010.05.17/outbox.cif.g08.bks.cpg/sg10_25_cif.got.tgz:48925.got - 2010.06.03 11:33:40.
