data_PCOD9154127
_publ_section_title
;
Structure prediction by ZEFSAII (Michael W. Deem and Ramdas Pophale) SiO2 
 PCOD9154127
Probable space group: P 2/M
;
_chemical_formula_sum "Si O2"
_cell_formula_units_Z 24
_cell_length_a 10.956414
_cell_length_b 8.329759
_cell_length_c 20.415903
_cell_angle_alpha 90.000000
_cell_angle_beta 144.515496
_cell_angle_gamma 90.000000
_cell_volume 1081.580339
_symmetry_space_group_name_H-M "P 2/M"
_symmetry_group_IT_number 10
_symmetry_cell_setting 'monoclinic'
loop_
_space_group_symop_operation_xyz
x,y,z
-x,y,-z
-x,-y,-z
x,-y,z
loop_
_atom_site_type_symbol
_atom_site_label
_atom_site_fract_x
_atom_site_fract_y
_atom_site_fract_z
Si Si1 0.140662 0.678953 0.751801
Si Si2 0.586003 0.000000 0.110941
Si Si3 0.518938 0.315590 0.327931
Si Si4 0.703504 0.812485 0.544281
Si Si5 0.175648 0.182215 0.632130
Si Si6 0.974969 0.673350 0.909521
Si Si7 0.157930 0.000000 0.000309
O O1 0.201349 0.500000 0.800625
O O2 0.283097 0.832803 0.830233
O O3 0.143778 0.689104 0.674177
O O4 0.897628 0.718483 0.661053
O O5 0.410450 0.000000 0.093672
O O6 0.500000 0.000000 0.000000
O O7 0.581040 0.500000 0.343646
O O8 0.630023 0.254837 0.442170
O O9 0.602171 0.207824 0.305257
O O10 0.267373 0.310284 0.217239
O O11 0.500000 0.801204 0.500000
O O12 0.761626 0.000000 0.562490
O O13 0.000000 0.202442 0.500000
O O14 0.155839 0.000000 0.648494
O O15 0.054796 0.500000 0.920154
O O16 0.000000 0.667749 0.000000
O O17 0.090071 0.833368 0.937758
O O18 0.000000 0.000000 0.000000
#
# Coordination Sequence:
#
# PCOD9154127 Si02
#       7
#     4   2   4   4   4   4   2
#     4  12  26  47  76 106 142 189 240 295 363 435
#     4  12  30  54  75 105 146 189 248 305 368 440
#     4  11  23  37  62 102 139 181 232 287 352 426
#     4  11  24  44  69  99 141 188 237 293 356 430
#     4  11  22  37  65 102 143 181 228 285 353 429
#     4   9  21  39  61  96 137 174 225 284 345 415
#     4  10  24  44  71  99 130 181 235 293 359 422
#
# _framework density 22.189754000000001
#
# number of rings (size 3 to 8) (size 9 to 14) (size 15 to 20)
#    0.000    1.167    3.333    1.500    7.000    4.333 
#    0.000    1.667    0.000    0.000    0.000    0.000 
#    0.000    0.000    0.000    0.000    0.000    0.000 
#
# Total GULP energy -133902.514853 kJ/mol
# GULP energy per Si atom -5579.271452 kJ/mol
# Density = 2.213925 g / cm^3
# Si number density = 22.189754 Si / 1000 Ang^3
#
#
#
# Elastic Constant Matrix: (Units=GPa)
#
#
# Indices 1 2 3 4 5 6 
#
# 1 66.8692 32.5379 22.9613 0.0000 18.7368 0.0000
# 2 32.5379 190.7001 55.8356 0.0000 19.6261 0.0000
# 3 22.9613 55.8356 83.3335 0.0000 11.9610 0.0000
# 4 0.0000 0.0000 0.0000 30.8467 0.0000 -4.8382
# 5 18.7368 19.6261 11.9610 0.0000 25.7220 0.0000
# 6 0.0000 0.0000 0.0000 -4.8382 0.0000 21.7802
#
#
#
# Elastic Compliance Matrix: (Units=1/GPa)
#
#
# Indices 1 2 3 4 5 6 
#
# 1 0.020010 -0.001312 -0.002878 0.000000 -0.012236 0.000000
# 2 -0.001312 0.006858 -0.003878 0.000000 -0.002473 0.000000
# 3 -0.002878 -0.003878 0.015715 0.000000 -0.002252 0.000000
# 4 0.000000 0.000000 0.000000 0.033589 0.000000 0.007461
# 5 -0.012236 -0.002473 -0.002252 0.000000 0.050725 0.000000
# 6 0.000000 0.000000 0.000000 0.007461 0.000000 0.047571
#
#
# Mechanical properties :
#
#
# Convention : Reuss Voigt Hill
#
# Bulk Modulus (GPa) = 37.81354 62.61917 50.21636
# Shear Modulus (GPa) = 25.07284 30.97433 28.02358
#
# Velocity S-wave (km/s) = 3.36509 3.74021 3.55759
# Velocity P-wave (km/s) = 5.67243 6.85079 6.28927
#
# Compressibility (1/GPa) = 0.02644555
#
# Stress axis : x y z
#
# Youngs Moduli (GPa) = 49.97511 145.81890 63.63441
#
# Poissons Ratio (x) = 0.19135 0.18313
# Poissons Ratio (y) = 0.06558 0.24680
# Poissons Ratio (z) = 0.14382 0.56554
#
# Static dielectric constant tensor:
#      x y z
#    x 1.940720 0.000000 0.144610 
#    y 0.000000 1.805310 0.000000 
#    z 0.144610 0.000000 1.975490 
# 
# From -- ./inp_files/88766.got.cif
#   From: 2010.05.17/outbox.cif.g08.bks.cpg/sg10_45_cif.got.tgz:88766.got - 2010.06.03 11:33:40.
