data_PCOD9154673
_publ_section_title
;
Structure prediction by ZEFSAII (Michael W. Deem and Ramdas Pophale) SiO2 
 PCOD9154673
Probable space group: P 2/M
;
_chemical_formula_sum "Si O2"
_cell_formula_units_Z 32
_cell_length_a 20.804585
_cell_length_b 8.726973
_cell_length_c 12.570374
_cell_angle_alpha 90.000000
_cell_angle_beta 127.243726
_cell_angle_gamma 90.000000
_cell_volume 1816.858928
_symmetry_space_group_name_H-M "P 2/M"
_symmetry_group_IT_number 10
_symmetry_cell_setting 'monoclinic'
loop_
_space_group_symop_operation_xyz
x,y,z
-x,y,-z
-x,-y,-z
x,-y,z
loop_
_atom_site_type_symbol
_atom_site_label
_atom_site_fract_x
_atom_site_fract_y
_atom_site_fract_z
Si Si1 0.380033 0.814977 0.806907
Si Si2 0.804838 0.815281 0.828395
Si Si3 0.797796 0.683230 0.390113
Si Si4 0.953089 0.815737 0.131457
Si Si5 0.306702 0.186698 0.096041
Si Si6 0.546465 0.814305 0.887394
Si Si7 0.129350 0.317079 0.313245
Si Si8 0.160625 0.815515 0.792668
O O1 0.294351 0.740863 0.699084
O O2 0.453690 0.763946 0.804255
O O3 0.372187 0.000000 0.793222
O O4 0.409773 0.778790 0.956639
O O5 0.730069 0.764761 0.827780
O O6 0.811943 0.745129 0.719555
O O7 0.802725 0.000000 0.818553
O O8 0.886000 0.774918 0.976075
O O9 0.798892 0.500000 0.388369
O O10 0.843128 0.735877 0.542225
O O11 0.837593 0.745522 0.321986
O O12 0.914376 0.772948 0.206901
O O13 0.039288 0.741710 0.200264
O O14 0.961410 0.000000 0.136864
O O15 0.394917 0.240276 0.147850
O O16 0.307576 0.000000 0.098443
O O17 0.241269 0.228837 0.939623
O O18 0.543567 0.000000 0.879088
O O19 0.130140 0.500000 0.312049
O O20 0.161874 0.000000 0.785172
#
# Coordination Sequence:
#
# PCOD9154673 Si02
#       8
#     4   4   4   4   4   4   4   4
#     4   9  16  28  50  76 100 130 162 194 238 294
#     4   9  18  33  55  78  97 121 159 208 251 287
#     4  11  23  35  46  66 102 140 170 201 236 283
#     4   9  19  35  56  80  99 117 155 211 258 294
#     4   8  13  26  51  79 103 122 148 197 252 292
#     4   8  13  24  49  81 104 122 153 196 245 295
#     4  11  24  37  48  66  97 138 173 202 242 288
#     4   9  17  32  54  76  98 127 159 195 247 301
#
# _framework density 17.612814
#
# number of rings (size 3 to 8) (size 9 to 14) (size 15 to 20)
#    0.000    2.750    1.250    3.375    0.000    5.000 
#    0.000    5.625    0.000    0.750    0.000    5.250 
#    0.000    0.000    0.000    0.000    0.000    0.000 
#
# Total GULP energy -178367.927628 kJ/mol
# GULP energy per Si atom -5573.997738 kJ/mol
# Density = 1.757273 g / cm^3
# Si number density = 17.612814 Si / 1000 Ang^3
#
#
#
# Elastic Constant Matrix: (Units=GPa)
#
#
# Indices 1 2 3 4 5 6 
#
# 1 110.1363 14.7498 14.6421 0.0000 -23.1427 0.0000
# 2 14.7498 8.3219 8.9948 0.0000 -7.0207 0.0000
# 3 14.6421 8.9948 25.0325 0.0000 -20.5087 0.0000
# 4 0.0000 0.0000 0.0000 22.2907 0.0000 -9.6581
# 5 -23.1427 -7.0207 -20.5087 0.0000 26.8360 0.0000
# 6 0.0000 0.0000 0.0000 -9.6581 0.0000 -0.4389
#
#
#
# Elastic Compliance Matrix: (Units=1/GPa)
#
#
# Indices 1 2 3 4 5 6 
#
# 1 0.014290 -0.027792 0.015425 0.000000 0.016840 0.000000
# 2 -0.027792 0.250993 -0.106371 0.000000 -0.039594 0.000000
# 3 0.015425 -0.106371 0.153111 0.000000 0.102485 0.000000
# 4 0.000000 0.000000 0.000000 0.004258 0.000000 -0.093712
# 5 0.016840 -0.039594 0.102485 0.000000 0.119749 0.000000
# 6 0.000000 0.000000 0.000000 -0.093712 0.000000 -0.216287
#
#
# Mechanical properties :
#
#
# Convention : Reuss Voigt Hill
#
# Bulk Modulus (GPa) = 5.52735 24.47379 15.00057
# Shear Modulus (GPa) = 8.01414 16.74450 12.37932
#
# Velocity S-wave (km/s) = 2.13543 3.08669 2.65402
# Velocity P-wave (km/s) = 3.03729 5.16034 4.23404
#
# Compressibility (1/GPa) = 0.18091859
#
# Stress axis : x y z
#
# Youngs Moduli (GPa) = 69.98086 3.98417 6.53119
#
# Poissons Ratio (x) = 0.11073 -0.10074
# Poissons Ratio (y) = 1.94493 0.69473
# Poissons Ratio (z) = -1.07946 0.42380
#
# Static dielectric constant tensor:
#      x y z
#    x 1.632600 0.000000 -0.010550 
#    y 0.000000 1.591370 0.000000 
#    z -0.010550 0.000000 1.577200 
# 
# From -- ./inp_files/54827.got.cif
#   From: 2010.05.17/outbox.cif.g08.bks.cpg/sg10_28_cif.got.tgz:54827.got - 2010.06.03 11:33:40.
