data_PCOD9154694
_publ_section_title
;
Structure prediction by ZEFSAII (Michael W. Deem and Ramdas Pophale) SiO2 
 PCOD9154694
Probable space group: P 2/M
;
_chemical_formula_sum "Si O2"
_cell_formula_units_Z 24
_cell_length_a 13.294612
_cell_length_b 14.200564
_cell_length_c 8.559228
_cell_angle_alpha 90.000000
_cell_angle_beta 48.731924
_cell_angle_gamma 90.000000
_cell_volume 1214.565599
_symmetry_space_group_name_H-M "P 2/M"
_symmetry_group_IT_number 10
_symmetry_cell_setting 'monoclinic'
loop_
_space_group_symop_operation_xyz
x,y,z
-x,y,-z
-x,-y,-z
x,-y,z
loop_
_atom_site_type_symbol
_atom_site_label
_atom_site_fract_x
_atom_site_fract_y
_atom_site_fract_z
Si Si1 0.643218 0.606893 0.551269
Si Si2 0.539884 0.111951 0.284308
Si Si3 0.792040 0.205727 0.891742
Si Si4 0.292713 0.799783 0.376839
Si Si5 0.040719 0.110209 0.777843
Si Si6 0.675948 0.392622 0.146962
O O1 0.677414 0.500000 0.562778
O O2 0.709855 0.689487 0.579858
O O3 0.482068 0.617073 0.730516
O O4 0.680853 0.618608 0.330021
O O5 0.500000 0.142481 0.500000
O O6 0.440401 0.162046 0.264854
O O7 0.524814 0.000000 0.287725
O O8 0.690798 0.142465 0.097709
O O9 0.752024 0.187584 0.754496
O O10 0.941110 0.173134 0.776795
O O11 0.760151 0.312761 0.974682
O O12 0.190855 0.856133 0.591912
O O13 0.026836 0.000000 0.751819
O O14 0.000000 0.122071 0.000000
O O15 0.715898 0.500000 0.068345
#
# Coordination Sequence:
#
# PCOD9154694 Si02
#       6
#     4   4   4   4   4   4
#     4   9  18  35  61  90 121 160 203 245 292 352
#     4  11  23  39  60  85 116 157 205 250 292 353
#     4  12  24  38  60  92 125 156 194 250 310 358
#     4  12  24  38  60  92 125 156 194 250 310 358
#     4  11  25  45  66  85 114 163 211 248 296 363
#     4   9  18  35  61  90 121 160 203 245 292 352
#
# _framework density 19.760151
#
# number of rings (size 3 to 8) (size 9 to 14) (size 15 to 20)
#    0.000    1.333    1.667    6.000    0.000    7.333 
#    0.000    2.500    0.000    5.000    0.000    0.000 
#    0.000    0.000    0.000    0.000    0.000    0.000 
#
# Total GULP energy -134225.342035 kJ/mol
# GULP energy per Si atom -5592.722585 kJ/mol
# Density = 1.971518 g / cm^3
# Si number density = 19.760151 Si / 1000 Ang^3
#
#
#
# Elastic Constant Matrix: (Units=GPa)
#
#
# Indices 1 2 3 4 5 6 
#
# 1 43.6466 7.3031 -14.3624 0.0000 5.3932 0.0000
# 2 7.3031 86.8452 6.8227 0.0000 12.2365 0.0000
# 3 -14.3624 6.8227 34.6477 0.0000 -0.1901 0.0000
# 4 0.0000 0.0000 0.0000 83.7011 0.0000 -16.4323
# 5 5.3932 12.2365 -0.1901 0.0000 24.2394 0.0000
# 6 0.0000 0.0000 0.0000 -16.4323 0.0000 23.7025
#
#
#
# Elastic Compliance Matrix: (Units=1/GPa)
#
#
# Indices 1 2 3 4 5 6 
#
# 1 0.027910 -0.002619 0.012059 0.000000 -0.004793 0.000000
# 2 -0.002619 0.012858 -0.003650 0.000000 -0.005937 0.000000
# 3 0.012059 -0.003650 0.034576 0.000000 -0.000569 0.000000
# 4 0.000000 0.000000 0.000000 0.013830 0.000000 0.009588
# 5 -0.004793 -0.005937 -0.000569 0.000000 0.045314 0.000000
# 6 0.000000 0.000000 0.000000 0.009588 0.000000 0.048837
#
#
# Mechanical properties :
#
#
# Convention : Reuss Voigt Hill
#
# Bulk Modulus (GPa) = 11.50438 18.29628 14.90033
# Shear Modulus (GPa) = 24.91029 37.35366 31.13198
#
# Velocity S-wave (km/s) = 3.55439 4.35254 3.97355
# Velocity P-wave (km/s) = 4.76231 5.87696 5.34875
#
# Compressibility (1/GPa) = 0.08692339
#
# Stress axis : x y z
#
# Youngs Moduli (GPa) = 35.82968 77.77092 28.92157
#
# Poissons Ratio (x) = 0.20368 -0.34876
# Poissons Ratio (y) = 0.09384 0.10557
# Poissons Ratio (z) = -0.43206 0.28388
#
# Static dielectric constant tensor:
#      x y z
#    x 1.661440 0.000000 0.020090 
#    y 0.000000 1.684430 0.000000 
#    z 0.020090 0.000000 1.674850 
# 
# From -- ./inp_files/29262.got.cif
#   From: 2010.05.17/outbox.cif.g08.bks.cpg/sg10_15_cif.got.tgz:29262.got - 2010.06.03 11:33:40.
