data_PCOD9154046
_publ_section_title
;
Structure prediction by ZEFSAII (Michael W. Deem and Ramdas Pophale) SiO2 
 PCOD9154046
Probable space group: P 2/M
;
_chemical_formula_sum "Si O2"
_cell_formula_units_Z 16
_cell_length_a 5.159262
_cell_length_b 22.198039
_cell_length_c 5.250109
_cell_angle_alpha 90.000000
_cell_angle_beta 92.583931
_cell_angle_gamma 90.000000
_cell_volume 600.660013
_symmetry_space_group_name_H-M "P 2/M"
_symmetry_group_IT_number 10
_symmetry_cell_setting 'monoclinic'
loop_
_space_group_symop_operation_xyz
x,y,z
-x,y,-z
-x,-y,-z
x,-y,z
loop_
_atom_site_type_symbol
_atom_site_label
_atom_site_fract_x
_atom_site_fract_y
_atom_site_fract_z
Si Si1 0.669330 0.868052 0.765288
Si Si2 0.854545 0.258156 0.741775
Si Si3 0.178834 0.432320 0.259360
Si Si4 0.500000 0.668957 0.000000
Si Si5 0.761227 0.000000 0.677078
O O1 0.500000 0.868549 0.500000
O O2 0.871516 0.814023 0.744091
O O3 0.766186 0.936067 0.817293
O O4 0.500000 0.852195 0.000000
O O5 0.562424 0.278300 0.785673
O O6 0.000000 0.281070 0.500000
O O7 0.000000 0.284787 0.000000
O O8 0.287014 0.500000 0.292093
O O9 0.000000 0.420155 0.500000
O O10 0.387524 0.382316 0.194321
O O11 0.000000 0.432372 0.000000
O O12 0.500000 0.000000 0.500000
O O13 0.000000 0.000000 0.500000
#
# Coordination Sequence:
#
# PCOD9154046 Si02
#       5
#     4   4   4   2   2
#     4  11  23  46  71 101 135 182 235 293 359 426
#     4  12  27  44  67  99 139 184 235 288 349 425
#     4  10  23  44  69 100 134 175 228 283 340 411
#     4  12  25  44  68  99 140 180 232 274 364 397
#     4  10  23  44  72 106 138 188 242 309 369 443
#
# _framework density 26.637360999999999
#
# number of rings (size 3 to 8) (size 9 to 14) (size 15 to 20)
#    0.000    1.000    1.250    4.500    0.000    5.000 
#    0.000    9.375    0.000    0.000    0.000    0.000 
#    0.000    0.000    0.000    0.000    0.000    0.000 
#
# Total GULP energy -89183.384032 kJ/mol
# GULP energy per Si atom -5573.961502 kJ/mol
# Density = 2.657673 g / cm^3
# Si number density = 26.637361 Si / 1000 Ang^3
#
#
#
# Elastic Constant Matrix: (Units=GPa)
#
#
# Indices 1 2 3 4 5 6 
#
# 1 66.2492 4.0412 60.3741 0.0000 -9.0196 0.0000
# 2 4.0412 249.5094 38.9527 0.0000 -30.8771 0.0000
# 3 60.3741 38.9527 259.2526 0.0000 -43.7684 0.0000
# 4 0.0000 0.0000 0.0000 42.1662 0.0000 -20.2070
# 5 -9.0196 -30.8771 -43.7684 0.0000 69.8853 0.0000
# 6 0.0000 0.0000 0.0000 -20.2070 0.0000 94.0405
#
#
#
# Elastic Compliance Matrix: (Units=1/GPa)
#
#
# Indices 1 2 3 4 5 6 
#
# 1 0.019202 0.000375 -0.004564 0.000000 -0.000215 0.000000
# 2 0.000375 0.004277 -0.000450 0.000000 0.001656 0.000000
# 3 -0.004564 -0.000450 0.005429 0.000000 0.002612 0.000000
# 4 0.000000 0.000000 0.000000 0.026438 0.000000 0.005681
# 5 -0.000215 0.001656 0.002612 0.000000 0.016649 0.000000
# 6 0.000000 0.000000 0.000000 0.005681 0.000000 0.011854
#
#
# Mechanical properties :
#
#
# Convention : Reuss Voigt Hill
#
# Bulk Modulus (GPa) = 50.94643 86.86079 68.90361
# Shear Modulus (GPa) = 50.16491 72.66130 61.41310
#
# Velocity S-wave (km/s) = 4.34436 5.22850 4.80680
# Velocity P-wave (km/s) = 6.65823 8.31438 7.53197
#
# Compressibility (1/GPa) = 0.01962846
#
# Stress axis : x y z
#
# Youngs Moduli (GPa) = 52.07813 233.80657 184.20332
#
# Poissons Ratio (x) = -0.08768 0.84075
# Poissons Ratio (y) = -0.01953 0.08296
# Poissons Ratio (z) = 0.23770 0.10530
#
# Static dielectric constant tensor:
#      x y z
#    x 1.871480 0.000000 0.001870 
#    y 0.000000 2.172990 0.000000 
#    z 0.001870 0.000000 2.003820 
# 
# From -- ./inp_files/1475.got.cif
#   From: 2010.05.17/outbox.cif.g08.bks.cpg/sg10_1_cif.got.tgz:1475.got - 2010.06.03 11:33:40.
