data_PCOD9154283
_publ_section_title
;
Structure prediction by ZEFSAII (Michael W. Deem and Ramdas Pophale) SiO2 
 PCOD9154283
Probable space group: P 2/M
;
_chemical_formula_sum "Si O2"
_cell_formula_units_Z 32
_cell_length_a 24.514000
_cell_length_b 8.366026
_cell_length_c 12.677454
_cell_angle_alpha 90.000000
_cell_angle_beta 133.416311
_cell_angle_gamma 90.000000
_cell_volume 1888.551097
_symmetry_space_group_name_H-M "P 2/M"
_symmetry_group_IT_number 10
_symmetry_cell_setting 'monoclinic'
loop_
_space_group_symop_operation_xyz
x,y,z
-x,y,-z
-x,-y,-z
x,-y,z
loop_
_atom_site_type_symbol
_atom_site_label
_atom_site_fract_x
_atom_site_fract_y
_atom_site_fract_z
Si Si1 0.181162 0.189583 0.856030
Si Si2 0.097724 0.311409 0.950240
Si Si3 0.180482 0.691109 0.275234
Si Si4 0.499653 0.814101 0.371299
Si Si5 0.336179 0.805939 0.407108
Si Si6 0.336145 0.804452 0.161416
Si Si7 0.065587 0.186166 0.291733
Si Si8 0.924556 0.310809 0.461547
O O1 0.130023 0.223013 0.890787
O O2 0.144281 0.275443 0.707540
O O3 0.182563 0.000000 0.838113
O O4 0.264985 0.244951 0.998114
O O5 0.111545 0.500000 0.954050
O O6 0.009109 0.281458 0.841082
O O7 0.139969 0.257370 0.112228
O O8 0.175380 0.500000 0.274711
O O9 0.266784 0.743212 0.381629
O O10 0.135268 0.764908 0.311937
O O11 0.500000 0.813753 0.500000
O O12 0.580906 0.747069 0.447950
O O13 0.418270 0.745612 0.233392
O O14 0.499456 0.000000 0.337720
O O15 0.324915 0.757888 0.269144
O O16 0.336804 0.000000 0.410022
O O17 0.338227 0.000000 0.163934
O O18 0.081086 0.224109 0.434477
O O19 0.049333 0.000000 0.256728
O O20 0.931316 0.500000 0.490531
O O21 0.000000 0.258620 0.500000
#
# Coordination Sequence:
#
# PCOD9154283 Si02
#       8
#     4   4   4   4   4   4   4   4
#     4  11  20  31  53  80 104 133 174 217 252 292
#     4  11  22  36  52  73 104 140 171 203 254 309
#     4  11  23  36  51  73 107 142 171 205 253 310
#     4   7  11  21  41  69 101 134 166 203 248 295
#     4   9  15  27  48  73 101 136 175 208 244 293
#     4   8  14  25  44  74 106 133 166 211 254 291
#     4  12  25  39  57  76  96 127 175 223 256 295
#     4  11  23  39  57  74 100 135 168 207 261 314
#
# _framework density 16.944206999999999
#
# number of rings (size 3 to 8) (size 9 to 14) (size 15 to 20)
#    0.000    2.000    2.500    4.500    0.000    3.500 
#    0.000    0.000    0.000    4.875    0.000    0.875 
#    0.000    7.000    0.000    0.000    0.000    0.000 
#
# Total GULP energy -178521.311685 kJ/mol
# GULP energy per Si atom -5578.790990 kJ/mol
# Density = 1.690564 g / cm^3
# Si number density = 16.944207 Si / 1000 Ang^3
#
#
#
# Elastic Constant Matrix: (Units=GPa)
#
#
# Indices 1 2 3 4 5 6 
#
# 1 86.1396 -2.5843 43.3804 0.0000 17.6338 0.0000
# 2 -2.5843 13.5164 -2.0095 0.0000 -5.2938 0.0000
# 3 43.3804 -2.0095 62.4480 0.0000 26.0684 0.0000
# 4 0.0000 0.0000 0.0000 3.2274 0.0000 -18.8323
# 5 17.6338 -5.2938 26.0684 0.0000 29.9332 0.0000
# 6 0.0000 0.0000 0.0000 -18.8323 0.0000 -17.6553
#
#
#
# Elastic Compliance Matrix: (Units=1/GPa)
#
#
# Indices 1 2 3 4 5 6 
#
# 1 0.017903 0.001875 -0.012746 0.000000 0.000885 0.000000
# 2 0.001875 0.080776 -0.006608 0.000000 0.018936 0.000000
# 3 -0.012746 -0.006608 0.034579 0.000000 -0.023775 0.000000
# 4 0.000000 0.000000 0.000000 0.042890 0.000000 -0.045750
# 5 0.000885 0.018936 -0.023775 0.000000 0.056940 0.000000
# 6 0.000000 0.000000 0.000000 -0.045750 0.000000 -0.007840
#
#
# Mechanical properties :
#
#
# Convention : Reuss Voigt Hill
#
# Bulk Modulus (GPa) = 10.17278 26.63080 18.40179
# Shear Modulus (GPa) = 17.06645 11.32223 14.19434
#
# Velocity S-wave (km/s) = 3.17711 2.58777 2.89746
# Velocity P-wave (km/s) = 4.41309 4.96786 4.69867
#
# Compressibility (1/GPa) = 0.09830157
#
# Stress axis : x y z
#
# Youngs Moduli (GPa) = 55.85683 12.37986 28.91924
#
# Poissons Ratio (x) = -0.02321 0.36859
# Poissons Ratio (y) = -0.10471 0.19109
# Poissons Ratio (z) = 0.71192 0.08180
#
# Static dielectric constant tensor:
#      x y z
#    x 1.564130 0.000000 0.034010 
#    y 0.000000 1.574940 0.000000 
#    z 0.034010 0.000000 1.577470 
# 
# From -- ./inp_files/54923.got.cif
#   From: 2010.05.17/outbox.cif.g08.bks.cpg/sg10_28_cif.got.tgz:54923.got - 2010.06.03 11:33:40.
