data_PCOD9154388
_publ_section_title
;
Structure prediction by ZEFSAII (Michael W. Deem and Ramdas Pophale) SiO2 
 PCOD9154388
Probable space group: P 2/M
;
_chemical_formula_sum "Si O2"
_cell_formula_units_Z 28
_cell_length_a 13.719736
_cell_length_b 22.025068
_cell_length_c 5.157044
_cell_angle_alpha 90.000000
_cell_angle_beta 100.306126
_cell_angle_gamma 90.000000
_cell_volume 1533.203368
_symmetry_space_group_name_H-M "P 2/M"
_symmetry_group_IT_number 10
_symmetry_cell_setting 'monoclinic'
loop_
_space_group_symop_operation_xyz
x,y,z
-x,y,-z
-x,-y,-z
x,-y,z
loop_
_atom_site_type_symbol
_atom_site_label
_atom_site_fract_x
_atom_site_fract_y
_atom_site_fract_z
Si Si1 0.214754 0.246137 0.525053
Si Si2 0.438651 0.603777 0.723121
Si Si3 0.104061 0.571392 0.943231
Si Si4 0.115219 0.194551 0.969225
Si Si5 0.561176 0.751692 0.275583
Si Si6 0.783086 0.389222 0.504014
Si Si7 0.070084 0.933196 0.782278
O O1 0.176660 0.210451 0.255326
O O2 0.325729 0.227223 0.658412
O O3 0.221282 0.317005 0.453543
O O4 0.144346 0.237029 0.741012
O O5 0.500000 0.586016 0.500000
O O6 0.436586 0.677746 0.734849
O O7 0.323892 0.586496 0.640249
O O8 0.500000 0.581947 0.000000
O O9 0.090777 0.500000 0.887926
O O10 0.182202 0.581173 0.211626
O O11 0.140615 0.599471 0.692780
O O12 0.000000 0.596893 0.000000
O O13 0.133938 0.126356 0.870247
O O14 0.000000 0.199651 0.000000
O O15 0.500000 0.768552 0.500000
O O16 0.500000 0.773351 0.000000
O O17 0.000000 0.921940 0.500000
O O18 0.117608 0.000000 0.769795
O O19 0.000000 0.937268 0.000000
#
# Coordination Sequence:
#
# PCOD9154388 Si02
#       7
#     4   4   4   4   4   4   4
#     4  11  22  33  51  80 109 137 168 204 261 325
#     4   9  17  31  53  78 102 129 160 197 250 313
#     4  11  24  41  59  76  97 132 180 224 252 286
#     4  11  21  33  47  73 114 147 168 204 254 303
#     4   9  17  31  49  70  98 131 169 211 249 293
#     4  11  22  37  58  80 103 134 169 210 261 314
#     4   9  17  31  50  69  95 141 191 219 241 283
#
# _framework density 18.262418
#
# number of rings (size 3 to 8) (size 9 to 14) (size 15 to 20)
#    0.000    1.857    0.000    5.571    0.000    9.143 
#    0.000    0.000    0.000    8.571    0.000    0.000 
#    0.000   11.429    0.000    0.000    0.000    0.000 
#
# Total GULP energy -156273.749674 kJ/mol
# GULP energy per Si atom -5581.205345 kJ/mol
# Density = 1.822085 g / cm^3
# Si number density = 18.262418 Si / 1000 Ang^3
#
#
#
# Elastic Constant Matrix: (Units=GPa)
#
#
# Indices 1 2 3 4 5 6 
#
# 1 57.2047 12.2386 15.7089 0.0000 4.5709 0.0000
# 2 12.2386 32.4894 12.0645 0.0000 9.0020 0.0000
# 3 15.7089 12.0645 129.4392 0.0000 2.0755 0.0000
# 4 0.0000 0.0000 0.0000 23.5323 0.0000 8.2568
# 5 4.5709 9.0020 2.0755 0.0000 29.9445 0.0000
# 6 0.0000 0.0000 0.0000 8.2568 0.0000 -52.1220
#
#
#
# Elastic Compliance Matrix: (Units=1/GPa)
#
#
# Indices 1 2 3 4 5 6 
#
# 1 0.019404 -0.006409 -0.001743 0.000000 -0.000914 0.000000
# 2 -0.006409 0.036874 -0.002500 0.000000 -0.009934 0.000000
# 3 -0.001743 -0.002500 0.008163 0.000000 0.000452 0.000000
# 4 0.000000 0.000000 0.000000 0.040257 0.000000 0.006377
# 5 -0.000914 -0.009934 0.000452 0.000000 0.036490 0.000000
# 6 0.000000 0.000000 0.000000 0.006377 0.000000 -0.018176
#
#
# Mechanical properties :
#
#
# Convention : Reuss Voigt Hill
#
# Bulk Modulus (GPa) = 23.18146 33.23969 28.21058
# Shear Modulus (GPa) = 31.50707 12.21238 21.85972
#
# Velocity S-wave (km/s) = 4.15811 2.58876 3.46349
# Velocity P-wave (km/s) = 5.98116 5.21308 5.61028
#
# Compressibility (1/GPa) = 0.04313791
#
# Stress axis : x y z
#
# Youngs Moduli (GPa) = 51.53605 27.11930 122.50540
#
# Poissons Ratio (x) = 0.17380 0.21351
# Poissons Ratio (y) = 0.33028 0.30624
# Poissons Ratio (z) = 0.08982 0.06779
#
# Static dielectric constant tensor:
#      x y z
#    x 1.627060 0.000000 0.006670 
#    y 0.000000 1.656730 0.000000 
#    z 0.006670 0.000000 1.558160 
# 
# From -- ./inp_files/7743.got.cif
#   From: 2010.05.17/outbox.cif.g08.bks.cpg/sg10_4_cif.got.tgz:7743.got - 2010.06.03 11:33:40.
