data_PCOD9154621
_publ_section_title
;
Structure prediction by ZEFSAII (Michael W. Deem and Ramdas Pophale) SiO2 
 PCOD9154621
Probable space group: P 2/M
;
_chemical_formula_sum "Si O2"
_cell_formula_units_Z 11
_cell_length_a 7.771023
_cell_length_b 9.744047
_cell_length_c 11.531826
_cell_angle_alpha 90.000000
_cell_angle_beta 38.035899
_cell_angle_gamma 90.000000
_cell_volume 538.028998
_symmetry_space_group_name_H-M "P 2/M"
_symmetry_group_IT_number 10
_symmetry_cell_setting 'monoclinic'
loop_
_space_group_symop_operation_xyz
x,y,z
-x,y,-z
-x,-y,-z
x,-y,z
loop_
_atom_site_type_symbol
_atom_site_label
_atom_site_fract_x
_atom_site_fract_y
_atom_site_fract_z
Si Si1 0.717818 0.000000 0.279333
Si Si2 0.500000 0.500000 0.500000
Si Si3 0.305554 0.000000 0.279639
Si Si4 0.500000 0.768654 0.000000
Si Si5 0.027720 0.701212 0.850996
O O1 0.500000 0.000000 0.500000
O O2 0.537995 0.000000 0.256940
O O3 0.902413 0.136358 0.189077
O O4 0.724332 0.618677 0.339569
O O5 0.000000 0.000000 0.500000
O O6 0.355071 0.867548 0.172401
O O7 0.261816 0.682614 0.062787
O O8 0.000000 0.662271 0.000000
#
# Coordination Sequence:
#
# PCOD9154621 Si02
#       5
#     2   1   2   2   4
#     4  12  21  42  76 104 141 176 230 289 353 408
#     4  12  30  48  70  96 144 194 242 276 348 422
#     4  11  22  38  67 117 143 171 222 299 353 417
#     4  11  24  41  72 106 140 176 234 286 356 408
#     4  12  25  48  71 104 139 186 231 293 348 416
#
# _framework density 20.444993
#
# number of rings (size 3 to 8) (size 9 to 14) (size 15 to 20)
#    0.000    0.364    5.455    5.455    0.000    0.727 
#    0.000    1.818    0.000    0.000    0.000    0.000 
#    0.000    0.000    0.000    0.000    0.000    0.000 
#
# Total GULP energy -61343.876475 kJ/mol
# GULP energy per Si atom -5576.716043 kJ/mol
# Density = 2.039846 g / cm^3
# Si number density = 20.444993 Si / 1000 Ang^3
#
#
#
# Elastic Constant Matrix: (Units=GPa)
#
#
# Indices 1 2 3 4 5 6 
#
# 1 188.5614 35.3885 80.1784 0.0000 -10.3506 0.0000
# 2 35.3885 123.2333 52.2972 0.0000 -15.5945 0.0000
# 3 80.1784 52.2972 195.7090 0.0000 -21.0322 0.0000
# 4 0.0000 0.0000 0.0000 54.6122 0.0000 -16.8130
# 5 -10.3506 -15.5945 -21.0322 0.0000 30.0295 0.0000
# 6 0.0000 0.0000 0.0000 -16.8130 0.0000 -8.9927
#
#
#
# Elastic Compliance Matrix: (Units=1/GPa)
#
#
# Indices 1 2 3 4 5 6 
#
# 1 0.006497 -0.000820 -0.002431 0.000000 0.000111 0.000000
# 2 -0.000820 0.009566 -0.001857 0.000000 0.003385 0.000000
# 3 -0.002431 -0.001857 0.006929 0.000000 0.003051 0.000000
# 4 0.000000 0.000000 0.000000 0.011622 0.000000 -0.021728
# 5 0.000111 0.003385 0.003051 0.000000 0.037234 0.000000
# 6 0.000000 0.000000 0.000000 -0.021728 0.000000 -0.070578
#
#
# Mechanical properties :
#
#
# Convention : Reuss Voigt Hill
#
# Bulk Modulus (GPa) = 78.25852 93.69242 85.97547
# Shear Modulus (GPa) = 317.57821 37.77243 177.67532
#
# Velocity S-wave (km/s) = 12.47679 4.30294 9.33235
# Velocity P-wave (km/s) = 15.68187 8.40316 12.58042
#
# Compressibility (1/GPa) = 0.01277816
#
# Stress axis : x y z
#
# Youngs Moduli (GPa) = 153.92135 104.53217 144.31256
#
# Poissons Ratio (x) = 0.08573 0.35076
# Poissons Ratio (y) = 0.12624 0.26793
# Poissons Ratio (z) = 0.37411 0.19407
#
# Static dielectric constant tensor:
#      x y z
#    x 1.717570 0.000000 0.009660 
#    y 0.000000 1.708090 0.000000 
#    z 0.009660 0.000000 1.685840 
# 
# From -- ./inp_files/41169.got.cif
#   From: 2010.05.17/outbox.cif.g08.bks.cpg/sg10_21_cif.got.tgz:41169.got - 2010.06.03 11:33:40.
