data_PCOD9154034
_publ_section_title
;
Structure prediction by ZEFSAII (Michael W. Deem and Ramdas Pophale) SiO2 
 PCOD9154034
Probable space group: P 2/M
;
_chemical_formula_sum "Si O2"
_cell_formula_units_Z 16
_cell_length_a 5.234400
_cell_length_b 12.025437
_cell_length_c 10.736705
_cell_angle_alpha 90.000000
_cell_angle_beta 96.375803
_cell_angle_gamma 90.000000
_cell_volume 671.651984
_symmetry_space_group_name_H-M "P 2/M"
_symmetry_group_IT_number 10
_symmetry_cell_setting 'monoclinic'
loop_
_space_group_symop_operation_xyz
x,y,z
-x,y,-z
-x,-y,-z
x,-y,z
loop_
_atom_site_type_symbol
_atom_site_label
_atom_site_fract_x
_atom_site_fract_y
_atom_site_fract_z
Si Si1 0.883587 0.000000 0.132954
Si Si2 0.434320 0.802255 0.782922
Si Si3 0.734218 0.630670 0.416480
Si Si4 0.647309 0.000000 0.641241
Si Si5 0.266483 0.381090 0.085242
O O1 0.716252 0.113993 0.134178
O O2 0.069625 0.000000 0.268698
O O3 0.000000 0.000000 0.000000
O O4 0.272047 0.706288 0.706585
O O5 0.535349 0.886730 0.687325
O O6 0.678059 0.733182 0.843719
O O7 0.500000 0.654047 0.500000
O O8 0.722001 0.500000 0.383571
O O9 0.000000 0.652339 0.500000
O O10 0.500000 0.000000 0.500000
O O11 0.269928 0.500000 0.157430
O O12 0.500000 0.385794 0.000000
O O13 0.000000 0.376355 0.000000
#
# Coordination Sequence:
#
# PCOD9154034 Si02
#       5
#     2   4   4   2   4
#     4  11  30  51  75 111 152 211 277 337 396 468
#     4  11  26  43  76 103 153 202 258 321 396 468
#     4  10  23  43  73 113 153 195 249 312 390 475
#     4  11  28  47  72 109 148 202 267 328 393 459
#     4  10  24  44  71 110 150 192 246 307 383 466
#
# _framework density 23.821859
#
# number of rings (size 3 to 8) (size 9 to 14) (size 15 to 20)
#    0.000    1.500    0.000    1.500   14.000    2.000 
#    0.000    9.375    0.000    2.250    0.000    0.000 
#    0.000    0.000    0.000    0.000    0.000    0.000 
#
# Total GULP energy -89291.341462 kJ/mol
# GULP energy per Si atom -5580.708841 kJ/mol
# Density = 2.376764 g / cm^3
# Si number density = 23.821859 Si / 1000 Ang^3
#
#
#
# Elastic Constant Matrix: (Units=GPa)
#
#
# Indices 1 2 3 4 5 6 
#
# 1 139.5317 41.1272 53.2426 0.0000 25.0226 0.0000
# 2 41.1272 136.4401 66.0096 0.0000 -5.9071 0.0000
# 3 53.2426 66.0096 91.7516 0.0000 22.0752 0.0000
# 4 0.0000 0.0000 0.0000 25.6754 0.0000 90.4270
# 5 25.0226 -5.9071 22.0752 0.0000 35.4313 0.0000
# 6 0.0000 0.0000 0.0000 90.4270 0.0000 69.1573
#
#
#
# Elastic Compliance Matrix: (Units=1/GPa)
#
#
# Indices 1 2 3 4 5 6 
#
# 1 0.009821 -0.001564 -0.003343 0.000000 -0.005113 0.000000
# 2 -0.001564 0.013913 -0.011676 0.000000 0.010699 0.000000
# 3 -0.003343 -0.011676 0.024867 0.000000 -0.015079 0.000000
# 4 0.000000 0.000000 0.000000 -0.010803 0.000000 0.014126
# 5 -0.005113 0.010699 -0.015079 0.000000 0.043013 0.000000
# 6 0.000000 0.000000 0.000000 0.014126 0.000000 -0.004011
#
#
# Mechanical properties :
#
#
# Convention : Reuss Voigt Hill
#
# Bulk Modulus (GPa) = 64.79222 76.49803 70.64512
# Shear Modulus (GPa) = 43.43711 39.87574 41.65642
#
# Velocity S-wave (km/s) = 4.27478 4.09579 4.18624
# Velocity P-wave (km/s) = 7.18489 7.38577 7.28602
#
# Compressibility (1/GPa) = 0.01543395
#
# Stress axis : x y z
#
# Youngs Moduli (GPa) = 101.82716 71.87763 40.21440
#
# Poissons Ratio (x) = 0.11243 0.13444
# Poissons Ratio (y) = 0.15928 0.46953
# Poissons Ratio (z) = 0.34043 0.83921
#
# Static dielectric constant tensor:
#      x y z
#    x 1.863040 0.000000 -0.021100 
#    y 0.000000 1.950890 0.000000 
#    z -0.021100 0.000000 2.005380 
# 
# From -- ./inp_files/38640.got.cif
#   From: 2010.05.17/outbox.cif.g08.bks.cpg/sg10_20_cif.got.tgz:38640.got - 2010.06.03 11:33:40.
