data_PCOD9154534
_publ_section_title
;
Structure prediction by ZEFSAII (Michael W. Deem and Ramdas Pophale) SiO2 
 PCOD9154534
Probable space group: P 2/M
;
_chemical_formula_sum "Si O2"
_cell_formula_units_Z 26
_cell_length_a 8.695367
_cell_length_b 15.703647
_cell_length_c 14.732137
_cell_angle_alpha 90.000000
_cell_angle_beta 39.141359
_cell_angle_gamma 90.000000
_cell_volume 1269.830733
_symmetry_space_group_name_H-M "P 2/M"
_symmetry_group_IT_number 10
_symmetry_cell_setting 'monoclinic'
loop_
_space_group_symop_operation_xyz
x,y,z
-x,y,-z
-x,-y,-z
x,-y,z
loop_
_atom_site_type_symbol
_atom_site_label
_atom_site_fract_x
_atom_site_fract_y
_atom_site_fract_z
Si Si1 0.214931 0.903434 0.744373
Si Si2 0.090588 0.710887 0.811692
Si Si3 0.634434 0.404257 0.034874
Si Si4 0.587861 0.648507 0.682514
Si Si5 0.000000 0.221034 0.500000
Si Si6 0.223230 0.093180 0.522954
Si Si7 0.223161 0.407049 0.591261
O O1 0.085392 0.813449 0.826110
O O2 0.500374 0.894186 0.638417
O O3 0.220559 0.905093 0.632491
O O4 0.133104 0.000000 0.811263
O O5 0.330561 0.676120 0.754469
O O6 0.115900 0.672971 0.696442
O O7 0.845536 0.664623 0.955667
O O8 0.737532 0.500000 0.984626
O O9 0.460660 0.400308 0.202161
O O10 0.500000 0.388522 0.000000
O O11 0.745813 0.604732 0.530302
O O12 0.756903 0.727197 0.629661
O O13 0.948316 0.163691 0.437372
O O14 0.142891 0.000000 0.530439
O O15 0.500000 0.411263 0.500000
O O16 0.107951 0.500000 0.663053
#
# Coordination Sequence:
#
# PCOD9154534 Si02
#       7
#     4   4   4   4   2   4   4
#     4   9  18  34  59  92 124 162 206 251 307 375
#     4  11  21  40  68  92 125 167 211 255 311 378
#     4  11  27  47  65  89 123 167 216 262 313 376
#     4  11  24  38  62  94 126 169 208 256 313 372
#     4  12  21  34  57  96 132 160 204 262 308 364
#     4   9  18  32  55  88 130 165 201 252 310 367
#     4   9  19  35  60  92 120 152 201 258 310 363
#
# _framework density 20.475169000000001
#
# number of rings (size 3 to 8) (size 9 to 14) (size 15 to 20)
#    0.000    1.846    1.538    3.462    8.615    2.462 
#    0.000    0.769    0.000    4.154    0.000    0.000 
#    0.000    0.000    0.000    0.000    0.000    0.000 
#
# Total GULP energy -144937.251371 kJ/mol
# GULP energy per Si atom -5574.509668 kJ/mol
# Density = 2.042857 g / cm^3
# Si number density = 20.475169 Si / 1000 Ang^3
#
#
#
# Elastic Constant Matrix: (Units=GPa)
#
#
# Indices 1 2 3 4 5 6 
#
# 1 81.2716 41.9560 22.2076 0.0000 8.0327 0.0000
# 2 41.9560 146.1692 23.9562 0.0000 -3.5405 0.0000
# 3 22.2076 23.9562 64.1426 0.0000 18.9288 0.0000
# 4 0.0000 0.0000 0.0000 76.0779 0.0000 -83.7557
# 5 8.0327 -3.5405 18.9288 0.0000 27.7041 0.0000
# 6 0.0000 0.0000 0.0000 -83.7557 0.0000 148.1768
#
#
#
# Elastic Compliance Matrix: (Units=1/GPa)
#
#
# Indices 1 2 3 4 5 6 
#
# 1 0.015494 -0.004030 -0.002983 0.000000 -0.002969 0.000000
# 2 -0.004030 0.008617 -0.003122 0.000000 0.004403 0.000000
# 3 -0.002983 -0.003122 0.022109 0.000000 -0.014640 0.000000
# 4 0.000000 0.000000 0.000000 0.034800 0.000000 0.019670
# 5 -0.002969 0.004403 -0.014640 0.000000 0.047522 0.000000
# 6 0.000000 0.000000 0.000000 0.019670 0.000000 0.017867
#
#
# Mechanical properties :
#
#
# Convention : Reuss Voigt Hill
#
# Bulk Modulus (GPa) = 38.53644 51.98034 45.25839
# Shear Modulus (GPa) = 28.51780 63.95600 46.23690
#
# Velocity S-wave (km/s) = 3.73607 5.59497 4.75720
# Velocity P-wave (km/s) = 6.12151 8.19636 7.23372
#
# Compressibility (1/GPa) = 0.02594946
#
# Stress axis : x y z
#
# Youngs Moduli (GPa) = 64.54291 116.05541 45.22951
#
# Poissons Ratio (x) = 0.46774 0.13490
# Poissons Ratio (y) = 0.26013 0.14121
# Poissons Ratio (z) = 0.19251 0.36233
#
# Static dielectric constant tensor:
#      x y z
#    x 1.738800 0.000000 0.034460 
#    y 0.000000 1.781130 0.000000 
#    z 0.034460 0.000000 1.742820 
# 
# From -- ./inp_files/62027.got.cif
#   From: 2010.05.17/outbox.cif.g08.bks.cpg/sg10_32_cif.got.tgz:62027.got - 2010.06.03 11:33:40.
