data_PCOD9154645
_publ_section_title
;
Structure prediction by ZEFSAII (Michael W. Deem and Ramdas Pophale) SiO2 
 PCOD9154645
Probable space group: P 2/M
;
_chemical_formula_sum "Si O2"
_cell_formula_units_Z 17
_cell_length_a 4.803163
_cell_length_b 11.925719
_cell_length_c 11.975868
_cell_angle_alpha 90.000000
_cell_angle_beta 117.576789
_cell_angle_gamma 90.000000
_cell_volume 608.057052
_symmetry_space_group_name_H-M "P 2/M"
_symmetry_group_IT_number 10
_symmetry_cell_setting 'monoclinic'
loop_
_space_group_symop_operation_xyz
x,y,z
-x,y,-z
-x,-y,-z
x,-y,z
loop_
_atom_site_type_symbol
_atom_site_label
_atom_site_fract_x
_atom_site_fract_y
_atom_site_fract_z
Si Si1 0.029272 0.123215 0.340561
Si Si2 0.683749 0.152728 0.827530
Si Si3 0.924248 0.376271 0.617183
Si Si4 0.442544 0.620092 0.120384
Si Si5 0.500000 0.000000 0.000000
O O1 0.063423 0.111133 0.213218
O O2 0.188321 0.244981 0.392606
O O3 0.657856 0.135993 0.295911
O O4 0.133182 0.000000 0.405101
O O5 0.752632 0.281343 0.862557
O O6 0.637886 0.094638 0.936979
O O7 0.769502 0.500000 0.616827
O O8 0.000000 0.382793 0.500000
O O9 0.230184 0.375927 0.751932
O O10 0.296326 0.500000 0.115317
O O11 0.500000 0.633456 0.000000
#
# Coordination Sequence:
#
# PCOD9154645 Si02
#       5
#     4   4   4   4   1
#     4  11  22  40  61  92 126 167 214 269 324 382
#     4  11  23  37  61  91 129 168 212 263 324 388
#     4   9  20  40  65  92 127 172 220 266 322 391
#     4   9  18  36  60  90 122 160 207 264 323 380
#     4  12  20  38  58  90 130 174 212 260 318 402
#
# _framework density 27.957902000000001
#
# number of rings (size 3 to 8) (size 9 to 14) (size 15 to 20)
#    0.000    1.882    3.529    0.000    0.000    3.294 
#    0.000    4.706    0.000   26.824    0.000    0.000 
#    0.000    0.000    0.000    0.000    0.000    0.000 
#
# Total GULP energy -94777.531933 kJ/mol
# GULP energy per Si atom -5575.148937 kJ/mol
# Density = 2.789427 g / cm^3
# Si number density = 27.957902 Si / 1000 Ang^3
#
#
#
# Elastic Constant Matrix: (Units=GPa)
#
#
# Indices 1 2 3 4 5 6 
#
# 1 100.3920 15.6633 41.9393 0.0000 6.3758 0.0000
# 2 15.6633 361.1808 17.3977 0.0000 -16.2602 0.0000
# 3 41.9393 17.3977 163.9883 0.0000 -4.1341 0.0000
# 4 0.0000 0.0000 0.0000 169.3235 0.0000 -57.6136
# 5 6.3758 -16.2602 -4.1341 0.0000 65.9744 0.0000
# 6 0.0000 0.0000 0.0000 -57.6136 0.0000 -0.9274
#
#
#
# Elastic Compliance Matrix: (Units=1/GPa)
#
#
# Indices 1 2 3 4 5 6 
#
# 1 0.011318 -0.000414 -0.002885 0.000000 -0.001377 0.000000
# 2 -0.000414 0.002828 -0.000176 0.000000 0.000726 0.000000
# 3 -0.002885 -0.000176 0.006871 0.000000 0.000666 0.000000
# 4 0.000000 0.000000 0.000000 0.000267 0.000000 -0.016573
# 5 -0.001377 0.000726 0.000666 0.000000 0.015511 0.000000
# 6 0.000000 0.000000 0.000000 -0.016573 0.000000 -0.048707
#
#
# Mechanical properties :
#
#
# Convention : Reuss Voigt Hill
#
# Bulk Modulus (GPa) = 71.08689 86.17351 78.63020
# Shear Modulus (GPa) = -18361.84822 83.57814 -9139.13504
#
# Velocity S-wave (km/s) = -81.12913 5.47350 -57.23625
# Velocity P-wave (km/s) = 93.54374 8.41636 65.87715
#
# Compressibility (1/GPa) = 0.01406729
#
# Stress axis : x y z
#
# Youngs Moduli (GPa) = 88.35210 353.63247 145.53121
#
# Poissons Ratio (x) = 0.14634 0.41992
# Poissons Ratio (y) = 0.03656 0.02559
# Poissons Ratio (z) = 0.25493 0.06219
#
# Static dielectric constant tensor:
#      x y z
#    x 2.109460 0.000000 0.121750 
#    y 0.000000 2.409460 0.000000 
#    z 0.121750 0.000000 2.178690 
# 
# From -- ./inp_files/38784.got.cif
#   From: 2010.05.17/outbox.cif.g08.bks.cpg/sg10_20_cif.got.tgz:38784.got - 2010.06.03 11:33:40.
