data_PCOD9154594
_publ_section_title
;
Structure prediction by ZEFSAII (Michael W. Deem and Ramdas Pophale) SiO2 
 PCOD9154594
Probable space group: P 2/M
;
_chemical_formula_sum "Si O2"
_cell_formula_units_Z 20
_cell_length_a 12.413089
_cell_length_b 12.332726
_cell_length_c 12.210973
_cell_angle_alpha 90.000000
_cell_angle_beta 35.618205
_cell_angle_gamma 90.000000
_cell_volume 1088.670962
_symmetry_space_group_name_H-M "P 2/M"
_symmetry_group_IT_number 10
_symmetry_cell_setting 'monoclinic'
loop_
_space_group_symop_operation_xyz
x,y,z
-x,y,-z
-x,-y,-z
x,-y,z
loop_
_atom_site_type_symbol
_atom_site_label
_atom_site_fract_x
_atom_site_fract_y
_atom_site_fract_z
Si Si1 0.000000 0.834286 0.000000
Si Si2 0.334056 0.000000 0.724188
Si Si3 0.589453 0.000000 0.723761
Si Si4 0.111507 0.777637 0.146102
Si Si5 0.526371 0.762890 0.852442
Si Si6 0.123606 0.624832 0.507483
Si Si7 0.994116 0.000000 0.641005
O O1 0.026563 0.780734 0.095622
O O2 0.809115 0.901655 0.169054
O O3 0.500000 0.000000 0.500000
O O4 0.429703 0.000000 0.764443
O O5 0.578150 0.890055 0.802202
O O6 0.790876 0.000000 0.501858
O O7 0.328104 0.751225 0.959905
O O8 0.000604 0.687006 0.302794
O O9 0.091968 0.891476 0.232175
O O10 0.689249 0.692358 0.666253
O O11 0.500000 0.730981 0.000000
O O12 0.162530 0.500000 0.503092
O O13 0.000000 0.626950 0.500000
O O14 0.000000 0.000000 0.500000
#
# Coordination Sequence:
#
# PCOD9154594 Si02
#       7
#     2   2   2   4   4   4   2
#     4  11  24  40  61  90 132 176 219 251 304 388
#     4  11  22  37  57  91 129 173 211 251 296 371
#     4  12  21  37  59  96 136 165 201 249 311 380
#     4  12  23  42  64  95 132 169 212 259 318 383
#     4  12  23  39  64  99 131 164 205 261 326 387
#     4  11  25  45  67  93 124 164 216 272 326 378
#     4  12  22  37  64  95 135 173 199 254 330 386
#
# _framework density 18.371023999999998
#
# number of rings (size 3 to 8) (size 9 to 14) (size 15 to 20)
#    0.000    0.400    6.000    5.100    0.000    1.200 
#    0.000    0.500    0.000    1.200    0.000    0.000 
#    0.000    0.000    0.000    0.000    0.000    0.000 
#
# Total GULP energy -111710.191258 kJ/mol
# GULP energy per Si atom -5585.509563 kJ/mol
# Density = 1.832921 g / cm^3
# Si number density = 18.371024 Si / 1000 Ang^3
#
#
#
# Elastic Constant Matrix: (Units=GPa)
#
#
# Indices 1 2 3 4 5 6 
#
# 1 103.9216 36.3414 20.7046 0.0000 -4.8601 0.0000
# 2 36.3414 131.7341 66.2996 0.0000 -1.7537 0.0000
# 3 20.7046 66.2996 113.4536 0.0000 -20.6315 0.0000
# 4 0.0000 0.0000 0.0000 22.6114 0.0000 -28.9030
# 5 -4.8601 -1.7537 -20.6315 0.0000 47.8605 0.0000
# 6 0.0000 0.0000 0.0000 -28.9030 0.0000 43.4711
#
#
#
# Elastic Compliance Matrix: (Units=1/GPa)
#
#
# Indices 1 2 3 4 5 6 
#
# 1 0.010696 -0.002893 -0.000090 0.000000 0.000941 0.000000
# 2 -0.002893 0.011822 -0.006896 0.000000 -0.002833 0.000000
# 3 -0.000090 -0.006896 0.013903 0.000000 0.005731 0.000000
# 4 0.000000 0.000000 0.000000 0.294603 0.000000 0.195875
# 5 0.000941 -0.002833 0.005731 0.000000 0.023356 0.000000
# 6 0.000000 0.000000 0.000000 0.195875 0.000000 0.153237
#
#
# Mechanical properties :
#
#
# Convention : Reuss Voigt Hill
#
# Bulk Modulus (GPa) = 60.01322 66.20008 63.10665
# Shear Modulus (GPa) = 9.38212 37.83949 23.61080
#
# Velocity S-wave (km/s) = 2.26232 4.54336 3.58889
# Velocity P-wave (km/s) = 6.28986 7.97722 7.18326
#
# Compressibility (1/GPa) = 0.01666299
#
# Stress axis : x y z
#
# Youngs Moduli (GPa) = 93.49062 84.58912 71.92903
#
# Poissons Ratio (x) = 0.24470 0.00650
# Poissons Ratio (y) = 0.27045 0.49600
# Poissons Ratio (z) = 0.00845 0.58330
#
# Static dielectric constant tensor:
#      x y z
#    x 1.595830 0.000000 -0.017550 
#    y 0.000000 1.634940 0.000000 
#    z -0.017550 0.000000 1.632940 
# 
# From -- ./inp_files/46485.got.cif
#   From: 2010.05.17/outbox.cif.g08.bks.cpg/sg10_24_cif.got.tgz:46485.got - 2010.06.03 11:33:40.
