data_PCOD9154078
_publ_section_title
;
Structure prediction by ZEFSAII (Michael W. Deem and Ramdas Pophale) SiO2 
 PCOD9154078
Probable space group: P 2/M
;
_chemical_formula_sum "Si O2"
_cell_formula_units_Z 26
_cell_length_a 10.543715
_cell_length_b 16.694546
_cell_length_c 9.160242
_cell_angle_alpha 90.000000
_cell_angle_beta 65.095023
_cell_angle_gamma 90.000000
_cell_volume 1462.466972
_symmetry_space_group_name_H-M "P 2/M"
_symmetry_group_IT_number 10
_symmetry_cell_setting 'monoclinic'
loop_
_space_group_symop_operation_xyz
x,y,z
-x,y,-z
-x,-y,-z
x,-y,z
loop_
_atom_site_type_symbol
_atom_site_label
_atom_site_fract_x
_atom_site_fract_y
_atom_site_fract_z
Si Si1 0.402306 0.590524 0.691767
Si Si2 0.632566 0.000000 0.829872
Si Si3 0.000000 0.249550 0.500000
Si Si4 0.229820 0.171212 0.185309
Si Si5 0.446475 0.734132 0.262595
Si Si6 0.411379 0.000000 0.688762
Si Si7 0.782404 0.713232 0.377100
Si Si8 0.727938 0.165362 0.167663
O O1 0.500000 0.586383 0.500000
O O2 0.373728 0.500000 0.753932
O O3 0.485864 0.645296 0.768039
O O4 0.267238 0.639350 0.699346
O O5 0.719249 0.918936 0.807220
O O6 0.546451 0.000000 0.725666
O O7 0.500000 0.000000 0.000000
O O8 0.897509 0.195974 0.648916
O O9 0.908391 0.299947 0.428764
O O10 0.353898 0.233097 0.173532
O O11 0.202868 0.173559 0.025196
O O12 0.347112 0.736481 0.453858
O O13 0.576845 0.792121 0.223675
O O14 0.500000 0.000000 0.500000
O O15 0.312454 0.923858 0.765828
O O16 0.808346 0.786988 0.255201
#
# Coordination Sequence:
#
# PCOD9154078 Si02
#       8
#     4   2   2   4   4   2   4   4
#     4   8  14  27  52  84 112 134 164 217 273 316
#     4  12  20  37  55  82 109 135 175 225 273 309
#     4  10  24  39  51  70 102 150 188 216 255 309
#     4  11  21  35  54  75 108 145 179 218 258 316
#     4   9  16  30  52  81 107 134 167 213 273 319
#     4  12  22  30  53  86 110 129 169 216 278 317
#     4   9  19  34  52  74 108 140 179 214 257 321
#     4  11  19  32  54  80 103 133 176 227 271 307
#
# _framework density 17.778178
#
# number of rings (size 3 to 8) (size 9 to 14) (size 15 to 20)
#    0.000    2.000    3.077    2.769    2.154    0.923 
#    0.000    1.154    0.000   10.154    0.000    4.308 
#    0.000    0.000    0.000    0.000    0.000    0.000 
#
# Total GULP energy -144819.957254 kJ/mol
# GULP energy per Si atom -5569.998356 kJ/mol
# Density = 1.773771 g / cm^3
# Si number density = 17.778178 Si / 1000 Ang^3
#
#
#
# Elastic Constant Matrix: (Units=GPa)
#
#
# Indices 1 2 3 4 5 6 
#
# 1 76.5304 31.3159 29.1391 0.0000 9.9267 0.0000
# 2 31.3159 134.6309 26.9619 0.0000 7.2636 0.0000
# 3 29.1391 26.9619 79.8602 0.0000 15.3849 0.0000
# 4 0.0000 0.0000 0.0000 6.6139 0.0000 1.4016
# 5 9.9267 7.2636 15.3849 0.0000 31.7458 0.0000
# 6 0.0000 0.0000 0.0000 1.4016 0.0000 15.3504
#
#
#
# Elastic Compliance Matrix: (Units=1/GPa)
#
#
# Indices 1 2 3 4 5 6 
#
# 1 0.016213 -0.002737 -0.004562 0.000000 -0.002233 0.000000
# 2 -0.002737 0.008438 -0.001812 0.000000 -0.000197 0.000000
# 3 -0.004562 -0.001812 0.015931 0.000000 -0.005879 0.000000
# 4 0.000000 0.000000 0.000000 0.154181 0.000000 -0.014078
# 5 -0.002233 -0.000197 -0.005879 0.000000 0.035093 0.000000
# 6 0.000000 0.000000 0.000000 -0.014078 0.000000 0.066430
#
#
# Mechanical properties :
#
#
# Convention : Reuss Voigt Hill
#
# Bulk Modulus (GPa) = 44.72271 51.76168 48.24220
# Shear Modulus (GPa) = 15.52980 24.31564 19.92272
#
# Velocity S-wave (km/s) = 2.95876 3.70229 3.35121
# Velocity P-wave (km/s) = 6.07313 6.88872 6.49374
#
# Compressibility (1/GPa) = 0.02236000
#
# Stress axis : x y z
#
# Youngs Moduli (GPa) = 61.67805 118.51243 62.77172
#
# Poissons Ratio (x) = 0.32440 0.28633
# Poissons Ratio (y) = 0.16883 0.11375
# Poissons Ratio (z) = 0.28135 0.21476
#
# Static dielectric constant tensor:
#      x y z
#    x 1.633040 0.000000 0.020860 
#    y 0.000000 1.603080 0.000000 
#    z 0.020860 0.000000 1.615050 
# 
# From -- ./inp_files/24843.got.cif
#   From: 2010.05.17/outbox.cif.g08.bks.cpg/sg10_13_cif.got.tgz:24843.got - 2010.06.03 11:33:40.
