data_PCOD9154137
_publ_section_title
;
Structure prediction by ZEFSAII (Michael W. Deem and Ramdas Pophale) SiO2 
 PCOD9154137
Probable space group: P 2/M
;
_chemical_formula_sum "Si O2"
_cell_formula_units_Z 17
_cell_length_a 9.863671
_cell_length_b 12.017244
_cell_length_c 9.868966
_cell_angle_alpha 90.000000
_cell_angle_beta 135.313241
_cell_angle_gamma 90.000000
_cell_volume 822.645561
_symmetry_space_group_name_H-M "P 2/M"
_symmetry_group_IT_number 10
_symmetry_cell_setting 'monoclinic'
loop_
_space_group_symop_operation_xyz
x,y,z
-x,y,-z
-x,-y,-z
x,-y,z
loop_
_atom_site_type_symbol
_atom_site_label
_atom_site_fract_x
_atom_site_fract_y
_atom_site_fract_z
Si Si1 0.396144 0.759980 0.069449
Si Si2 0.025287 0.763441 0.179063
Si Si3 0.687560 0.622153 0.454499
Si Si4 0.000000 0.500000 0.500000
Si Si5 0.186733 0.000000 0.333645
Si Si6 0.421708 0.000000 0.220532
O O1 0.517793 0.692080 0.266509
O O2 0.391884 0.888270 0.114137
O O3 0.500000 0.748914 0.000000
O O4 0.176223 0.718781 0.906014
O O5 0.065723 0.887714 0.261101
O O6 0.206040 0.689242 0.351561
O O7 0.000000 0.767154 0.000000
O O8 0.619187 0.500000 0.449817
O O9 0.853492 0.595099 0.461166
O O10 0.363627 0.000000 0.564023
O O11 0.721627 0.000000 0.752447
#
# Coordination Sequence:
#
# PCOD9154137 Si02
#       6
#     4   4   4   1   2   2
#     4  12  25  42  70 106 136 176 228 280 337 403
#     4  12  24  43  73 101 136 180 227 276 341 407
#     4  10  24  45  67  98 134 179 229 280 331 400
#     4   8  20  48  68  84 142 176 222 266 346 392
#     4  11  22  44  72  97 142 187 214 274 354 407
#     4  11  22  43  72 100 142 179 220 281 344 400
#
# _framework density 20.665037000000002
#
# number of rings (size 3 to 8) (size 9 to 14) (size 15 to 20)
#    0.706    0.235    4.706    2.824    0.000    2.824 
#    0.000    2.353    0.000    0.000    0.000    0.000 
#    0.000    0.000    0.000    0.000    0.000    0.000 
#
# Total GULP energy -94774.834448 kJ/mol
# GULP energy per Si atom -5574.990262 kJ/mol
# Density = 2.061800 g / cm^3
# Si number density = 20.665037 Si / 1000 Ang^3
#
#
#
# Elastic Constant Matrix: (Units=GPa)
#
#
# Indices 1 2 3 4 5 6 
#
# 1 43.9265 -23.4919 7.8512 0.0000 14.0611 0.0000
# 2 -23.4919 121.0185 53.7981 0.0000 -2.0413 0.0000
# 3 7.8512 53.7981 138.0982 0.0000 5.6456 0.0000
# 4 0.0000 0.0000 0.0000 -18.9974 0.0000 -2.1009
# 5 14.0611 -2.0413 5.6456 0.0000 23.8383 0.0000
# 6 0.0000 0.0000 0.0000 -2.1009 0.0000 23.2950
#
#
#
# Elastic Compliance Matrix: (Units=1/GPa)
#
#
# Indices 1 2 3 4 5 6 
#
# 1 0.033735 0.008182 -0.004363 0.000000 -0.018165 0.000000
# 2 0.008182 0.012055 -0.005055 0.000000 -0.002597 0.000000
# 3 -0.004363 -0.005055 0.009463 0.000000 -0.000101 0.000000
# 4 0.000000 0.000000 0.000000 -0.052119 0.000000 -0.004700
# 5 -0.018165 -0.002597 -0.000101 0.000000 0.052466 0.000000
# 6 0.000000 0.000000 0.000000 -0.004700 0.000000 0.042504
#
#
# Mechanical properties :
#
#
# Convention : Reuss Voigt Hill
#
# Bulk Modulus (GPa) = 18.94632 42.15091 30.54861
# Shear Modulus (GPa) = 42.31223 23.28622 32.79922
#
# Velocity S-wave (km/s) = 4.52987 3.36049 3.98827
# Velocity P-wave (km/s) = 6.04548 5.95808 6.00194
#
# Compressibility (1/GPa) = 0.05278070
#
# Stress axis : x y z
#
# Youngs Moduli (GPa) = 29.64244 82.95427 105.67852
#
# Poissons Ratio (x) = -0.67870 0.46103
# Poissons Ratio (y) = -0.24252 0.53422
# Poissons Ratio (z) = 0.12932 0.41934
#
# Static dielectric constant tensor:
#      x y z
#    x 1.739520 0.000000 0.013780 
#    y 0.000000 1.715660 0.000000 
#    z 0.013780 0.000000 1.714540 
# 
# From -- ./inp_files/46955.got.cif
#   From: 2010.05.17/outbox.cif.g08.bks.cpg/sg10_24_cif.got.tgz:46955.got - 2010.06.03 11:33:40.
