data_PCOD9154805
_publ_section_title
;
Structure prediction by ZEFSAII (Michael W. Deem and Ramdas Pophale) SiO2 
 PCOD9154805
Probable space group: P 2/M
;
_chemical_formula_sum "Si O2"
_cell_formula_units_Z 22
_cell_length_a 5.578072
_cell_length_b 14.581573
_cell_length_c 11.838405
_cell_angle_alpha 90.000000
_cell_angle_beta 112.636537
_cell_angle_gamma 90.000000
_cell_volume 888.723988
_symmetry_space_group_name_H-M "P 2/M"
_symmetry_group_IT_number 10
_symmetry_cell_setting 'monoclinic'
loop_
_space_group_symop_operation_xyz
x,y,z
-x,y,-z
-x,-y,-z
x,-y,z
loop_
_atom_site_type_symbol
_atom_site_label
_atom_site_fract_x
_atom_site_fract_y
_atom_site_fract_z
Si Si1 0.805187 0.802790 0.373977
Si Si2 0.879272 0.500000 0.108465
Si Si3 0.116115 0.305289 0.838904
Si Si4 0.311582 0.000000 0.169927
Si Si5 0.817586 0.500000 0.356388
Si Si6 0.915343 0.000000 0.304528
Si Si7 0.000000 0.160338 0.000000
Si Si8 0.452944 0.334986 0.360002
O O1 0.900907 0.905021 0.370257
O O2 0.526822 0.774304 0.371035
O O3 0.000000 0.758426 0.500000
O O4 0.798825 0.748222 0.256697
O O5 0.968058 0.500000 0.263187
O O6 0.757097 0.398932 0.094473
O O7 0.000000 0.500000 0.000000
O O8 0.819339 0.334319 0.754308
O O9 0.130280 0.228112 0.935775
O O10 0.619621 0.000000 0.203394
O O11 0.164223 0.000000 0.266234
O O12 0.203191 0.907933 0.094237
O O13 0.635851 0.410126 0.331733
O O14 0.000000 0.500000 0.500000
O O15 0.500000 0.360868 0.500000
#
# Coordination Sequence:
#
# PCOD9154805 Si02
#       8
#     4   2   4   2   2   2   2   4
#     4  12  25  46  71 109 148 192 248 314 387 469
#     4  12  25  45  71 104 152 195 255 314 387 453
#     4  12  24  47  70 105 147 201 243 313 386 456
#     4  11  26  50  76 113 146 203 270 314 384 473
#     4  12  24  45  73 110 148 204 259 321 389 466
#     4  12  27  49  77 109 154 198 253 331 396 469
#     4  11  24  47  76 102 148 199 258 317 376 478
#     4  12  24  43  74 107 146 191 255 314 385 464
#
# _framework density 24.754593
#
# number of rings (size 3 to 8) (size 9 to 14) (size 15 to 20)
#    0.000    0.182    6.364    3.818    0.000    1.455 
#    3.273    5.000    0.000    0.000    0.000    0.000 
#    0.000    0.000    0.000    0.000    0.000    0.000 
#
# Total GULP energy -122579.129661 kJ/mol
# GULP energy per Si atom -5571.778621 kJ/mol
# Density = 2.469825 g / cm^3
# Si number density = 24.754593 Si / 1000 Ang^3
#
#
#
# Elastic Constant Matrix: (Units=GPa)
#
#
# Indices 1 2 3 4 5 6 
#
# 1 28.0254 9.4848 9.3612 0.0000 10.0555 0.0000
# 2 9.4848 182.2437 60.0901 0.0000 -26.9203 0.0000
# 3 9.3612 60.0901 105.2431 0.0000 -30.5215 0.0000
# 4 0.0000 0.0000 0.0000 27.9107 0.0000 -53.0345
# 5 10.0555 -26.9203 -30.5215 0.0000 42.2457 0.0000
# 6 0.0000 0.0000 0.0000 -53.0345 0.0000 -81.5170
#
#
#
# Elastic Compliance Matrix: (Units=1/GPa)
#
#
# Indices 1 2 3 4 5 6 
#
# 1 0.045676 -0.002444 -0.007935 0.000000 -0.018162 0.000000
# 2 -0.002444 0.007016 -0.002939 0.000000 0.002929 0.000000
# 3 -0.007935 -0.002939 0.015042 0.000000 0.010883 0.000000
# 4 0.000000 0.000000 0.000000 0.016022 0.000000 -0.010424
# 5 -0.018162 0.002929 0.010883 0.000000 0.037723 0.000000
# 6 0.000000 0.000000 0.000000 -0.010424 0.000000 -0.005486
#
#
# Mechanical properties :
#
#
# Convention : Reuss Voigt Hill
#
# Bulk Modulus (GPa) = 24.33148 52.59824 38.46486
# Shear Modulus (GPa) = 31.98412 13.49961 22.74186
#
# Velocity S-wave (km/s) = 3.59841 2.33778 3.03428
# Velocity P-wave (km/s) = 5.20722 5.34612 5.27712
#
# Compressibility (1/GPa) = 0.04109901
#
# Stress axis : x y z
#
# Youngs Moduli (GPa) = 21.89347 142.52901 66.48088
#
# Poissons Ratio (x) = 0.34830 0.52749
# Poissons Ratio (y) = 0.05350 0.19540
# Poissons Ratio (z) = 0.17371 0.41891
#
# Static dielectric constant tensor:
#      x y z
#    x 2.111300 0.000000 -0.035930 
#    y 0.000000 1.960380 0.000000 
#    z -0.035930 0.000000 2.033200 
# 
# From -- ./inp_files/39127.got.cif
#   From: 2010.05.17/outbox.cif.g08.bks.cpg/sg10_20_cif.got.tgz:39127.got - 2010.06.03 11:33:40.
