data_PCOD9154927
_publ_section_title
;
Structure prediction by ZEFSAII (Michael W. Deem and Ramdas Pophale) SiO2 
 PCOD9154927
Probable space group: P 2/M
;
_chemical_formula_sum "Si O2"
_cell_formula_units_Z 32
_cell_length_a 23.131668
_cell_length_b 8.981157
_cell_length_c 22.223519
_cell_angle_alpha 90.000000
_cell_angle_beta 18.071919
_cell_angle_gamma 90.000000
_cell_volume 1432.216312
_symmetry_space_group_name_H-M "P 2/M"
_symmetry_group_IT_number 10
_symmetry_cell_setting 'monoclinic'
loop_
_space_group_symop_operation_xyz
x,y,z
-x,y,-z
-x,-y,-z
x,-y,z
loop_
_atom_site_type_symbol
_atom_site_label
_atom_site_fract_x
_atom_site_fract_y
_atom_site_fract_z
Si Si1 0.099552 0.319531 0.098885
Si Si2 0.764718 0.324586 0.790807
Si Si3 0.683126 0.673722 0.742986
Si Si4 0.508850 0.178672 0.673482
Si Si5 0.522535 0.669896 0.412000
Si Si6 0.159127 0.174050 0.163137
Si Si7 0.034276 0.669995 0.033145
Si Si8 0.389526 0.172856 0.303490
O O1 0.098784 0.500000 0.101084
O O2 0.060007 0.255982 0.205032
O O3 0.309175 0.256240 0.881661
O O4 0.991909 0.272122 0.143336
O O5 0.811928 0.500000 0.745420
O O6 0.784153 0.266952 0.703036
O O7 0.864948 0.243188 0.746626
O O8 0.540761 0.314714 0.024129
O O9 0.727149 0.500000 0.695683
O O10 0.712573 0.747070 0.649619
O O11 0.569534 0.233546 0.548428
O O12 0.637374 0.227689 0.601835
O O13 0.488203 0.000000 0.696219
O O14 0.500000 0.735884 0.500000
O O15 0.452429 0.500000 0.480440
O O16 0.742714 0.661886 0.185035
O O17 0.111910 0.000000 0.208759
O O18 0.385261 0.184713 0.929156
O O19 0.960244 0.500000 0.103064
O O20 0.000000 0.739129 0.000000
O O21 0.341921 0.000000 0.347755
#
# Coordination Sequence:
#
# PCOD9154927 Si02
#       8
#     4   4   4   4   4   4   4   4
#     4   9  15  23  36  51  67  89 117 151 187 221
#     4   8  13  20  27  37  54  77 108 144 180 217
#     4   8  13  19  27  38  53  76 107 143 180 216
#     4   9  16  25  36  51  70  92 119 150 185 224
#     4   9  17  28  42  60  79  99 126 159 192 226
#     4   9  15  21  29  42  60  83 112 146 183 221
#     4   8  14  25  41  59  77  98 125 156 190 228
#     4   8  14  21  28  40  58  80 108 142 177 214
#
# _framework density 22.342994000000001
#
# number of rings (size 3 to 8) (size 9 to 14) (size 15 to 20)
#    0.000    3.500    0.000    3.375    0.000    4.250 
#    0.000    2.500    0.000    9.375    0.000    0.000 
#    0.000    0.000    0.000    0.000    0.000    1.250 
#
# Total GULP energy -178269.945135 kJ/mol
# GULP energy per Si atom -5570.935785 kJ/mol
# Density = 2.229214 g / cm^3
# Si number density = 22.342994 Si / 1000 Ang^3
#
#
#
# Elastic Constant Matrix: (Units=GPa)
#
#
# Indices 1 2 3 4 5 6 
#
# 1 268.1268 86.1840 63.6408 0.0000 62.7203 0.0000
# 2 86.1840 60.4241 9.5190 0.0000 24.4739 0.0000
# 3 63.6408 9.5190 49.2887 0.0000 -2.6214 0.0000
# 4 0.0000 0.0000 0.0000 -3.4990 0.0000 20.9073
# 5 62.7203 24.4739 -2.6214 0.0000 61.7977 0.0000
# 6 0.0000 0.0000 0.0000 20.9073 0.0000 32.3488
#
#
#
# Elastic Compliance Matrix: (Units=1/GPa)
#
#
# Indices 1 2 3 4 5 6 
#
# 1 0.014433 -0.014030 -0.016446 0.000000 -0.009790 0.000000
# 2 -0.014030 0.034271 0.011558 0.000000 0.001157 0.000000
# 3 -0.016446 0.011558 0.040027 0.000000 0.013813 0.000000
# 4 0.000000 0.000000 0.000000 -0.058784 0.000000 0.037992
# 5 -0.009790 0.001157 0.013813 0.000000 0.026245 0.000000
# 6 0.000000 0.000000 0.000000 0.037992 0.000000 0.006358
#
#
# Mechanical properties :
#
#
# Convention : Reuss Voigt Hill
#
# Bulk Modulus (GPa) = 19.64890 77.39190 48.52040
# Shear Modulus (GPa) = 42.60697 32.69589 37.65143
#
# Velocity S-wave (km/s) = 4.37160 3.82954 4.10952
# Velocity P-wave (km/s) = 5.85615 7.36662 6.65438
#
# Compressibility (1/GPa) = 0.05089344
#
# Stress axis : x y z
#
# Youngs Moduli (GPa) = 69.28697 29.17913 24.98344
#
# Poissons Ratio (x) = 0.40937 0.41089
# Poissons Ratio (y) = 0.97207 -0.28875
# Poissons Ratio (z) = 1.13952 -0.33724
#
# Static dielectric constant tensor:
#      x y z
#    x 1.883920 0.000000 -0.039090 
#    y 0.000000 1.747140 0.000000 
#    z -0.039090 0.000000 2.537970 
# 
# From -- ./inp_files/54515.got.cif
#   From: 2010.05.17/outbox.cif.g08.bks.cpg/sg10_28_cif.got.tgz:54515.got - 2010.06.03 11:33:40.
