data_PCOD9154219
_publ_section_title
;
Structure prediction by ZEFSAII (Michael W. Deem and Ramdas Pophale) SiO2 
 PCOD9154219
Probable space group: P 2/M
;
_chemical_formula_sum "Si O2"
_cell_formula_units_Z 32
_cell_length_a 23.686703
_cell_length_b 8.766067
_cell_length_c 15.517444
_cell_angle_alpha 90.000000
_cell_angle_beta 140.582794
_cell_angle_gamma 90.000000
_cell_volume 2045.868379
_symmetry_space_group_name_H-M "P 2/M"
_symmetry_group_IT_number 10
_symmetry_cell_setting 'monoclinic'
loop_
_space_group_symop_operation_xyz
x,y,z
-x,y,-z
-x,-y,-z
x,-y,z
loop_
_atom_site_type_symbol
_atom_site_label
_atom_site_fract_x
_atom_site_fract_y
_atom_site_fract_z
Si Si1 0.117808 0.816322 0.555376
Si Si2 0.419657 0.182191 0.715944
Si Si3 0.568694 0.315436 0.455925
Si Si4 0.623797 0.182752 0.004229
Si Si5 0.372104 0.684861 0.289883
Si Si6 0.248617 0.682972 0.992926
Si Si7 0.081522 0.816931 0.712645
Si Si8 0.304567 0.681440 0.733317
O O1 0.111669 0.779196 0.650209
O O2 0.202358 0.735512 0.614592
O O3 0.022146 0.774220 0.402650
O O4 0.127714 0.000000 0.560841
O O5 0.403133 0.241000 0.599973
O O6 0.521915 0.220098 0.861035
O O7 0.355041 0.258782 0.708735
O O8 0.410150 0.000000 0.708958
O O9 0.572345 0.500000 0.452891
O O10 0.624062 0.266913 0.605957
O O11 0.466087 0.273158 0.356369
O O12 0.634346 0.000000 0.016973
O O13 0.688861 0.252596 0.009314
O O14 0.649704 0.246506 0.128065
O O15 0.371313 0.500000 0.290725
O O16 0.291837 0.735150 0.134325
O O17 0.251142 0.500000 0.992668
O O18 0.149481 0.740144 0.857976
O O19 0.087275 0.000000 0.727229
O O20 0.309718 0.500000 0.744562
#
# Coordination Sequence:
#
# PCOD9154219 Si02
#       8
#     4   4   4   4   4   4   4   4
#     4   9  18  34  52  70  97 131 164 200 245 296
#     4  11  23  36  50  70  98 134 171 208 246 287
#     4   9  16  32  52  70  96 131 168 204 242 291
#     4  11  22  35  48  67 100 137 170 203 241 286
#     4   8  16  29  49  73 100 131 161 200 251 292
#     4  11  19  29  49  77 103 131 166 203 243 290
#     4   9  18  32  51  72  98 133 163 195 248 298
#     4  12  24  35  51  73  96 129 171 210 245 288
#
# _framework density 15.641279000000001
#
# number of rings (size 3 to 8) (size 9 to 14) (size 15 to 20)
#    0.000    2.000    2.500    4.125    0.000    3.500 
#    0.000    3.750    0.000    0.000    0.000    0.875 
#    0.000    7.000    0.000    0.000    0.000    0.000 
#
# Total GULP energy -178569.133280 kJ/mol
# GULP energy per Si atom -5580.285415 kJ/mol
# Density = 1.560568 g / cm^3
# Si number density = 15.641279 Si / 1000 Ang^3
#
#
#
# Elastic Constant Matrix: (Units=GPa)
#
#
# Indices 1 2 3 4 5 6 
#
# 1 82.4851 30.3072 65.4044 0.0000 -8.5855 0.0000
# 2 30.3072 37.4546 41.4244 0.0000 1.7607 0.0000
# 3 65.4044 41.4244 145.6853 0.0000 -12.7505 0.0000
# 4 0.0000 0.0000 0.0000 9.1636 0.0000 15.2399
# 5 -8.5855 1.7607 -12.7505 0.0000 19.9069 0.0000
# 6 0.0000 0.0000 0.0000 15.2399 0.0000 -3.4978
#
#
#
# Elastic Compliance Matrix: (Units=1/GPa)
#
#
# Indices 1 2 3 4 5 6 
#
# 1 0.021654 -0.011244 -0.005954 0.000000 0.006520 0.000000
# 2 -0.011244 0.047277 -0.009731 0.000000 -0.015263 0.000000
# 3 -0.005954 -0.009731 0.012876 0.000000 0.006540 0.000000
# 4 0.000000 0.000000 0.000000 0.013234 0.000000 0.057660
# 5 0.006520 -0.015263 0.006540 0.000000 0.058585 0.000000
# 6 0.000000 0.000000 0.000000 0.057660 0.000000 -0.034670
#
#
# Mechanical properties :
#
#
# Convention : Reuss Voigt Hill
#
# Bulk Modulus (GPa) = 35.77727 59.98854 47.88291
# Shear Modulus (GPa) = 27.45299 13.68045 20.56672
#
# Velocity S-wave (km/s) = 4.19401 2.96064 3.63009
# Velocity P-wave (km/s) = 6.81001 7.07977 6.94620
#
# Compressibility (1/GPa) = 0.02795071
#
# Stress axis : x y z
#
# Youngs Moduli (GPa) = 46.18046 21.15204 77.66174
#
# Poissons Ratio (x) = 0.23782 0.46239
# Poissons Ratio (y) = 0.51923 0.75572
# Poissons Ratio (z) = 0.27495 0.20583
#
# Static dielectric constant tensor:
#      x y z
#    x 1.489910 0.000000 -0.001260 
#    y 0.000000 1.523210 0.000000 
#    z -0.001260 0.000000 1.536230 
# 
# From -- ./inp_files/66097.got.cif
#   From: 2010.05.17/outbox.cif.g08.bks.cpg/sg10_34_cif.got.tgz:66097.got - 2010.06.03 11:33:40.
