data_PCOD9154134
_publ_section_title
;
Structure prediction by ZEFSAII (Michael W. Deem and Ramdas Pophale) SiO2 
 PCOD9154134
Probable space group: P 2/M
;
_chemical_formula_sum "Si O2"
_cell_formula_units_Z 15
_cell_length_a 5.814749
_cell_length_b 21.444976
_cell_length_c 5.112144
_cell_angle_alpha 90.000000
_cell_angle_beta 92.286752
_cell_angle_gamma 90.000000
_cell_volume 636.962151
_symmetry_space_group_name_H-M "P 2/M"
_symmetry_group_IT_number 10
_symmetry_cell_setting 'monoclinic'
loop_
_space_group_symop_operation_xyz
x,y,z
-x,y,-z
-x,-y,-z
x,-y,z
loop_
_atom_site_type_symbol
_atom_site_label
_atom_site_fract_x
_atom_site_fract_y
_atom_site_fract_z
Si Si1 0.338164 0.930532 0.246042
Si Si2 0.000000 0.500000 0.500000
Si Si3 0.663230 0.597679 0.261556
Si Si4 0.340460 0.742523 0.738972
Si Si5 0.000000 0.168283 0.000000
O O1 0.500000 0.917970 0.500000
O O2 0.158116 0.877115 0.178770
O O3 0.233471 0.000000 0.275291
O O4 0.500000 0.932373 0.000000
O O5 0.882211 0.554120 0.305597
O O6 0.500000 0.581471 0.500000
O O7 0.732411 0.670261 0.288461
O O8 0.500000 0.588840 0.000000
O O9 0.500000 0.758963 0.500000
O O10 0.500000 0.745538 0.000000
O O11 0.135190 0.788174 0.802326
#
# Coordination Sequence:
#
# PCOD9154134 Si02
#       5
#     4   1   4   4   2
#     4  10  24  46  70 102 142 181 230 289 345 410
#     4  12  24  42  76 100 124 182 242 278 338 416
#     4  10  24  45  66  97 139 177 224 288 347 407
#     4  10  25  46  67 101 146 183 227 289 351 416
#     4  12  25  44  78 107 136 190 238 282 350 419
#
# _framework density 23.549281000000001
#
# number of rings (size 3 to 8) (size 9 to 14) (size 15 to 20)
#    0.000    1.600    0.000    2.000    0.000   17.067 
#    0.000    6.667    0.000    2.400    0.000    0.000 
#    0.000    0.000    0.000    0.000    0.000    0.000 
#
# Total GULP energy -83799.927350 kJ/mol
# GULP energy per Si atom -5586.661823 kJ/mol
# Density = 2.349568 g / cm^3
# Si number density = 23.549281 Si / 1000 Ang^3
#
#
#
# Elastic Constant Matrix: (Units=GPa)
#
#
# Indices 1 2 3 4 5 6 
#
# 1 90.1463 105.5347 59.3505 0.0000 2.2432 0.0000
# 2 105.5347 202.1459 68.1121 0.0000 -0.1167 0.0000
# 3 59.3505 68.1121 193.7291 0.0000 0.4522 0.0000
# 4 0.0000 0.0000 0.0000 15.9865 0.0000 73.9045
# 5 2.2432 -0.1167 0.4522 0.0000 30.5251 0.0000
# 6 0.0000 0.0000 0.0000 73.9045 0.0000 -6.6794
#
#
#
# Elastic Compliance Matrix: (Units=1/GPa)
#
#
# Indices 1 2 3 4 5 6 
#
# 1 0.031674 -0.015053 -0.004406 0.000000 -0.002320 0.000000
# 2 -0.015053 0.012766 0.000121 0.000000 0.001153 0.000000
# 3 -0.004406 0.000121 0.006469 0.000000 0.000228 0.000000
# 4 0.000000 0.000000 0.000000 0.001199 0.000000 0.013272
# 5 -0.002320 0.001153 0.000228 0.000000 0.032931 0.000000
# 6 0.000000 0.000000 0.000000 0.013272 0.000000 -0.002871
#
#
# Mechanical properties :
#
#
# Convention : Reuss Voigt Hill
#
# Bulk Modulus (GPa) = 81.75135 105.77955 93.76545
# Shear Modulus (GPa) = 40.02496 24.83469 32.42982
#
# Velocity S-wave (km/s) = 4.12712 3.25096 3.71496
# Velocity P-wave (km/s) = 7.58296 7.68814 7.63573
#
# Compressibility (1/GPa) = 0.01223221
#
# Stress axis : x y z
#
# Youngs Moduli (GPa) = 31.57155 78.33525 154.59212
#
# Poissons Ratio (x) = 1.17918 0.68110
# Poissons Ratio (y) = 0.47525 -0.01866
# Poissons Ratio (z) = 0.13910 -0.00946
#
# Static dielectric constant tensor:
#      x y z
#    x 1.926820 0.000000 -0.032030 
#    y 0.000000 1.925520 0.000000 
#    z -0.032030 0.000000 1.847140 
# 
# From -- ./inp_files/1311.got.cif
#   From: 2010.05.17/outbox.cif.g08.bks.cpg/sg10_1_cif.got.tgz:1311.got - 2010.06.03 11:33:40.
