data_PCOD9154860
_publ_section_title
;
Structure prediction by ZEFSAII (Michael W. Deem and Ramdas Pophale) SiO2 
 PCOD9154860
Probable space group: P 2/M
;
_chemical_formula_sum "Si O2"
_cell_formula_units_Z 18
_cell_length_a 8.784708
_cell_length_b 7.924651
_cell_length_c 13.154502
_cell_angle_alpha 90.000000
_cell_angle_beta 83.082199
_cell_angle_gamma 90.000000
_cell_volume 909.093693
_symmetry_space_group_name_H-M "P 2/M"
_symmetry_group_IT_number 10
_symmetry_cell_setting 'monoclinic'
loop_
_space_group_symop_operation_xyz
x,y,z
-x,y,-z
-x,-y,-z
x,-y,z
loop_
_atom_site_type_symbol
_atom_site_label
_atom_site_fract_x
_atom_site_fract_y
_atom_site_fract_z
Si Si1 0.282923 0.307683 0.554024
Si Si2 0.316709 0.000000 0.220079
Si Si3 0.048697 0.000000 0.112465
Si Si4 0.168689 0.000000 0.439294
Si Si5 0.472081 0.692815 0.733136
Si Si6 0.122893 0.309961 0.773275
O O1 0.284744 0.500000 0.515713
O O2 0.254104 0.165081 0.475251
O O3 0.570116 0.282438 0.383573
O O4 0.144876 0.294148 0.649211
O O5 0.419003 0.835132 0.232394
O O6 0.184793 0.000000 0.317393
O O7 0.229763 0.000000 0.120449
O O8 0.977492 0.165902 0.170423
O O9 0.000000 0.000000 0.000000
O O10 0.000000 0.000000 0.500000
O O11 0.526482 0.500000 0.741400
O O12 0.300822 0.705473 0.794824
O O13 0.069198 0.500000 0.799495
#
# Coordination Sequence:
#
# PCOD9154860 Si02
#       6
#     4   2   2   2   4   4
#     4   8  17  35  59  80 110 153 189 218 268 335
#     4  12  24  35  56  86 119 146 186 253 287 322
#     4  12  25  39  58  84 115 152 190 234 295 354
#     4  12  23  32  49  84 124 158 188 222 271 337
#     4   8  18  38  63  85 111 151 192 233 281 331
#     4   8  17  39  64  80 109 155 189 224 278 342
#
# _framework density 19.799938000000001
#
# number of rings (size 3 to 8) (size 9 to 14) (size 15 to 20)
#    1.333    1.333    0.000    3.333    0.000    4.444 
#    0.000    4.444    0.000    2.667    0.000    0.000 
#    0.000    0.000    0.000    0.000    0.000    0.000 
#
# Total GULP energy -100350.851689 kJ/mol
# GULP energy per Si atom -5575.047316 kJ/mol
# Density = 1.975487 g / cm^3
# Si number density = 19.799938 Si / 1000 Ang^3
#
#
#
# Elastic Constant Matrix: (Units=GPa)
#
#
# Indices 1 2 3 4 5 6 
#
# 1 59.1530 58.6991 11.2512 0.0000 15.0223 0.0000
# 2 58.6991 141.8626 40.8400 0.0000 18.8723 0.0000
# 3 11.2512 40.8400 33.5815 0.0000 21.6792 0.0000
# 4 0.0000 0.0000 0.0000 -1.5527 0.0000 -17.2195
# 5 15.0223 18.8723 21.6792 0.0000 26.2244 0.0000
# 6 0.0000 0.0000 0.0000 -17.2195 0.0000 9.1976
#
#
#
# Elastic Compliance Matrix: (Units=1/GPa)
#
#
# Indices 1 2 3 4 5 6 
#
# 1 0.045075 -0.025608 0.044633 0.000000 -0.044289 0.000000
# 2 -0.025608 0.025963 -0.043754 0.000000 0.032155 0.000000
# 3 0.044633 -0.043754 0.137704 0.000000 -0.107917 0.000000
# 4 0.000000 0.000000 0.000000 -0.029594 0.000000 -0.055405
# 5 -0.044289 0.032155 -0.107917 0.000000 0.129575 0.000000
# 6 0.000000 0.000000 0.000000 -0.055405 0.000000 0.004996
#
#
# Mechanical properties :
#
#
# Convention : Reuss Voigt Hill
#
# Bulk Modulus (GPa) = 6.27813 50.68640 28.48227
# Shear Modulus (GPa) = 12.01137 15.02764 13.51951
#
# Velocity S-wave (km/s) = 2.46567 2.75794 2.61589
# Velocity P-wave (km/s) = 3.35912 5.98302 4.85181
#
# Compressibility (1/GPa) = 0.15928303
#
# Stress axis : x y z
#
# Youngs Moduli (GPa) = 22.18527 38.51569 7.26196
#
# Poissons Ratio (x) = 0.98631 -0.32412
# Poissons Ratio (y) = 0.56812 0.31774
# Poissons Ratio (z) = -0.99019 1.68522
#
# Static dielectric constant tensor:
#      x y z
#    x 1.748430 0.000000 -0.029030 
#    y 0.000000 1.664820 0.000000 
#    z -0.029030 0.000000 1.702900 
# 
# From -- ./inp_files/40764.got.cif
#   From: 2010.05.17/outbox.cif.g08.bks.cpg/sg10_21_cif.got.tgz:40764.got - 2010.06.03 11:33:40.
