data_PCOD9154077
_publ_section_title
;
Structure prediction by ZEFSAII (Michael W. Deem and Ramdas Pophale) SiO2 
 PCOD9154077
Probable space group: P 2/M
;
_chemical_formula_sum "Si O2"
_cell_formula_units_Z 24
_cell_length_a 12.193968
_cell_length_b 16.055463
_cell_length_c 17.740650
_cell_angle_alpha 90.000000
_cell_angle_beta 159.165701
_cell_angle_gamma 90.000000
_cell_volume 1235.322612
_symmetry_space_group_name_H-M "P 2/M"
_symmetry_group_IT_number 10
_symmetry_cell_setting 'monoclinic'
loop_
_space_group_symop_operation_xyz
x,y,z
-x,y,-z
-x,-y,-z
x,-y,z
loop_
_atom_site_type_symbol
_atom_site_label
_atom_site_fract_x
_atom_site_fract_y
_atom_site_fract_z
Si Si1 0.235321 0.687123 0.719361
Si Si2 0.796611 0.778760 0.549040
Si Si3 0.019603 0.500000 0.108040
Si Si4 0.205357 0.320612 0.208515
Si Si5 0.827320 0.802057 0.070715
Si Si6 0.673019 0.096834 0.833002
Si Si7 0.473563 0.500000 0.889615
O O1 0.308608 0.589006 0.770693
O O2 0.000000 0.700449 0.500000
O O3 0.057396 0.725420 0.675427
O O4 0.540634 0.742051 0.904924
O O5 0.547911 0.710624 0.415264
O O6 0.594099 0.843275 0.370384
O O7 0.972355 0.826019 0.728569
O O8 0.189704 0.413340 0.230634
O O9 0.000000 0.500000 0.000000
O O10 0.737689 0.500000 0.990259
O O11 0.048122 0.255411 0.162426
O O12 0.000000 0.319064 0.000000
O O13 0.722401 0.878177 0.951505
O O14 0.597112 0.000000 0.774742
O O15 0.000000 0.112173 0.000000
O O16 0.500000 0.500000 0.000000
#
# Coordination Sequence:
#
# PCOD9154077 Si02
#       7
#     4   4   2   4   4   4   2
#     4  12  25  44  70  94 138 189 229 275 348 407
#     4  12  24  41  69 102 132 179 227 280 340 414
#     4  10  24  38  69  97 138 187 242 282 342 401
#     4  11  20  41  65  93 137 178 228 282 331 394
#     4  12  22  43  67  98 134 175 222 281 338 409
#     4  11  24  44  70 100 135 171 216 279 345 416
#     4  12  25  44  64 104 144 184 237 298 340 411
#
# _framework density 19.428124
#
# number of rings (size 3 to 8) (size 9 to 14) (size 15 to 20)
#    0.000    0.500    6.667    2.250    2.333    1.333 
#    0.000    5.833    0.000    2.000    0.000    0.000 
#    0.000    0.000    0.000    0.000    0.000    0.000 
#
# Total GULP energy -133843.085940 kJ/mol
# GULP energy per Si atom -5576.795247 kJ/mol
# Density = 1.938390 g / cm^3
# Si number density = 19.428124 Si / 1000 Ang^3
#
#
#
# Elastic Constant Matrix: (Units=GPa)
#
#
# Indices 1 2 3 4 5 6 
#
# 1 103.0404 24.7365 49.4274 0.0000 13.4849 0.0000
# 2 24.7365 113.3087 32.8868 0.0000 22.3466 0.0000
# 3 49.4274 32.8868 139.7900 0.0000 24.4341 0.0000
# 4 0.0000 0.0000 0.0000 18.2781 0.0000 22.6419
# 5 13.4849 22.3466 24.4341 0.0000 65.3376 0.0000
# 6 0.0000 0.0000 0.0000 22.6419 0.0000 40.1294
#
#
#
# Elastic Compliance Matrix: (Units=1/GPa)
#
#
# Indices 1 2 3 4 5 6 
#
# 1 0.011933 -0.001392 -0.003792 0.000000 -0.000568 0.000000
# 2 -0.001392 0.010058 -0.001415 0.000000 -0.002623 0.000000
# 3 -0.003792 -0.001415 0.009208 0.000000 -0.002177 0.000000
# 4 0.000000 0.000000 0.000000 0.181721 0.000000 -0.102531
# 5 -0.000568 -0.002623 -0.002177 0.000000 0.017134 0.000000
# 6 0.000000 0.000000 0.000000 -0.102531 0.000000 0.082770
#
#
# Mechanical properties :
#
#
# Convention : Reuss Voigt Hill
#
# Bulk Modulus (GPa) = 55.56063 63.36006 59.46034
# Shear Modulus (GPa) = 15.05926 41.35490 28.20708
#
# Velocity S-wave (km/s) = 2.78713 4.61869 3.81447
# Velocity P-wave (km/s) = 6.24641 7.81834 7.07616
#
# Compressibility (1/GPa) = 0.01799836
#
# Stress axis : x y z
#
# Youngs Moduli (GPa) = 83.80354 99.42803 108.60216
#
# Poissons Ratio (x) = 0.13843 0.41185
# Poissons Ratio (y) = 0.11668 0.15371
# Poissons Ratio (z) = 0.31781 0.14072
#
# Static dielectric constant tensor:
#      x y z
#    x 1.607470 0.000000 -0.033460 
#    y 0.000000 1.628960 0.000000 
#    z -0.033460 0.000000 1.639000 
# 
# From -- ./inp_files/77189.got.cif
#   From: 2010.05.17/outbox.cif.g08.bks.cpg/sg10_39_cif.got.tgz:77189.got - 2010.06.03 11:33:40.
