data_PCOD9154197
_publ_section_title
;
Structure prediction by ZEFSAII (Michael W. Deem and Ramdas Pophale) SiO2 
 PCOD9154197
Probable space group: P 2/M
;
_chemical_formula_sum "Si O2"
_cell_formula_units_Z 24
_cell_length_a 13.483495
_cell_length_b 12.395026
_cell_length_c 14.371862
_cell_angle_alpha 90.000000
_cell_angle_beta 150.880676
_cell_angle_gamma 90.000000
_cell_volume 1168.858341
_symmetry_space_group_name_H-M "P 2/M"
_symmetry_group_IT_number 10
_symmetry_cell_setting 'monoclinic'
loop_
_space_group_symop_operation_xyz
x,y,z
-x,y,-z
-x,-y,-z
x,-y,z
loop_
_atom_site_type_symbol
_atom_site_label
_atom_site_fract_x
_atom_site_fract_y
_atom_site_fract_z
Si Si1 0.180637 0.000000 0.605153
Si Si2 0.657159 0.812211 0.390672
Si Si3 0.302858 0.374862 0.707955
Si Si4 0.888374 0.000000 0.004902
Si Si5 0.316168 0.000000 0.892364
Si Si6 0.206926 0.181826 0.948783
Si Si7 0.786252 0.624847 0.158492
Si Si8 0.437905 0.000000 0.557771
O O1 0.239231 0.892808 0.597946
O O2 0.086623 0.000000 0.636724
O O3 0.412446 0.000000 0.863716
O O4 0.735643 0.696821 0.414965
O O5 0.415396 0.797361 0.174967
O O6 0.666239 0.887639 0.491418
O O7 0.252916 0.500000 0.651098
O O8 0.197526 0.341437 0.719669
O O9 0.544283 0.370181 0.933082
O O10 0.929058 0.893399 0.097718
O O11 0.648287 0.000000 0.787992
O O12 0.000000 0.000000 0.000000
O O13 0.268426 0.107701 0.911439
O O14 0.116681 0.290882 0.833665
O O15 0.846800 0.500000 0.199002
O O16 0.500000 0.000000 0.500000
#
# Coordination Sequence:
#
# PCOD9154197 Si02
#       8
#     2   4   4   2   2   4   4   2
#     4  11  20  27  37  62  96 116 138 178 214 255
#     4   9  16  29  44  61  87 116 147 178 213 266
#     4   8  13  21  39  65  91 117 142 174 208 245
#     4   9  18  32  45  65  88 106 145 195 228 259
#     4  11  16  25  43  62  86 118 142 169 205 263
#     4   9  16  26  45  65  83 118 149 171 219 264
#     4   8  13  20  35  66  98 115 137 173 209 251
#     4   9  18  32  49  62  80 116 149 183 231 267
#
# _framework density 20.532855999999999
#
# number of rings (size 3 to 8) (size 9 to 14) (size 15 to 20)
#    0.000    3.000    1.667    3.000    2.333    0.000 
#    6.000    0.000    0.000    1.500    0.000    0.000 
#    0.000    0.000    0.000    0.000    0.000    0.000 
#
# Total GULP energy -133653.782241 kJ/mol
# GULP energy per Si atom -5568.907593 kJ/mol
# Density = 2.048612 g / cm^3
# Si number density = 20.532856 Si / 1000 Ang^3
#
#
#
# Elastic Constant Matrix: (Units=GPa)
#
#
# Indices 1 2 3 4 5 6 
#
# 1 117.5099 67.7180 19.7879 0.0000 -26.8409 0.0000
# 2 67.7180 126.3616 12.4575 0.0000 -27.4455 0.0000
# 3 19.7879 12.4575 119.8673 0.0000 6.5363 0.0000
# 4 0.0000 0.0000 0.0000 2.0254 0.0000 -12.8318
# 5 -26.8409 -27.4455 6.5363 0.0000 28.7095 0.0000
# 6 0.0000 0.0000 0.0000 -12.8318 0.0000 11.8633
#
#
#
# Elastic Compliance Matrix: (Units=1/GPa)
#
#
# Indices 1 2 3 4 5 6 
#
# 1 0.013905 -0.005433 -0.002184 0.000000 0.008303 0.000000
# 2 -0.005433 0.012414 -0.000773 0.000000 0.006964 0.000000
# 3 -0.002184 -0.000773 0.009047 0.000000 -0.004840 0.000000
# 4 0.000000 0.000000 0.000000 -0.084360 0.000000 -0.091247
# 5 0.008303 0.006964 -0.004840 0.000000 0.050354 0.000000
# 6 0.000000 0.000000 0.000000 -0.091247 0.000000 -0.014402
#
#
# Mechanical properties :
#
#
# Convention : Reuss Voigt Hill
#
# Bulk Modulus (GPa) = 53.80039 62.62952 58.21495
# Shear Modulus (GPa) = 503.33194 26.10465 264.71829
#
# Velocity S-wave (km/s) = 15.67377 3.56948 11.36680
# Velocity P-wave (km/s) = 18.80997 6.89613 14.16636
#
# Compressibility (1/GPa) = 0.01858723
#
# Stress axis : x y z
#
# Youngs Moduli (GPa) = 71.91549 80.55244 110.53006
#
# Poissons Ratio (x) = 0.43765 0.24136
# Poissons Ratio (y) = 0.39073 0.08544
# Poissons Ratio (z) = 0.15704 0.06227
#
# Static dielectric constant tensor:
#      x y z
#    x 1.779320 0.000000 0.142270 
#    y 0.000000 1.712140 0.000000 
#    z 0.142270 0.000000 2.060400 
# 
# From -- ./inp_files/60815.got.cif
#   From: 2010.05.17/outbox.cif.g08.bks.cpg/sg10_31_cif.got.tgz:60815.got - 2010.06.03 11:33:40.
