data_PCOD9154774
_publ_section_title
;
Structure prediction by ZEFSAII (Michael W. Deem and Ramdas Pophale) SiO2 
 PCOD9154774
Probable space group: P 2/M
;
_chemical_formula_sum "Si O2"
_cell_formula_units_Z 20
_cell_length_a 4.997124
_cell_length_b 14.589435
_cell_length_c 11.348122
_cell_angle_alpha 90.000000
_cell_angle_beta 97.659468
_cell_angle_gamma 90.000000
_cell_volume 819.955561
_symmetry_space_group_name_H-M "P 2/M"
_symmetry_group_IT_number 10
_symmetry_cell_setting 'monoclinic'
loop_
_space_group_symop_operation_xyz
x,y,z
-x,y,-z
-x,-y,-z
x,-y,z
loop_
_atom_site_type_symbol
_atom_site_label
_atom_site_fract_x
_atom_site_fract_y
_atom_site_fract_z
Si Si1 0.717855 0.395887 0.796466
Si Si2 0.259611 0.696902 0.889537
Si Si3 0.690840 0.098265 0.128075
Si Si4 0.778178 0.292472 0.583803
Si Si5 0.366989 0.899906 0.359323
O O1 0.659247 0.500000 0.825928
O O2 0.443587 0.336247 0.790957
O O3 0.807279 0.379305 0.668563
O O4 0.983773 0.359400 0.879160
O O5 0.174699 0.802952 0.879397
O O6 0.500000 0.683724 0.000000
O O7 0.547431 0.100876 0.249520
O O8 0.840842 0.000000 0.130847
O O9 0.500000 0.096442 0.000000
O O10 0.500000 0.297557 0.500000
O O11 0.793335 0.195195 0.653719
O O12 0.000000 0.288520 0.500000
O O13 0.500000 0.897619 0.500000
O O14 0.226460 0.000000 0.350539
#
# Coordination Sequence:
#
# PCOD9154774 Si02
#       5
#     4   4   4   4   4
#     4  12  26  44  68  98 131 176 234 287 345 403
#     4  11  24  44  69  99 136 177 224 281 344 409
#     4   9  18  37  66 100 139 180 223 274 338 413
#     4  11  24  42  66  94 133 176 221 281 341 405
#     4   9  18  35  62  97 133 176 223 273 335 407
#
# _framework density 24.391563999999999
#
# number of rings (size 3 to 8) (size 9 to 14) (size 15 to 20)
#    0.000    1.600    2.000    2.400    2.800    3.600 
#    0.000    2.000    0.000    4.800    0.000    0.000 
#    0.000    0.000    0.000    0.000    0.000    0.000 
#
# Total GULP energy -111530.270369 kJ/mol
# GULP energy per Si atom -5576.513518 kJ/mol
# Density = 2.433605 g / cm^3
# Si number density = 24.391564 Si / 1000 Ang^3
#
#
#
# Elastic Constant Matrix: (Units=GPa)
#
#
# Indices 1 2 3 4 5 6 
#
# 1 98.3254 14.0485 22.9460 0.0000 10.4701 0.0000
# 2 14.0485 128.7806 1.2750 0.0000 4.6313 0.0000
# 3 22.9460 1.2750 135.9659 0.0000 17.0251 0.0000
# 4 0.0000 0.0000 0.0000 17.9907 0.0000 105.9528
# 5 10.4701 4.6313 17.0251 0.0000 46.6645 0.0000
# 6 0.0000 0.0000 0.0000 105.9528 0.0000 -962.2322
#
#
#
# Elastic Compliance Matrix: (Units=1/GPa)
#
#
# Indices 1 2 3 4 5 6 
#
# 1 0.010890 -0.001109 -0.001609 0.000000 -0.001746 0.000000
# 2 -0.001109 0.007906 0.000189 0.000000 -0.000605 0.000000
# 3 -0.001609 0.000189 0.007945 0.000000 -0.002556 0.000000
# 4 0.000000 0.000000 0.000000 0.033718 0.000000 0.003713
# 5 -0.001746 -0.000605 -0.002556 0.000000 0.022814 0.000000
# 6 0.000000 0.000000 0.000000 0.003713 0.000000 -0.000630
#
#
# Mechanical properties :
#
#
# Convention : Reuss Voigt Hill
#
# Bulk Modulus (GPa) = 46.12062 48.84568 47.48315
# Shear Modulus (GPa) = 52.67099 -157.86191 -52.59546
#
# Velocity S-wave (km/s) = 4.65197 -8.05359 -4.64863
# Velocity P-wave (km/s) = 6.91404 8.14932 3.05020
#
# Compressibility (1/GPa) = 0.02168228
#
# Stress axis : x y z
#
# Youngs Moduli (GPa) = 91.82564 126.48578 125.87158
#
# Poissons Ratio (x) = 0.14031 0.20250
# Poissons Ratio (y) = 0.10186 -0.02376
# Poissons Ratio (z) = 0.14773 -0.02388
#
# Static dielectric constant tensor:
#      x y z
#    x 1.958430 0.000000 -0.042940 
#    y 0.000000 1.958030 0.000000 
#    z -0.042940 0.000000 2.149770 
# 
# From -- ./inp_files/6704.got.cif
#   From: 2010.05.17/outbox.cif.g08.bks.cpg/sg10_4_cif.got.tgz:6704.got - 2010.06.03 11:33:40.
