data_PCOD9154309
_publ_section_title
;
Structure prediction by ZEFSAII (Michael W. Deem and Ramdas Pophale) SiO2 
 PCOD9154309
Probable space group: P 2/M
;
_chemical_formula_sum "Si O2"
_cell_formula_units_Z 30
_cell_length_a 9.141690
_cell_length_b 15.731949
_cell_length_c 11.662489
_cell_angle_alpha 90.000000
_cell_angle_beta 104.672963
_cell_angle_gamma 90.000000
_cell_volume 1622.559714
_symmetry_space_group_name_H-M "P 2/M"
_symmetry_group_IT_number 10
_symmetry_cell_setting 'monoclinic'
loop_
_space_group_symop_operation_xyz
x,y,z
-x,y,-z
-x,-y,-z
x,-y,z
loop_
_atom_site_type_symbol
_atom_site_label
_atom_site_fract_x
_atom_site_fract_y
_atom_site_fract_z
Si Si1 0.715777 0.737647 0.688751
Si Si2 0.004402 0.000000 0.261918
Si Si3 0.124080 0.846919 0.122340
Si Si4 0.679798 0.903302 0.038946
Si Si5 0.481082 0.092344 0.360007
Si Si6 0.169354 0.690480 0.543118
Si Si7 0.525484 0.404163 0.367328
Si Si8 0.792277 0.856849 0.300639
O O1 0.849922 0.760715 0.801688
O O2 0.622194 0.825610 0.675644
O O3 0.775803 0.720588 0.572557
O O4 0.600708 0.662569 0.700358
O O5 0.076997 0.075643 0.194365
O O6 0.924917 0.074677 0.326285
O O7 0.267759 0.872537 0.073744
O O8 0.000000 0.836131 0.000000
O O9 0.742422 0.848475 0.157040
O O10 0.741716 0.000000 0.074833
O O11 0.500000 0.906512 0.000000
O O12 0.500000 0.087376 0.500000
O O13 0.642208 0.107386 0.332991
O O14 0.420800 0.000000 0.308945
O O15 0.304030 0.629946 0.614745
O O16 0.162806 0.771248 0.626139
O O17 0.000000 0.653450 0.500000
O O18 0.500000 0.405996 0.500000
O O19 0.506403 0.500000 0.319891
#
# Coordination Sequence:
#
# PCOD9154309 Si02
#       8
#     4   2   4   4   4   4   4   4
#     4  11  22  40  60  88 121 158 204 252 300 367
#     4  12  23  38  54  78 125 171 215 247 296 342
#     4  12  23  39  56  81 121 168 210 258 299 342
#     4  11  22  36  57  81 110 157 224 267 290 335
#     4  11  20  34  53  79 118 160 203 241 293 356
#     4  11  23  38  57  91 129 152 189 246 310 371
#     4   9  19  40  70  93 115 149 193 247 310 374
#     4  12  20  36  54  79 117 161 199 255 291 347
#
# _framework density 18.489304000000001
#
# number of rings (size 3 to 8) (size 9 to 14) (size 15 to 20)
#    0.000    0.933    6.000    2.200    0.933    1.333 
#    0.000    1.000    0.000    0.400    0.000    1.867 
#    0.000    0.000    0.000    0.000    0.000    0.000 
#
# Total GULP energy -167011.943260 kJ/mol
# GULP energy per Si atom -5567.064775 kJ/mol
# Density = 1.844722 g / cm^3
# Si number density = 18.489304 Si / 1000 Ang^3
#
#
#
# Elastic Constant Matrix: (Units=GPa)
#
#
# Indices 1 2 3 4 5 6 
#
# 1 89.1103 38.8238 25.7810 0.0000 -13.2076 0.0000
# 2 38.8238 105.2785 14.7155 0.0000 7.3963 0.0000
# 3 25.7810 14.7155 41.7174 0.0000 -18.5439 0.0000
# 4 0.0000 0.0000 0.0000 12.2184 0.0000 10.1572
# 5 -13.2076 7.3963 -18.5439 0.0000 29.6121 0.0000
# 6 0.0000 0.0000 0.0000 10.1572 0.0000 30.5618
#
#
#
# Elastic Compliance Matrix: (Units=1/GPa)
#
#
# Indices 1 2 3 4 5 6 
#
# 1 0.015984 -0.005422 -0.005812 0.000000 0.004844 0.000000
# 2 -0.005422 0.012829 -0.005091 0.000000 -0.008811 0.000000
# 3 -0.005812 -0.005091 0.039870 0.000000 0.023647 0.000000
# 4 0.000000 0.000000 0.000000 0.113088 0.000000 -0.037585
# 5 0.004844 -0.008811 0.023647 0.000000 0.052939 0.000000
# 6 0.000000 0.000000 0.000000 -0.037585 0.000000 0.045212
#
#
# Mechanical properties :
#
#
# Convention : Reuss Voigt Hill
#
# Bulk Modulus (GPa) = 27.75314 43.86075 35.80695
# Shear Modulus (GPa) = 15.40441 24.93085 20.16763
#
# Velocity S-wave (km/s) = 2.88957 3.67603 3.30627
# Velocity P-wave (km/s) = 5.11623 6.46462 5.82954
#
# Compressibility (1/GPa) = 0.03603195
#
# Stress axis : x y z
#
# Youngs Moduli (GPa) = 62.56280 77.94968 25.08165
#
# Poissons Ratio (x) = 0.42267 0.14578
# Poissons Ratio (y) = 0.33924 0.12769
# Poissons Ratio (z) = 0.36362 0.39683
#
# Static dielectric constant tensor:
#      x y z
#    x 1.873800 0.000000 0.087770 
#    y 0.000000 1.611890 0.000000 
#    z 0.087770 0.000000 1.682890 
# 
# From -- ./inp_files/42712.got.cif
#   From: 2010.05.17/outbox.cif.g08.bks.cpg/sg10_22_cif.got.tgz:42712.got - 2010.06.03 11:33:40.
