data_PCOD9154240
_publ_section_title
;
Structure prediction by ZEFSAII (Michael W. Deem and Ramdas Pophale) SiO2 
 PCOD9154240
Probable space group: P 2/M
;
_chemical_formula_sum "Si O2"
_cell_formula_units_Z 16
_cell_length_a 12.135198
_cell_length_b 7.724274
_cell_length_c 9.882422
_cell_angle_alpha 90.000000
_cell_angle_beta 119.132454
_cell_angle_gamma 90.000000
_cell_volume 809.150219
_symmetry_space_group_name_H-M "P 2/M"
_symmetry_group_IT_number 10
_symmetry_cell_setting 'monoclinic'
loop_
_space_group_symop_operation_xyz
x,y,z
-x,y,-z
-x,-y,-z
x,-y,z
loop_
_atom_site_type_symbol
_atom_site_label
_atom_site_fract_x
_atom_site_fract_y
_atom_site_fract_z
Si Si1 0.030790 0.306204 0.798133
Si Si2 0.474332 0.701100 0.328417
Si Si3 0.877358 0.000000 0.329293
Si Si4 0.575446 0.000000 0.192046
Si Si5 0.185161 0.792566 0.151501
O O1 0.030491 0.500000 0.744884
O O2 0.098258 0.171580 0.742662
O O3 0.889229 0.249582 0.754787
O O4 0.108053 0.292797 0.983779
O O5 0.500000 0.751601 0.500000
O O6 0.512707 0.500000 0.331958
O O7 0.324260 0.719843 0.227668
O O8 0.534265 0.831937 0.255563
O O9 0.728710 0.000000 0.277464
O O10 0.000000 0.000000 0.500000
O O11 0.500000 0.000000 0.000000
O O12 0.184857 0.000000 0.133189
#
# Coordination Sequence:
#
# PCOD9154240 Si02
#       5
#     4   4   2   2   4
#     4  11  22  40  65  94 129 169 216 267 325 395
#     4  11  25  43  69 100 131 170 223 283 338 393
#     4  12  28  43  62  95 134 180 218 267 327 390
#     4  12  27  46  70  95 137 187 228 267 330 409
#     4  11  19  38  70  98 126 163 210 278 335 385
#
# _framework density 19.77383
#
# number of rings (size 3 to 8) (size 9 to 14) (size 15 to 20)
#    0.000    0.750    3.750    5.625    3.500    2.000 
#    0.000    0.000    0.000    0.000    0.000    0.000 
#    0.000    0.000    0.000    0.000    0.000    0.000 
#
# Total GULP energy -89326.248195 kJ/mol
# GULP energy per Si atom -5582.890512 kJ/mol
# Density = 1.972882 g / cm^3
# Si number density = 19.773830 Si / 1000 Ang^3
#
#
#
# Elastic Constant Matrix: (Units=GPa)
#
#
# Indices 1 2 3 4 5 6 
#
# 1 173.1646 50.9992 62.3005 0.0000 5.7405 0.0000
# 2 50.9992 149.8553 36.3130 0.0000 -23.6029 0.0000
# 3 62.3005 36.3130 98.6998 0.0000 0.5785 0.0000
# 4 0.0000 0.0000 0.0000 -118.0446 0.0000 176.6569
# 5 5.7405 -23.6029 0.5785 0.0000 24.4565 0.0000
# 6 0.0000 0.0000 0.0000 176.6569 0.0000 -210.2395
#
#
#
# Elastic Compliance Matrix: (Units=1/GPa)
#
#
# Indices 1 2 3 4 5 6 
#
# 1 0.008139 -0.002393 -0.004233 0.000000 -0.004120 0.000000
# 2 -0.002393 0.009530 -0.002053 0.000000 0.009807 0.000000
# 3 -0.004233 -0.002053 0.013567 0.000000 -0.001309 0.000000
# 4 0.000000 0.000000 0.000000 0.032901 0.000000 0.027646
# 5 -0.004120 0.009807 -0.001309 0.000000 0.051352 0.000000
# 6 0.000000 0.000000 0.000000 0.027646 0.000000 0.018473
#
#
# Mechanical properties :
#
#
# Convention : Reuss Voigt Hill
#
# Bulk Modulus (GPa) = 72.05990 80.10502 76.08246
# Shear Modulus (GPa) = 32.06240 -42.62505 -5.28132
#
# Velocity S-wave (km/s) = 4.03110 -4.64791 -1.63605
# Velocity P-wave (km/s) = 7.62807 3.43430 5.91532
#
# Compressibility (1/GPa) = 0.01387734
#
# Stress axis : x y z
#
# Youngs Moduli (GPa) = 122.86325 104.93452 73.71040
#
# Poissons Ratio (x) = 0.25112 0.31201
# Poissons Ratio (y) = 0.29403 0.15133
# Poissons Ratio (z) = 0.52007 0.21544
#
# Static dielectric constant tensor:
#      x y z
#    x 1.671370 0.000000 -0.099900 
#    y 0.000000 1.706550 0.000000 
#    z -0.099900 0.000000 1.442210 
# 
# From -- ./inp_files/22488.got.cif
#   From: 2010.05.17/outbox.cif.g08.bks.cpg/sg10_12_cif.got.tgz:22488.got - 2010.06.03 11:33:40.
