data_PCOD9154251
_publ_section_title
;
Structure prediction by ZEFSAII (Michael W. Deem and Ramdas Pophale) SiO2 
 PCOD9154251
Probable space group: P 2/M
;
_chemical_formula_sum "Si O2"
_cell_formula_units_Z 32
_cell_length_a 19.942614
_cell_length_b 7.404557
_cell_length_c 27.380816
_cell_angle_alpha 90.000000
_cell_angle_beta 21.428579
_cell_angle_gamma 90.000000
_cell_volume 1477.155239
_symmetry_space_group_name_H-M "P 2/M"
_symmetry_group_IT_number 10
_symmetry_cell_setting 'monoclinic'
loop_
_space_group_symop_operation_xyz
x,y,z
-x,y,-z
-x,-y,-z
x,-y,z
loop_
_atom_site_type_symbol
_atom_site_label
_atom_site_fract_x
_atom_site_fract_y
_atom_site_fract_z
Si Si1 0.260943 0.721005 0.716431
Si Si2 0.578300 0.279733 0.294173
Si Si3 0.771011 0.790712 0.984608
Si Si4 0.166125 0.705319 0.677551
Si Si5 0.180481 0.720868 0.557364
Si Si6 0.208733 0.720161 0.210615
Si Si7 0.463058 0.282702 0.947389
Si Si8 0.867235 0.708060 0.022482
O O1 0.258635 0.500000 0.715063
O O2 0.406051 0.772036 0.659442
O O3 0.270104 0.784309 0.654257
O O4 0.064316 0.780906 0.872160
O O5 0.584552 0.500000 0.288833
O O6 0.383897 0.225217 0.403347
O O7 0.751664 0.213756 0.145407
O O8 0.604627 0.772604 0.059836
O O9 0.744183 0.715366 0.056983
O O10 0.816170 0.000000 0.959184
O O11 0.952587 0.700144 0.838720
O O12 0.236270 0.500000 0.624523
O O13 0.166396 0.783326 0.623294
O O14 0.173739 0.500000 0.561987
O O15 0.001231 0.780952 0.649552
O O16 0.208643 0.500000 0.211116
O O17 0.339226 0.778411 0.166637
O O18 0.313344 0.774102 0.089704
O O19 0.463504 0.500000 0.947638
O O20 0.904652 0.500000 0.009843
#
# Coordination Sequence:
#
# PCOD9154251 Si02
#       8
#     4   4   4   4   4   4   4   4
#     4   8  14  24  41  66  93 120 149 185 226 265
#     4   9  16  25  42  70  96 117 149 193 229 256
#     4  11  20  29  45  69  93 115 148 196 232 261
#     4   9  16  28  46  66  94 126 149 175 222 279
#     4   9  15  24  42  69  98 121 146 182 220 265
#     4   8  14  24  43  68  94 121 146 174 215 271
#     4   9  15  27  47  68  91 120 148 175 220 275
#     4   9  17  30  47  65  89 122 155 188 227 268
#
# _framework density 21.663260999999999
#
# number of rings (size 3 to 8) (size 9 to 14) (size 15 to 20)
#    0.000    3.000    1.250    3.000    0.000    2.000 
#    0.000    3.750    0.000    7.500    0.000    8.750 
#    0.000    0.000    0.000    0.000    0.000    0.000 
#
# Total GULP energy -178496.624336 kJ/mol
# GULP energy per Si atom -5578.019510 kJ/mol
# Density = 2.161395 g / cm^3
# Si number density = 21.663261 Si / 1000 Ang^3
#
#
#
# Elastic Constant Matrix: (Units=GPa)
#
#
# Indices 1 2 3 4 5 6 
#
# 1 99.0294 -5.6347 15.1180 0.0000 -30.2805 0.0000
# 2 -5.6347 77.3800 -0.5605 0.0000 -1.0280 0.0000
# 3 15.1180 -0.5605 50.2014 0.0000 -27.6231 0.0000
# 4 0.0000 0.0000 0.0000 -25.0277 0.0000 -19.1439
# 5 -30.2805 -1.0280 -27.6231 0.0000 40.2522 0.0000
# 6 0.0000 0.0000 0.0000 -19.1439 0.0000 -102.9717
#
#
#
# Elastic Compliance Matrix: (Units=1/GPa)
#
#
# Indices 1 2 3 4 5 6 
#
# 1 0.013395 0.001150 0.002474 0.000000 0.011804 0.000000
# 2 0.001150 0.013035 0.000737 0.000000 0.001704 0.000000
# 3 0.002474 0.000737 0.032483 0.000000 0.024172 0.000000
# 4 0.000000 0.000000 0.000000 -0.046580 0.000000 0.008660
# 5 0.011804 0.001704 0.024172 0.000000 0.050354 0.000000
# 6 0.000000 0.000000 0.000000 0.008660 0.000000 -0.011321
#
#
# Mechanical properties :
#
#
# Convention : Reuss Voigt Hill
#
# Bulk Modulus (GPa) = 14.78532 27.16184 20.97358
# Shear Modulus (GPa) = 76.69856 -3.03693 36.83082
#
# Velocity S-wave (km/s) = 5.95666 -1.18529 4.12776
# Velocity P-wave (km/s) = 7.35859 3.26989 5.69390
#
# Compressibility (1/GPa) = 0.06763465
#
# Stress axis : x y z
#
# Youngs Moduli (GPa) = 74.65428 76.71684 30.78508
#
# Poissons Ratio (x) = -0.08824 -0.07616
# Poissons Ratio (y) = -0.08586 -0.02267
# Poissons Ratio (z) = -0.18469 -0.05651
#
# Static dielectric constant tensor:
#      x y z
#    x 1.789910 0.000000 -0.026020 
#    y 0.000000 1.860760 0.000000 
#    z -0.026020 0.000000 1.788050 
# 
# From -- ./inp_files/52798.got.cif
#   From: 2010.05.17/outbox.cif.g08.bks.cpg/sg10_27_cif.got.tgz:52798.got - 2010.06.03 11:33:40.
