data_PCOD9154429
_publ_section_title
;
Structure prediction by ZEFSAII (Michael W. Deem and Ramdas Pophale) SiO2 
 PCOD9154429
Probable space group: P 2/M
;
_chemical_formula_sum "Si O2"
_cell_formula_units_Z 28
_cell_length_a 25.142221
_cell_length_b 8.659601
_cell_length_c 19.919632
_cell_angle_alpha 90.000000
_cell_angle_beta 158.613462
_cell_angle_gamma 90.000000
_cell_volume 1581.497822
_symmetry_space_group_name_H-M "P 2/M"
_symmetry_group_IT_number 10
_symmetry_cell_setting 'monoclinic'
loop_
_space_group_symop_operation_xyz
x,y,z
-x,y,-z
-x,-y,-z
x,-y,z
loop_
_atom_site_type_symbol
_atom_site_label
_atom_site_fract_x
_atom_site_fract_y
_atom_site_fract_z
Si Si1 0.438892 0.685744 0.083620
Si Si2 0.817395 0.183898 0.717879
Si Si3 0.836825 0.313369 0.330328
Si Si4 0.643119 0.179309 0.216010
Si Si5 0.475947 0.684808 0.669029
Si Si6 0.127722 0.682381 0.071035
Si Si7 0.609446 0.182884 0.690515
O O1 0.441031 0.500000 0.082616
O O2 0.581591 0.744769 0.211488
O O3 0.447645 0.730905 0.171640
O O4 0.289189 0.736889 0.870876
O O5 0.692082 0.263249 0.527547
O O6 0.812548 0.250838 0.788053
O O7 0.798930 0.000000 0.698565
O O8 0.976824 0.230928 0.880068
O O9 0.837891 0.500000 0.333122
O O10 0.775932 0.255449 0.330788
O O11 0.000000 0.262990 0.500000
O O12 0.675567 0.000000 0.265222
O O13 0.500000 0.191480 0.000000
O O14 0.485722 0.500000 0.672676
O O15 0.541762 0.767185 0.681303
O O16 0.103653 0.500000 0.049560
O O17 0.245378 0.721699 0.153463
O O18 0.500000 0.215805 0.500000
O O19 0.639014 0.000000 0.724306
#
# Coordination Sequence:
#
# PCOD9154429 Si02
#       7
#     4   4   4   4   4   4   4
#     4   9  19  35  54  78 108 142 181 223 267 320
#     4  11  21  35  54  77 105 136 172 219 275 329
#     4   9  17  32  56  83 110 143 180 218 264 316
#     4   9  17  30  51  78 106 138 177 217 258 310
#     4  11  22  36  55  79 107 142 185 231 279 330
#     4  11  21  35  56  79 103 133 176 225 270 321
#     4  11  22  36  55  79 107 142 184 230 280 333
#
# _framework density 17.704734999999999
#
# number of rings (size 3 to 8) (size 9 to 14) (size 15 to 20)
#    0.000    1.857    1.429    4.714    0.000    3.714 
#    0.000    1.429    0.000    6.857    0.000    0.000 
#    0.000    0.000    0.000    0.000    0.000    0.000 
#
# Total GULP energy -156211.444214 kJ/mol
# GULP energy per Si atom -5578.980150 kJ/mol
# Density = 1.766444 g / cm^3
# Si number density = 17.704735 Si / 1000 Ang^3
#
#
#
# Elastic Constant Matrix: (Units=GPa)
#
#
# Indices 1 2 3 4 5 6 
#
# 1 106.0038 20.1816 43.9600 0.0000 5.0852 0.0000
# 2 20.1816 34.8224 6.4784 0.0000 -1.6087 0.0000
# 3 43.9600 6.4784 69.7578 0.0000 10.6729 0.0000
# 4 0.0000 0.0000 0.0000 20.7483 0.0000 9.8573
# 5 5.0852 -1.6087 10.6729 0.0000 28.2173 0.0000
# 6 0.0000 0.0000 0.0000 9.8573 0.0000 20.5608
#
#
#
# Elastic Compliance Matrix: (Units=1/GPa)
#
#
# Indices 1 2 3 4 5 6 
#
# 1 0.014140 -0.006635 -0.008329 0.000000 0.000224 0.000000
# 2 -0.006635 0.032554 0.000734 0.000000 0.002774 0.000000
# 3 -0.008329 0.000734 0.020464 0.000000 -0.006197 0.000000
# 4 0.000000 0.000000 0.000000 0.062412 0.000000 -0.029922
# 5 0.000224 0.002774 -0.006197 0.000000 0.037901 0.000000
# 6 0.000000 0.000000 0.000000 -0.029922 0.000000 0.062981
#
#
# Mechanical properties :
#
#
# Convention : Reuss Voigt Hill
#
# Bulk Modulus (GPa) = 25.84139 39.09155 32.46647
# Shear Modulus (GPa) = 18.39497 23.23622 20.81559
#
# Velocity S-wave (km/s) = 3.22683 3.62668 3.43258
# Velocity P-wave (km/s) = 5.33954 6.29799 5.83847
#
# Compressibility (1/GPa) = 0.03869761
#
# Stress axis : x y z
#
# Youngs Moduli (GPa) = 70.72074 30.71790 48.86619
#
# Poissons Ratio (x) = 0.20382 0.40700
# Poissons Ratio (y) = 0.46925 -0.03585
# Poissons Ratio (z) = 0.58902 -0.02253
#
# Static dielectric constant tensor:
#      x y z
#    x 1.613360 0.000000 0.004710 
#    y 0.000000 1.589780 0.000000 
#    z 0.004710 0.000000 1.606430 
# 
# From -- ./inp_files/86695.got.cif
#   From: 2010.05.17/outbox.cif.g08.bks.cpg/sg10_44_cif.got.tgz:86695.got - 2010.06.03 11:33:40.
