data_PCOD9154485
_publ_section_title
;
Structure prediction by ZEFSAII (Michael W. Deem and Ramdas Pophale) SiO2 
 PCOD9154485
Probable space group: P 2/M
;
_chemical_formula_sum "Si O2"
_cell_formula_units_Z 28
_cell_length_a 11.141329
_cell_length_b 14.240411
_cell_length_c 9.731654
_cell_angle_alpha 90.000000
_cell_angle_beta 111.515212
_cell_angle_gamma 90.000000
_cell_volume 1436.410751
_symmetry_space_group_name_H-M "P 2/M"
_symmetry_group_IT_number 10
_symmetry_cell_setting 'monoclinic'
loop_
_space_group_symop_operation_xyz
x,y,z
-x,y,-z
-x,-y,-z
x,-y,z
loop_
_atom_site_type_symbol
_atom_site_label
_atom_site_fract_x
_atom_site_fract_y
_atom_site_fract_z
Si Si1 0.240583 0.692403 0.881257
Si Si2 0.856308 0.180463 0.940770
Si Si3 0.141581 0.500000 0.400328
Si Si4 0.569158 0.388133 0.818665
Si Si5 0.749028 0.692794 0.660391
Si Si6 0.636018 0.251136 0.323373
Si Si7 0.435629 0.890745 0.124921
Si Si8 0.161599 0.500000 0.712795
O O1 0.265951 0.760912 0.762800
O O2 0.198054 0.592769 0.808269
O O3 0.138484 0.738272 0.941480
O O4 0.364658 0.668449 0.028552
O O5 0.824991 0.231080 0.783171
O O6 0.719379 0.129180 0.925337
O O7 0.000000 0.134412 0.000000
O O8 0.174372 0.597798 0.341607
O O9 0.210458 0.500000 0.577202
O O10 0.991030 0.500000 0.357906
O O11 0.581147 0.500000 0.840044
O O12 0.636514 0.349407 0.709471
O O13 0.425176 0.352017 0.741998
O O14 0.697667 0.739691 0.498607
O O15 0.520799 0.175704 0.260187
O O16 0.455403 0.000000 0.165960
O O17 0.500000 0.875124 0.000000
#
# Coordination Sequence:
#
# PCOD9154485 Si02
#       8
#     4   4   2   4   4   4   4   2
#     4  11  21  37  58  86 121 168 216 261 299 361
#     4  11  24  43  64  93 127 165 208 259 319 376
#     4  11  22  37  50  84 125 176 223 258 307 358
#     4  11  22  32  55  87 123 162 207 259 313 357
#     4  11  23  37  58  87 129 167 210 260 311 366
#     4  12  22  39  60  91 127 159 212 258 316 375
#     4  11  23  44  74 100 121 158 206 261 321 384
#     4  11  22  35  54  82 123 172 231 264 291 360
#
# _framework density 19.493031999999999
#
# number of rings (size 3 to 8) (size 9 to 14) (size 15 to 20)
#    0.000    0.857    7.143    1.714    2.000    1.429 
#    0.000    3.571    0.000    0.000    0.000    2.000 
#    0.000    0.000    0.000    0.000    0.000    0.000 
#
# Total GULP energy -156128.303313 kJ/mol
# GULP energy per Si atom -5576.010833 kJ/mol
# Density = 1.944866 g / cm^3
# Si number density = 19.493032 Si / 1000 Ang^3
#
#
#
# Elastic Constant Matrix: (Units=GPa)
#
#
# Indices 1 2 3 4 5 6 
#
# 1 98.8789 30.2700 50.4832 0.0000 5.5300 0.0000
# 2 30.2700 85.4789 25.3207 0.0000 3.8938 0.0000
# 3 50.4832 25.3207 115.1452 0.0000 -10.6525 0.0000
# 4 0.0000 0.0000 0.0000 16.8117 0.0000 -5.7972
# 5 5.5300 3.8938 -10.6525 0.0000 24.1334 0.0000
# 6 0.0000 0.0000 0.0000 -5.7972 0.0000 18.4448
#
#
#
# Elastic Compliance Matrix: (Units=1/GPa)
#
#
# Indices 1 2 3 4 5 6 
#
# 1 0.014534 -0.003051 -0.006218 0.000000 -0.005583 0.000000
# 2 -0.003051 0.013423 -0.001824 0.000000 -0.002272 0.000000
# 3 -0.006218 -0.001824 0.012481 0.000000 0.007228 0.000000
# 4 0.000000 0.000000 0.000000 0.066713 0.000000 0.020968
# 5 -0.005583 -0.002272 0.007228 0.000000 0.046273 0.000000
# 6 0.000000 0.000000 0.000000 0.020968 0.000000 0.060806
#
#
# Mechanical properties :
#
#
# Convention : Reuss Voigt Hill
#
# Bulk Modulus (GPa) = 54.78877 56.85008 55.81943
# Shear Modulus (GPa) = 20.61862 24.77326 22.69594
#
# Velocity S-wave (km/s) = 3.25582 3.56880 3.41590
# Velocity P-wave (km/s) = 6.50398 6.79775 6.65249
#
# Compressibility (1/GPa) = 0.01825192
#
# Stress axis : x y z
#
# Youngs Moduli (GPa) = 68.80400 74.49872 80.12408
#
# Poissons Ratio (x) = 0.22727 0.49819
# Poissons Ratio (y) = 0.20990 0.14618
# Poissons Ratio (z) = 0.42781 0.13592
#
# Static dielectric constant tensor:
#      x y z
#    x 1.771640 0.000000 -0.047270 
#    y 0.000000 1.711080 0.000000 
#    z -0.047270 0.000000 1.729560 
# 
# From -- ./inp_files/25093.got.cif
#   From: 2010.05.17/outbox.cif.g08.bks.cpg/sg10_13_cif.got.tgz:25093.got - 2010.06.03 11:33:40.
