data_PCOD9154741
_publ_section_title
;
Structure prediction by ZEFSAII (Michael W. Deem and Ramdas Pophale) SiO2 
 PCOD9154741
Probable space group: P 2/M
;
_chemical_formula_sum "Si O2"
_cell_formula_units_Z 20
_cell_length_a 5.048117
_cell_length_b 23.688513
_cell_length_c 8.821526
_cell_angle_alpha 90.000000
_cell_angle_beta 125.140177
_cell_angle_gamma 90.000000
_cell_volume 862.639863
_symmetry_space_group_name_H-M "P 2/M"
_symmetry_group_IT_number 10
_symmetry_cell_setting 'monoclinic'
loop_
_space_group_symop_operation_xyz
x,y,z
-x,y,-z
-x,-y,-z
x,-y,z
loop_
_atom_site_type_symbol
_atom_site_label
_atom_site_fract_x
_atom_site_fract_y
_atom_site_fract_z
Si Si1 0.311900 0.691120 0.200399
Si Si2 0.898862 0.619536 0.293972
Si Si3 0.095147 0.137066 0.198614
Si Si4 0.500000 0.775510 0.500000
Si Si5 0.694961 0.935343 0.285450
Si Si6 0.880103 0.500000 0.131937
O O1 0.538462 0.647396 0.182080
O O2 0.530410 0.738235 0.356295
O O3 0.137654 0.659668 0.281257
O O4 0.000000 0.710930 0.000000
O O5 0.956841 0.558008 0.241837
O O6 0.000000 0.616138 0.500000
O O7 0.199439 0.184810 0.353414
O O8 0.403370 0.097107 0.270001
O O9 0.817949 0.099000 0.180677
O O10 0.000000 0.158953 0.000000
O O11 0.000000 0.936103 0.500000
O O12 0.606071 0.000000 0.222252
O O13 0.500000 0.500000 0.000000
O O14 0.000000 0.500000 0.000000
#
# Coordination Sequence:
#
# PCOD9154741 Si02
#       6
#     4   4   4   2   4   2
#     4  12  26  46  74 100 138 185 235 284 346 410
#     4  12  24  47  70 106 140 184 227 287 347 419
#     4  12  26  44  72 104 139 182 232 288 347 412
#     4  12  26  50  69 101 140 182 240 292 346 396
#     4  11  23  45  72 102 142 184 225 282 352 421
#     4  12  25  42  71 106 145 180 229 283 346 421
#
# _framework density 23.184647999999999
#
# number of rings (size 3 to 8) (size 9 to 14) (size 15 to 20)
#    0.000    0.200    4.000    5.700    0.000    7.200 
#    0.000    7.000    0.000    0.000    0.000    0.000 
#    0.000    0.000    0.000    0.000    0.000    0.000 
#
# Total GULP energy -111914.667394 kJ/mol
# GULP energy per Si atom -5595.733370 kJ/mol
# Density = 2.313188 g / cm^3
# Si number density = 23.184648 Si / 1000 Ang^3
#
#
#
# Elastic Constant Matrix: (Units=GPa)
#
#
# Indices 1 2 3 4 5 6 
#
# 1 150.5244 49.3030 36.0340 0.0000 -17.6672 0.0000
# 2 49.3030 144.5663 72.0849 0.0000 -9.9923 0.0000
# 3 36.0340 72.0849 168.1561 0.0000 -9.9484 0.0000
# 4 0.0000 0.0000 0.0000 22.8881 0.0000 3.3695
# 5 -17.6672 -9.9923 -9.9484 0.0000 42.4053 0.0000
# 6 0.0000 0.0000 0.0000 3.3695 0.0000 8.9476
#
#
#
# Elastic Compliance Matrix: (Units=1/GPa)
#
#
# Indices 1 2 3 4 5 6 
#
# 1 0.007806 -0.002194 -0.000578 0.000000 0.002599 0.000000
# 2 -0.002194 0.009476 -0.003563 0.000000 0.000483 0.000000
# 3 -0.000578 -0.003563 0.007640 0.000000 0.000712 0.000000
# 4 0.000000 0.000000 0.000000 0.046255 0.000000 -0.017419
# 5 0.002599 0.000483 0.000712 0.000000 0.024946 0.000000
# 6 0.000000 0.000000 0.000000 -0.017419 0.000000 0.118322
#
#
# Mechanical properties :
#
#
# Convention : Reuss Voigt Hill
#
# Bulk Modulus (GPa) = 81.63013 86.45450 84.04232
# Shear Modulus (GPa) = 21.62635 35.23652 28.43143
#
# Velocity S-wave (km/s) = 3.05747 3.90272 3.50566
# Velocity P-wave (km/s) = 6.91009 7.59465 7.26044
#
# Compressibility (1/GPa) = 0.01225038
#
# Stress axis : x y z
#
# Youngs Moduli (GPa) = 128.11309 105.53423 130.88310
#
# Poissons Ratio (x) = 0.23154 0.07570
# Poissons Ratio (y) = 0.28108 0.46637
# Poissons Ratio (z) = 0.07410 0.37605
#
# Static dielectric constant tensor:
#      x y z
#    x 1.787310 0.000000 0.054620 
#    y 0.000000 1.257910 0.000000 
#    z 0.054620 0.000000 1.859890 
# 
# From -- ./inp_files/15356.got.cif
#   From: 2010.05.17/outbox.cif.g08.bks.cpg/sg10_8_cif.got.tgz:15356.got - 2010.06.03 11:33:40.
