data_PCOD9154277
_publ_section_title
;
Structure prediction by ZEFSAII (Michael W. Deem and Ramdas Pophale) SiO2 
 PCOD9154277
Probable space group: P 2/M
;
_chemical_formula_sum "Si O2"
_cell_formula_units_Z 20
_cell_length_a 12.407510
_cell_length_b 8.744379
_cell_length_c 12.461074
_cell_angle_alpha 90.000000
_cell_angle_beta 117.666172
_cell_angle_gamma 90.000000
_cell_volume 1197.402044
_symmetry_space_group_name_H-M "P 2/M"
_symmetry_group_IT_number 10
_symmetry_cell_setting 'monoclinic'
loop_
_space_group_symop_operation_xyz
x,y,z
-x,y,-z
-x,-y,-z
x,-y,z
loop_
_atom_site_type_symbol
_atom_site_label
_atom_site_fract_x
_atom_site_fract_y
_atom_site_fract_z
Si Si1 0.422727 0.682180 0.569537
Si Si2 0.162020 0.182291 0.493232
Si Si3 0.917450 0.318118 0.314332
Si Si4 0.488749 0.183529 0.170457
Si Si5 0.700220 0.183279 0.094918
O O1 0.500000 0.721948 0.500000
O O2 0.403049 0.500000 0.562051
O O3 0.292547 0.765092 0.511683
O O4 0.493250 0.732566 0.709516
O O5 0.139351 0.255714 0.600157
O O6 0.050391 0.242424 0.369668
O O7 0.156685 0.000000 0.501178
O O8 0.928538 0.500000 0.325304
O O9 0.824882 0.267520 0.178985
O O10 0.603162 0.217379 0.145046
O O11 0.488774 0.000000 0.187109
O O12 0.368221 0.223882 0.047084
O O13 0.719195 0.000000 0.104877
#
# Coordination Sequence:
#
# PCOD9154277 Si02
#       5
#     4   4   4   4   4
#     4  11  23  37  53  76 108 140 174 218 261 305
#     4  11  21  34  52  74 103 139 178 215 256 308
#     4  11  20  31  51  79 109 137 167 212 267 315
#     4   9  18  32  52  76 105 138 175 213 254 309
#     4   9  17  31  51  78 108 137 168 212 262 307
#
# _framework density 16.702826000000002
#
# number of rings (size 3 to 8) (size 9 to 14) (size 15 to 20)
#    0.000    1.800    2.000    6.600    0.000    2.400 
#    0.000    2.000    0.000    1.200    0.000    8.400 
#    0.000    0.000    0.000    0.000    0.000    0.000 
#
# Total GULP energy -111653.178374 kJ/mol
# GULP energy per Si atom -5582.658919 kJ/mol
# Density = 1.666481 g / cm^3
# Si number density = 16.702826 Si / 1000 Ang^3
#
#
#
# Elastic Constant Matrix: (Units=GPa)
#
#
# Indices 1 2 3 4 5 6 
#
# 1 76.2821 40.7384 57.0186 0.0000 9.2919 0.0000
# 2 40.7384 75.4781 45.4170 0.0000 3.8720 0.0000
# 3 57.0186 45.4170 114.3898 0.0000 19.5211 0.0000
# 4 0.0000 0.0000 0.0000 22.8960 0.0000 18.7647
# 5 9.2919 3.8720 19.5211 0.0000 27.5125 0.0000
# 6 0.0000 0.0000 0.0000 18.7647 0.0000 31.0400
#
#
#
# Elastic Compliance Matrix: (Units=1/GPa)
#
#
# Indices 1 2 3 4 5 6 
#
# 1 0.023735 -0.007531 -0.008708 0.000000 -0.000777 0.000000
# 2 -0.007531 0.019988 -0.004706 0.000000 0.003069 0.000000
# 3 -0.008708 -0.004706 0.016311 0.000000 -0.007970 0.000000
# 4 0.000000 0.000000 0.000000 0.086564 0.000000 -0.052331
# 5 -0.000777 0.003069 -0.007970 0.000000 0.041833 0.000000
# 6 0.000000 0.000000 0.000000 -0.052331 0.000000 0.063852
#
#
# Mechanical properties :
#
#
# Convention : Reuss Voigt Hill
#
# Bulk Modulus (GPa) = 55.11428 61.38867 58.25147
# Shear Modulus (GPa) = 16.65441 24.48811 20.57126
#
# Velocity S-wave (km/s) = 3.16112 3.83313 3.51323
# Velocity P-wave (km/s) = 6.81118 7.51158 7.16993
#
# Compressibility (1/GPa) = 0.01814412
#
# Stress axis : x y z
#
# Youngs Moduli (GPa) = 42.13212 50.03067 61.30750
#
# Poissons Ratio (x) = 0.37677 0.53387
# Poissons Ratio (y) = 0.31729 0.28851
# Poissons Ratio (z) = 0.36689 0.23544
#
# Static dielectric constant tensor:
#      x y z
#    x 1.541240 0.000000 0.024150 
#    y 0.000000 1.556790 0.000000 
#    z 0.024150 0.000000 1.574010 
# 
# From -- ./inp_files/44618.got.cif
#   From: 2010.05.17/outbox.cif.g08.bks.cpg/sg10_23_cif.got.tgz:44618.got - 2010.06.03 11:33:40.
