data_PCOD9154266
_publ_section_title
;
Structure prediction by ZEFSAII (Michael W. Deem and Ramdas Pophale) SiO2 
 PCOD9154266
Probable space group: P 2/M
;
_chemical_formula_sum "Si O2"
_cell_formula_units_Z 32
_cell_length_a 15.465513
_cell_length_b 7.772705
_cell_length_c 22.106226
_cell_angle_alpha 90.000000
_cell_angle_beta 152.290746
_cell_angle_gamma 90.000000
_cell_volume 1235.634722
_symmetry_space_group_name_H-M "P 2/M"
_symmetry_group_IT_number 10
_symmetry_cell_setting 'monoclinic'
loop_
_space_group_symop_operation_xyz
x,y,z
-x,y,-z
-x,-y,-z
x,-y,z
loop_
_atom_site_type_symbol
_atom_site_label
_atom_site_fract_x
_atom_site_fract_y
_atom_site_fract_z
Si Si1 0.857155 0.304427 0.832322
Si Si2 0.192278 0.301521 0.680763
Si Si3 0.551060 0.800069 0.405534
Si Si4 0.654867 0.702977 0.344410
Si Si5 0.594021 0.798766 0.974037
Si Si6 0.909647 0.705206 0.255540
Si Si7 0.748209 0.709663 0.944957
Si Si8 0.209530 0.800420 0.342820
O O1 0.853236 0.500000 0.852123
O O2 0.668190 0.222823 0.738905
O O3 0.838669 0.299261 0.747733
O O4 0.063187 0.230539 0.970423
O O5 0.127994 0.500000 0.637259
O O6 0.206909 0.226754 0.621702
O O7 0.407824 0.297126 0.837006
O O8 0.086043 0.225511 0.672869
O O9 0.671853 0.721913 0.426295
O O10 0.613830 0.732607 0.509809
O O11 0.594354 0.000000 0.432812
O O12 0.651237 0.500000 0.329611
O O13 0.447053 0.771960 0.202918
O O14 0.549749 0.000000 0.952553
O O15 0.702855 0.735412 0.100314
O O16 0.737537 0.770920 0.007426
O O17 0.943295 0.500000 0.276668
O O18 0.049113 0.790013 0.294357
O O19 0.752064 0.500000 0.946569
O O20 0.238566 0.000000 0.342264
#
# Coordination Sequence:
#
# PCOD9154266 Si02
#       8
#     4   4   4   4   4   4   4   4
#     4  11  22  38  64  91 115 148 191 237 291 349
#     4   9  20  37  57  82 115 153 192 238 286 334
#     4  11  25  42  59  82 116 155 193 240 294 343
#     4   9  19  39  62  83 113 152 197 239 280 337
#     4  11  20  30  51  84 121 156 188 228 284 346
#     4  11  21  35  57  84 114 151 193 237 288 343
#     4   9  19  36  58  86 119 152 187 237 290 336
#     4  11  24  41  59  84 119 153 189 240 295 343
#
# _framework density 25.897621000000001
#
# number of rings (size 3 to 8) (size 9 to 14) (size 15 to 20)
#    0.000    1.750    1.250    4.125    0.000    9.000 
#    0.000    3.125    0.000    3.750    0.000    0.000 
#    0.000    0.000    0.000    0.000    0.000    0.000 
#
# Total GULP energy -179024.296038 kJ/mol
# GULP energy per Si atom -5594.509251 kJ/mol
# Density = 2.583868 g / cm^3
# Si number density = 25.897621 Si / 1000 Ang^3
#
#
#
# Elastic Constant Matrix: (Units=GPa)
#
#
# Indices 1 2 3 4 5 6 
#
# 1 169.9458 -2.0994 23.9859 0.0000 -3.0542 0.0000
# 2 -2.0994 62.0297 1.9186 0.0000 -4.2842 0.0000
# 3 23.9859 1.9186 99.2552 0.0000 18.3757 0.0000
# 4 0.0000 0.0000 0.0000 29.4804 0.0000 55.9729
# 5 -3.0542 -4.2842 18.3757 0.0000 46.7523 0.0000
# 6 0.0000 0.0000 0.0000 55.9729 0.0000 256.6720
#
#
#
# Elastic Compliance Matrix: (Units=1/GPa)
#
#
# Indices 1 2 3 4 5 6 
#
# 1 0.006147 0.000336 -0.001696 0.000000 0.001099 0.000000
# 2 0.000336 0.016280 -0.000729 0.000000 0.001800 0.000000
# 3 -0.001696 -0.000729 0.011358 0.000000 -0.004642 0.000000
# 4 0.000000 0.000000 0.000000 0.057890 0.000000 -0.012624
# 5 0.001099 0.001800 -0.004642 0.000000 0.023451 0.000000
# 6 0.000000 0.000000 0.000000 -0.012624 0.000000 0.006649
#
#
# Mechanical properties :
#
#
# Convention : Reuss Voigt Hill
#
# Bulk Modulus (GPa) = 33.77413 42.09342 37.93378
# Shear Modulus (GPa) = 36.81319 87.07597 61.94458
#
# Velocity S-wave (km/s) = 3.77435 5.80484 4.89601
# Velocity P-wave (km/s) = 5.66251 7.82415 6.82940
#
# Compressibility (1/GPa) = 0.02960846
#
# Stress axis : x y z
#
# Youngs Moduli (GPa) = 162.66947 61.42652 88.04172
#
# Poissons Ratio (x) = -0.02066 0.14928
# Poissons Ratio (y) = -0.05472 0.06421
# Poissons Ratio (z) = 0.27581 0.04480
#
# Static dielectric constant tensor:
#      x y z
#    x 2.057850 0.000000 -0.017680 
#    y 0.000000 1.916750 0.000000 
#    z -0.017680 0.000000 2.108490 
# 
# From -- ./inp_files/89631.got.cif
#   From: 2010.05.17/outbox.cif.g08.bks.cpg/sg10_45_cif.got.tgz:89631.got - 2010.06.03 11:33:40.
