data_PCOD9154147
_publ_section_title
;
Structure prediction by ZEFSAII (Michael W. Deem and Ramdas Pophale) SiO2 
 PCOD9154147
Probable space group: P 2/M
;
_chemical_formula_sum "Si O2"
_cell_formula_units_Z 28
_cell_length_a 12.566142
_cell_length_b 8.846410
_cell_length_c 13.931227
_cell_angle_alpha 90.000000
_cell_angle_beta 65.341305
_cell_angle_gamma 90.000000
_cell_volume 1407.443932
_symmetry_space_group_name_H-M "P 2/M"
_symmetry_group_IT_number 10
_symmetry_cell_setting 'monoclinic'
loop_
_space_group_symop_operation_xyz
x,y,z
-x,y,-z
-x,-y,-z
x,-y,z
loop_
_atom_site_type_symbol
_atom_site_label
_atom_site_fract_x
_atom_site_fract_y
_atom_site_fract_z
Si Si1 0.618148 0.674522 0.394767
Si Si2 0.935709 0.321432 0.125502
Si Si3 0.491795 0.681173 0.890692
Si Si4 0.043167 0.819895 0.275858
Si Si5 0.260824 0.318722 0.299892
Si Si6 0.683085 0.822100 0.185340
Si Si7 0.197504 0.819348 0.529833
O O1 0.500000 0.678619 0.500000
O O2 0.641768 0.500000 0.359370
O O3 0.603893 0.774353 0.305614
O O4 0.722348 0.740073 0.420204
O O5 0.934362 0.500000 0.147535
O O6 0.998781 0.235931 0.189021
O O7 0.805238 0.259832 0.160330
O O8 0.000000 0.298263 0.000000
O O9 0.476885 0.500000 0.886523
O O10 0.611914 0.722693 0.790544
O O11 0.381893 0.762322 0.883965
O O12 0.500000 0.716705 0.000000
O O13 0.937519 0.789317 0.390989
O O14 0.159600 0.735406 0.265712
O O15 0.062850 0.000000 0.266976
O O16 0.257728 0.500000 0.311604
O O17 0.233551 0.243261 0.412627
O O18 0.701137 0.000000 0.174897
O O19 0.214792 0.000000 0.526951
#
# Coordination Sequence:
#
# PCOD9154147 Si02
#       7
#     4   4   4   4   4   4   4
#     4  11  23  39  63  93 127 170 217 264 315 379
#     4  11  25  44  69  97 128 170 218 265 318 381
#     4  10  24  46  68  91 125 170 219 268 317 378
#     4  11  24  42  65  96 133 169 210 264 324 383
#     4  11  24  41  65  95 127 171 221 266 318 380
#     4  12  25  42  66  98 132 167 210 265 326 383
#     4  11  23  40  62  93 130 169 210 261 326 383
#
# _framework density 19.894220000000001
#
# number of rings (size 3 to 8) (size 9 to 14) (size 15 to 20)
#    0.000    1.000    1.429    4.714    2.000   10.571 
#    0.000    0.000    0.000    0.000    0.000    0.000 
#    0.000    0.000    0.000    0.000    0.000    0.000 
#
# Total GULP energy -156694.546505 kJ/mol
# GULP energy per Si atom -5596.233804 kJ/mol
# Density = 1.984894 g / cm^3
# Si number density = 19.894220 Si / 1000 Ang^3
#
#
#
# Elastic Constant Matrix: (Units=GPa)
#
#
# Indices 1 2 3 4 5 6 
#
# 1 62.7170 5.9433 -4.6877 0.0000 12.5392 0.0000
# 2 5.9433 29.9433 13.5578 0.0000 -0.7708 0.0000
# 3 -4.6877 13.5578 61.9054 0.0000 12.2069 0.0000
# 4 0.0000 0.0000 0.0000 17.9769 0.0000 56.8843
# 5 12.5392 -0.7708 12.2069 0.0000 25.7500 0.0000
# 6 0.0000 0.0000 0.0000 56.8843 0.0000 -33.3941
#
#
#
# Elastic Compliance Matrix: (Units=1/GPa)
#
#
# Indices 1 2 3 4 5 6 
#
# 1 0.019393 -0.006563 0.005302 0.000000 -0.012153 0.000000
# 2 -0.006563 0.040006 -0.011169 0.000000 0.009688 0.000000
# 3 0.005302 -0.011169 0.021595 0.000000 -0.013154 0.000000
# 4 0.000000 0.000000 0.000000 0.008705 0.000000 0.014829
# 5 -0.012153 0.009688 -0.013154 0.000000 0.051279 0.000000
# 6 0.000000 0.000000 0.000000 0.014829 0.000000 -0.004686
#
#
# Mechanical properties :
#
#
# Convention : Reuss Voigt Hill
#
# Bulk Modulus (GPa) = 17.81437 20.46585 19.14011
# Shear Modulus (GPa) = 27.79924 11.38338 19.59131
#
# Velocity S-wave (km/s) = 3.74217 2.39466 3.14152
# Velocity P-wave (km/s) = 5.25793 4.23739 4.77500
#
# Compressibility (1/GPa) = 0.05613446
#
# Stress axis : x y z
#
# Youngs Moduli (GPa) = 51.56566 24.99655 46.30714
#
# Poissons Ratio (x) = 0.16405 -0.24553
# Poissons Ratio (y) = 0.33842 0.51720
# Poissons Ratio (z) = -0.27342 0.27918
#
# Static dielectric constant tensor:
#      x y z
#    x 1.677220 0.000000 -0.017670 
#    y 0.000000 1.663740 0.000000 
#    z -0.017670 0.000000 1.723100 
# 
# From -- ./inp_files/63663.got.cif
#   From: 2010.05.17/outbox.cif.g08.bks.cpg/sg10_32_cif.got.tgz:63663.got - 2010.06.03 11:33:40.
