data_PCOD9154390
_publ_section_title
;
Structure prediction by ZEFSAII (Michael W. Deem and Ramdas Pophale) SiO2 
 PCOD9154390
Probable space group: P 2/M
;
_chemical_formula_sum "Si O2"
_cell_formula_units_Z 32
_cell_length_a 21.617724
_cell_length_b 9.181059
_cell_length_c 31.083135
_cell_angle_alpha 90.000000
_cell_angle_beta 160.551389
_cell_angle_gamma 90.000000
_cell_volume 2054.098527
_symmetry_space_group_name_H-M "P 2/M"
_symmetry_group_IT_number 10
_symmetry_cell_setting 'monoclinic'
loop_
_space_group_symop_operation_xyz
x,y,z
-x,y,-z
-x,-y,-z
x,-y,z
loop_
_atom_site_type_symbol
_atom_site_label
_atom_site_fract_x
_atom_site_fract_y
_atom_site_fract_z
Si Si1 0.626120 0.831640 0.626119
Si Si2 0.688283 0.673455 0.532930
Si Si3 0.343165 0.674567 0.018460
Si Si4 0.060721 0.827501 0.469667
Si Si5 0.684321 0.826728 0.092167
Si Si6 0.955620 0.674568 0.630922
Si Si7 0.933131 0.326545 0.777775
Si Si8 0.696510 0.172500 0.287552
O O1 0.500000 0.822313 0.500000
O O2 0.502631 0.754116 0.581338
O O3 0.817467 0.754116 0.738755
O O4 0.655487 0.000000 0.655486
O O5 0.656521 0.500000 0.513460
O O6 0.788158 0.710775 0.553866
O O7 0.834013 0.707710 0.667006
O O8 0.349556 0.500000 0.016887
O O9 0.518798 0.732323 0.159991
O O10 0.342598 0.752332 0.971756
O O11 0.149014 0.710770 0.914718
O O12 0.083633 0.732322 0.442422
O O13 0.212906 0.798835 0.606459
O O14 0.860274 0.800405 0.360267
O O15 0.068137 0.000000 0.463987
O O16 0.859243 0.752328 0.230093
O O17 0.715444 0.000000 0.107730
O O18 0.500000 0.806460 0.000000
O O19 0.981078 0.500000 0.648417
O O20 0.915721 0.500000 0.772659
O O21 0.651542 0.000000 0.255678
#
# Coordination Sequence:
#
# PCOD9154390 Si02
#       8
#     4   4   4   4   4   4   4   4
#     4   9  17  27  43  69  94 121 162 201 231 273
#     4   9  17  31  46  64  96 133 160 189 238 293
#     4  11  21  33  50  74 100 128 165 206 246 290
#     4   9  19  36  54  71  95 129 168 208 251 297
#     4  11  23  35  47  66  97 136 169 197 242 299
#     4  11  21  33  50  74 100 128 165 206 246 290
#     4   9  17  31  46  64  96 133 160 189 238 293
#     4   9  19  36  54  71  95 129 168 208 251 297
#
# _framework density 15.578609999999999
#
# number of rings (size 3 to 8) (size 9 to 14) (size 15 to 20)
#    0.000    2.250    1.250    3.000    0.000    8.500 
#    0.000    1.250    0.000    0.000    0.000    0.875 
#    0.000    7.000    0.000    0.000    0.000    0.000 
#
# Total GULP energy -178515.491356 kJ/mol
# GULP energy per Si atom -5578.609105 kJ/mol
# Density = 1.554315 g / cm^3
# Si number density = 15.578610 Si / 1000 Ang^3
#
#
#
# Elastic Constant Matrix: (Units=GPa)
#
#
# Indices 1 2 3 4 5 6 
#
# 1 108.1687 74.1001 73.0980 0.0000 22.4337 0.0000
# 2 74.1001 75.8841 62.4146 0.0000 17.5311 0.0000
# 3 73.0980 62.4146 81.7793 0.0000 17.1170 0.0000
# 4 0.0000 0.0000 0.0000 45.3621 0.0000 27.7173
# 5 22.4337 17.5311 17.1170 0.0000 18.0401 0.0000
# 6 0.0000 0.0000 0.0000 27.7173 0.0000 63.7250
#
#
#
# Elastic Compliance Matrix: (Units=1/GPa)
#
#
# Indices 1 2 3 4 5 6 
#
# 1 0.033721 -0.020215 -0.012538 0.000000 -0.010393 0.000000
# 2 -0.020215 0.049337 -0.018482 0.000000 -0.005270 0.000000
# 3 -0.012538 -0.018482 0.038081 0.000000 -0.002580 0.000000
# 4 0.000000 0.000000 0.000000 0.030024 0.000000 -0.013059
# 5 -0.010393 -0.005270 -0.002580 0.000000 0.075925 0.000000
# 6 0.000000 0.000000 0.000000 -0.013059 0.000000 0.021373
#
#
# Mechanical properties :
#
#
# Convention : Reuss Voigt Hill
#
# Bulk Modulus (GPa) = 53.56592 76.11750 64.84171
# Shear Modulus (GPa) = 13.99959 29.17342 21.58650
#
# Velocity S-wave (km/s) = 3.00099 4.33212 3.72647
# Velocity P-wave (km/s) = 6.81666 8.60170 7.76067
#
# Compressibility (1/GPa) = 0.01866859
#
# Stress axis : x y z
#
# Youngs Moduli (GPa) = 29.65491 20.26896 26.26001
#
# Poissons Ratio (x) = 0.40973 0.32925
# Poissons Ratio (y) = 0.59947 0.48534
# Poissons Ratio (z) = 0.37182 0.37461
#
# Static dielectric constant tensor:
#      x y z
#    x 1.505930 0.000000 0.007020 
#    y 0.000000 1.518560 0.000000 
#    z 0.007020 0.000000 1.501260 
# 
# From -- ./inp_files/52780.got.cif
#   From: 2010.05.17/outbox.cif.g08.bks.cpg/sg10_27_cif.got.tgz:52780.got - 2010.06.03 11:33:40.
