data_PCOD9154967
_publ_section_title
;
Structure prediction by ZEFSAII (Michael W. Deem and Ramdas Pophale) SiO2 
 PCOD9154967
Probable space group: P 2/M
;
_chemical_formula_sum "Si O2"
_cell_formula_units_Z 24
_cell_length_a 19.448809
_cell_length_b 7.563522
_cell_length_c 22.696993
_cell_angle_alpha 90.000000
_cell_angle_beta 17.285412
_cell_angle_gamma 90.000000
_cell_volume 992.052156
_symmetry_space_group_name_H-M "P 2/M"
_symmetry_group_IT_number 10
_symmetry_cell_setting 'monoclinic'
loop_
_space_group_symop_operation_xyz
x,y,z
-x,y,-z
-x,-y,-z
x,-y,z
loop_
_atom_site_type_symbol
_atom_site_label
_atom_site_fract_x
_atom_site_fract_y
_atom_site_fract_z
Si Si1 0.572488 0.715948 0.636612
Si Si2 0.678404 0.791590 0.804575
Si Si3 0.308440 0.710866 0.022042
Si Si4 0.057280 0.711674 0.578785
Si Si5 0.065103 0.716357 0.011622
Si Si6 0.061793 0.715287 0.762581
O O1 0.562097 0.500000 0.648314
O O2 0.319347 0.773080 0.824681
O O3 0.744257 0.766056 0.442832
O O4 0.698930 0.775301 0.593634
O O5 0.936342 0.750900 0.615614
O O6 0.660020 0.000000 0.822330
O O7 0.500000 0.712142 0.000000
O O8 0.567771 0.743943 0.832164
O O9 0.290932 0.500000 0.034302
O O10 0.135316 0.775047 0.215647
O O11 0.186069 0.772670 0.062269
O O12 0.066924 0.500000 0.574041
O O13 0.063658 0.500000 0.010422
O O14 0.000000 0.778870 0.000000
O O15 0.904693 0.771446 0.197703
O O16 0.061676 0.500000 0.763406
#
# Coordination Sequence:
#
# PCOD9154967 Si02
#       6
#     4   4   4   4   4   4
#     4   8  14  24  37  54  78 109 142 172 204 248
#     4   9  15  21  33  58  87 108 135 179 218 247
#     4   8  13  22  36  53  77 112 147 173 203 248
#     4   8  13  22  36  53  77 112 147 173 203 248
#     4   9  16  24  36  57  83 108 134 169 215 259
#     4   8  14  24  37  54  78 109 142 172 204 248
#
# _framework density 24.192274000000001
#
# number of rings (size 3 to 8) (size 9 to 14) (size 15 to 20)
#    0.000    3.667    0.000    2.500    0.000    2.667 
#    0.000    3.333    0.000    1.000    0.000    8.167 
#    0.000    2.667    0.000   13.000    0.000   13.333 
#
# Total GULP energy -133815.968061 kJ/mol
# GULP energy per Si atom -5575.665336 kJ/mol
# Density = 2.413721 g / cm^3
# Si number density = 24.192274 Si / 1000 Ang^3
#
#
#
# Elastic Constant Matrix: (Units=GPa)
#
#
# Indices 1 2 3 4 5 6 
#
# 1 188.6113 0.8059 35.2601 0.0000 -14.4960 0.0000
# 2 0.8059 51.0080 -4.6195 0.0000 -3.1577 0.0000
# 3 35.2601 -4.6195 65.2465 0.0000 -9.6358 0.0000
# 4 0.0000 0.0000 0.0000 -36.1644 0.0000 28.9632
# 5 -14.4960 -3.1577 -9.6358 0.0000 26.6491 0.0000
# 6 0.0000 0.0000 0.0000 28.9632 0.0000 -39.2638
#
#
#
# Elastic Compliance Matrix: (Units=1/GPa)
#
#
# Indices 1 2 3 4 5 6 
#
# 1 0.006022 -0.000227 -0.002948 0.000000 0.002183 0.000000
# 2 -0.000227 0.019970 0.001973 0.000000 0.002956 0.000000
# 3 -0.002948 0.001973 0.017808 0.000000 0.005069 0.000000
# 4 0.000000 0.000000 0.000000 -0.067570 0.000000 -0.049843
# 5 0.002183 0.002956 0.005069 0.000000 0.040895 0.000000
# 6 0.000000 0.000000 0.000000 -0.049843 0.000000 -0.062236
#
#
# Mechanical properties :
#
#
# Convention : Reuss Voigt Hill
#
# Bulk Modulus (GPa) = 24.15681 40.86209 32.50945
# Shear Modulus (GPa) = -172.95806 8.47215 -82.24295
#
# Velocity S-wave (km/s) = -8.46453 1.87340 -5.83690
# Velocity P-wave (km/s) = 9.24792 4.64830 5.65320
#
# Compressibility (1/GPa) = 0.04139619
#
# Stress axis : x y z
#
# Youngs Moduli (GPa) = 166.06485 50.07496 56.15469
#
# Poissons Ratio (x) = 0.01137 0.16554
# Poissons Ratio (y) = 0.03770 -0.11080
# Poissons Ratio (z) = 0.48955 -0.09881
#
# Static dielectric constant tensor:
#      x y z
#    x 1.967740 0.000000 0.026450 
#    y 0.000000 1.894780 0.000000 
#    z 0.026450 0.000000 1.969560 
# 
# From -- ./inp_files/33511.got.cif
#   From: 2010.05.17/outbox.cif.g08.bks.cpg/sg10_17_cif.got.tgz:33511.got - 2010.06.03 11:33:40.
