data_PCOD9154910
_publ_section_title
;
Structure prediction by ZEFSAII (Michael W. Deem and Ramdas Pophale) SiO2 
 PCOD9154910
Probable space group: P 2/M
;
_chemical_formula_sum "Si O2"
_cell_formula_units_Z 24
_cell_length_a 7.036069
_cell_length_b 17.238320
_cell_length_c 15.039358
_cell_angle_alpha 90.000000
_cell_angle_beta 152.343471
_cell_angle_gamma 90.000000
_cell_volume 846.703855
_symmetry_space_group_name_H-M "P 2/M"
_symmetry_group_IT_number 10
_symmetry_cell_setting 'monoclinic'
loop_
_space_group_symop_operation_xyz
x,y,z
-x,y,-z
-x,-y,-z
x,-y,z
loop_
_atom_site_type_symbol
_atom_site_label
_atom_site_fract_x
_atom_site_fract_y
_atom_site_fract_z
Si Si1 0.763336 0.917495 0.198565
Si Si2 0.485770 0.748616 0.715251
Si Si3 0.125291 0.585631 0.771217
Si Si4 0.575411 0.417956 0.772383
Si Si5 0.498992 0.083977 0.717961
Si Si6 0.213408 0.247787 0.796132
O O1 0.461018 0.916167 0.158485
O O2 0.998346 0.835909 0.302671
O O3 0.989836 0.000000 0.299373
O O4 0.500000 0.918450 0.000000
O O5 0.592269 0.662475 0.726803
O O6 0.653474 0.831314 0.750826
O O7 0.514203 0.744200 0.834689
O O8 0.000000 0.753401 0.500000
O O9 0.939706 0.500000 0.709823
O O10 0.260148 0.583807 0.723309
O O11 0.959223 0.673725 0.703140
O O12 0.500000 0.587617 0.000000
O O13 0.516823 0.500000 0.700129
O O14 0.000000 0.421459 0.000000
O O15 0.000000 0.083666 0.500000
O O16 0.645624 0.000000 0.743955
O O17 0.500000 0.242265 0.000000
#
# Coordination Sequence:
#
# PCOD9154910 Si02
#       6
#     4   4   4   4   4   4
#     4   8  12  17  26  42  66  94 120 149 187 226
#     4   9  16  25  39  60  82 104 135 174 208 239
#     4   8  13  22  37  56  74  95 129 166 193 227
#     4   9  17  28  41  59  84 112 139 168 207 254
#     4   8  13  21  33  50  74 103 131 160 198 242
#     4   8  13  21  33  51  74  98 125 157 193 233
#
# _framework density 28.345212
#
# number of rings (size 3 to 8) (size 9 to 14) (size 15 to 20)
#    0.000    3.667    0.000    0.000    0.000    0.333 
#    0.000    0.000    0.000    0.500    0.000   18.667 
#    0.000   61.333    0.000    0.000    0.000 1399.167 
#
# Total GULP energy -133846.603775 kJ/mol
# GULP energy per Si atom -5576.941824 kJ/mol
# Density = 2.828070 g / cm^3
# Si number density = 28.345212 Si / 1000 Ang^3
#
#
#
# Elastic Constant Matrix: (Units=GPa)
#
#
# Indices 1 2 3 4 5 6 
#
# 1 134.2807 17.1639 1.6827 0.0000 -21.6479 0.0000
# 2 17.1639 468.8355 28.2181 0.0000 13.0880 0.0000
# 3 1.6827 28.2181 65.6996 0.0000 5.3696 0.0000
# 4 0.0000 0.0000 0.0000 7.7278 0.0000 -18.8516
# 5 -21.6479 13.0880 5.3696 0.0000 26.1222 0.0000
# 6 0.0000 0.0000 0.0000 -18.8516 0.0000 -28.7190
#
#
#
# Elastic Compliance Matrix: (Units=1/GPa)
#
#
# Indices 1 2 3 4 5 6 
#
# 1 0.008748 -0.000495 -0.000635 0.000000 0.007628 0.000000
# 2 -0.000495 0.002239 -0.000838 0.000000 -0.001360 0.000000
# 3 -0.000635 -0.000838 0.015872 0.000000 -0.003369 0.000000
# 4 0.000000 0.000000 0.000000 0.049746 0.000000 -0.032654
# 5 0.007628 -0.001360 -0.003369 0.000000 0.045977 0.000000
# 6 0.000000 0.000000 0.000000 -0.032654 0.000000 -0.013386
#
#
# Mechanical properties :
#
#
# Convention : Reuss Voigt Hill
#
# Bulk Modulus (GPa) = 43.62234 84.77168 64.19701
# Shear Modulus (GPa) = 41.39960 42.47628 41.93794
#
# Velocity S-wave (km/s) = 3.82586 3.87529 3.85065
# Velocity P-wave (km/s) = 5.91095 7.07076 6.51671
#
# Compressibility (1/GPa) = 0.02292403
#
# Stress axis : x y z
#
# Youngs Moduli (GPa) = 114.31076 446.53415 63.00271
#
# Poissons Ratio (x) = 0.22103 0.04000
# Poissons Ratio (y) = 0.05658 0.05280
# Poissons Ratio (z) = 0.07258 0.37421
#
# Static dielectric constant tensor:
#      x y z
#    x 2.132380 0.000000 0.027650 
#    y 0.000000 2.285190 0.000000 
#    z 0.027650 0.000000 2.004120 
# 
# From -- ./inp_files/25561.got.cif
#   From: 2010.05.17/outbox.cif.g08.bks.cpg/sg10_13_cif.got.tgz:25561.got - 2010.06.03 11:33:40.
