data_PCOD9154399
_publ_section_title
;
Structure prediction by ZEFSAII (Michael W. Deem and Ramdas Pophale) SiO2 
 PCOD9154399
Probable space group: P 2/M
;
_chemical_formula_sum "Si O2"
_cell_formula_units_Z 28
_cell_length_a 15.326207
_cell_length_b 8.639709
_cell_length_c 18.314306
_cell_angle_alpha 90.000000
_cell_angle_beta 140.973894
_cell_angle_gamma 90.000000
_cell_volume 1527.004510
_symmetry_space_group_name_H-M "P 2/M"
_symmetry_group_IT_number 10
_symmetry_cell_setting 'monoclinic'
loop_
_space_group_symop_operation_xyz
x,y,z
-x,y,-z
-x,-y,-z
x,-y,z
loop_
_atom_site_type_symbol
_atom_site_label
_atom_site_fract_x
_atom_site_fract_y
_atom_site_fract_z
Si Si1 0.903436 0.816708 0.869078
Si Si2 0.889344 0.683368 0.704311
Si Si3 0.177632 0.687151 0.830388
Si Si4 0.375369 0.181696 0.084925
Si Si5 0.368116 0.681467 0.239901
Si Si6 0.601937 0.678228 0.136882
Si Si7 0.586542 0.184032 0.483234
O O1 0.937101 0.726310 0.817259
O O2 0.747353 0.777091 0.790930
O O3 0.918697 0.000000 0.866032
O O4 0.000000 0.772637 0.000000
O O5 0.864960 0.500000 0.683770
O O6 0.746139 0.770351 0.596478
O O7 0.016515 0.725590 0.733986
O O8 0.192621 0.500000 0.846903
O O9 0.252480 0.730498 0.803087
O O10 0.262946 0.763120 0.952195
O O11 0.358532 0.272890 0.149192
O O12 0.525162 0.219831 0.146948
O O13 0.359704 0.000000 0.088400
O O14 0.342419 0.500000 0.233211
O O15 0.515109 0.728690 0.369586
O O16 0.611467 0.500000 0.168700
O O17 0.500000 0.678100 0.000000
O O18 0.500000 0.226908 0.500000
O O19 0.573573 0.000000 0.464897
#
# Coordination Sequence:
#
# PCOD9154399 Si02
#       7
#     4   4   4   4   4   4   4
#     4  11  23  37  53  78 112 145 176 218 273 323
#     4  11  22  36  57  82 108 142 185 225 266 320
#     4   9  19  35  55  82 115 148 183 223 268 322
#     4  11  21  33  53  83 116 146 181 224 274 327
#     4  12  24  38  58  79 105 142 186 228 269 322
#     4   8  15  31  53  77 110 148 182 219 266 321
#     4  11  23  40  60  79 106 141 182 229 277 322
#
# _framework density 18.336552999999999
#
# number of rings (size 3 to 8) (size 9 to 14) (size 15 to 20)
#    0.000    1.571    1.429    5.571    0.000    7.714 
#    0.000    0.000    0.000    0.857    0.000    6.000 
#    0.000    0.000    0.000    0.000    0.000    0.000 
#
# Total GULP energy -156403.724989 kJ/mol
# GULP energy per Si atom -5585.847321 kJ/mol
# Density = 1.829482 g / cm^3
# Si number density = 18.336553 Si / 1000 Ang^3
#
#
#
# Elastic Constant Matrix: (Units=GPa)
#
#
# Indices 1 2 3 4 5 6 
#
# 1 65.6500 -6.6589 -3.6626 0.0000 27.4643 0.0000
# 2 -6.6589 24.1645 3.5991 0.0000 2.9044 0.0000
# 3 -3.6626 3.5991 42.4414 0.0000 17.0047 0.0000
# 4 0.0000 0.0000 0.0000 19.3091 0.0000 -12.9254
# 5 27.4643 2.9044 17.0047 0.0000 25.7358 0.0000
# 6 0.0000 0.0000 0.0000 -12.9254 0.0000 -3.3786
#
#
#
# Elastic Compliance Matrix: (Units=1/GPa)
#
#
# Indices 1 2 3 4 5 6 
#
# 1 0.055569 0.020088 0.037755 0.000000 -0.086515 0.000000
# 2 0.020088 0.049374 0.011381 0.000000 -0.034529 0.000000
# 3 0.037755 0.011381 0.057820 0.000000 -0.079780 0.000000
# 4 0.000000 0.000000 0.000000 0.014544 0.000000 -0.055640
# 5 -0.086515 -0.034529 -0.079780 0.000000 0.187793 0.000000
# 6 0.000000 0.000000 0.000000 -0.055640 0.000000 -0.083119
#
#
# Mechanical properties :
#
#
# Convention : Reuss Voigt Hill
#
# Bulk Modulus (GPa) = 3.31992 13.20125 8.26058
# Shear Modulus (GPa) = 20.49728 17.59847 19.04787
#
# Velocity S-wave (km/s) = 3.34703 3.10134 3.22653
# Velocity P-wave (km/s) = 4.09284 4.47655 4.28899
#
# Compressibility (1/GPa) = 0.30121241
#
# Stress axis : x y z
#
# Youngs Moduli (GPa) = 17.99552 20.25370 17.29514
#
# Poissons Ratio (x) = -0.40686 -0.65299
# Poissons Ratio (y) = -0.36150 -0.19684
# Poissons Ratio (z) = -0.67943 -0.23051
#
# Static dielectric constant tensor:
#      x y z
#    x 1.652420 0.000000 0.024680 
#    y 0.000000 1.609310 0.000000 
#    z 0.024680 0.000000 1.627090 
# 
# From -- ./inp_files/77809.got.cif
#   From: 2010.05.17/outbox.cif.g08.bks.cpg/sg10_39_cif.got.tgz:77809.got - 2010.06.03 11:33:40.
