data_PCOD9154780
_publ_section_title
;
Structure prediction by ZEFSAII (Michael W. Deem and Ramdas Pophale) SiO2 
 PCOD9154780
Probable space group: P 2/M
;
_chemical_formula_sum "Si O2"
_cell_formula_units_Z 20
_cell_length_a 8.583171
_cell_length_b 12.990978
_cell_length_c 10.274089
_cell_angle_alpha 90.000000
_cell_angle_beta 75.415689
_cell_angle_gamma 90.000000
_cell_volume 1108.686480
_symmetry_space_group_name_H-M "P 2/M"
_symmetry_group_IT_number 10
_symmetry_cell_setting 'monoclinic'
loop_
_space_group_symop_operation_xyz
x,y,z
-x,y,-z
-x,-y,-z
x,-y,z
loop_
_atom_site_type_symbol
_atom_site_label
_atom_site_fract_x
_atom_site_fract_y
_atom_site_fract_z
Si Si1 0.214858 0.117281 0.591711
Si Si2 0.164728 0.117025 0.293183
Si Si3 0.201015 0.500000 0.098453
Si Si4 0.397605 0.317245 0.647805
Si Si5 0.382326 0.294174 0.144455
Si Si6 0.822033 0.500000 0.208814
O O1 0.213039 0.128266 0.435252
O O2 0.321344 0.205932 0.632109
O O3 0.028318 0.128701 0.672988
O O4 0.266937 0.000000 0.611479
O O5 0.257403 0.202092 0.192752
O O6 0.204383 0.000000 0.245633
O O7 0.288569 0.399011 0.132946
O O8 0.014524 0.500000 0.179502
O O9 0.212873 0.500000 0.938867
O O10 0.500000 0.349842 0.500000
O O11 0.513508 0.308976 0.747351
O O12 0.259681 0.399909 0.710059
O O13 0.500000 0.271574 0.000000
#
# Coordination Sequence:
#
# PCOD9154780 Si02
#       6
#     4   4   2   4   4   2
#     4   9  19  38  62  89 122 160 199 241 296 352
#     4   9  19  38  62  88 122 161 200 242 291 352
#     4  11  24  44  64  82 120 165 198 236 301 371
#     4  12  23  39  62  94 122 151 198 254 296 347
#     4  12  23  40  62  88 124 159 195 243 303 357
#     4  11  24  43  64  87 116 159 204 242 295 359
#
# _framework density 18.039366000000001
#
# number of rings (size 3 to 8) (size 9 to 14) (size 15 to 20)
#    0.000    1.400    4.000    3.600    0.000    1.600 
#    0.000    1.000    0.000    2.400    0.000    0.000 
#    0.000    0.000    0.000    0.000    0.000    0.000 
#
# Total GULP energy -111771.193212 kJ/mol
# GULP energy per Si atom -5588.559661 kJ/mol
# Density = 1.799831 g / cm^3
# Si number density = 18.039366 Si / 1000 Ang^3
#
#
#
# Elastic Constant Matrix: (Units=GPa)
#
#
# Indices 1 2 3 4 5 6 
#
# 1 84.4526 77.5750 58.6469 0.0000 -11.4230 0.0000
# 2 77.5750 165.9541 65.4880 0.0000 -26.9229 0.0000
# 3 58.6469 65.4880 112.9551 0.0000 -19.3013 0.0000
# 4 0.0000 0.0000 0.0000 217.9626 0.0000 -203.0278
# 5 -11.4230 -26.9229 -19.3013 0.0000 33.6413 0.0000
# 6 0.0000 0.0000 0.0000 -203.0278 0.0000 259.8952
#
#
#
# Elastic Compliance Matrix: (Units=1/GPa)
#
#
# Indices 1 2 3 4 5 6 
#
# 1 0.025895 -0.009259 -0.008693 0.000000 -0.003605 0.000000
# 2 -0.009259 0.011656 -0.000991 0.000000 0.005616 0.000000
# 3 -0.008693 -0.000991 0.014747 0.000000 0.004716 0.000000
# 4 0.000000 0.000000 0.000000 0.016847 0.000000 0.013160
# 5 -0.003605 0.005616 0.004716 0.000000 0.035702 0.000000
# 6 0.000000 0.000000 0.000000 0.013160 0.000000 0.014129
#
#
# Mechanical properties :
#
#
# Convention : Reuss Voigt Hill
#
# Bulk Modulus (GPa) = 69.38393 85.19797 77.29095
# Shear Modulus (GPa) = 30.92851 113.07661 72.00256
#
# Velocity S-wave (km/s) = 4.14515 7.92586 6.32462
# Velocity P-wave (km/s) = 7.83937 11.44948 9.81189
#
# Compressibility (1/GPa) = 0.01441256
#
# Stress axis : x y z
#
# Youngs Moduli (GPa) = 38.61771 85.79310 67.81223
#
# Poissons Ratio (x) = 0.79436 0.58946
# Poissons Ratio (y) = 0.35756 0.06719
# Poissons Ratio (z) = 0.33569 0.08501
#
# Static dielectric constant tensor:
#      x y z
#    x 1.607920 0.000000 -0.006520 
#    y 0.000000 1.596590 0.000000 
#    z -0.006520 0.000000 1.589950 
# 
# From -- ./inp_files/17810.got.cif
#   From: 2010.05.17/outbox.cif.g08.bks.cpg/sg10_9_cif.got.tgz:17810.got - 2010.06.03 11:33:40.
