data_PCOD9154539
_publ_section_title
;
Structure prediction by ZEFSAII (Michael W. Deem and Ramdas Pophale) SiO2 
 PCOD9154539
Probable space group: P 2/M
;
_chemical_formula_sum "Si O2"
_cell_formula_units_Z 24
_cell_length_a 8.651615
_cell_length_b 21.039454
_cell_length_c 8.663553
_cell_angle_alpha 90.000000
_cell_angle_beta 53.305220
_cell_angle_gamma 90.000000
_cell_volume 1264.474383
_symmetry_space_group_name_H-M "P 2/M"
_symmetry_group_IT_number 10
_symmetry_cell_setting 'monoclinic'
loop_
_space_group_symop_operation_xyz
x,y,z
-x,y,-z
-x,-y,-z
x,-y,z
loop_
_atom_site_type_symbol
_atom_site_label
_atom_site_fract_x
_atom_site_fract_y
_atom_site_fract_z
Si Si1 0.800869 0.072655 0.215637
Si Si2 0.963510 0.500000 0.702263
Si Si3 0.884236 0.749339 0.908696
Si Si4 0.148904 0.172196 0.538672
Si Si5 0.328526 0.500000 0.717649
Si Si6 0.456226 0.148936 0.856331
Si Si7 0.817044 0.393424 0.991268
O O1 0.819992 0.121009 0.345490
O O2 0.628878 0.096798 0.208910
O O3 0.771885 0.000000 0.282150
O O4 0.000000 0.076085 0.000000
O O5 0.142266 0.500000 0.716451
O O6 0.000000 0.500000 0.500000
O O7 0.854788 0.436206 0.818780
O O8 0.791844 0.679213 0.957689
O O9 0.038544 0.767835 0.683331
O O10 0.712954 0.800038 0.015547
O O11 0.000000 0.754533 0.000000
O O12 0.354794 0.181195 0.332720
O O13 0.000000 0.147020 0.500000
O O14 0.500000 0.500000 0.500000
O O15 0.329672 0.436744 0.822579
O O16 0.500000 0.121991 0.000000
O O17 0.000000 0.391846 0.000000
#
# Coordination Sequence:
#
# PCOD9154539 Si02
#       7
#     4   2   4   4   2   4   4
#     4  11  23  43  67  92 123 159 201 250 306 367
#     4   9  17  35  58  82 112 155 187 243 292 343
#     4  11  21  41  60  90 121 160 203 255 301 364
#     4  12  23  40  65  87 123 164 199 251 309 359
#     4   9  17  37  58  86 114 157 201 241 292 355
#     4  12  23  41  63  89 124 159 202 252 304 362
#     4   8  18  36  59  79 118 156 196 239 296 353
#
# _framework density 18.980219999999999
#
# number of rings (size 3 to 8) (size 9 to 14) (size 15 to 20)
#    0.000    1.500    5.000    1.500    0.000    2.667 
#    9.000    1.667    0.000    0.000    0.000    0.000 
#    0.000    0.000    0.000    0.000    0.000    0.000 
#
# Total GULP energy -133817.161021 kJ/mol
# GULP energy per Si atom -5575.715043 kJ/mol
# Density = 1.893702 g / cm^3
# Si number density = 18.980220 Si / 1000 Ang^3
#
#
#
# Elastic Constant Matrix: (Units=GPa)
#
#
# Indices 1 2 3 4 5 6 
#
# 1 72.1616 17.5972 20.4407 0.0000 16.1278 0.0000
# 2 17.5972 99.0177 25.2874 0.0000 10.0277 0.0000
# 3 20.4407 25.2874 119.0607 0.0000 3.3546 0.0000
# 4 0.0000 0.0000 0.0000 1.1566 0.0000 -2.1399
# 5 16.1278 10.0277 3.3546 0.0000 44.7099 0.0000
# 6 0.0000 0.0000 0.0000 -2.1399 0.0000 2.3310
#
#
#
# Elastic Compliance Matrix: (Units=1/GPa)
#
#
# Indices 1 2 3 4 5 6 
#
# 1 0.016093 -0.001756 -0.002242 0.000000 -0.005243 0.000000
# 2 -0.001756 0.011097 -0.002007 0.000000 -0.001705 0.000000
# 3 -0.002242 -0.002007 0.009194 0.000000 0.000569 0.000000
# 4 0.000000 0.000000 0.000000 -1.237763 0.000000 -1.136302
# 5 -0.005243 -0.001705 0.000569 0.000000 0.024597 0.000000
# 6 0.000000 0.000000 0.000000 -1.136302 0.000000 -0.614153
#
#
# Mechanical properties :
#
#
# Convention : Reuss Voigt Hill
#
# Bulk Modulus (GPa) = 41.03023 46.32117 43.67570
# Shear Modulus (GPa) = -2.82358 24.76714 10.97178
#
# Velocity S-wave (km/s) = -1.22101 3.61625 2.40690
# Velocity P-wave (km/s) = 4.43582 6.47258 5.54846
#
# Compressibility (1/GPa) = 0.02437227
#
# Stress axis : x y z
#
# Youngs Moduli (GPa) = 62.13893 90.11769 108.76313
#
# Poissons Ratio (x) = 0.15829 0.24386
# Poissons Ratio (y) = 0.10914 0.21831
# Poissons Ratio (z) = 0.13932 0.18089
#
# Static dielectric constant tensor:
#      x y z
#    x 1.724170 0.000000 -0.033240 
#    y 0.000000 1.695960 0.000000 
#    z -0.033240 0.000000 1.676560 
# 
# From -- ./inp_files/20163.got.cif
#   From: 2010.05.17/outbox.cif.g08.bks.cpg/sg10_11_cif.got.tgz:20163.got - 2010.06.03 11:33:40.
