data_PCOD9154981
_publ_section_title
;
Structure prediction by ZEFSAII (Michael W. Deem and Ramdas Pophale) SiO2 
 PCOD9154981
Probable space group: P 2/M
;
_chemical_formula_sum "Si O2"
_cell_formula_units_Z 14
_cell_length_a 6.385030
_cell_length_b 17.055019
_cell_length_c 9.022630
_cell_angle_alpha 90.000000
_cell_angle_beta 34.151099
_cell_angle_gamma 90.000000
_cell_volume 551.573160
_symmetry_space_group_name_H-M "P 2/M"
_symmetry_group_IT_number 10
_symmetry_cell_setting 'monoclinic'
loop_
_space_group_symop_operation_xyz
x,y,z
-x,y,-z
-x,-y,-z
x,-y,z
loop_
_atom_site_type_symbol
_atom_site_label
_atom_site_fract_x
_atom_site_fract_y
_atom_site_fract_z
Si Si1 0.558602 0.170258 0.287721
Si Si2 0.556969 0.000000 0.290722
Si Si3 0.644985 0.673075 0.094976
Si Si4 0.850838 0.588089 0.408356
O O1 0.500000 0.184293 0.500000
O O2 0.454205 0.243797 0.245859
O O3 0.402786 0.084861 0.332676
O O4 0.000000 0.163339 0.000000
O O5 0.500000 0.000000 0.500000
O O6 0.000000 0.000000 0.000000
O O7 0.363757 0.605697 0.313469
O O8 0.000000 0.670913 0.000000
O O9 0.859241 0.654092 0.817549
O O10 0.500000 0.591758 0.500000
O O11 0.000051 0.500000 0.308377
#
# Coordination Sequence:
#
# PCOD9154981 Si02
#       4
#     4   2   4   4
#     4   9  14  20  26  31  36  40  45  50  56  62
#     4   8  14  20  26  32  36  40  44  50  56  62
#     4   9  14  19  25  30  35  41  46  51  56  61
#     4   9  15  20  24  29  35  41  47  52  56  60
#
# _framework density 25.381947
#
# number of rings (size 3 to 8) (size 9 to 14) (size 15 to 20)
#    0.000    3.143    0.000    5.143    0.000    3.429 
#    0.000    0.000    0.000    0.000    0.000    0.000 
#    0.000    0.000    0.000    0.000    0.000    0.000 
#
# Total GULP energy -78134.095572 kJ/mol
# GULP energy per Si atom -5581.006827 kJ/mol
# Density = 2.532418 g / cm^3
# Si number density = 25.381947 Si / 1000 Ang^3
#
#
#
# Elastic Constant Matrix: (Units=GPa)
#
#
# Indices 1 2 3 4 5 6 
#
# 1 58.4484 11.1668 46.2096 0.0000 22.0456 0.0000
# 2 11.1668 215.1150 75.8172 0.0000 13.0629 0.0000
# 3 46.2096 75.8172 166.7690 0.0000 30.7929 0.0000
# 4 0.0000 0.0000 0.0000 26.7863 0.0000 16.5426
# 5 22.0456 13.0629 30.7929 0.0000 60.4711 0.0000
# 6 0.0000 0.0000 0.0000 16.5426 0.0000 22.1536
#
#
#
# Elastic Compliance Matrix: (Units=1/GPa)
#
#
# Indices 1 2 3 4 5 6 
#
# 1 0.023924 0.001273 -0.006122 0.000000 -0.005879 0.000000
# 2 0.001273 0.005604 -0.002860 0.000000 -0.000218 0.000000
# 3 -0.006122 -0.002860 0.009345 0.000000 -0.001909 0.000000
# 4 0.000000 0.000000 0.000000 0.069283 0.000000 -0.051735
# 5 -0.005879 -0.000218 -0.001909 0.000000 0.019699 0.000000
# 6 0.000000 0.000000 0.000000 -0.051735 0.000000 0.083771
#
#
# Mechanical properties :
#
#
# Convention : Reuss Voigt Hill
#
# Bulk Modulus (GPa) = 42.63602 78.52441 60.58021
# Shear Modulus (GPa) = 21.28899 42.35812 31.82355
#
# Velocity S-wave (km/s) = 2.89925 4.08956 3.54473
# Velocity P-wave (km/s) = 5.29545 7.30093 6.37752
#
# Compressibility (1/GPa) = 0.02345434
#
# Stress axis : x y z
#
# Youngs Moduli (GPa) = 41.79983 178.44780 107.00426
#
# Poissons Ratio (x) = -0.22713 0.65508
# Poissons Ratio (y) = -0.05320 0.30604
# Poissons Ratio (z) = 0.25590 0.51037
#
# Static dielectric constant tensor:
#      x y z
#    x 2.291060 0.000000 -0.060750 
#    y 0.000000 2.073750 0.000000 
#    z -0.060750 0.000000 1.893420 
# 
# From -- ./inp_files/51746.got.cif
#   From: 2010.05.17/outbox.cif.g08.bks.cpg/sg10_26_cif.got.tgz:51746.got - 2010.06.03 11:33:40.
