data_PCOD9154850
_publ_section_title
;
Structure prediction by ZEFSAII (Michael W. Deem and Ramdas Pophale) SiO2 
 PCOD9154850
Probable space group: P 2/M
;
_chemical_formula_sum "Si O2"
_cell_formula_units_Z 30
_cell_length_a 12.076549
_cell_length_b 19.563249
_cell_length_c 11.274093
_cell_angle_alpha 90.000000
_cell_angle_beta 141.855746
_cell_angle_gamma 90.000000
_cell_volume 1645.141737
_symmetry_space_group_name_H-M "P 2/M"
_symmetry_group_IT_number 10
_symmetry_cell_setting 'monoclinic'
loop_
_space_group_symop_operation_xyz
x,y,z
-x,y,-z
-x,-y,-z
x,-y,z
loop_
_atom_site_type_symbol
_atom_site_label
_atom_site_fract_x
_atom_site_fract_y
_atom_site_fract_z
Si Si1 0.774190 0.078051 0.182445
Si Si2 0.031976 0.424110 0.228355
Si Si3 0.619007 0.219295 0.983876
Si Si4 0.500000 0.304836 0.500000
Si Si5 0.202171 0.077806 0.515889
Si Si6 0.703360 0.576470 0.772238
Si Si7 0.991666 0.293022 0.352102
Si Si8 0.670616 0.214381 0.459514
O O1 0.756082 0.090048 0.309139
O O2 0.985255 0.082702 0.328235
O O3 0.714777 0.000000 0.107679
O O4 0.671852 0.139123 0.032878
O O5 0.042244 0.500000 0.290185
O O6 0.034867 0.364195 0.324645
O O7 0.187045 0.419251 0.259464
O O8 0.848330 0.418895 0.998461
O O9 0.498737 0.231262 0.766980
O O10 0.500000 0.234108 0.000000
O O11 0.801215 0.262872 0.148438
O O12 0.424264 0.358335 0.339165
O O13 0.642084 0.254549 0.558002
O O14 0.300163 0.133022 0.516961
O O15 0.251973 0.000000 0.529831
O O16 0.621003 0.500000 0.710604
O O17 0.000000 0.300112 0.500000
O O18 0.148719 0.241460 0.448421
#
# Coordination Sequence:
#
# PCOD9154850 Si02
#       8
#     4   4   4   2   4   4   4   4
#     4   9  17  31  56  86 113 145 189 239 288 330
#     4   9  19  37  60  85 111 149 193 232 284 341
#     4  12  22  34  56  87 118 148 192 232 291 342
#     4  12  23  38  57  88 116 148 196 238 283 344
#     4   9  17  33  56  81 114 152 188 233 285 335
#     4   9  18  36  62  86 111 142 189 250 288 320
#     4  12  22  38  59  81 124 159 181 232 291 346
#     4  12  24  38  56  87 116 154 195 237 286 342
#
# _framework density 18.235510000000001
#
# number of rings (size 3 to 8) (size 9 to 14) (size 15 to 20)
#    0.000    1.600    5.333    2.600    0.000    1.067 
#    0.000    0.333    0.000    0.400    0.000    1.867 
#    0.000    0.000    0.000    0.000    0.000    0.000 
#
# Total GULP energy -167421.835682 kJ/mol
# GULP energy per Si atom -5580.727856 kJ/mol
# Density = 1.819401 g / cm^3
# Si number density = 18.235510 Si / 1000 Ang^3
#
#
#
# Elastic Constant Matrix: (Units=GPa)
#
#
# Indices 1 2 3 4 5 6 
#
# 1 35.0644 29.7284 -0.6851 0.0000 -2.5690 0.0000
# 2 29.7284 127.2154 18.1729 0.0000 2.8485 0.0000
# 3 -0.6851 18.1729 54.7578 0.0000 12.5620 0.0000
# 4 0.0000 0.0000 0.0000 9.5735 0.0000 -1.1854
# 5 -2.5690 2.8485 12.5620 0.0000 12.0622 0.0000
# 6 0.0000 0.0000 0.0000 -1.1854 0.0000 22.2720
#
#
#
# Elastic Compliance Matrix: (Units=1/GPa)
#
#
# Indices 1 2 3 4 5 6 
#
# 1 0.036796 -0.009005 0.001528 0.000000 0.008372 0.000000
# 2 -0.009005 0.010468 -0.003390 0.000000 -0.000860 0.000000
# 3 0.001528 -0.003390 0.025159 0.000000 -0.025075 0.000000
# 4 0.000000 0.000000 0.000000 0.105147 0.000000 0.005596
# 5 0.008372 -0.000860 -0.025075 0.000000 0.111004 0.000000
# 6 0.000000 0.000000 0.000000 0.005596 0.000000 0.045197
#
#
# Mechanical properties :
#
#
# Convention : Reuss Voigt Hill
#
# Bulk Modulus (GPa) = 19.72710 34.60779 27.16744
# Shear Modulus (GPa) = 13.42638 20.10298 16.76468
#
# Velocity S-wave (km/s) = 2.71639 3.32386 3.03536
# Velocity P-wave (km/s) = 4.54750 5.80949 5.21680
#
# Compressibility (1/GPa) = 0.05069169
#
# Stress axis : x y z
#
# Youngs Moduli (GPa) = 27.17657 95.52574 39.74751
#
# Poissons Ratio (x) = 0.86017 -0.06074
# Poissons Ratio (y) = 0.24471 0.13473
# Poissons Ratio (z) = -0.04153 0.32380
#
# Static dielectric constant tensor:
#      x y z
#    x 1.600580 0.000000 0.027340 
#    y 0.000000 1.648430 0.000000 
#    z 0.027340 0.000000 1.664130 
# 
# From -- ./inp_files/47925.got.cif
#   From: 2010.05.17/outbox.cif.g08.bks.cpg/sg10_24_cif.got.tgz:47925.got - 2010.06.03 11:33:40.
