data_PCOD9154413
_publ_section_title
;
Structure prediction by ZEFSAII (Michael W. Deem and Ramdas Pophale) SiO2 
 PCOD9154413
Probable space group: P 2/M
;
_chemical_formula_sum "Si O2"
_cell_formula_units_Z 28
_cell_length_a 9.940272
_cell_length_b 7.664749
_cell_length_c 29.813581
_cell_angle_alpha 90.000000
_cell_angle_beta 140.769176
_cell_angle_gamma 90.000000
_cell_volume 1436.593441
_symmetry_space_group_name_H-M "P 2/M"
_symmetry_group_IT_number 10
_symmetry_cell_setting 'monoclinic'
loop_
_space_group_symop_operation_xyz
x,y,z
-x,y,-z
-x,-y,-z
x,-y,z
loop_
_atom_site_type_symbol
_atom_site_label
_atom_site_fract_x
_atom_site_fract_y
_atom_site_fract_z
Si Si1 0.837484 0.298340 0.420785
Si Si2 0.624273 0.213118 0.599691
Si Si3 0.003954 0.704828 0.858885
Si Si4 0.422721 0.298654 0.927979
Si Si5 0.821541 0.788890 0.558409
Si Si6 0.355683 0.200600 0.297161
Si Si7 0.868581 0.285688 0.009947
O O1 0.798891 0.500000 0.422632
O O2 0.609813 0.210403 0.358631
O O3 0.000000 0.222586 0.500000
O O4 0.966498 0.284931 0.408077
O O5 0.383261 0.264632 0.524359
O O6 0.771082 0.265147 0.596094
O O7 0.690868 0.277729 0.665587
O O8 0.622029 0.000000 0.600293
O O9 0.056569 0.500000 0.876088
O O10 0.775519 0.718551 0.777131
O O11 0.186576 0.779911 0.872590
O O12 0.023882 0.771049 0.915026
O O13 0.401213 0.500000 0.907404
O O14 0.500000 0.297889 0.000000
O O15 0.621038 0.226620 0.950501
O O16 0.831163 0.000000 0.559689
O O17 0.290078 0.000000 0.280663
O O18 0.866290 0.500000 0.008419
O O19 0.000000 0.229433 0.000000
#
# Coordination Sequence:
#
# PCOD9154413 Si02
#       7
#     4   4   4   4   4   4   4
#     4  11  22  34  49  74 103 130 165 213 262 306
#     4   8  16  30  51  73  91 120 164 208 245 295
#     4   9  17  30  47  70 101 130 161 206 251 293
#     4   7  11  22  42  66  91 121 154 186 229 283
#     4   9  16  32  54  72  91 120 164 210 251 297
#     4  11  21  34  52  72  98 135 174 208 253 311
#     4   8  13  24  47  76 100 127 164 202 239 288
#
# _framework density 19.490552999999998
#
# number of rings (size 3 to 8) (size 9 to 14) (size 15 to 20)
#    0.000    3.000    1.429    3.429    0.000    0.571 
#    0.000    4.286    0.000    6.000    0.000    0.000 
#    0.000    0.000    0.000    0.000    0.000    0.000 
#
# Total GULP energy -155947.889791 kJ/mol
# GULP energy per Si atom -5569.567493 kJ/mol
# Density = 1.944619 g / cm^3
# Si number density = 19.490553 Si / 1000 Ang^3
#
#
#
# Elastic Constant Matrix: (Units=GPa)
#
#
# Indices 1 2 3 4 5 6 
#
# 1 150.9030 2.0827 56.1792 0.0000 0.8986 0.0000
# 2 2.0827 35.0980 2.2734 0.0000 -2.0589 0.0000
# 3 56.1792 2.2734 98.2933 0.0000 2.3622 0.0000
# 4 0.0000 0.0000 0.0000 -440.7107 0.0000 -224.6082
# 5 0.8986 -2.0589 2.3622 0.0000 21.8886 0.0000
# 6 0.0000 0.0000 0.0000 -224.6082 0.0000 -99.2444
#
#
#
# Elastic Compliance Matrix: (Units=1/GPa)
#
#
# Indices 1 2 3 4 5 6 
#
# 1 0.008420 -0.000179 -0.004812 0.000000 0.000157 0.000000
# 2 -0.000179 0.028706 -0.000628 0.000000 0.002775 0.000000
# 3 -0.004812 -0.000628 0.012969 0.000000 -0.001261 0.000000
# 4 0.000000 0.000000 0.000000 0.014789 0.000000 -0.033470
# 5 0.000157 0.002775 -0.001261 0.000000 0.046077 0.000000
# 6 0.000000 0.000000 0.000000 -0.033470 0.000000 0.065672
#
#
# Mechanical properties :
#
#
# Convention : Reuss Voigt Hill
#
# Bulk Modulus (GPa) = 25.73605 45.04053 35.38829
# Shear Modulus (GPa) = 24.89770 -88.69603 -31.89916
#
# Velocity S-wave (km/s) = 3.57798 -6.75322 -4.04994
# Velocity P-wave (km/s) = 5.50476 6.13587 1.91658
#
# Compressibility (1/GPa) = 0.03885599
#
# Stress axis : x y z
#
# Youngs Moduli (GPa) = 118.76890 34.83620 77.10873
#
# Poissons Ratio (x) = 0.00623 0.37104
# Poissons Ratio (y) = 0.02123 0.04846
# Poissons Ratio (z) = 0.57150 0.02189
#
# Static dielectric constant tensor:
#      x y z
#    x 1.707270 0.000000 0.006620 
#    y 0.000000 1.728670 0.000000 
#    z 0.006620 0.000000 1.680800 
# 
# From -- ./inp_files/37290.got.cif
#   From: 2010.05.17/outbox.cif.g08.bks.cpg/sg10_19_cif.got.tgz:37290.got - 2010.06.03 11:33:40.
