data_PCOD9154345
_publ_section_title
;
Structure prediction by ZEFSAII (Michael W. Deem and Ramdas Pophale) SiO2 
 PCOD9154345
Probable space group: P 2/M
;
_chemical_formula_sum "Si O2"
_cell_formula_units_Z 29
_cell_length_a 11.318341
_cell_length_b 14.592848
_cell_length_c 9.935603
_cell_angle_alpha 90.000000
_cell_angle_beta 67.540420
_cell_angle_gamma 90.000000
_cell_volume 1516.558573
_symmetry_space_group_name_H-M "P 2/M"
_symmetry_group_IT_number 10
_symmetry_cell_setting 'monoclinic'
loop_
_space_group_symop_operation_xyz
x,y,z
-x,y,-z
-x,-y,-z
x,-y,z
loop_
_atom_site_type_symbol
_atom_site_label
_atom_site_fract_x
_atom_site_fract_y
_atom_site_fract_z
Si Si1 0.758672 0.894995 0.334228
Si Si2 0.024695 0.813920 0.140371
Si Si3 0.363617 0.607439 0.984925
Si Si4 0.000000 0.500000 0.500000
Si Si5 0.590918 0.771199 0.210729
Si Si6 0.697960 0.105294 0.937064
Si Si7 0.136828 0.332567 0.285148
Si Si8 0.697129 0.188128 0.643404
O O1 0.674836 0.823597 0.284549
O O2 0.735684 0.872886 0.500324
O O3 0.906000 0.876233 0.234848
O O4 0.723744 0.000000 0.317934
O O5 0.156733 0.870561 0.083551
O O6 0.043673 0.731262 0.236848
O O7 0.000000 0.779440 0.000000
O O8 0.351488 0.500000 0.960126
O O9 0.361764 0.670893 0.853581
O O10 0.500000 0.622260 0.000000
O O11 0.252076 0.638560 0.134731
O O12 0.930271 0.419389 0.621576
O O13 0.443637 0.770391 0.317066
O O14 0.609353 0.830454 0.066399
O O15 0.690265 0.129927 0.783701
O O16 0.668147 0.000000 0.974554
O O17 0.201021 0.268154 0.371005
#
# Coordination Sequence:
#
# PCOD9154345 Si02
#       8
#     4   4   4   1   4   4   4   4
#     4  12  26  41  63  93 134 182 216 260 324 385
#     4  11  22  42  65  88 129 170 218 266 321 377
#     4  11  20  39  71 100 123 161 215 270 327 383
#     4  12  24  40  64 100 132 160 218 256 332 402
#     4  12  22  41  65  93 130 169 212 269 322 378
#     4  11  22  36  64  94 123 168 218 268 316 376
#     4  11  22  41  67  93 126 172 205 272 324 380
#     4  11  24  42  62  91 134 166 215 263 327 381
#
# _framework density 19.122242
#
# number of rings (size 3 to 8) (size 9 to 14) (size 15 to 20)
#    0.000    0.690    6.207    2.897    0.000    5.517 
#    0.000    3.793    9.103    0.828    0.000    0.000 
#    0.000    0.000    0.000    0.000    0.000    0.000 
#
# Total GULP energy -161900.936703 kJ/mol
# GULP energy per Si atom -5582.790921 kJ/mol
# Density = 1.907872 g / cm^3
# Si number density = 19.122242 Si / 1000 Ang^3
#
#
#
# Elastic Constant Matrix: (Units=GPa)
#
#
# Indices 1 2 3 4 5 6 
#
# 1 67.2227 12.9624 25.1769 0.0000 12.0321 0.0000
# 2 12.9624 120.7184 15.7843 0.0000 13.7834 0.0000
# 3 25.1769 15.7843 73.8440 0.0000 0.5096 0.0000
# 4 0.0000 0.0000 0.0000-2210.3634 0.0000 691.6605
# 5 12.0321 13.7834 0.5096 0.0000 20.7105 0.0000
# 6 0.0000 0.0000 0.0000 691.6605 0.0000 -198.1712
#
#
#
# Elastic Compliance Matrix: (Units=1/GPa)
#
#
# Indices 1 2 3 4 5 6 
#
# 1 0.019287 0.000045 -0.006509 0.000000 -0.011075 0.000000
# 2 0.000045 0.009233 -0.001946 0.000000 -0.006122 0.000000
# 3 -0.006509 -0.001946 0.016145 0.000000 0.004680 0.000000
# 4 0.000000 0.000000 0.000000 0.004910 0.000000 0.017136
# 5 -0.011075 -0.006122 0.004680 0.000000 0.058678 0.000000
# 6 0.000000 0.000000 0.000000 0.017136 0.000000 0.054761
#
#
# Mechanical properties :
#
#
# Convention : Reuss Voigt Hill
#
# Bulk Modulus (GPa) = 35.91553 41.07027 38.49290
# Shear Modulus (GPa) = 26.43868 -463.70739 -218.63435
#
# Velocity S-wave (km/s) = 3.72239 -15.58919 -10.70436
# Velocity P-wave (km/s) = 6.10719 17.39270 11.51539
#
# Compressibility (1/GPa) = 0.02784311
#
# Stress axis : x y z
#
# Youngs Moduli (GPa) = 51.84722 108.31301 61.93840
#
# Poissons Ratio (x) = -0.00483 0.40316
# Poissons Ratio (y) = -0.00231 0.12056
# Poissons Ratio (z) = 0.33748 0.21082
#
# Static dielectric constant tensor:
#      x y z
#    x 1.679530 0.000000 0.002030 
#    y 0.000000 1.640740 0.000000 
#    z 0.002030 0.000000 1.650820 
# 
# From -- ./inp_files/24968.got.cif
#   From: 2010.05.17/outbox.cif.g08.bks.cpg/sg10_13_cif.got.tgz:24968.got - 2010.06.03 11:33:40.
