data_PCOD9154257
_publ_section_title
;
Structure prediction by ZEFSAII (Michael W. Deem and Ramdas Pophale) SiO2 
 PCOD9154257
Probable space group: P 2/M
;
_chemical_formula_sum "Si O2"
_cell_formula_units_Z 32
_cell_length_a 16.904985
_cell_length_b 13.138097
_cell_length_c 9.309262
_cell_angle_alpha 90.000000
_cell_angle_beta 90.673287
_cell_angle_gamma 90.000000
_cell_volume 2067.438126
_symmetry_space_group_name_H-M "P 2/M"
_symmetry_group_IT_number 10
_symmetry_cell_setting 'monoclinic'
loop_
_space_group_symop_operation_xyz
x,y,z
-x,y,-z
-x,-y,-z
x,-y,z
loop_
_atom_site_type_symbol
_atom_site_label
_atom_site_fract_x
_atom_site_fract_y
_atom_site_fract_z
Si Si1 0.469194 0.728334 0.647011
Si Si2 0.413427 0.381189 0.925088
Si Si3 0.709146 0.785075 0.967396
Si Si4 0.794818 0.884045 0.232391
Si Si5 0.655493 0.889792 0.463932
Si Si6 0.219559 0.120003 0.288647
Si Si7 0.445352 0.115827 0.140578
Si Si8 0.089230 0.876590 0.525869
O O1 0.500000 0.677198 0.500000
O O2 0.428067 0.655729 0.762357
O O3 0.405036 0.805660 0.583323
O O4 0.530201 0.799648 0.740484
O O5 0.393349 0.500000 0.932065
O O6 0.500000 0.367477 0.000000
O O7 0.345259 0.313311 0.999315
O O8 0.769071 0.797529 0.835774
O O9 0.642377 0.868140 0.923163
O O10 0.759731 0.815805 0.106497
O O11 0.725435 0.891341 0.348743
O O12 0.869879 0.843655 0.323898
O O13 0.810423 0.000000 0.180760
O O14 0.700748 0.875433 0.614085
O O15 0.615847 0.000000 0.463196
O O16 0.146981 0.145708 0.393356
O O17 0.210416 0.000000 0.242957
O O18 0.455882 0.000000 0.193839
O O19 0.500000 0.128655 0.000000
O O20 0.000000 0.840681 0.500000
O O21 0.088180 0.000000 0.534894
#
# Coordination Sequence:
#
# PCOD9154257 Si02
#       8
#     4   4   4   4   4   4   4   4
#     4  12  21  32  49  68  90 122 162 205 250 292
#     4  11  24  42  53  62  86 126 173 215 264 305
#     4  12  18  32  49  68  91 124 160 211 253 276
#     4   9  16  26  46  71  96 129 160 189 227 277
#     4   9  17  29  42  65 100 128 152 187 232 283
#     4   9  18  28  46  75 104 134 160 190 230 279
#     4  11  20  30  45  69  99 132 164 192 236 295
#     4   8  15  30  47  68 106 148 167 174 209 275
#
# _framework density 15.478092999999999
#
# number of rings (size 3 to 8) (size 9 to 14) (size 15 to 20)
#    0.000    1.875    3.750    3.750    0.000    4.250 
#    0.000    0.625    0.000    3.000    0.000    0.000 
#    0.000    3.000    0.000    0.000    0.000    0.000 
#
# Total GULP energy -178233.884133 kJ/mol
# GULP energy per Si atom -5569.808879 kJ/mol
# Density = 1.544286 g / cm^3
# Si number density = 15.478093 Si / 1000 Ang^3
#
#
#
# Elastic Constant Matrix: (Units=GPa)
#
#
# Indices 1 2 3 4 5 6 
#
# 1 83.6672 23.8357 35.7588 0.0000 8.1502 0.0000
# 2 23.8357 72.2616 41.1214 0.0000 -0.8480 0.0000
# 3 35.7588 41.1214 103.1718 0.0000 2.8333 0.0000
# 4 0.0000 0.0000 0.0000 2.0414 0.0000 -1.6009
# 5 8.1502 -0.8480 2.8333 0.0000 16.9107 0.0000
# 6 0.0000 0.0000 0.0000 -1.6009 0.0000 10.5714
#
#
#
# Elastic Compliance Matrix: (Units=1/GPa)
#
#
# Indices 1 2 3 4 5 6 
#
# 1 0.015090 -0.002828 -0.003918 0.000000 -0.006758 0.000000
# 2 -0.002828 0.018503 -0.006487 0.000000 0.003377 0.000000
# 3 -0.003918 -0.006487 0.013656 0.000000 -0.000725 0.000000
# 4 0.000000 0.000000 0.000000 0.555871 0.000000 0.084182
# 5 -0.006758 0.003377 -0.000725 0.000000 0.062682 0.000000
# 6 0.000000 0.000000 0.000000 0.084182 0.000000 0.107343
#
#
# Mechanical properties :
#
#
# Convention : Reuss Voigt Hill
#
# Bulk Modulus (GPa) = 48.11419 51.17024 49.64222
# Shear Modulus (GPa) = 6.19933 16.46369 11.33151
#
# Velocity S-wave (km/s) = 2.00348 3.26494 2.70867
# Velocity P-wave (km/s) = 6.04191 6.88075 6.47493
#
# Compressibility (1/GPa) = 0.02078389
#
# Stress axis : x y z
#
# Youngs Moduli (GPa) = 66.26743 54.04632 73.22773
#
# Poissons Ratio (x) = 0.15282 0.28688
# Poissons Ratio (y) = 0.18737 0.47506
# Poissons Ratio (z) = 0.25961 0.35062
#
# Static dielectric constant tensor:
#      x y z
#    x 1.528680 0.000000 -0.026400 
#    y 0.000000 1.509550 0.000000 
#    z -0.026400 0.000000 1.586380 
# 
# From -- ./inp_files/32176.got.cif
#   From: 2010.05.17/outbox.cif.g08.bks.cpg/sg10_17_cif.got.tgz:32176.got - 2010.06.03 11:33:40.
