data_PCOD9154838
_publ_section_title
;
Structure prediction by ZEFSAII (Michael W. Deem and Ramdas Pophale) SiO2 
 PCOD9154838
Probable space group: P 2/M
;
_chemical_formula_sum "Si O2"
_cell_formula_units_Z 16
_cell_length_a 5.170643
_cell_length_b 23.912498
_cell_length_c 5.229730
_cell_angle_alpha 90.000000
_cell_angle_beta 87.907633
_cell_angle_gamma 90.000000
_cell_volume 646.188333
_symmetry_space_group_name_H-M "P 2/M"
_symmetry_group_IT_number 10
_symmetry_cell_setting 'monoclinic'
loop_
_space_group_symop_operation_xyz
x,y,z
-x,y,-z
-x,-y,-z
x,-y,z
loop_
_atom_site_type_symbol
_atom_site_label
_atom_site_fract_x
_atom_site_fract_y
_atom_site_fract_z
Si Si1 0.000000 0.000000 0.000000
Si Si2 0.500000 0.500000 0.000000
Si Si3 0.500000 0.805744 0.000000
Si Si4 0.736424 0.412264 0.668931
Si Si5 0.174752 0.714193 0.247128
Si Si6 0.239458 0.103706 0.677134
O O1 0.837174 0.048962 0.160847
O O2 0.290089 0.450835 0.085709
O O3 0.626814 0.764414 0.791194
O O4 0.298089 0.845943 0.867460
O O5 0.500000 0.432765 0.500000
O O6 0.699350 0.347034 0.733900
O O7 0.000000 0.417950 0.500000
O O8 0.000000 0.722457 0.500000
O O9 0.000000 0.713668 0.000000
O O10 0.500000 0.094371 0.500000
O O11 0.000000 0.116288 0.500000
#
# Coordination Sequence:
#
# PCOD9154838 Si02
#       6
#     1   1   2   4   4   4
#     4  12  28  58  80 122 160 226 272 340 418 496
#     4  12  26  46  88 108 160 212 268 346 408 494
#     4  12  31  49  82 125 161 218 278 348 408 510
#     4  11  28  50  75 118 160 210 273 336 411 492
#     4  11  30  52  82 116 168 219 274 339 417 495
#     4  12  30  52  83 120 168 214 275 344 414 494
#
# _framework density 24.760580000000001
#
# number of rings (size 3 to 8) (size 9 to 14) (size 15 to 20)
#    0.000    0.500    0.000    3.750   22.750    4.500 
#    0.000    0.000    0.000    0.000    0.000    0.000 
#    0.000    0.000    0.000    0.000    0.000    0.000 
#
# Total GULP energy -89329.777373 kJ/mol
# GULP energy per Si atom -5583.111086 kJ/mol
# Density = 2.470422 g / cm^3
# Si number density = 24.760580 Si / 1000 Ang^3
#
#
#
# Elastic Constant Matrix: (Units=GPa)
#
#
# Indices 1 2 3 4 5 6 
#
# 1 154.3189 70.8640 62.0094 0.0000 -9.8807 0.0000
# 2 70.8640 262.3488 73.6894 0.0000 -33.0367 0.0000
# 3 62.0094 73.6894 130.7667 0.0000 -30.8814 0.0000
# 4 0.0000 0.0000 0.0000 33.2762 0.0000 -52.3209
# 5 -9.8807 -33.0367 -30.8814 0.0000 54.2609 0.0000
# 6 0.0000 0.0000 0.0000 -52.3209 0.0000 5.0807
#
#
#
# Elastic Compliance Matrix: (Units=1/GPa)
#
#
# Indices 1 2 3 4 5 6 
#
# 1 0.008481 -0.001475 -0.003510 0.000000 -0.001351 0.000000
# 2 -0.001475 0.004894 -0.001638 0.000000 0.001779 0.000000
# 3 -0.003510 -0.001638 0.011377 0.000000 0.004839 0.000000
# 4 0.000000 0.000000 0.000000 -0.001978 0.000000 -0.020371
# 5 -0.001351 0.001779 0.004839 0.000000 0.022020 0.000000
# 6 0.000000 0.000000 0.000000 -0.020371 0.000000 -0.012956
#
#
# Mechanical properties :
#
#
# Convention : Reuss Voigt Hill
#
# Bulk Modulus (GPa) = 86.90723 106.72890 96.81807
# Shear Modulus (GPa) = 102.20513 41.24834 71.72674
#
# Velocity S-wave (km/s) = 6.43172 4.08596 5.38804
# Velocity P-wave (km/s) = 9.50427 8.09061 8.82579
#
# Compressibility (1/GPa) = 0.01150652
#
# Stress axis : x y z
#
# Youngs Moduli (GPa) = 117.90697 204.31399 87.89372
#
# Poissons Ratio (x) = 0.30142 0.30847
# Poissons Ratio (y) = 0.17395 0.14401
# Poissons Ratio (z) = 0.41380 0.33476
#
# Static dielectric constant tensor:
#      x y z
#    x 2.014060 0.000000 0.062980 
#    y 0.000000 1.894000 0.000000 
#    z 0.062980 0.000000 2.042650 
# 
# From -- ./inp_files/1488.got.cif
#   From: 2010.05.17/outbox.cif.g08.bks.cpg/sg10_1_cif.got.tgz:1488.got - 2010.06.03 11:33:40.
