data_PCOD9154364
_publ_section_title
;
Structure prediction by ZEFSAII (Michael W. Deem and Ramdas Pophale) SiO2 
 PCOD9154364
Probable space group: P 2/M
;
_chemical_formula_sum "Si O2"
_cell_formula_units_Z 28
_cell_length_a 14.108570
_cell_length_b 8.938954
_cell_length_c 14.108594
_cell_angle_alpha 90.000000
_cell_angle_beta 95.818323
_cell_angle_gamma 90.000000
_cell_volume 1770.151003
_symmetry_space_group_name_H-M "P 2/M"
_symmetry_group_IT_number 10
_symmetry_cell_setting 'monoclinic'
loop_
_space_group_symop_operation_xyz
x,y,z
-x,y,-z
-x,-y,-z
x,-y,z
loop_
_atom_site_type_symbol
_atom_site_label
_atom_site_fract_x
_atom_site_fract_y
_atom_site_fract_z
Si Si1 0.415979 0.821542 0.915978
Si Si2 0.834343 0.180351 0.828733
Si Si3 0.604590 0.828167 0.461234
Si Si4 0.224033 0.322164 0.977027
Si Si5 0.671268 0.819649 0.665657
Si Si6 0.038767 0.171833 0.895410
Si Si7 0.477027 0.677836 0.724032
O O1 0.318848 0.750701 0.944740
O O2 0.444739 0.750694 0.818848
O O3 0.405303 0.000000 0.905298
O O4 0.500000 0.792684 0.000000
O O5 0.766303 0.214586 0.733697
O O6 0.945595 0.221094 0.827577
O O7 0.832339 0.000000 0.844416
O O8 0.794299 0.258529 0.919040
O O9 0.500000 0.828183 0.500000
O O10 0.672423 0.778904 0.554406
O O11 0.593974 0.727574 0.367795
O O12 0.625812 0.000000 0.436381
O O13 0.231976 0.500000 0.980833
O O14 0.132204 0.272429 0.906027
O O15 0.580960 0.741474 0.705701
O O16 0.655586 0.000000 0.667659
O O17 0.063621 0.000000 0.874190
O O18 0.000000 0.171817 0.000000
O O19 0.480835 0.500000 0.731971
#
# Coordination Sequence:
#
# PCOD9154364 Si02
#       7
#     4   4   4   4   4   4   4
#     4  11  23  37  51  65  86 121 160 191 221 264
#     4   9  17  30  48  69  93 122 155 189 225 266
#     4   8  15  29  47  65  88 120 155 187 221 266
#     4  11  21  31  45  67  95 123 152 188 228 270
#     4   9  17  30  48  69  93 122 155 189 225 266
#     4   8  15  29  47  65  88 120 155 187 221 266
#     4  11  21  31  45  67  95 123 152 188 228 270
#
# _framework density 15.81786
#
# number of rings (size 3 to 8) (size 9 to 14) (size 15 to 20)
#    0.000    2.429    0.000    5.571    0.000   10.286 
#    0.000    0.000    0.000    0.000    0.000    1.000 
#    0.000    8.000    0.000    0.000    0.000    0.000 
#
# Total GULP energy -156095.479660 kJ/mol
# GULP energy per Si atom -5574.838559 kJ/mol
# Density = 1.578186 g / cm^3
# Si number density = 15.817860 Si / 1000 Ang^3
#
#
#
# Elastic Constant Matrix: (Units=GPa)
#
#
# Indices 1 2 3 4 5 6 
#
# 1 97.6285 54.9087 59.7915 0.0000 23.9420 0.0000
# 2 54.9087 77.7691 57.5690 0.0000 7.5294 0.0000
# 3 59.7915 57.5690 115.0621 0.0000 25.4786 0.0000
# 4 0.0000 0.0000 0.0000 -81.8881 0.0000 103.6731
# 5 23.9420 7.5294 25.4786 0.0000 27.4990 0.0000
# 6 0.0000 0.0000 0.0000 103.6731 0.0000 -118.4384
#
#
#
# Elastic Compliance Matrix: (Units=1/GPa)
#
#
# Indices 1 2 3 4 5 6 
#
# 1 0.022019 -0.012712 -0.002023 0.000000 -0.013816 0.000000
# 2 -0.012712 0.028294 -0.010425 0.000000 0.012979 0.000000
# 3 -0.002023 -0.010425 0.017533 0.000000 -0.011629 0.000000
# 4 0.000000 0.000000 0.000000 0.112861 0.000000 0.098791
# 5 -0.013816 0.012979 -0.011629 0.000000 0.055615 0.000000
# 6 0.000000 0.000000 0.000000 0.098791 0.000000 0.078032
#
#
# Mechanical properties :
#
#
# Convention : Reuss Voigt Hill
#
# Bulk Modulus (GPa) = 57.05196 70.55534 63.80365
# Shear Modulus (GPa) = 13.49469 -26.68611 -6.59571
#
# Velocity S-wave (km/s) = 2.92401 -4.11187 -2.04422
# Velocity P-wave (km/s) = 6.89537 4.70727 5.90358
#
# Compressibility (1/GPa) = 0.01752788
#
# Stress axis : x y z
#
# Youngs Moduli (GPa) = 45.41452 35.34319 57.03508
#
# Poissons Ratio (x) = 0.44927 0.11537
# Poissons Ratio (y) = 0.57729 0.59458
# Poissons Ratio (z) = 0.09187 0.36845
#
# Static dielectric constant tensor:
#      x y z
#    x 1.525300 0.000000 0.038950 
#    y 0.000000 1.523680 0.000000 
#    z 0.038950 0.000000 1.539040 
# 
# From -- ./inp_files/65794.got.cif
#   From: 2010.05.17/outbox.cif.g08.bks.cpg/sg10_33_cif.got.tgz:65794.got - 2010.06.03 11:33:40.
