data_PCOD9154463
_publ_section_title
;
Structure prediction by ZEFSAII (Michael W. Deem and Ramdas Pophale) SiO2 
 PCOD9154463
Probable space group: P 2/M
;
_chemical_formula_sum "Si O2"
_cell_formula_units_Z 20
_cell_length_a 7.337108
_cell_length_b 23.928281
_cell_length_c 8.667348
_cell_angle_alpha 90.000000
_cell_angle_beta 36.129423
_cell_angle_gamma 90.000000
_cell_volume 897.198161
_symmetry_space_group_name_H-M "P 2/M"
_symmetry_group_IT_number 10
_symmetry_cell_setting 'monoclinic'
loop_
_space_group_symop_operation_xyz
x,y,z
-x,y,-z
-x,-y,-z
x,-y,z
loop_
_atom_site_type_symbol
_atom_site_label
_atom_site_fract_x
_atom_site_fract_y
_atom_site_fract_z
Si Si1 0.815447 0.679224 0.882167
Si Si2 0.191335 0.063150 0.031677
Si Si3 0.130333 0.438497 0.238303
Si Si4 0.309904 0.128802 0.467013
Si Si5 0.596147 0.746201 0.611220
O O1 0.686735 0.715242 0.111740
O O2 0.500000 0.674836 0.000000
O O3 0.931608 0.615509 0.825185
O O4 0.088116 0.711053 0.607807
O O5 0.025938 0.107503 0.255450
O O6 0.183681 0.000000 0.096881
O O7 0.526989 0.084277 0.754640
O O8 0.000000 0.062895 0.000000
O O9 0.013955 0.500000 0.267683
O O10 0.000000 0.427516 0.500000
O O11 0.500000 0.442682 0.000000
O O12 0.500000 0.128979 0.500000
O O13 0.339637 0.190767 0.377682
O O14 0.500000 0.750589 0.500000
#
# Coordination Sequence:
#
# PCOD9154463 Si02
#       5
#     4   4   4   4   4
#     4  11  21  36  57  82 108 137 182 230 264 306
#     4   9  15  24  40  63  93 127 164 210 260 305
#     4   9  17  31  53  80 106 134 173 222 271 313
#     4   9  17  28  42  64  96 134 169 202 254 319
#     4  11  22  36  54  77 112 151 179 211 266 331
#
# _framework density 22.291622
#
# number of rings (size 3 to 8) (size 9 to 14) (size 15 to 20)
#    0.000    2.200    0.000    5.400    0.000    5.600 
#    0.000    0.000    0.000    3.600    0.000    0.000 
#    0.000   56.000    0.000    0.000    0.000    0.000 
#
# Total GULP energy -111647.853982 kJ/mol
# GULP energy per Si atom -5582.392699 kJ/mol
# Density = 2.224088 g / cm^3
# Si number density = 22.291622 Si / 1000 Ang^3
#
#
#
# Elastic Constant Matrix: (Units=GPa)
#
#
# Indices 1 2 3 4 5 6 
#
# 1 39.0338 -2.6642 -4.4621 0.0000 -3.8662 0.0000
# 2 -2.6642 184.1070 50.4386 0.0000 11.0592 0.0000
# 3 -4.4621 50.4386 140.8957 0.0000 -3.4741 0.0000
# 4 0.0000 0.0000 0.0000 40.6429 0.0000 0.7357
# 5 -3.8662 11.0592 -3.4741 0.0000 19.5096 0.0000
# 6 0.0000 0.0000 0.0000 0.7357 0.0000 6.6033
#
#
#
# Elastic Compliance Matrix: (Units=1/GPa)
#
#
# Indices 1 2 3 4 5 6 
#
# 1 0.026271 -0.000241 0.001055 0.000000 0.005530 0.000000
# 2 -0.000241 0.006321 -0.002370 0.000000 -0.004053 0.000000
# 3 0.001055 -0.002370 0.008053 0.000000 0.002987 0.000000
# 4 0.000000 0.000000 0.000000 0.024654 0.000000 -0.002747
# 5 0.005530 -0.004053 0.002987 0.000000 0.055182 0.000000
# 6 0.000000 0.000000 0.000000 -0.002747 0.000000 0.151746
#
#
# Mechanical properties :
#
#
# Convention : Reuss Voigt Hill
#
# Bulk Modulus (GPa) = 26.64443 50.07344 38.35894
# Shear Modulus (GPa) = 17.37008 34.73277 26.05143
#
# Velocity S-wave (km/s) = 2.79448 3.95157 3.42228
# Velocity P-wave (km/s) = 4.73189 6.58267 5.73247
#
# Compressibility (1/GPa) = 0.03753130
#
# Stress axis : x y z
#
# Youngs Moduli (GPa) = 38.06517 158.20290 124.17648
#
# Poissons Ratio (x) = 0.03812 -0.13096
# Poissons Ratio (y) = 0.00917 0.29435
# Poissons Ratio (z) = -0.04014 0.37500
#
# Static dielectric constant tensor:
#      x y z
#    x 1.905160 0.000000 0.034410 
#    y 0.000000 1.868280 0.000000 
#    z 0.034410 0.000000 1.776100 
# 
# From -- ./inp_files/15271.got.cif
#   From: 2010.05.17/outbox.cif.g08.bks.cpg/sg10_8_cif.got.tgz:15271.got - 2010.06.03 11:33:40.
