data_PCOD9154759
_publ_section_title
;
Structure prediction by ZEFSAII (Michael W. Deem and Ramdas Pophale) SiO2 
 PCOD9154759
Probable space group: P 2/M
;
_chemical_formula_sum "Si O2"
_cell_formula_units_Z 18
_cell_length_a 5.609052
_cell_length_b 20.331689
_cell_length_c 9.575593
_cell_angle_alpha 90.000000
_cell_angle_beta 53.056353
_cell_angle_gamma 90.000000
_cell_volume 872.767910
_symmetry_space_group_name_H-M "P 2/M"
_symmetry_group_IT_number 10
_symmetry_cell_setting 'monoclinic'
loop_
_space_group_symop_operation_xyz
x,y,z
-x,y,-z
-x,-y,-z
x,-y,z
loop_
_atom_site_type_symbol
_atom_site_label
_atom_site_fract_x
_atom_site_fract_y
_atom_site_fract_z
Si Si1 0.000000 0.626501 0.000000
Si Si2 0.000000 0.310328 0.500000
Si Si3 0.147918 0.743495 0.154533
Si Si4 0.141296 0.000000 0.605340
Si Si5 0.137951 0.108179 0.100088
Si Si6 0.452027 0.428551 0.349849
O O1 0.736853 0.581454 0.150868
O O2 0.051363 0.677851 0.107808
O O3 0.964095 0.266358 0.648925
O O4 0.729649 0.361752 0.605400
O O5 0.041911 0.815251 0.144483
O O6 0.500000 0.745277 0.000000
O O7 0.500000 0.000000 0.500000
O O8 0.000000 0.000000 0.500000
O O9 0.012746 0.063891 0.729207
O O10 0.500000 0.103721 0.000000
O O11 0.000000 0.085043 0.000000
O O12 0.500000 0.431037 0.500000
O O13 0.319234 0.500000 0.357052
#
# Coordination Sequence:
#
# PCOD9154759 Si02
#       6
#     2   2   4   2   4   4
#     4  12  21  44  62  93 126 170 220 280 336 409
#     4  12  23  42  64  93 130 172 218 286 338 403
#     4  11  24  41  67  97 133 171 227 276 348 403
#     4  12  26  46  70 110 148 182 232 286 338 404
#     4  11  24  46  73 101 139 190 233 278 343 414
#     4  11  24  40  62  92 127 169 219 277 342 410
#
# _framework density 20.624040000000001
#
# number of rings (size 3 to 8) (size 9 to 14) (size 15 to 20)
#    0.000    0.667    5.556    2.667    1.556    0.000 
#    4.000    1.111    0.000    0.000    0.000    0.000 
#    0.000    0.000    0.000    0.000    0.000    0.000 
#
# Total GULP energy -100352.025334 kJ/mol
# GULP energy per Si atom -5575.112519 kJ/mol
# Density = 2.057710 g / cm^3
# Si number density = 20.624040 Si / 1000 Ang^3
#
#
#
# Elastic Constant Matrix: (Units=GPa)
#
#
# Indices 1 2 3 4 5 6 
#
# 1 88.4931 31.1974 61.6990 0.0000 8.8620 0.0000
# 2 31.1974 118.0352 48.8716 0.0000 0.4939 0.0000
# 3 61.6990 48.8716 177.5433 0.0000 6.8608 0.0000
# 4 0.0000 0.0000 0.0000 49.6011 0.0000 3.4934
# 5 8.8620 0.4939 6.8608 0.0000 47.1682 0.0000
# 6 0.0000 0.0000 0.0000 3.4934 0.0000 45.2994
#
#
#
# Elastic Compliance Matrix: (Units=1/GPa)
#
#
# Indices 1 2 3 4 5 6 
#
# 1 0.015583 -0.002147 -0.004739 0.000000 -0.002216 0.000000
# 2 -0.002147 0.009862 -0.001991 0.000000 0.000590 0.000000
# 3 -0.004739 -0.001991 0.007836 0.000000 -0.000229 0.000000
# 4 0.000000 0.000000 0.000000 0.020271 0.000000 -0.001563
# 5 -0.002216 0.000590 -0.000229 0.000000 0.021644 0.000000
# 6 0.000000 0.000000 0.000000 -0.001563 0.000000 0.022196
#
#
# Mechanical properties :
#
#
# Convention : Reuss Voigt Hill
#
# Bulk Modulus (GPa) = 64.40602 74.17860 69.29231
# Shear Modulus (GPa) = 41.55529 44.56731 43.06130
#
# Velocity S-wave (km/s) = 4.49363 4.65363 4.57433
# Velocity P-wave (km/s) = 7.63020 8.05731 7.84666
#
# Compressibility (1/GPa) = 0.01552650
#
# Stress axis : x y z
#
# Youngs Moduli (GPa) = 64.17182 101.40391 127.61479
#
# Poissons Ratio (x) = 0.21776 0.60472
# Poissons Ratio (y) = 0.13781 0.25409
# Poissons Ratio (z) = 0.30409 0.20190
#
# Static dielectric constant tensor:
#      x y z
#    x 1.841080 0.000000 0.021520 
#    y 0.000000 1.709900 0.000000 
#    z 0.021520 0.000000 1.703990 
# 
# From -- ./inp_files/4598.got.cif
#   From: 2010.05.17/outbox.cif.g08.bks.cpg/sg10_3_cif.got.tgz:4598.got - 2010.06.03 11:33:40.
