data_PCOD9154814
_publ_section_title
;
Structure prediction by ZEFSAII (Michael W. Deem and Ramdas Pophale) SiO2 
 PCOD9154814
Probable space group: P 2/M
;
_chemical_formula_sum "Si O2"
_cell_formula_units_Z 13
_cell_length_a 5.268333
_cell_length_b 18.598735
_cell_length_c 4.936218
_cell_angle_alpha 90.000000
_cell_angle_beta 92.649757
_cell_angle_gamma 90.000000
_cell_volume 483.154868
_symmetry_space_group_name_H-M "P 2/M"
_symmetry_group_IT_number 10
_symmetry_cell_setting 'monoclinic'
loop_
_space_group_symop_operation_xyz
x,y,z
-x,y,-z
-x,-y,-z
x,-y,z
loop_
_atom_site_type_symbol
_atom_site_label
_atom_site_fract_x
_atom_site_fract_y
_atom_site_fract_z
Si Si1 0.757212 0.423340 0.689241
Si Si2 0.758053 0.730581 0.687587
Si Si3 0.000000 0.000000 0.500000
Si Si4 0.322673 0.113152 0.224157
O O1 0.500000 0.423572 0.500000
O O2 0.759571 0.500000 0.842152
O O3 0.761517 0.346467 0.839036
O O4 0.000000 0.423009 0.500000
O O5 0.500000 0.729868 0.500000
O O6 0.750139 0.804867 0.849183
O O7 0.000000 0.734218 0.500000
O O8 0.907161 0.936955 0.706748
O O9 0.500000 0.113646 0.500000
O O10 0.500000 0.082798 0.000000
#
# Coordination Sequence:
#
# PCOD9154814 Si02
#       4
#     4   4   1   4
#     4   8  13  22  43  74 111 154 201 251 307 367
#     4   9  17  34  54  84 122 163 209 261 316 381
#     4  12  24  46  68  96 126 170 212 274 322 398
#     4  11  25  43  65  95 129 168 215 267 326 391
#
# _framework density 26.906486000000001
#
# number of rings (size 3 to 8) (size 9 to 14) (size 15 to 20)
#    0.000    2.462    1.538    0.923    0.000    2.462 
#    0.000    0.000    0.000    0.923    0.000    0.000 
#    0.000   36.923    0.000    0.000    0.000    7.385 
#
# Total GULP energy -72519.825477 kJ/mol
# GULP energy per Si atom -5578.448114 kJ/mol
# Density = 2.684525 g / cm^3
# Si number density = 26.906486 Si / 1000 Ang^3
#
#
#
# Elastic Constant Matrix: (Units=GPa)
#
#
# Indices 1 2 3 4 5 6 
#
# 1 192.2136 -3.2295 48.3148 0.0000 -7.7281 0.0000
# 2 -3.2295 311.9801 36.5524 0.0000 -29.2144 0.0000
# 3 48.3148 36.5524 111.9051 0.0000 -35.3435 0.0000
# 4 0.0000 0.0000 0.0000 9.3222 0.0000 -22.6250
# 5 -7.7281 -29.2144 -35.3435 0.0000 73.3791 0.0000
# 6 0.0000 0.0000 0.0000 -22.6250 0.0000 -98.2268
#
#
#
# Elastic Compliance Matrix: (Units=1/GPa)
#
#
# Indices 1 2 3 4 5 6 
#
# 1 0.005901 0.000337 -0.002853 0.000000 -0.000618 0.000000
# 2 0.000337 0.003409 -0.000966 0.000000 0.000927 0.000000
# 3 -0.002853 -0.000966 0.012109 0.000000 0.005147 0.000000
# 4 0.000000 0.000000 0.000000 0.068806 0.000000 -0.015848
# 5 -0.000618 0.000927 0.005147 0.000000 0.016411 0.000000
# 6 0.000000 0.000000 0.000000 -0.015848 0.000000 -0.006530
#
#
# Mechanical properties :
#
#
# Convention : Reuss Voigt Hill
#
# Bulk Modulus (GPa) = 69.18104 86.59713 77.88908
# Shear Modulus (GPa) = 44.68740 32.52562 38.60651
#
# Velocity S-wave (km/s) = 4.07976 3.48061 3.79204
# Velocity P-wave (km/s) = 6.92532 6.95753 6.94144
#
# Compressibility (1/GPa) = 0.01445483
#
# Stress axis : x y z
#
# Youngs Moduli (GPa) = 169.47716 293.35217 82.58125
#
# Poissons Ratio (x) = -0.09899 0.23561
# Poissons Ratio (y) = -0.05719 0.07980
# Poissons Ratio (z) = 0.48353 0.28346
#
# Static dielectric constant tensor:
#      x y z
#    x 2.126010 0.000000 0.044760 
#    y 0.000000 2.142630 0.000000 
#    z 0.044760 0.000000 1.958760 
# 
# From -- ./inp_files/843.got.cif
#   From: 2010.05.17/outbox.cif.g08.bks.cpg/sg10_1_cif.got.tgz:843.got - 2010.06.03 11:33:40.
