data_PCOD9154094
_publ_section_title
;
Structure prediction by ZEFSAII (Michael W. Deem and Ramdas Pophale) SiO2 
 PCOD9154094
Probable space group: P 2/M
;
_chemical_formula_sum "Si O2"
_cell_formula_units_Z 28
_cell_length_a 17.252593
_cell_length_b 14.054651
_cell_length_c 9.600550
_cell_angle_alpha 90.000000
_cell_angle_beta 42.285814
_cell_angle_gamma 90.000000
_cell_volume 1566.301973
_symmetry_space_group_name_H-M "P 2/M"
_symmetry_group_IT_number 10
_symmetry_cell_setting 'monoclinic'
loop_
_space_group_symop_operation_xyz
x,y,z
-x,y,-z
-x,-y,-z
x,-y,z
loop_
_atom_site_type_symbol
_atom_site_label
_atom_site_fract_x
_atom_site_fract_y
_atom_site_fract_z
Si Si1 0.033916 0.111285 0.611786
Si Si2 0.332658 0.389100 0.339539
Si Si3 0.462104 0.113576 0.204968
Si Si4 0.818374 0.887749 0.105962
Si Si5 0.598657 0.388835 0.069752
Si Si6 0.602891 0.218359 0.254316
Si Si7 0.788338 0.794941 0.429306
O O1 0.000000 0.137224 0.500000
O O2 0.134784 0.174003 0.542655
O O3 0.070724 0.000000 0.562764
O O4 0.922398 0.119008 0.858532
O O5 0.303907 0.500000 0.396880
O O6 0.460711 0.373823 0.232867
O O7 0.243104 0.316057 0.524470
O O8 0.345980 0.370864 0.155852
O O9 0.549347 0.154927 0.202073
O O10 0.334988 0.152754 0.400410
O O11 0.461752 0.000000 0.212910
O O12 0.500000 0.143495 0.000000
O O13 0.705591 0.837791 0.192014
O O14 0.846602 0.833676 0.211601
O O15 0.797352 0.000000 0.161647
O O16 0.616396 0.500000 0.079933
O O17 0.640863 0.316500 0.130800
O O18 0.500000 0.236875 0.500000
#
# Coordination Sequence:
#
# PCOD9154094 Si02
#       7
#     4   4   4   4   4   4   4
#     4  10  24  42  61  86 111 151 204 248 286 339
#     4   9  18  34  59  88 115 148 194 245 291 345
#     4  11  23  34  52  84 118 153 190 236 288 346
#     4  11  24  40  58  83 122 162 194 236 287 348
#     4   9  18  34  55  83 120 156 193 235 289 348
#     4  12  22  35  55  87 124 156 188 235 291 353
#     4  12  21  38  63  84 113 155 199 240 290 354
#
# _framework density 17.876501000000001
#
# number of rings (size 3 to 8) (size 9 to 14) (size 15 to 20)
#    0.000    1.429    2.857    3.857    4.000    2.000 
#    0.000    0.714    0.000    3.000    0.000    0.000 
#    0.000    0.000    0.000    0.000    0.000    0.000 
#
# Total GULP energy -156464.006816 kJ/mol
# GULP energy per Si atom -5588.000243 kJ/mol
# Density = 1.783581 g / cm^3
# Si number density = 17.876501 Si / 1000 Ang^3
#
#
#
# Elastic Constant Matrix: (Units=GPa)
#
#
# Indices 1 2 3 4 5 6 
#
# 1 79.8522 39.2060 15.1148 0.0000 10.2976 0.0000
# 2 39.2060 111.0375 35.2510 0.0000 11.0704 0.0000
# 3 15.1148 35.2510 48.0948 0.0000 15.6451 0.0000
# 4 0.0000 0.0000 0.0000 3.1195 0.0000 19.0575
# 5 10.2976 11.0704 15.6451 0.0000 27.4183 0.0000
# 6 0.0000 0.0000 0.0000 19.0575 0.0000 -3.3155
#
#
#
# Elastic Compliance Matrix: (Units=1/GPa)
#
#
# Indices 1 2 3 4 5 6 
#
# 1 0.015515 -0.005140 0.000137 0.000000 -0.003830 0.000000
# 2 -0.005140 0.013441 -0.008717 0.000000 0.001477 0.000000
# 3 0.000137 -0.008717 0.031938 0.000000 -0.014756 0.000000
# 4 0.000000 0.000000 0.000000 0.008876 0.000000 0.051020
# 5 -0.003830 0.001477 -0.014756 0.000000 0.045734 0.000000
# 6 0.000000 0.000000 0.000000 0.051020 0.000000 -0.008351
#
#
# Mechanical properties :
#
#
# Convention : Reuss Voigt Hill
#
# Bulk Modulus (GPa) = 29.89073 46.45868 38.17470
# Shear Modulus (GPa) = 34.30717 15.40531 24.85624
#
# Velocity S-wave (km/s) = 4.38553 2.93877 3.73291
# Velocity P-wave (km/s) = 6.51159 6.12864 6.32302
#
# Compressibility (1/GPa) = 0.03345519
#
# Stress axis : x y z
#
# Youngs Moduli (GPa) = 64.45552 74.40072 31.31050
#
# Poissons Ratio (x) = 0.38240 -0.00430
# Poissons Ratio (y) = 0.33128 0.27292
# Poissons Ratio (z) = -0.00885 0.64853
#
# Static dielectric constant tensor:
#      x y z
#    x 1.588480 0.000000 0.024450 
#    y 0.000000 1.615370 0.000000 
#    z 0.024450 0.000000 1.615720 
# 
# From -- ./inp_files/24935.got.cif
#   From: 2010.05.17/outbox.cif.g08.bks.cpg/sg10_13_cif.got.tgz:24935.got - 2010.06.03 11:33:40.
