data_PCOD9154477
_publ_section_title
;
Structure prediction by ZEFSAII (Michael W. Deem and Ramdas Pophale) SiO2 
 PCOD9154477
Probable space group: P 2/M
;
_chemical_formula_sum "Si O2"
_cell_formula_units_Z 20
_cell_length_a 11.855177
_cell_length_b 12.415216
_cell_length_c 18.447099
_cell_angle_alpha 90.000000
_cell_angle_beta 158.810433
_cell_angle_gamma 90.000000
_cell_volume 981.396249
_symmetry_space_group_name_H-M "P 2/M"
_symmetry_group_IT_number 10
_symmetry_cell_setting 'monoclinic'
loop_
_space_group_symop_operation_xyz
x,y,z
-x,y,-z
-x,-y,-z
x,-y,z
loop_
_atom_site_type_symbol
_atom_site_label
_atom_site_fract_x
_atom_site_fract_y
_atom_site_fract_z
Si Si1 0.241680 0.615976 0.407752
Si Si2 0.692608 0.225612 0.048903
Si Si3 0.667698 0.692308 0.781032
Si Si4 0.779305 0.123328 0.727708
Si Si5 0.362786 0.626937 0.737831
O O1 0.500000 0.632867 0.500000
O O2 0.094496 0.500000 0.306374
O O3 0.436740 0.617922 0.597733
O O4 0.978565 0.704418 0.251532
O O5 0.887623 0.149446 0.110910
O O6 0.500000 0.174487 0.000000
O O7 0.466397 0.310735 0.872452
O O8 0.723374 0.794690 0.761323
O O9 0.513969 0.702765 0.766737
O O10 0.000000 0.642764 0.000000
O O11 0.500000 0.133925 0.500000
O O12 0.773732 0.000000 0.749453
O O13 0.466830 0.500000 0.800152
O O14 0.000000 0.624867 0.500000
#
# Coordination Sequence:
#
# PCOD9154477 Si02
#       5
#     4   4   4   4   4
#     4  11  21  36  60  91 126 166 212 252 302 375
#     4  12  23  42  66  90 129 169 218 262 311 374
#     4  12  21  40  64  93 126 162 205 260 319 372
#     4  11  24  46  70  93 120 160 217 272 324 373
#     4  11  25  41  61  95 136 173 204 248 313 378
#
# _framework density 20.379128000000001
#
# number of rings (size 3 to 8) (size 9 to 14) (size 15 to 20)
#    0.000    0.600    6.000    2.400    0.000    7.200 
#    0.000    0.000    0.000    1.200    0.000    0.000 
#    0.000    0.000    0.000    0.000    0.000    0.000 
#
# Total GULP energy -111515.867980 kJ/mol
# GULP energy per Si atom -5575.793399 kJ/mol
# Density = 2.033274 g / cm^3
# Si number density = 20.379128 Si / 1000 Ang^3
#
#
#
# Elastic Constant Matrix: (Units=GPa)
#
#
# Indices 1 2 3 4 5 6 
#
# 1 101.2684 14.7900 -0.8390 0.0000 7.1488 0.0000
# 2 14.7900 82.3316 -4.5770 0.0000 6.6673 0.0000
# 3 -0.8390 -4.5770 94.5469 0.0000 -7.7945 0.0000
# 4 0.0000 0.0000 0.0000 79.1081 0.0000 -25.7251
# 5 7.1488 6.6673 -7.7945 0.0000 34.0053 0.0000
# 6 0.0000 0.0000 0.0000 -25.7251 0.0000 28.0106
#
#
#
# Elastic Compliance Matrix: (Units=1/GPa)
#
#
# Indices 1 2 3 4 5 6 
#
# 1 0.010253 -0.001700 -0.000144 0.000000 -0.001855 0.000000
# 2 -0.001700 0.012639 0.000430 0.000000 -0.002022 0.000000
# 3 -0.000144 0.000430 0.010796 0.000000 0.002421 0.000000
# 4 0.000000 0.000000 0.000000 0.018024 0.000000 0.016553
# 5 -0.001855 -0.002022 0.002421 0.000000 0.030749 0.000000
# 6 0.000000 0.000000 0.000000 0.016553 0.000000 0.050903
#
#
# Mechanical properties :
#
#
# Convention : Reuss Voigt Hill
#
# Bulk Modulus (GPa) = 32.40435 32.98833 32.69634
# Shear Modulus (GPa) = 34.13497 46.14299 40.13898
#
# Velocity S-wave (km/s) = 4.09711 4.76355 4.44285
# Velocity P-wave (km/s) = 6.19008 6.81746 6.51133
#
# Compressibility (1/GPa) = 0.03086006
#
# Stress axis : x y z
#
# Youngs Moduli (GPa) = 97.53498 79.12022 92.62819
#
# Poissons Ratio (x) = 0.13447 0.01336
# Poissons Ratio (y) = 0.16577 -0.03984
# Poissons Ratio (z) = 0.01407 -0.03403
#
# Static dielectric constant tensor:
#      x y z
#    x 1.730030 0.000000 0.586850 
#    y 0.000000 1.721000 0.000000 
#    z 0.586850 0.000000 -2.363760 
# 
# From -- ./inp_files/76947.got.cif
#   From: 2010.05.17/outbox.cif.g08.bks.cpg/sg10_39_cif.got.tgz:76947.got - 2010.06.03 11:33:40.
