data_PCOD9154302
_publ_section_title
;
Structure prediction by ZEFSAII (Michael W. Deem and Ramdas Pophale) SiO2 
 PCOD9154302
Probable space group: P 2/M
;
_chemical_formula_sum "Si O2"
_cell_formula_units_Z 28
_cell_length_a 10.180359
_cell_length_b 11.016159
_cell_length_c 15.152235
_cell_angle_alpha 90.000000
_cell_angle_beta 69.637800
_cell_angle_gamma 90.000000
_cell_volume 1593.113456
_symmetry_space_group_name_H-M "P 2/M"
_symmetry_group_IT_number 10
_symmetry_cell_setting 'monoclinic'
loop_
_space_group_symop_operation_xyz
x,y,z
-x,y,-z
-x,-y,-z
x,-y,z
loop_
_atom_site_type_symbol
_atom_site_label
_atom_site_fract_x
_atom_site_fract_y
_atom_site_fract_z
Si Si1 0.319638 0.757486 0.298786
Si Si2 0.867352 0.500000 0.406803
Si Si3 0.172925 0.243945 0.676639
Si Si4 0.156248 0.146559 0.988090
Si Si5 0.368668 0.852005 0.783219
Si Si6 0.800037 0.500000 0.630465
Si Si7 0.848945 0.140871 0.507727
Si Si8 0.118790 0.855266 0.194030
O O1 0.477852 0.795448 0.243589
O O2 0.279046 0.616747 0.312546
O O3 0.273186 0.803286 0.406012
O O4 0.220608 0.822348 0.250152
O O5 0.823141 0.380080 0.363041
O O6 0.805064 0.500000 0.521438
O O7 0.036617 0.500000 0.378419
O O8 0.294351 0.204017 0.714476
O O9 0.172830 0.160377 0.589809
O O10 0.025786 0.216392 0.759080
O O11 0.272032 0.182434 0.889809
O O12 0.151596 0.000000 0.984239
O O13 0.183961 0.176762 0.083655
O O14 0.000000 0.190549 0.000000
O O15 0.375224 0.000000 0.775513
O O16 0.000000 0.197325 0.500000
O O17 0.854538 0.000000 0.528872
O O18 0.088555 0.000000 0.201866
#
# Coordination Sequence:
#
# PCOD9154302 Si02
#       8
#     4   2   4   4   4   2   4   4
#     4  12  24  39  60  89 126 165 202 254 303 365
#     4  11  22  41  65  88 114 161 228 255 284 351
#     4  12  22  37  62  90 120 162 207 252 296 362
#     4   9  18  35  62  91 123 158 198 251 309 374
#     4  11  24  41  61  94 131 160 196 252 321 372
#     4  11  22  43  63  84 121 166 216 253 295 348
#     4  11  20  33  56  88 119 154 199 251 305 362
#     4  11  20  35  63  95 120 156 206 254 311 367
#
# _framework density 17.575648000000001
#
# number of rings (size 3 to 8) (size 9 to 14) (size 15 to 20)
#    0.000    1.000    5.714    2.571    0.000    1.714 
#    0.000    4.286    0.000    5.143    0.000    0.000 
#    0.000    0.000    0.000    0.000    0.000    0.000 
#
# Total GULP energy -156324.352697 kJ/mol
# GULP energy per Si atom -5583.012596 kJ/mol
# Density = 1.753564 g / cm^3
# Si number density = 17.575648 Si / 1000 Ang^3
#
#
#
# Elastic Constant Matrix: (Units=GPa)
#
#
# Indices 1 2 3 4 5 6 
#
# 1 50.9423 4.3365 -2.4683 0.0000 -14.4287 0.0000
# 2 4.3365 66.3687 5.7583 0.0000 -7.0073 0.0000
# 3 -2.4683 5.7583 75.7350 0.0000 -9.8561 0.0000
# 4 0.0000 0.0000 0.0000 -5.6846 0.0000 -8.3440
# 5 -14.4287 -7.0073 -9.8561 0.0000 31.8248 0.0000
# 6 0.0000 0.0000 0.0000 -8.3440 0.0000 21.8151
#
#
#
# Elastic Compliance Matrix: (Units=1/GPa)
#
#
# Indices 1 2 3 4 5 6 
#
# 1 0.022881 -0.000532 0.002210 0.000000 0.010941 0.000000
# 2 -0.000532 0.015481 -0.000815 0.000000 0.002915 0.000000
# 3 0.002210 -0.000815 0.014010 0.000000 0.005161 0.000000
# 4 0.000000 0.000000 0.000000 -0.112663 0.000000 -0.043092
# 5 0.010941 0.002915 0.005161 0.000000 0.038623 0.000000
# 6 0.000000 0.000000 0.000000 -0.043092 0.000000 0.029358
#
#
# Mechanical properties :
#
#
# Convention : Reuss Voigt Hill
#
# Bulk Modulus (GPa) = 18.48479 23.14433 20.81456
# Shear Modulus (GPa) = 208.37943 21.95237 115.16590
#
# Velocity S-wave (km/s) = 10.90041 3.53798 8.10358
# Velocity P-wave (km/s) = 12.99866 5.46688 9.97126
#
# Compressibility (1/GPa) = 0.05409853
#
# Stress axis : x y z
#
# Youngs Moduli (GPa) = 43.70366 64.59713 71.37952
#
# Poissons Ratio (x) = 0.03434 -0.15775
# Poissons Ratio (y) = 0.02323 0.05817
# Poissons Ratio (z) = -0.09659 0.05264
#
# Static dielectric constant tensor:
#      x y z
#    x 1.605790 0.000000 -0.001740 
#    y 0.000000 1.605960 0.000000 
#    z -0.001740 0.000000 1.593920 
# 
# From -- ./inp_files/28728.got.cif
#   From: 2010.05.17/outbox.cif.g08.bks.cpg/sg10_15_cif.got.tgz:28728.got - 2010.06.03 11:33:40.
