data_PCOD9154103
_publ_section_title
;
Structure prediction by ZEFSAII (Michael W. Deem and Ramdas Pophale) SiO2 
 PCOD9154103
Probable space group: P 2/M
;
_chemical_formula_sum "Si O2"
_cell_formula_units_Z 19
_cell_length_a 5.026109
_cell_length_b 26.880765
_cell_length_c 5.181540
_cell_angle_alpha 90.000000
_cell_angle_beta 93.529018
_cell_angle_gamma 90.000000
_cell_volume 698.727876
_symmetry_space_group_name_H-M "P 2/M"
_symmetry_group_IT_number 10
_symmetry_cell_setting 'monoclinic'
loop_
_space_group_symop_operation_xyz
x,y,z
-x,y,-z
-x,-y,-z
x,-y,z
loop_
_atom_site_type_symbol
_atom_site_label
_atom_site_fract_x
_atom_site_fract_y
_atom_site_fract_z
Si Si1 0.192576 0.704760 0.263737
Si Si2 0.000000 0.000000 0.500000
Si Si3 0.722343 0.922734 0.823103
Si Si4 0.500000 0.627887 0.000000
Si Si5 0.814992 0.815509 0.738485
Si Si6 0.224789 0.441997 0.319921
O O1 0.309589 0.760762 0.274535
O O2 0.000000 0.698126 0.500000
O O3 0.433114 0.666535 0.226130
O O4 0.000000 0.699367 0.000000
O O5 0.792486 0.956531 0.586842
O O6 0.648536 0.865893 0.751779
O O7 0.500000 0.943433 0.000000
O O8 0.000000 0.923186 0.000000
O O9 0.728544 0.588158 0.939870
O O10 0.000000 0.820498 0.500000
O O11 0.000000 0.814543 0.000000
O O12 0.500000 0.439086 0.500000
O O13 0.172132 0.500000 0.263863
O O14 0.000000 0.422091 0.500000
#
# Coordination Sequence:
#
# PCOD9154103 Si02
#       6
#     4   1   4   2   4   4
#     4  10  24  42  66  98 141 184 235 287 351 420
#     4  12  24  46  68 104 132 182 232 298 352 414
#     4  11  25  43  69  99 137 179 232 289 353 419
#     4  12  25  36  70  98 142 179 232 294 348 418
#     4   9  19  43  66  97 136 185 233 286 347 423
#     4  10  24  45  69  99 137 183 234 288 351 420
#
# _framework density 27.192274999999999
#
# number of rings (size 3 to 8) (size 9 to 14) (size 15 to 20)
#    0.000    1.684    1.053    1.579    7.368    1.684 
#    0.000    3.158    0.000    0.000    0.000    0.000 
#    0.000    0.000    0.000    0.000    0.000    0.000 
#
# Total GULP energy -106108.156903 kJ/mol
# GULP energy per Si atom -5584.639837 kJ/mol
# Density = 2.713038 g / cm^3
# Si number density = 27.192275 Si / 1000 Ang^3
#
#
#
# Elastic Constant Matrix: (Units=GPa)
#
#
# Indices 1 2 3 4 5 6 
#
# 1 141.8090 25.0598 74.6029 0.0000 -30.8046 0.0000
# 2 25.0598 236.6754 48.6877 0.0000 -55.7346 0.0000
# 3 74.6029 48.6877 208.3038 0.0000 -37.1835 0.0000
# 4 0.0000 0.0000 0.0000 39.0508 0.0000 -42.1754
# 5 -30.8046 -55.7346 -37.1835 0.0000 84.7573 0.0000
# 6 0.0000 0.0000 0.0000 -42.1754 0.0000 -1.8989
#
#
#
# Elastic Compliance Matrix: (Units=1/GPa)
#
#
# Indices 1 2 3 4 5 6 
#
# 1 0.008998 0.000133 -0.002880 0.000000 0.002094 0.000000
# 2 0.000133 0.005079 -0.000683 0.000000 0.003088 0.000000
# 3 -0.002880 -0.000683 0.006211 0.000000 0.001229 0.000000
# 4 0.000000 0.000000 0.000000 0.001025 0.000000 -0.022762
# 5 0.002094 0.003088 0.001229 0.000000 0.015129 0.000000
# 6 0.000000 0.000000 0.000000 -0.022762 0.000000 -0.021075
#
#
# Mechanical properties :
#
#
# Convention : Reuss Voigt Hill
#
# Bulk Modulus (GPa) = 74.47400 98.16543 86.31972
# Shear Modulus (GPa) = 187.23676 53.61102 120.42389
#
# Velocity S-wave (km/s) = 8.30699 4.44503 6.66200
# Velocity P-wave (km/s) = 10.92957 7.90717 9.53884
#
# Compressibility (1/GPa) = 0.01342750
#
# Stress axis : x y z
#
# Youngs Moduli (GPa) = 111.13273 196.88986 160.99991
#
# Poissons Ratio (x) = -0.02616 0.46366
# Poissons Ratio (y) = -0.01477 0.11003
# Poissons Ratio (z) = 0.32005 0.13456
#
# Static dielectric constant tensor:
#      x y z
#    x 2.231980 0.000000 0.111860 
#    y 0.000000 2.114780 0.000000 
#    z 0.111860 0.000000 2.067060 
# 
# From -- ./inp_files/2055.got.cif
#   From: 2010.05.17/outbox.cif.g08.bks.cpg/sg10_2_cif.got.tgz:2055.got - 2010.06.03 11:33:40.
