data_PCOD9154999
_publ_section_title
;
Structure prediction by ZEFSAII (Michael W. Deem and Ramdas Pophale) SiO2 
 PCOD9154999
Probable space group: P 2/M
;
_chemical_formula_sum "Si O2"
_cell_formula_units_Z 32
_cell_length_a 12.162555
_cell_length_b 7.436876
_cell_length_c 18.969780
_cell_angle_alpha 90.000000
_cell_angle_beta 89.945053
_cell_angle_gamma 90.000000
_cell_volume 1715.842623
_symmetry_space_group_name_H-M "P 2/M"
_symmetry_group_IT_number 10
_symmetry_cell_setting 'monoclinic'
loop_
_space_group_symop_operation_xyz
x,y,z
-x,y,-z
-x,-y,-z
x,-y,z
loop_
_atom_site_type_symbol
_atom_site_label
_atom_site_fract_x
_atom_site_fract_y
_atom_site_fract_z
Si Si1 0.372346 0.783887 0.575958
Si Si2 0.372006 0.216081 0.424503
Si Si3 0.235925 0.280141 0.863687
Si Si4 0.374689 0.287681 0.731469
Si Si5 0.625638 0.719121 0.999770
Si Si6 0.235477 0.719857 0.136715
Si Si7 0.373619 0.712385 0.268986
Si Si8 0.000070 0.719527 0.917680
O O1 0.500178 0.723790 0.576703
O O2 0.324771 0.722755 0.500300
O O3 0.327896 0.732234 0.652353
O O4 0.372356 0.000000 0.574719
O O5 0.327160 0.267434 0.348225
O O6 0.372112 0.000000 0.425844
O O7 0.233922 0.500000 0.862505
O O8 0.294539 0.217133 0.792125
O O9 0.111328 0.222446 0.878758
O O10 0.309805 0.225926 0.930352
O O11 0.384773 0.500000 0.744467
O O12 0.500530 0.213978 0.733952
O O13 0.624799 0.500000 0.999763
O O14 0.689944 0.774091 0.929723
O O15 0.500000 0.779443 0.000000
O O16 0.233431 0.500000 0.137876
O O17 0.293400 0.782809 0.208442
O O18 0.111043 0.777599 0.121264
O O19 0.383586 0.500000 0.256112
O O20 0.000038 0.500000 0.918576
O O21 0.000000 0.774657 0.000000
#
# Coordination Sequence:
#
# PCOD9154999 Si02
#       8
#     4   4   4   4   4   4   4   4
#     4   8  14  25  40  57  78 105 134 159 186 229
#     4   8  14  25  40  57  78 105 134 159 186 229
#     4   9  15  22  32  49  74 103 134 164 195 229
#     4   9  16  24  35  56  85 108 126 156 199 240
#     4   9  14  19  29  45  70 103 131 156 192 235
#     4   9  15  22  32  49  74 103 134 164 195 229
#     4   9  16  24  35  56  85 108 126 156 199 240
#     4   9  14  22  34  48  70 103 138 170 197 225
#
# _framework density 18.649730999999999
#
# number of rings (size 3 to 8) (size 9 to 14) (size 15 to 20)
#    0.000    3.250    1.250    1.500    0.000    3.500 
#    0.000    2.500    0.000    0.000    0.000    2.625 
#    0.000   13.000    0.000    0.000    0.000    0.000 
#
# Total GULP energy -178262.878959 kJ/mol
# GULP energy per Si atom -5570.714967 kJ/mol
# Density = 1.860728 g / cm^3
# Si number density = 18.649731 Si / 1000 Ang^3
#
#
#
# Elastic Constant Matrix: (Units=GPa)
#
#
# Indices 1 2 3 4 5 6 
#
# 1 129.3444 5.2228 95.9474 0.0000 1.0415 0.0000
# 2 5.2228 54.7419 2.0003 0.0000 0.0754 0.0000
# 3 95.9474 2.0003 215.6537 0.0000 1.4299 0.0000
# 4 0.0000 0.0000 0.0000 34.4121 0.0000 0.0757
# 5 1.0415 0.0754 1.4299 0.0000 2.0145 0.0000
# 6 0.0000 0.0000 0.0000 0.0757 0.0000 -5.1752
#
#
#
# Elastic Compliance Matrix: (Units=1/GPa)
#
#
# Indices 1 2 3 4 5 6 
#
# 1 0.011596 -0.000916 -0.005136 0.000000 -0.002316 0.000000
# 2 -0.000916 0.018347 0.000240 0.000000 -0.000384 0.000000
# 3 -0.005136 0.000240 0.006935 0.000000 -0.002276 0.000000
# 4 0.000000 0.000000 0.000000 0.029059 0.000000 0.000425
# 5 -0.002316 -0.000384 -0.002276 0.000000 0.499221 0.000000
# 6 0.000000 0.000000 0.000000 0.000425 0.000000 -0.193223
#
#
# Mechanical properties :
#
#
# Convention : Reuss Voigt Hill
#
# Bulk Modulus (GPa) = 39.59594 67.34232 53.46913
# Shear Modulus (GPa) = 12.75588 26.02158 19.38873
#
# Velocity S-wave (km/s) = 2.61812 3.73940 3.22782
# Velocity P-wave (km/s) = 5.51515 7.40483 6.52872
#
# Compressibility (1/GPa) = 0.02525511
#
# Stress axis : x y z
#
# Youngs Moduli (GPa) = 86.23298 54.50582 144.19960
#
# Poissons Ratio (x) = 0.04990 0.74055
# Poissons Ratio (y) = 0.07895 -0.03457
# Poissons Ratio (z) = 0.44286 -0.01307
#
# Static dielectric constant tensor:
#      x y z
#    x 1.610540 0.000000 0.000270 
#    y 0.000000 1.715620 0.000000 
#    z 0.000270 0.000000 1.672640 
# 
# From -- ./inp_files/53235.got.cif
#   From: 2010.05.17/outbox.cif.g08.bks.cpg/sg10_27_cif.got.tgz:53235.got - 2010.06.03 11:33:40.
