data_PCOD9154549
_publ_section_title
;
Structure prediction by ZEFSAII (Michael W. Deem and Ramdas Pophale) SiO2 
 PCOD9154549
Probable space group: P 2/M
;
_chemical_formula_sum "Si O2"
_cell_formula_units_Z 32
_cell_length_a 10.979864
_cell_length_b 9.364923
_cell_length_c 20.217322
_cell_angle_alpha 90.000000
_cell_angle_beta 135.011309
_cell_angle_gamma 90.000000
_cell_volume 1469.684332
_symmetry_space_group_name_H-M "P 2/M"
_symmetry_group_IT_number 10
_symmetry_cell_setting 'monoclinic'
loop_
_space_group_symop_operation_xyz
x,y,z
-x,y,-z
-x,-y,-z
x,-y,z
loop_
_atom_site_type_symbol
_atom_site_label
_atom_site_fract_x
_atom_site_fract_y
_atom_site_fract_z
Si Si1 0.205509 0.831182 0.524602
Si Si2 0.856490 0.829584 0.137338
Si Si3 0.788610 0.332505 0.984536
Si Si4 0.695501 0.335367 0.805715
Si Si5 0.130036 0.827052 0.356056
Si Si6 0.391024 0.831541 0.353206
Si Si7 0.284727 0.335757 0.681893
Si Si8 0.616756 0.332203 0.136219
O O1 0.106539 0.772822 0.421800
O O2 0.405901 0.812941 0.579383
O O3 0.191699 0.755972 0.590050
O O4 0.173249 0.000000 0.520940
O O5 0.683006 0.765245 0.102737
O O6 0.995261 0.790488 0.247087
O O7 0.850104 0.000000 0.128357
O O8 0.885269 0.757239 0.077323
O O9 0.835318 0.500000 0.005356
O O10 0.793956 0.286132 0.909778
O O11 0.585748 0.322476 0.926191
O O12 0.742328 0.500000 0.811649
O O13 0.707854 0.244281 0.744625
O O14 0.490246 0.333672 0.743836
O O15 0.312217 0.785071 0.392909
O O16 0.127835 0.000000 0.362155
O O17 0.357430 0.000000 0.335169
O O18 0.227646 0.500000 0.656322
O O19 0.284787 0.288708 0.758228
O O20 0.653509 0.500000 0.136374
#
# Coordination Sequence:
#
# PCOD9154549 Si02
#       8
#     4   4   4   4   4   4   4   4
#     4   9  16  29  52  75  93 121 161 198 231 276
#     4  11  22  33  47  69  98 129 160 198 236 273
#     4   9  18  34  54  72  94 126 158 191 237 288
#     4   8  15  29  49  73  98 120 147 191 243 285
#     4   9  19  34  47  66 100 133 158 190 238 285
#     4   9  16  29  52  75  93 121 161 198 231 276
#     4   8  15  29  49  73  98 120 147 191 243 285
#     4   9  18  34  54  72  94 126 158 191 237 288
#
# _framework density 21.773385000000001
#
# number of rings (size 3 to 8) (size 9 to 14) (size 15 to 20)
#    0.000    3.000    0.000    2.625    0.000    4.500 
#    0.000    6.875    0.000   10.500    0.000    0.000 
#    0.000    0.000    0.000    0.000    0.000    0.000 
#
# Total GULP energy -178612.225975 kJ/mol
# GULP energy per Si atom -5581.632062 kJ/mol
# Density = 2.172383 g / cm^3
# Si number density = 21.773385 Si / 1000 Ang^3
#
#
#
# Elastic Constant Matrix: (Units=GPa)
#
#
# Indices 1 2 3 4 5 6 
#
# 1 65.0909 10.1890 34.6536 0.0000 -16.2244 0.0000
# 2 10.1890 26.3616 58.0583 0.0000 -16.9002 0.0000
# 3 34.6536 58.0583 173.5527 0.0000 -36.0766 0.0000
# 4 0.0000 0.0000 0.0000 43.0903 0.0000 -6.7214
# 5 -16.2244 -16.9002 -36.0766 0.0000 47.0046 0.0000
# 6 0.0000 0.0000 0.0000 -6.7214 0.0000 3.0836
#
#
#
# Elastic Compliance Matrix: (Units=1/GPa)
#
#
# Indices 1 2 3 4 5 6 
#
# 1 0.018142 0.007164 -0.004976 0.000000 0.005019 0.000000
# 2 0.007164 0.160346 -0.050654 0.000000 0.021246 0.000000
# 3 -0.004976 -0.050654 0.023270 0.000000 -0.002069 0.000000
# 4 0.000000 0.000000 0.000000 0.035163 0.000000 0.076646
# 5 0.005019 0.021246 -0.002069 0.000000 0.029057 0.000000
# 6 0.000000 0.000000 0.000000 0.076646 0.000000 0.491369
#
#
# Mechanical properties :
#
#
# Convention : Reuss Voigt Hill
#
# Bulk Modulus (GPa) = 9.53963 52.31189 30.92576
# Shear Modulus (GPa) = 5.62290 29.44265 17.53278
#
# Velocity S-wave (km/s) = 1.60875 3.68126 2.84075
# Velocity P-wave (km/s) = 2.80029 6.49205 4.99941
#
# Compressibility (1/GPa) = 0.10482582
#
# Stress axis : x y z
#
# Youngs Moduli (GPa) = 55.12170 6.23653 42.97288
#
# Poissons Ratio (x) = -0.04468 0.21382
# Poissons Ratio (y) = -0.39488 2.17675
# Poissons Ratio (z) = 0.27426 0.31591
#
# Static dielectric constant tensor:
#      x y z
#    x 1.840860 0.000000 0.050010 
#    y 0.000000 1.724220 0.000000 
#    z 0.050010 0.000000 1.844800 
# 
# From -- ./inp_files/70027.got.cif
#   From: 2010.05.17/outbox.cif.g08.bks.cpg/sg10_36_cif.got.tgz:70027.got - 2010.06.03 11:33:40.
