data_PCOD9154890
_publ_section_title
;
Structure prediction by ZEFSAII (Michael W. Deem and Ramdas Pophale) SiO2 
 PCOD9154890
Probable space group: P 2/M
;
_chemical_formula_sum "Si O2"
_cell_formula_units_Z 28
_cell_length_a 18.061978
_cell_length_b 7.350295
_cell_length_c 17.022661
_cell_angle_alpha 90.000000
_cell_angle_beta 154.249052
_cell_angle_gamma 90.000000
_cell_volume 981.855296
_symmetry_space_group_name_H-M "P 2/M"
_symmetry_group_IT_number 10
_symmetry_cell_setting 'monoclinic'
loop_
_space_group_symop_operation_xyz
x,y,z
-x,y,-z
-x,-y,-z
x,-y,z
loop_
_atom_site_type_symbol
_atom_site_label
_atom_site_fract_x
_atom_site_fract_y
_atom_site_fract_z
Si Si1 0.228526 0.283153 0.211767
Si Si2 0.058733 0.282861 0.897299
Si Si3 0.095411 0.782300 0.404689
Si Si4 0.390969 0.217855 0.802027
Si Si5 0.409217 0.283289 0.534592
Si Si6 0.603834 0.717503 0.865997
Si Si7 0.840724 0.785445 0.285477
O O1 0.198942 0.500000 0.194881
O O2 0.089073 0.215550 0.015120
O O3 0.272779 0.209590 0.340858
O O4 0.407406 0.266832 0.335218
O O5 0.072802 0.500000 0.918292
O O6 0.219918 0.211493 0.000935
O O7 0.907488 0.255584 0.690597
O O8 0.927239 0.708696 0.289347
O O9 0.253345 0.713129 0.606475
O O10 0.095445 0.000000 0.413220
O O11 0.563845 0.246403 0.918528
O O12 0.320408 0.287399 0.818269
O O13 0.378087 0.000000 0.797429
O O14 0.376862 0.500000 0.510610
O O15 0.457041 0.210046 0.666437
O O16 0.606904 0.500000 0.860070
O O17 0.000000 0.775404 0.500000
O O18 0.809979 0.000000 0.242526
#
# Coordination Sequence:
#
# PCOD9154890 Si02
#       7
#     4   4   4   4   4   4   4
#     4   7  10  19  37  59  81 107 140 174 204 237
#     4   9  17  28  43  66  93 115 137 171 215 257
#     4   9  17  30  48  66  83 108 144 181 214 250
#     4   9  17  30  48  66  83 108 144 181 214 250
#     4   7  10  19  37  59  81 107 140 174 204 237
#     4   9  17  28  43  66  93 115 137 171 215 257
#     4   7  12  26  46  63  78 102 142 185 212 237
#
# _framework density 28.517441000000002
#
# number of rings (size 3 to 8) (size 9 to 14) (size 15 to 20)
#    0.000    3.857    0.000    4.286    0.000    1.143 
#    0.000    1.429    0.000    8.571    0.000   10.000 
#    0.000    0.000    0.000    0.000    0.000    0.000 
#
# Total GULP energy -156472.248187 kJ/mol
# GULP energy per Si atom -5588.294578 kJ/mol
# Density = 2.845253 g / cm^3
# Si number density = 28.517441 Si / 1000 Ang^3
#
#
#
# Elastic Constant Matrix: (Units=GPa)
#
#
# Indices 1 2 3 4 5 6 
#
# 1 204.5658 -6.9957 29.3621 0.0000 -43.0335 0.0000
# 2 -6.9957 112.1678 -10.5913 0.0000 -4.5912 0.0000
# 3 29.3621 -10.5913 130.8023 0.0000 -30.5193 0.0000
# 4 0.0000 0.0000 0.0000 -81.8419 0.0000 132.2044
# 5 -43.0335 -4.5912 -30.5193 0.0000 75.3169 0.0000
# 6 0.0000 0.0000 0.0000 132.2044 0.0000 -206.7902
#
#
#
# Elastic Compliance Matrix: (Units=1/GPa)
#
#
# Indices 1 2 3 4 5 6 
#
# 1 0.005613 0.000425 -0.000521 0.000000 0.003022 0.000000
# 2 0.000425 0.009075 0.000911 0.000000 0.001165 0.000000
# 3 -0.000521 0.000911 0.008592 0.000000 0.003240 0.000000
# 4 0.000000 0.000000 0.000000 0.373333 0.000000 0.238678
# 5 0.003022 0.001165 0.003240 0.000000 0.016388 0.000000
# 6 0.000000 0.000000 0.000000 0.238678 0.000000 0.147755
#
#
# Mechanical properties :
#
#
# Convention : Reuss Voigt Hill
#
# Bulk Modulus (GPa) = 40.14203 52.34291 46.24247
# Shear Modulus (GPa) = 8.81168 -13.61233 -2.40032
#
# Velocity S-wave (km/s) = 1.75973 -2.18717 -0.91844
# Velocity P-wave (km/s) = 4.27033 3.46645 3.88922
#
# Compressibility (1/GPa) = 0.02491154
#
# Stress axis : x y z
#
# Youngs Moduli (GPa) = 178.14450 110.18738 116.39215
#
# Poissons Ratio (x) = -0.04679 0.06059
# Poissons Ratio (y) = -0.07565 -0.10608
# Poissons Ratio (z) = 0.09273 -0.10042
#
# Static dielectric constant tensor:
#      x y z
#    x 2.249090 0.000000 0.089250 
#    y 0.000000 2.057950 0.000000 
#    z 0.089250 0.000000 2.359750 
# 
# From -- ./inp_files/79327.got.cif
#   From: 2010.05.17/outbox.cif.g08.bks.cpg/sg10_40_cif.got.tgz:79327.got - 2010.06.03 11:33:40.
