data_PCOD9154218
_publ_section_title
;
Structure prediction by ZEFSAII (Michael W. Deem and Ramdas Pophale) SiO2 
 PCOD9154218
Probable space group: P 2/M
;
_chemical_formula_sum "Si O2"
_cell_formula_units_Z 24
_cell_length_a 14.705403
_cell_length_b 21.939654
_cell_length_c 12.565689
_cell_angle_alpha 90.000000
_cell_angle_beta 19.312457
_cell_angle_gamma 90.000000
_cell_volume 1340.765796
_symmetry_space_group_name_H-M "P 2/M"
_symmetry_group_IT_number 10
_symmetry_cell_setting 'monoclinic'
loop_
_space_group_symop_operation_xyz
x,y,z
-x,y,-z
-x,-y,-z
x,-y,z
loop_
_atom_site_type_symbol
_atom_site_label
_atom_site_fract_x
_atom_site_fract_y
_atom_site_fract_z
Si Si1 0.807314 0.931095 0.876342
Si Si2 0.665923 0.855007 0.713148
Si Si3 0.805375 0.896516 0.119944
Si Si4 0.012869 0.230015 0.799455
Si Si5 0.699978 0.567384 0.379873
Si Si6 0.515333 0.305412 0.611562
O O1 0.094839 0.902699 0.519611
O O2 0.764679 0.000000 0.886254
O O3 0.552674 0.888599 0.122696
O O4 0.831051 0.929691 0.978575
O O5 0.821642 0.800919 0.480216
O O6 0.500000 0.834963 0.000000
O O7 0.500000 0.900562 0.500000
O O8 0.000000 0.918587 0.000000
O O9 0.880239 0.826519 0.009455
O O10 0.232865 0.264275 0.628932
O O11 0.769335 0.275747 0.035493
O O12 0.500000 0.561891 0.500000
O O13 0.714371 0.500000 0.415715
O O14 0.583707 0.625362 0.571424
O O15 0.000000 0.582055 0.000000
O O16 0.500000 0.305652 0.500000
#
# Coordination Sequence:
#
# PCOD9154218 Si02
#       6
#     4   4   4   4   4   4
#     4  11  24  39  57  81 101 127 171 208 249 320
#     4  11  24  41  58  75 100 130 163 219 277 310
#     4  11  21  34  52  74 106 139 162 198 249 299
#     4  11  21  33  50  74  99 127 172 210 246 306
#     4   9  17  28  42  66 104 146 179 203 233 278
#     4  11  19  29  49  75 104 138 170 202 241 291
#
# _framework density 17.900217000000001
#
# number of rings (size 3 to 8) (size 9 to 14) (size 15 to 20)
#    0.000    1.333    0.000   10.000    0.000    2.667 
#    0.000    0.000    0.000    0.000    0.000    0.000 
#    0.000    4.000    0.000    0.000    0.000    0.000 
#
# Total GULP energy -134068.000016 kJ/mol
# GULP energy per Si atom -5586.166667 kJ/mol
# Density = 1.785948 g / cm^3
# Si number density = 17.900217 Si / 1000 Ang^3
#
#
#
# Elastic Constant Matrix: (Units=GPa)
#
#
# Indices 1 2 3 4 5 6 
#
# 1 50.2996 9.1880 21.4238 0.0000 -19.7542 0.0000
# 2 9.1880 108.4368 28.5406 0.0000 -11.6204 0.0000
# 3 21.4238 28.5406 110.5725 0.0000 -22.1642 0.0000
# 4 0.0000 0.0000 0.0000 17.4051 0.0000 -9.1975
# 5 -19.7542 -11.6204 -22.1642 0.0000 36.9344 0.0000
# 6 0.0000 0.0000 0.0000 -9.1975 0.0000 7.1558
#
#
#
# Elastic Compliance Matrix: (Units=1/GPa)
#
#
# Indices 1 2 3 4 5 6 
#
# 1 0.025783 -0.000219 -0.002488 0.000000 0.012228 0.000000
# 2 -0.000219 0.010002 -0.002196 0.000000 0.001712 0.000000
# 3 -0.002488 -0.002196 0.011012 0.000000 0.004587 0.000000
# 4 0.000000 0.000000 0.000000 0.179104 0.000000 0.230206
# 5 0.012228 0.001712 0.004587 0.000000 0.036906 0.000000
# 6 0.000000 0.000000 0.000000 0.230206 0.000000 0.435634
#
#
# Mechanical properties :
#
#
# Convention : Reuss Voigt Hill
#
# Bulk Modulus (GPa) = 27.03409 43.06820 35.05114
# Shear Modulus (GPa) = 6.93888 26.30950 16.62419
#
# Velocity S-wave (km/s) = 1.97100 3.83794 3.05079
# Velocity P-wave (km/s) = 4.50724 6.61454 5.65983
#
# Compressibility (1/GPa) = 0.03699033
#
# Stress axis : x y z
#
# Youngs Moduli (GPa) = 38.78551 99.98017 90.80895
#
# Poissons Ratio (x) = 0.02194 0.22591
# Poissons Ratio (y) = 0.00851 0.19942
# Poissons Ratio (z) = 0.09649 0.21956
#
# Static dielectric constant tensor:
#      x y z
#    x 1.609400 0.000000 -0.006460 
#    y 0.000000 1.666710 0.000000 
#    z -0.006460 0.000000 1.599000 
# 
# From -- ./inp_files/52051.got.cif
#   From: 2010.05.17/outbox.cif.g08.bks.cpg/sg10_27_cif.got.tgz:52051.got - 2010.06.03 11:33:40.
