data_PCOD9154568
_publ_section_title
;
Structure prediction by ZEFSAII (Michael W. Deem and Ramdas Pophale) SiO2 
 PCOD9154568
Probable space group: P 2/M
;
_chemical_formula_sum "Si O2"
_cell_formula_units_Z 17
_cell_length_a 20.279042
_cell_length_b 7.954624
_cell_length_c 15.461891
_cell_angle_alpha 90.000000
_cell_angle_beta 160.364447
_cell_angle_gamma 90.000000
_cell_volume 838.138117
_symmetry_space_group_name_H-M "P 2/M"
_symmetry_group_IT_number 10
_symmetry_cell_setting 'monoclinic'
loop_
_space_group_symop_operation_xyz
x,y,z
-x,y,-z
-x,-y,-z
x,-y,z
loop_
_atom_site_type_symbol
_atom_site_label
_atom_site_fract_x
_atom_site_fract_y
_atom_site_fract_z
Si Si1 0.968355 0.000000 0.111898
Si Si2 0.377610 0.000000 0.549003
Si Si3 0.600927 0.312158 0.899029
Si Si4 0.500000 0.000000 0.500000
Si Si5 0.985385 0.313604 0.259505
Si Si6 0.717993 0.804456 0.229573
O O1 0.142354 0.000000 0.256721
O O2 0.003594 0.164705 0.214139
O O3 0.742848 0.000000 0.805079
O O4 0.481688 0.000000 0.584548
O O5 0.450530 0.163948 0.691903
O O6 0.514017 0.500000 0.792770
O O7 0.704119 0.277094 0.118273
O O8 0.769245 0.306483 0.034355
O O9 0.014667 0.500000 0.258287
O O10 0.136808 0.284829 0.524816
O O11 0.776987 0.000000 0.294118
O O12 0.500000 0.798461 0.000000
#
# Coordination Sequence:
#
# PCOD9154568 Si02
#       6
#     2   2   4   1   4   4
#     4  12  25  46  74 101 131 172 221 275 340 401
#     4  12  25  46  74 101 131 172 221 275 340 401
#     4  11  23  41  66  98 138 182 223 268 325 391
#     4  12  26  52  74 100 132 166 214 292 346 404
#     4  11  23  41  66  98 138 182 223 268 325 391
#     4  11  22  35  58  97 140 181 226 267 314 385
#
# _framework density 20.283055000000001
#
# number of rings (size 3 to 8) (size 9 to 14) (size 15 to 20)
#    0.000    0.706    4.706    3.176    0.000    7.529 
#    0.000    2.353    0.000    2.824    0.000    0.000 
#    0.000    0.000    0.000    0.000    0.000    0.000 
#
# Total GULP energy -94820.741383 kJ/mol
# GULP energy per Si atom -5577.690670 kJ/mol
# Density = 2.023689 g / cm^3
# Si number density = 20.283055 Si / 1000 Ang^3
#
#
#
# Elastic Constant Matrix: (Units=GPa)
#
#
# Indices 1 2 3 4 5 6 
#
# 1 52.3437 22.4037 8.9236 0.0000 7.4621 0.0000
# 2 22.4037 169.6402 43.2615 0.0000 -2.3878 0.0000
# 3 8.9236 43.2615 125.9565 0.0000 5.5595 0.0000
# 4 0.0000 0.0000 0.0000 -16.8677 0.0000 -27.8835
# 5 7.4621 -2.3878 5.5595 0.0000 38.8323 0.0000
# 6 0.0000 0.0000 0.0000 -27.8835 0.0000 -73.6890
#
#
#
# Elastic Compliance Matrix: (Units=1/GPa)
#
#
# Indices 1 2 3 4 5 6 
#
# 1 0.020924 -0.002729 -0.000362 0.000000 -0.004137 0.000000
# 2 -0.002729 0.006837 -0.002210 0.000000 0.001261 0.000000
# 3 -0.000362 -0.002210 0.008783 0.000000 -0.001324 0.000000
# 4 0.000000 0.000000 0.000000 -0.158309 0.000000 0.059903
# 5 -0.004137 0.001261 -0.001324 0.000000 0.026814 0.000000
# 6 0.000000 0.000000 0.000000 0.059903 0.000000 -0.036237
#
#
# Mechanical properties :
#
#
# Convention : Reuss Voigt Hill
#
# Bulk Modulus (GPa) = 38.55162 55.23534 46.89348
# Shear Modulus (GPa) = -44.66744 7.87856 -18.39444
#
# Velocity S-wave (km/s) = -4.69786 1.97300 -3.01472
# Velocity P-wave (km/s) = 3.22155 5.69927 3.32440
#
# Compressibility (1/GPa) = 0.02593924
#
# Stress axis : x y z
#
# Youngs Moduli (GPa) = 47.79169 146.26871 113.86188
#
# Poissons Ratio (x) = 0.39919 0.04127
# Poissons Ratio (y) = 0.13043 0.25169
# Poissons Ratio (z) = 0.01732 0.32333
#
# Static dielectric constant tensor:
#      x y z
#    x 1.708750 0.000000 0.030490 
#    y 0.000000 1.718650 0.000000 
#    z 0.030490 0.000000 1.689770 
# 
# From -- ./inp_files/69806.got.cif
#   From: 2010.05.17/outbox.cif.g08.bks.cpg/sg10_35_cif.got.tgz:69806.got - 2010.06.03 11:33:40.
