data_PCOD9154325
_publ_section_title
;
Structure prediction by ZEFSAII (Michael W. Deem and Ramdas Pophale) SiO2 
 PCOD9154325
Probable space group: P 2/M
;
_chemical_formula_sum "Si O2"
_cell_formula_units_Z 28
_cell_length_a 10.415197
_cell_length_b 8.268776
_cell_length_c 30.684264
_cell_angle_alpha 90.000000
_cell_angle_beta 33.722509
_cell_angle_gamma 90.000000
_cell_volume 1467.071814
_symmetry_space_group_name_H-M "P 2/M"
_symmetry_group_IT_number 10
_symmetry_cell_setting 'monoclinic'
loop_
_space_group_symop_operation_xyz
x,y,z
-x,y,-z
-x,-y,-z
x,-y,z
loop_
_atom_site_type_symbol
_atom_site_label
_atom_site_fract_x
_atom_site_fract_y
_atom_site_fract_z
Si Si1 0.132300 0.307077 0.239040
Si Si2 0.907635 0.697095 0.094029
Si Si3 0.153004 0.189859 0.332388
Si Si4 0.357267 0.302910 0.919157
Si Si5 0.594257 0.692643 0.260552
Si Si6 0.336193 0.689291 0.506362
Si Si7 0.355284 0.813225 0.656514
O O1 0.112125 0.500000 0.238767
O O2 0.139716 0.269109 0.288359
O O3 0.378906 0.250475 0.150190
O O4 0.908933 0.226019 0.281234
O O5 0.906583 0.500000 0.094636
O O6 0.743302 0.745536 0.099853
O O7 0.797713 0.750162 0.170430
O O8 0.167071 0.748942 0.008316
O O9 0.355471 0.270223 0.303264
O O10 0.904497 0.217111 0.424734
O O11 0.200290 0.000000 0.314375
O O12 0.359432 0.500000 0.918566
O O13 0.617653 0.500000 0.259910
O O14 0.603447 0.774523 0.304767
O O15 0.500000 0.744895 0.500000
O O16 0.285046 0.500000 0.528119
O O17 0.478212 0.711565 0.422012
O O18 0.403013 0.000000 0.633866
#
# Coordination Sequence:
#
# PCOD9154325 Si02
#       7
#     4   4   4   4   4   4   4
#     4  11  20  36  61  90 118 156 204 247 289 348
#     4   8  14  28  54  88 119 149 191 249 297 334
#     4  12  24  38  61  91 124 157 193 241 298 355
#     4   8  14  27  54  90 119 145 193 252 294 333
#     4  11  22  40  63  88 120 160 203 245 293 352
#     4  11  23  41  66  91 116 150 200 249 289 344
#     4  12  26  42  60  86 123 160 194 242 304 359
#
# _framework density 19.085635
#
# number of rings (size 3 to 8) (size 9 to 14) (size 15 to 20)
#    0.000    1.571    2.857    4.714    0.000    1.143 
#    0.000    3.571    0.000    8.571    0.000    0.000 
#    0.000    0.000    0.000    0.000    0.000    0.000 
#
# Total GULP energy -156416.296092 kJ/mol
# GULP energy per Si atom -5586.296289 kJ/mol
# Density = 1.904220 g / cm^3
# Si number density = 19.085635 Si / 1000 Ang^3
#
#
#
# Elastic Constant Matrix: (Units=GPa)
#
#
# Indices 1 2 3 4 5 6 
#
# 1 74.6163 -8.7121 21.7187 0.0000 4.8491 0.0000
# 2 -8.7121 25.8692 -14.8630 0.0000 -1.1316 0.0000
# 3 21.7187 -14.8630 106.7069 0.0000 -1.6432 0.0000
# 4 0.0000 0.0000 0.0000 -8.0812 0.0000 -6.4284
# 5 4.8491 -1.1316 -1.6432 0.0000 29.6414 0.0000
# 6 0.0000 0.0000 0.0000 -6.4284 0.0000 30.9494
#
#
#
# Elastic Compliance Matrix: (Units=1/GPa)
#
#
# Indices 1 2 3 4 5 6 
#
# 1 0.014698 0.003374 -0.002559 0.000000 -0.002417 0.000000
# 2 0.003374 0.042904 0.005311 0.000000 0.001380 0.000000
# 3 -0.002559 0.005311 0.010651 0.000000 0.001212 0.000000
# 4 0.000000 0.000000 0.000000 -0.106198 0.000000 -0.022058
# 5 -0.002417 0.001380 0.001212 0.000000 0.034252 0.000000
# 6 0.000000 0.000000 0.000000 -0.022058 0.000000 0.027729
#
#
# Mechanical properties :
#
#
# Convention : Reuss Voigt Hill
#
# Bulk Modulus (GPa) = 12.42181 22.60883 17.51532
# Shear Modulus (GPa) = 129.47097 24.43853 76.95475
#
# Velocity S-wave (km/s) = 8.24525 3.58224 6.35675
# Velocity P-wave (km/s) = 9.85739 5.38346 7.94197
#
# Compressibility (1/GPa) = 0.08050359
#
# Stress axis : x y z
#
# Youngs Moduli (GPa) = 68.03768 23.30794 93.89118
#
# Poissons Ratio (x) = -0.07864 0.24025
# Poissons Ratio (y) = -0.22956 -0.49861
# Poissons Ratio (z) = 0.17409 -0.12378
#
# Static dielectric constant tensor:
#      x y z
#    x 1.621750 0.000000 -0.006200 
#    y 0.000000 1.630960 0.000000 
#    z -0.006200 0.000000 1.676640 
# 
# From -- ./inp_files/91973.got.cif
#   From: 2010.05.17/outbox.cif.g08.bks.cpg/sg10_46_cif.got.tgz:91973.got - 2010.06.03 11:33:40.
