data_PCOD9154749
_publ_section_title
;
Structure prediction by ZEFSAII (Michael W. Deem and Ramdas Pophale) SiO2 
 PCOD9154749
Probable space group: P 2/M
;
_chemical_formula_sum "Si O2"
_cell_formula_units_Z 20
_cell_length_a 14.383451
_cell_length_b 7.948263
_cell_length_c 21.705431
_cell_angle_alpha 90.000000
_cell_angle_beta 159.437556
_cell_angle_gamma 90.000000
_cell_volume 871.551154
_symmetry_space_group_name_H-M "P 2/M"
_symmetry_group_IT_number 10
_symmetry_cell_setting 'monoclinic'
loop_
_space_group_symop_operation_xyz
x,y,z
-x,y,-z
-x,-y,-z
x,-y,z
loop_
_atom_site_type_symbol
_atom_site_label
_atom_site_fract_x
_atom_site_fract_y
_atom_site_fract_z
Si Si1 0.501937 0.500000 0.105548
Si Si2 0.681159 0.191842 0.301397
Si Si3 0.240242 0.691049 0.107697
Si Si4 0.139537 0.806049 0.220558
Si Si5 0.928031 0.500000 0.262411
Si Si6 0.268718 0.807204 0.445721
O O1 0.569631 0.334831 0.187198
O O2 0.711148 0.500000 0.180017
O O3 0.220896 0.500000 0.896198
O O4 0.517967 0.219398 0.264491
O O5 0.000000 0.211583 0.500000
O O6 0.625790 0.000000 0.246819
O O7 0.290295 0.500000 0.159562
O O8 0.000000 0.766721 0.000000
O O9 0.085237 0.690754 0.946263
O O10 0.190920 0.793342 0.325037
O O11 0.418042 0.773319 0.359397
O O12 0.063613 0.000000 0.161601
O O13 0.104991 0.665974 0.377976
O O14 0.219861 0.000000 0.434709
#
# Coordination Sequence:
#
# PCOD9154749 Si02
#       6
#     2   4   4   4   2   4
#     4  11  25  44  61  93 128 160 218 271 313 387
#     4  11  25  47  73  93 123 176 221 266 327 382
#     4  11  24  39  62  98 131 162 207 266 323 378
#     4   9  19  36  58  87 127 166 204 257 312 374
#     4  11  24  37  62  91 125 174 207 259 331 373
#     4   9  20  37  58  90 126 164 211 256 309 380
#
# _framework density 22.947593000000001
#
# number of rings (size 3 to 8) (size 9 to 14) (size 15 to 20)
#    0.000    1.800    1.000    3.300    2.800    7.200 
#    0.000    6.000    0.000    0.000    0.000    0.000 
#    0.000    0.000    0.000    0.000    0.000    0.000 
#
# Total GULP energy -111761.725597 kJ/mol
# GULP energy per Si atom -5588.086280 kJ/mol
# Density = 2.289536 g / cm^3
# Si number density = 22.947593 Si / 1000 Ang^3
#
#
#
# Elastic Constant Matrix: (Units=GPa)
#
#
# Indices 1 2 3 4 5 6 
#
# 1 77.2919 37.4795 40.7073 0.0000 28.8784 0.0000
# 2 37.4795 137.3941 63.6285 0.0000 18.5595 0.0000
# 3 40.7073 63.6285 117.2304 0.0000 24.0046 0.0000
# 4 0.0000 0.0000 0.0000 29.3744 0.0000 19.7266
# 5 28.8784 18.5595 24.0046 0.0000 42.8917 0.0000
# 6 0.0000 0.0000 0.0000 19.7266 0.0000 0.4933
#
#
#
# Elastic Compliance Matrix: (Units=1/GPa)
#
#
# Indices 1 2 3 4 5 6 
#
# 1 0.019787 -0.002403 -0.003447 0.000000 -0.010353 0.000000
# 2 -0.002403 0.010091 -0.004608 0.000000 -0.000170 0.000000
# 3 -0.003447 -0.004608 0.012813 0.000000 -0.002856 0.000000
# 4 0.000000 0.000000 0.000000 -0.001317 0.000000 0.052653
# 5 -0.010353 -0.000170 -0.002856 0.000000 0.031957 0.000000
# 6 0.000000 0.000000 0.000000 0.052653 0.000000 -0.078405
#
#
# Mechanical properties :
#
#
# Convention : Reuss Voigt Hill
#
# Bulk Modulus (GPa) = 45.92245 68.39411 57.15828
# Shear Modulus (GPa) = 216.46137 27.22528 121.84332
#
# Velocity S-wave (km/s) = 9.72283 3.44817 7.29463
# Velocity P-wave (km/s) = 12.08717 6.76183 9.79342
#
# Compressibility (1/GPa) = 0.02177584
#
# Stress axis : x y z
#
# Youngs Moduli (GPa) = 50.53909 99.10216 78.04711
#
# Poissons Ratio (x) = 0.23813 0.26899
# Poissons Ratio (y) = 0.12144 0.35962
# Poissons Ratio (z) = 0.17418 0.45663
#
# Static dielectric constant tensor:
#      x y z
#    x 1.943960 0.000000 -0.029030 
#    y 0.000000 1.834980 0.000000 
#    z -0.029030 0.000000 1.872090 
# 
# From -- ./inp_files/89439.got.cif
#   From: 2010.05.17/outbox.cif.g08.bks.cpg/sg10_45_cif.got.tgz:89439.got - 2010.06.03 11:33:40.
