data_PCOD9154745
_publ_section_title
;
Structure prediction by ZEFSAII (Michael W. Deem and Ramdas Pophale) SiO2 
 PCOD9154745
Probable space group: P 2/M
;
_chemical_formula_sum "Si O2"
_cell_formula_units_Z 24
_cell_length_a 25.583962
_cell_length_b 7.291117
_cell_length_c 16.668916
_cell_angle_alpha 90.000000
_cell_angle_beta 152.474213
_cell_angle_gamma 90.000000
_cell_volume 1436.977935
_symmetry_space_group_name_H-M "P 2/M"
_symmetry_group_IT_number 10
_symmetry_cell_setting 'monoclinic'
loop_
_space_group_symop_operation_xyz
x,y,z
-x,y,-z
-x,-y,-z
x,-y,z
loop_
_atom_site_type_symbol
_atom_site_label
_atom_site_fract_x
_atom_site_fract_y
_atom_site_fract_z
Si Si1 0.714336 0.220640 0.924577
Si Si2 0.862421 0.500000 0.405029
Si Si3 0.538048 0.222783 0.356327
Si Si4 0.682406 0.779502 0.217950
Si Si5 0.872614 0.500000 0.226839
Si Si6 0.374684 0.221449 0.361767
Si Si7 0.456401 0.777743 0.816338
O O1 0.591146 0.267723 0.794689
O O2 0.708975 0.278162 0.823225
O O3 0.726258 0.000000 0.945433
O O4 0.810529 0.325475 0.103285
O O5 0.794847 0.674827 0.346835
O O6 0.855339 0.500000 0.298928
O O7 0.993690 0.500000 0.606790
O O8 0.622468 0.284440 0.542262
O O9 0.562750 0.286293 0.300131
O O10 0.542296 0.000000 0.361610
O O11 0.635378 0.725325 0.241787
O O12 0.695417 0.000000 0.233096
O O13 0.580579 0.727679 0.018396
O O14 0.500000 0.266604 0.500000
O O15 0.367511 0.000000 0.353539
O O16 0.455620 0.000000 0.814520
#
# Coordination Sequence:
#
# PCOD9154745 Si02
#       7
#     4   2   4   4   2   4   4
#     4   9  17  31  49  67  94 128 152 181 227 269
#     4  11  24  37  48  65  89 118 154 200 235 257
#     4   8  12  22  44  73 102 125 146 178 220 271
#     4   9  18  33  50  69  95 123 150 183 227 275
#     4  11  24  36  47  67  87 113 164 202 221 264
#     4   7  11  21  40  67  96 124 149 174 216 272
#     4   8  14  25  46  75  99 121 149 178 218 278
#
# _framework density 16.701719000000001
#
# number of rings (size 3 to 8) (size 9 to 14) (size 15 to 20)
#    0.000    3.333    0.000    4.000    0.000    4.000 
#    0.000    6.250    0.000    0.000    0.000    2.333 
#    0.000    6.667    0.000    0.000    0.000    0.000 
#
# Total GULP energy -133698.029567 kJ/mol
# GULP energy per Si atom -5570.751232 kJ/mol
# Density = 1.666370 g / cm^3
# Si number density = 16.701719 Si / 1000 Ang^3
#
#
#
# Elastic Constant Matrix: (Units=GPa)
#
#
# Indices 1 2 3 4 5 6 
#
# 1 120.6120 24.6687 60.5827 0.0000 -22.3363 0.0000
# 2 24.6687 82.2978 33.6301 0.0000 0.5297 0.0000
# 3 60.5827 33.6301 99.9827 0.0000 -11.4181 0.0000
# 4 0.0000 0.0000 0.0000 9.8648 0.0000 13.6551
# 5 -22.3363 0.5297 -11.4181 0.0000 31.5863 0.0000
# 6 0.0000 0.0000 0.0000 13.6551 0.0000 -2.7843
#
#
#
# Elastic Compliance Matrix: (Units=1/GPa)
#
#
# Indices 1 2 3 4 5 6 
#
# 1 0.013254 -0.001228 -0.006827 0.000000 0.006925 0.000000
# 2 -0.001228 0.014327 -0.004383 0.000000 -0.002693 0.000000
# 3 -0.006827 -0.004383 0.015719 0.000000 0.000928 0.000000
# 4 0.000000 0.000000 0.000000 0.013015 0.000000 0.063830
# 5 0.006925 -0.002693 0.000928 0.000000 0.036937 0.000000
# 6 0.000000 0.000000 0.000000 0.063830 0.000000 -0.046113
#
#
# Mechanical properties :
#
#
# Convention : Reuss Voigt Hill
#
# Bulk Modulus (GPa) = 54.27486 60.07282 57.17384
# Shear Modulus (GPa) = 63.97511 20.00076 41.98794
#
# Velocity S-wave (km/s) = 6.19578 3.46428 5.01941
# Velocity P-wave (km/s) = 9.15154 7.21442 8.24010
#
# Compressibility (1/GPa) = 0.01842474
#
# Stress axis : x y z
#
# Youngs Moduli (GPa) = 75.44988 69.79694 63.61855
#
# Poissons Ratio (x) = 0.08568 0.43433
# Poissons Ratio (y) = 0.09262 0.27883
# Poissons Ratio (z) = 0.51511 0.30591
#
# Static dielectric constant tensor:
#      x y z
#    x 1.584300 0.000000 -0.044340 
#    y 0.000000 1.619810 0.000000 
#    z -0.044340 0.000000 1.526080 
# 
# From -- ./inp_files/80460.got.cif
#   From: 2010.05.17/outbox.cif.g08.bks.cpg/sg10_41_cif.got.tgz:80460.got - 2010.06.03 11:33:40.
