data_PCOD9154168
_publ_section_title
;
Structure prediction by ZEFSAII (Michael W. Deem and Ramdas Pophale) SiO2 
 PCOD9154168
Probable space group: P 2/M
;
_chemical_formula_sum "Si O2"
_cell_formula_units_Z 28
_cell_length_a 9.907567
_cell_length_b 13.455542
_cell_length_c 21.729844
_cell_angle_alpha 90.000000
_cell_angle_beta 151.821059
_cell_angle_gamma 90.000000
_cell_volume 1367.966504
_symmetry_space_group_name_H-M "P 2/M"
_symmetry_group_IT_number 10
_symmetry_cell_setting 'monoclinic'
loop_
_space_group_symop_operation_xyz
x,y,z
-x,y,-z
-x,-y,-z
x,-y,z
loop_
_atom_site_type_symbol
_atom_site_label
_atom_site_fract_x
_atom_site_fract_y
_atom_site_fract_z
Si Si1 0.269874 0.619570 0.774674
Si Si2 0.335989 0.881411 0.627075
Si Si3 0.338578 0.884037 0.370215
Si Si4 0.314999 0.734566 0.144615
Si Si5 0.810629 0.740524 0.136438
Si Si6 0.641512 0.618998 0.493397
Si Si7 0.178193 0.614799 0.203249
O O1 0.320506 0.500000 0.791185
O O2 0.508683 0.688892 0.840698
O O3 0.218749 0.654419 0.824016
O O4 0.971158 0.647005 0.620441
O O5 0.456629 0.862035 0.606373
O O6 0.515151 0.817089 0.748028
O O7 0.000000 0.857741 0.500000
O O8 0.369360 0.000000 0.651598
O O9 0.500000 0.871783 0.500000
O O10 0.053808 0.818092 0.253132
O O11 0.259784 0.000000 0.333409
O O12 0.271064 0.641261 0.172581
O O13 0.000000 0.771398 0.000000
O O14 0.922868 0.685550 0.120912
O O15 0.500000 0.785931 0.000000
O O16 0.500000 0.656355 0.500000
O O17 0.649207 0.500000 0.502288
O O18 0.437607 0.639005 0.354215
O O19 0.102405 0.500000 0.179914
#
# Coordination Sequence:
#
# PCOD9154168 Si02
#       7
#     4   4   4   4   4   4   4
#     4  11  25  41  63  95 137 181 223 270 319 381
#     4  10  24  48  75 100 127 166 217 273 337 401
#     4  10  24  47  74 102 131 164 210 276 342 395
#     4  12  27  43  64  97 134 178 222 268 328 384
#     4  12  25  39  65  99 131 178 224 264 324 390
#     4   9  18  36  60  89 118 160 219 272 317 363
#     4  11  23  41  65  92 133 179 225 272 323 384
#
# _framework density 20.468336999999998
#
# number of rings (size 3 to 8) (size 9 to 14) (size 15 to 20)
#    0.000    1.286    2.857    1.714    6.000    4.000 
#    0.000    2.143    0.000    0.000    0.000    0.000 
#    0.000    0.000    0.000    0.000    0.000    0.000 
#
# Total GULP energy -156505.645564 kJ/mol
# GULP energy per Si atom -5589.487342 kJ/mol
# Density = 2.042175 g / cm^3
# Si number density = 20.468337 Si / 1000 Ang^3
#
#
#
# Elastic Constant Matrix: (Units=GPa)
#
#
# Indices 1 2 3 4 5 6 
#
# 1 82.2170 25.7582 47.0149 0.0000 4.8145 0.0000
# 2 25.7582 110.4699 51.7086 0.0000 12.0464 0.0000
# 3 47.0149 51.7086 161.0068 0.0000 17.9255 0.0000
# 4 0.0000 0.0000 0.0000 -3.4520 0.0000 -3.6995
# 5 4.8145 12.0464 17.9255 0.0000 31.7770 0.0000
# 6 0.0000 0.0000 0.0000 -3.6995 0.0000 20.1415
#
#
#
# Elastic Compliance Matrix: (Units=1/GPa)
#
#
# Indices 1 2 3 4 5 6 
#
# 1 0.014873 -0.001728 -0.003852 0.000000 0.000575 0.000000
# 2 -0.001728 0.011007 -0.002769 0.000000 -0.002349 0.000000
# 3 -0.003852 -0.002769 0.008582 0.000000 -0.003208 0.000000
# 4 0.000000 0.000000 0.000000 -0.242042 0.000000 -0.044458
# 5 0.000575 -0.002349 -0.003208 0.000000 0.034082 0.000000
# 6 0.000000 0.000000 0.000000 -0.044458 0.000000 0.041483
#
#
# Mechanical properties :
#
#
# Convention : Reuss Voigt Hill
#
# Bulk Modulus (GPa) = 56.28985 66.96192 61.62589
# Shear Modulus (GPa) = -45.70619 24.97412 -10.36604
#
# Velocity S-wave (km/s) = -4.73061 3.49683 -2.25287
# Velocity P-wave (km/s) = 1.50917 7.00640 4.83798
#
# Compressibility (1/GPa) = 0.01776519
#
# Stress axis : x y z
#
# Youngs Moduli (GPa) = 67.23413 90.84828 116.51912
#
# Poissons Ratio (x) = 0.15694 0.44886
# Poissons Ratio (y) = 0.11615 0.32266
# Poissons Ratio (z) = 0.25900 0.25157
#
# Static dielectric constant tensor:
#      x y z
#    x 1.728290 0.000000 0.029040 
#    y 0.000000 1.713200 0.000000 
#    z 0.029040 0.000000 1.766970 
# 
# From -- ./inp_files/82931.got.cif
#   From: 2010.05.17/outbox.cif.g08.bks.cpg/sg10_42_cif.got.tgz:82931.got - 2010.06.03 11:33:40.
