data_PCOD9154821
_publ_section_title
;
Structure prediction by ZEFSAII (Michael W. Deem and Ramdas Pophale) SiO2 
 PCOD9154821
Probable space group: P 2/M
;
_chemical_formula_sum "Si O2"
_cell_formula_units_Z 18
_cell_length_a 8.541924
_cell_length_b 19.224416
_cell_length_c 8.597105
_cell_angle_alpha 90.000000
_cell_angle_beta 147.139227
_cell_angle_gamma 90.000000
_cell_volume 766.020632
_symmetry_space_group_name_H-M "P 2/M"
_symmetry_group_IT_number 10
_symmetry_cell_setting 'monoclinic'
loop_
_space_group_symop_operation_xyz
x,y,z
-x,y,-z
-x,-y,-z
x,-y,z
loop_
_atom_site_type_symbol
_atom_site_label
_atom_site_fract_x
_atom_site_fract_y
_atom_site_fract_z
Si Si1 0.508633 0.791526 0.690987
Si Si2 0.329925 0.654047 0.013119
Si Si3 0.969559 0.137226 0.293180
Si Si4 0.723230 0.579369 0.545100
Si Si5 0.813161 0.000000 0.692836
O O1 0.500000 0.809207 0.500000
O O2 0.634118 0.716254 0.832324
O O3 0.172812 0.795377 0.451293
O O4 0.684028 0.843710 0.954243
O O5 0.523598 0.589146 0.228596
O O6 0.500000 0.679979 0.000000
O O7 0.000371 0.628209 0.746295
O O8 0.000000 0.120673 0.500000
O O9 0.113873 0.070091 0.336627
O O10 0.500000 0.596113 0.500000
O O11 0.819743 0.500000 0.649598
O O12 0.500000 0.000000 0.500000
O O13 0.000000 0.000000 0.000000
#
# Coordination Sequence:
#
# PCOD9154821 Si02
#       5
#     4   4   4   4   2
#     4  12  26  46  71 101 139 183 231 285 349 421
#     4  12  25  43  69 102 138 179 231 293 355 417
#     4  12  25  45  71 103 139 180 230 288 349 409
#     4  11  25  45  68  97 136 183 234 288 350 423
#     4  12  25  44  69 100 139 182 231 280 339 412
#
# _framework density 23.498061
#
# number of rings (size 3 to 8) (size 9 to 14) (size 15 to 20)
#    0.000    0.222    0.000   10.333    0.000    6.222 
#    0.000    4.444    0.000    0.000    0.000    0.000 
#    0.000    0.000    0.000    0.000    0.000    0.000 
#
# Total GULP energy -100493.815519 kJ/mol
# GULP energy per Si atom -5582.989751 kJ/mol
# Density = 2.344458 g / cm^3
# Si number density = 23.498061 Si / 1000 Ang^3
#
#
#
# Elastic Constant Matrix: (Units=GPa)
#
#
# Indices 1 2 3 4 5 6 
#
# 1 119.8813 28.5035 64.9602 0.0000 -23.3846 0.0000
# 2 28.5035 105.9649 30.3485 0.0000 -2.2611 0.0000
# 3 64.9602 30.3485 169.2047 0.0000 -0.4173 0.0000
# 4 0.0000 0.0000 0.0000 30.3998 0.0000 5.1480
# 5 -23.3846 -2.2611 -0.4173 0.0000 50.3919 0.0000
# 6 0.0000 0.0000 0.0000 5.1480 0.0000 7.3928
#
#
#
# Elastic Compliance Matrix: (Units=1/GPa)
#
#
# Indices 1 2 3 4 5 6 
#
# 1 0.012234 -0.001930 -0.004337 0.000000 0.005555 0.000000
# 2 -0.001930 0.010262 -0.001101 0.000000 -0.000444 0.000000
# 3 -0.004337 -0.001101 0.007768 0.000000 -0.001998 0.000000
# 4 0.000000 0.000000 0.000000 0.037293 0.000000 -0.025969
# 5 0.005555 -0.000444 -0.001998 0.000000 0.022386 0.000000
# 6 0.000000 0.000000 0.000000 -0.025969 0.000000 0.153351
#
#
# Mechanical properties :
#
#
# Convention : Reuss Voigt Hill
#
# Bulk Modulus (GPa) = 64.39970 71.40836 67.90403
# Shear Modulus (GPa) = 18.99663 35.71947 27.35805
#
# Velocity S-wave (km/s) = 2.84638 3.90308 3.41584
# Velocity P-wave (km/s) = 6.18615 7.12510 6.67216
#
# Compressibility (1/GPa) = 0.01552802
#
# Stress axis : x y z
#
# Youngs Moduli (GPa) = 81.73848 97.44646 128.74134
#
# Poissons Ratio (x) = 0.18809 0.55835
# Poissons Ratio (y) = 0.15777 0.14170
# Poissons Ratio (z) = 0.35450 0.10725
#
# Static dielectric constant tensor:
#      x y z
#    x 2.091700 0.000000 -0.089920 
#    y 0.000000 1.879500 0.000000 
#    z -0.089920 0.000000 1.925250 
# 
# From -- ./inp_files/20378.got.cif
#   From: 2010.05.17/outbox.cif.g08.bks.cpg/sg10_11_cif.got.tgz:20378.got - 2010.06.03 11:33:40.
