data_PCOD9154261
_publ_section_title
;
Structure prediction by ZEFSAII (Michael W. Deem and Ramdas Pophale) SiO2 
 PCOD9154261
Probable space group: P 2/M
;
_chemical_formula_sum "Si O2"
_cell_formula_units_Z 32
_cell_length_a 31.448428
_cell_length_b 8.951486
_cell_length_c 21.851719
_cell_angle_alpha 90.000000
_cell_angle_beta 18.942602
_cell_angle_gamma 90.000000
_cell_volume 1996.898588
_symmetry_space_group_name_H-M "P 2/M"
_symmetry_group_IT_number 10
_symmetry_cell_setting 'monoclinic'
loop_
_space_group_symop_operation_xyz
x,y,z
-x,y,-z
-x,-y,-z
x,-y,z
loop_
_atom_site_type_symbol
_atom_site_label
_atom_site_fract_x
_atom_site_fract_y
_atom_site_fract_z
Si Si1 0.611415 0.677599 0.066385
Si Si2 0.892405 0.178021 0.699016
Si Si3 0.449673 0.679421 0.711406
Si Si4 0.783319 0.177276 0.050320
Si Si5 0.283264 0.821331 0.297470
Si Si6 0.000086 0.677968 0.322688
Si Si7 0.498252 0.178178 0.901490
Si Si8 0.365578 0.327892 0.643030
O O1 0.631411 0.500000 0.034803
O O2 0.751468 0.759317 0.871430
O O3 0.553009 0.710318 0.213089
O O4 0.520371 0.734658 0.135768
O O5 0.937256 0.257089 0.700300
O O6 0.000000 0.205811 0.500000
O O7 0.884323 0.000000 0.719941
O O8 0.430095 0.500000 0.729137
O O9 0.329882 0.763655 0.841753
O O10 0.583258 0.718398 0.493560
O O11 0.736897 0.228093 0.180870
O O12 0.793504 0.000000 0.032367
O O13 0.915882 0.254580 0.847363
O O14 0.371871 0.786905 0.236243
O O15 0.149096 0.732414 0.477801
O O16 0.257037 0.000000 0.332798
O O17 0.375170 0.789283 0.113769
O O18 0.009693 0.500000 0.309920
O O19 0.497342 0.000000 0.891550
O O20 0.500000 0.324390 0.500000
O O21 0.320590 0.500000 0.703112
#
# Coordination Sequence:
#
# PCOD9154261 Si02
#       8
#     4   4   4   4   4   4   4   4
#     4  11  21  32  50  75 103 133 167 204 245 295
#     4  11  23  36  49  68  98 135 170 203 246 299
#     4   9  18  32  47  68 100 136 165 199 245 295
#     4  11  20  30  47  71  99 131 167 205 244 293
#     4   9  19  37  56  73  95 129 170 211 255 299
#     4  12  23  34  50  73 101 132 167 207 252 298
#     4   9  19  36  56  74  97 129 167 211 256 298
#     4   8  15  29  47  65  94 132 165 197 242 292
#
# _framework density 16.024851000000002
#
# number of rings (size 3 to 8) (size 9 to 14) (size 15 to 20)
#    0.000    2.000    1.250    5.250    0.000    7.750 
#    0.000    1.250    0.000    0.000    0.000    0.875 
#    0.000    7.000    0.000    0.000    0.000    0.000 
#
# Total GULP energy -178588.793992 kJ/mol
# GULP energy per Si atom -5580.899812 kJ/mol
# Density = 1.598838 g / cm^3
# Si number density = 16.024851 Si / 1000 Ang^3
#
#
#
# Elastic Constant Matrix: (Units=GPa)
#
#
# Indices 1 2 3 4 5 6 
#
# 1 64.2642 28.2790 12.1081 0.0000 12.7308 0.0000
# 2 28.2790 59.2690 22.6854 0.0000 9.3955 0.0000
# 3 12.1081 22.6854 26.9469 0.0000 8.3840 0.0000
# 4 0.0000 0.0000 0.0000 9.3879 0.0000 0.2324
# 5 12.7308 9.3955 8.3840 0.0000 20.0895 0.0000
# 6 0.0000 0.0000 0.0000 0.2324 0.0000 29.3556
#
#
#
# Elastic Compliance Matrix: (Units=1/GPa)
#
#
# Indices 1 2 3 4 5 6 
#
# 1 0.021244 -0.009000 0.001046 0.000000 -0.009689 0.000000
# 2 -0.009000 0.028902 -0.020520 0.000000 0.000750 0.000000
# 3 0.001046 -0.020520 0.058766 0.000000 -0.015591 0.000000
# 4 0.000000 0.000000 0.000000 0.106541 0.000000 -0.000843
# 5 -0.009689 0.000750 -0.015591 0.000000 0.062073 0.000000
# 6 0.000000 0.000000 0.000000 -0.000843 0.000000 0.034072
#
#
# Mechanical properties :
#
#
# Convention : Reuss Voigt Hill
#
# Bulk Modulus (GPa) = 19.24480 30.73612 24.99046
# Shear Modulus (GPa) = 12.95781 17.59377 15.27579
#
# Velocity S-wave (km/s) = 2.84669 3.31706 3.09083
# Velocity P-wave (km/s) = 4.77915 5.82172 5.32601
#
# Compressibility (1/GPa) = 0.05196210
#
# Stress axis : x y z
#
# Youngs Moduli (GPa) = 47.07274 34.59979 17.01669
#
# Poissons Ratio (x) = 0.31141 -0.01780
# Poissons Ratio (y) = 0.42368 0.34919
# Poissons Ratio (z) = -0.04925 0.71000
#
# Static dielectric constant tensor:
#      x y z
#    x 1.533000 0.000000 0.027400 
#    y 0.000000 1.532590 0.000000 
#    z 0.027400 0.000000 1.533450 
# 
# From -- ./inp_files/75984.got.cif
#   From: 2010.05.17/outbox.cif.g08.bks.cpg/sg10_38_cif.got.tgz:75984.got - 2010.06.03 11:33:40.
