data_PCOD9154881
_publ_section_title
;
Structure prediction by ZEFSAII (Michael W. Deem and Ramdas Pophale) SiO2 
 PCOD9154881
Probable space group: P 2/M
;
_chemical_formula_sum "Si O2"
_cell_formula_units_Z 16
_cell_length_a 6.925675
_cell_length_b 12.925578
_cell_length_c 11.488679
_cell_angle_alpha 90.000000
_cell_angle_beta 139.444813
_cell_angle_gamma 90.000000
_cell_volume 668.676241
_symmetry_space_group_name_H-M "P 2/M"
_symmetry_group_IT_number 10
_symmetry_cell_setting 'monoclinic'
loop_
_space_group_symop_operation_xyz
x,y,z
-x,y,-z
-x,-y,-z
x,-y,z
loop_
_atom_site_type_symbol
_atom_site_label
_atom_site_fract_x
_atom_site_fract_y
_atom_site_fract_z
Si Si1 0.007670 0.774056 0.248046
Si Si2 0.569566 0.000000 0.341267
Si Si3 0.292769 0.382078 0.050960
Si Si4 0.006402 0.000000 0.234597
Si Si5 0.403860 0.225121 0.648695
O O1 0.301922 0.779190 0.299671
O O2 0.135387 0.758211 0.435926
O O3 0.860041 0.887399 0.166653
O O4 0.813583 0.680860 0.110609
O O5 0.231274 0.000000 0.228680
O O6 0.780025 0.000000 0.552655
O O7 0.624613 0.110492 0.308938
O O8 0.383476 0.500000 0.072359
O O9 0.530543 0.314174 0.229933
O O10 0.000000 0.385061 0.000000
#
# Coordination Sequence:
#
# PCOD9154881 Si02
#       5
#     4   2   4   2   4
#     4   8  13  20  27  32  37  42  46  54  63  66
#     4   7  10  17  27  35  38  39  45  54  63  71
#     4   9  16  21  23  29  37  44  53  55  53  63
#     4   7  10  17  27  35  38  39  45  54  63  71
#     4   8  13  20  27  32  37  42  46  54  63  66
#
# _framework density 23.927873000000002
#
# number of rings (size 3 to 8) (size 9 to 14) (size 15 to 20)
#    0.000    4.000    0.000    3.000    0.000    2.000 
#    0.000   10.000    0.000    0.000    0.000    0.000 
#    0.000    0.000    0.000    0.000    0.000    0.000 
#
# Total GULP energy -89431.953258 kJ/mol
# GULP energy per Si atom -5589.497079 kJ/mol
# Density = 2.387341 g / cm^3
# Si number density = 23.927873 Si / 1000 Ang^3
#
#
#
# Elastic Constant Matrix: (Units=GPa)
#
#
# Indices 1 2 3 4 5 6 
#
# 1 101.5872 26.9479 32.6345 0.0000 0.1889 0.0000
# 2 26.9479 307.5495 133.5806 0.0000 -30.4837 0.0000
# 3 32.6345 133.5806 129.4260 0.0000 -14.7997 0.0000
# 4 0.0000 0.0000 0.0000 36.3449 0.0000 -10.3714
# 5 0.1889 -30.4837 -14.7997 0.0000 36.7498 0.0000
# 6 0.0000 0.0000 0.0000 -10.3714 0.0000 -3.4531
#
#
#
# Elastic Compliance Matrix: (Units=1/GPa)
#
#
# Indices 1 2 3 4 5 6 
#
# 1 0.010780 0.000333 -0.003183 0.000000 -0.001061 0.000000
# 2 0.000333 0.006142 -0.006123 0.000000 0.002627 0.000000
# 3 -0.003183 -0.006123 0.014958 0.000000 0.000962 0.000000
# 4 0.000000 0.000000 0.000000 0.014816 0.000000 -0.044500
# 5 -0.001061 0.002627 0.000962 0.000000 0.029783 0.000000
# 6 0.000000 0.000000 0.000000 -0.044500 0.000000 -0.155942
#
#
# Mechanical properties :
#
#
# Convention : Reuss Voigt Hill
#
# Bulk Modulus (GPa) = 71.76450 102.76542 87.26496
# Shear Modulus (GPa) = -87.91620 36.95497 -25.48062
#
# Velocity S-wave (km/s) = -6.06811 3.93419 -3.26681
# Velocity P-wave (km/s) = 4.36335 7.97987 4.72438
#
# Compressibility (1/GPa) = 0.01393447
#
# Stress axis : x y z
#
# Youngs Moduli (GPa) = 92.76466 162.81025 66.85293
#
# Poissons Ratio (x) = -0.05417 0.21279
# Poissons Ratio (y) = -0.03086 0.40932
# Poissons Ratio (z) = 0.29526 0.99684
#
# Static dielectric constant tensor:
#      x y z
#    x 1.965120 0.000000 0.014980 
#    y 0.000000 1.853910 0.000000 
#    z 0.014980 0.000000 1.847950 
# 
# From -- ./inp_files/45442.got.cif
#   From: 2010.05.17/outbox.cif.g08.bks.cpg/sg10_23_cif.got.tgz:45442.got - 2010.06.03 11:33:40.
