data_PCOD9154079
_publ_section_title
;
Structure prediction by ZEFSAII (Michael W. Deem and Ramdas Pophale) SiO2 
 PCOD9154079
Probable space group: P 2/M
;
_chemical_formula_sum "Si O2"
_cell_formula_units_Z 26
_cell_length_a 8.312686
_cell_length_b 14.853582
_cell_length_c 11.511368
_cell_angle_alpha 90.000000
_cell_angle_beta 115.484334
_cell_angle_gamma 90.000000
_cell_volume 1283.052359
_symmetry_space_group_name_H-M "P 2/M"
_symmetry_group_IT_number 10
_symmetry_cell_setting 'monoclinic'
loop_
_space_group_symop_operation_xyz
x,y,z
-x,y,-z
-x,-y,-z
x,-y,z
loop_
_atom_site_type_symbol
_atom_site_label
_atom_site_fract_x
_atom_site_fract_y
_atom_site_fract_z
Si Si1 0.668145 0.246981 0.210984
Si Si2 0.375588 0.099521 0.114649
Si Si3 0.789237 0.606645 0.419845
Si Si4 0.788221 0.901546 0.432320
Si Si5 0.500000 0.683032 0.500000
Si Si6 0.921574 0.205349 0.092625
Si Si7 0.716289 0.160502 0.668363
O O1 0.491310 0.189442 0.126168
O O2 0.688573 0.340765 0.284851
O O3 0.747433 0.176413 0.329386
O O4 0.784642 0.257085 0.131565
O O5 0.355189 0.101632 0.247872
O O6 0.438650 0.000000 0.099941
O O7 0.188116 0.120033 0.992510
O O8 0.792726 0.500000 0.401936
O O9 0.662155 0.629407 0.490667
O O10 0.000000 0.635935 0.500000
O O11 0.719356 0.880801 0.540716
O O12 0.000000 0.905424 0.500000
O O13 0.723889 0.000000 0.374711
O O14 0.403124 0.749645 0.378159
O O15 0.084106 0.181654 0.227849
O O16 0.000000 0.250515 0.000000
#
# Coordination Sequence:
#
# PCOD9154079 Si02
#       7
#     4   4   4   4   2   4   4
#     4  12  21  41  62  88 128 161 212 269 321 387
#     4  11  24  39  59  88 127 178 226 265 305 366
#     4  11  24  42  70 104 135 167 205 262 338 409
#     4  11  21  32  56  90 127 172 211 260 326 387
#     4  12  21  40  71 102 138 170 211 262 335 400
#     4  10  24  39  60  86 118 175 221 265 314 367
#     4  11  20  39  60  91 129 173 209 267 316 376
#
# _framework density 20.264177
#
# number of rings (size 3 to 8) (size 9 to 14) (size 15 to 20)
#    0.000    0.923    4.615    3.000    0.000    5.231 
#    0.000    2.308    0.000    2.308    0.000    0.000 
#    0.000    0.000    0.000    0.000    0.000    0.000 
#
# Total GULP energy -144976.555804 kJ/mol
# GULP energy per Si atom -5576.021377 kJ/mol
# Density = 2.021806 g / cm^3
# Si number density = 20.264177 Si / 1000 Ang^3
#
#
#
# Elastic Constant Matrix: (Units=GPa)
#
#
# Indices 1 2 3 4 5 6 
#
# 1 129.8658 30.4544 28.4323 0.0000 -6.1190 0.0000
# 2 30.4544 96.0433 30.3847 0.0000 7.8185 0.0000
# 3 28.4323 30.3847 98.9822 0.0000 3.7323 0.0000
# 4 0.0000 0.0000 0.0000 6.1260 0.0000 4.5812
# 5 -6.1190 7.8185 3.7323 0.0000 57.3654 0.0000
# 6 0.0000 0.0000 0.0000 4.5812 0.0000 24.5884
#
#
#
# Elastic Compliance Matrix: (Units=1/GPa)
#
#
# Indices 1 2 3 4 5 6 
#
# 1 0.008705 -0.002286 -0.001850 0.000000 0.001361 0.000000
# 2 -0.002286 0.012237 -0.003035 0.000000 -0.001714 0.000000
# 3 -0.001850 -0.003035 0.011586 0.000000 -0.000538 0.000000
# 4 0.000000 0.000000 0.000000 0.189663 0.000000 -0.035337
# 5 0.001361 -0.001714 -0.000538 0.000000 0.017846 0.000000
# 6 0.000000 0.000000 0.000000 -0.035337 0.000000 0.047253
#
#
# Mechanical properties :
#
#
# Convention : Reuss Voigt Hill
#
# Bulk Modulus (GPa) = 54.98725 55.93713 55.46219
# Shear Modulus (GPa) = 16.24986 33.32395 24.78690
#
# Velocity S-wave (km/s) = 2.83486 4.05961 3.50121
# Velocity P-wave (km/s) = 6.15706 7.04541 6.61616
#
# Compressibility (1/GPa) = 0.01818603
#
# Stress axis : x y z
#
# Youngs Moduli (GPa) = 114.87004 81.72271 86.30929
#
# Poissons Ratio (x) = 0.18680 0.15969
# Poissons Ratio (y) = 0.26257 0.26195
# Poissons Ratio (z) = 0.21254 0.24803
#
# Static dielectric constant tensor:
#      x y z
#    x 1.838330 0.000000 0.026540 
#    y 0.000000 1.691430 0.000000 
#    z 0.026540 0.000000 1.752150 
# 
# From -- ./inp_files/42800.got.cif
#   From: 2010.05.17/outbox.cif.g08.bks.cpg/sg10_22_cif.got.tgz:42800.got - 2010.06.03 11:33:40.
