data_PCOD9154295
_publ_section_title
;
Structure prediction by ZEFSAII (Michael W. Deem and Ramdas Pophale) SiO2 
 PCOD9154295
Probable space group: P 2/M
;
_chemical_formula_sum "Si O2"
_cell_formula_units_Z 32
_cell_length_a 13.992011
_cell_length_b 18.374678
_cell_length_c 10.069638
_cell_angle_alpha 90.000000
_cell_angle_beta 45.349946
_cell_angle_gamma 90.000000
_cell_volume 1841.768940
_symmetry_space_group_name_H-M "P 2/M"
_symmetry_group_IT_number 10
_symmetry_cell_setting 'monoclinic'
loop_
_space_group_symop_operation_xyz
x,y,z
-x,y,-z
-x,-y,-z
x,-y,z
loop_
_atom_site_type_symbol
_atom_site_label
_atom_site_fract_x
_atom_site_fract_y
_atom_site_fract_z
Si Si1 0.629310 0.420795 0.278449
Si Si2 0.665478 0.736897 0.319861
Si Si3 0.514556 0.081313 0.644832
Si Si4 0.737004 0.845913 0.011476
Si Si5 0.013348 0.913507 0.647421
Si Si6 0.742522 0.809889 0.509424
Si Si7 0.369697 0.579617 0.032841
Si Si8 0.337989 0.735139 0.147070
O O1 0.500000 0.422925 0.500000
O O2 0.698360 0.500000 0.226163
O O3 0.700705 0.345898 0.247023
O O4 0.589884 0.414354 0.161664
O O5 0.500000 0.740383 0.500000
O O6 0.713810 0.791537 0.158022
O O7 0.740929 0.761626 0.378709
O O8 0.500000 0.093126 0.500000
O O9 0.372096 0.091671 0.854341
O O10 0.612582 0.139319 0.614447
O O11 0.567281 0.000000 0.611610
O O12 0.880042 0.882721 0.848334
O O13 0.702970 0.796600 0.917616
O O14 0.000000 0.904697 0.500000
O O15 0.134711 0.864144 0.583213
O O16 0.031609 0.000000 0.655142
O O17 0.722373 0.757442 0.653624
O O18 0.301998 0.500000 0.114868
O O19 0.295129 0.654207 0.143121
O O20 0.500000 0.577993 0.000000
O O21 0.500000 0.735083 0.000000
#
# Coordination Sequence:
#
# PCOD9154295 Si02
#       8
#     4   4   4   4   4   4   4   4
#     4   9  18  30  48  80 122 158 183 225 290 341
#     4  11  20  36  60  88 121 150 191 241 283 339
#     4  11  22  38  59  85 113 142 185 238 295 345
#     4  12  20  40  59  85 112 151 191 235 291 342
#     4  11  26  44  59  82 118 152 192 244 294 348
#     4  12  22  40  58  84 113 151 189 241 289 339
#     4   9  18  30  47  81 122 155 189 229 280 339
#     4  11  20  32  58  87 114 152 194 235 283 338
#
# _framework density 17.374600000000001
#
# number of rings (size 3 to 8) (size 9 to 14) (size 15 to 20)
#    0.000    1.250    6.250    0.750    5.250    0.500 
#    0.000    1.250    0.000    0.000    0.000    5.250 
#    0.000    0.000    0.000    0.000    0.000    0.000 
#
# Total GULP energy -178342.145306 kJ/mol
# GULP energy per Si atom -5573.192041 kJ/mol
# Density = 1.733505 g / cm^3
# Si number density = 17.374600 Si / 1000 Ang^3
#
#
#
# Elastic Constant Matrix: (Units=GPa)
#
#
# Indices 1 2 3 4 5 6 
#
# 1 75.7566 39.7947 42.2021 0.0000 15.1937 0.0000
# 2 39.7947 134.6318 33.6576 0.0000 12.5670 0.0000
# 3 42.2021 33.6576 74.1612 0.0000 7.6527 0.0000
# 4 0.0000 0.0000 0.0000 22.7255 0.0000 11.8357
# 5 15.1937 12.5670 7.6527 0.0000 36.7329 0.0000
# 6 0.0000 0.0000 0.0000 11.8357 0.0000 16.7524
#
#
#
# Elastic Compliance Matrix: (Units=1/GPa)
#
#
# Indices 1 2 3 4 5 6 
#
# 1 0.021865 -0.003343 -0.010332 0.000000 -0.005748 0.000000
# 2 -0.003343 0.009054 -0.002074 0.000000 -0.001283 0.000000
# 3 -0.010332 -0.002074 0.020226 0.000000 0.000770 0.000000
# 4 0.000000 0.000000 0.000000 0.069621 0.000000 -0.049187
# 5 -0.005748 -0.001283 0.000770 0.000000 0.029879 0.000000
# 6 0.000000 0.000000 0.000000 -0.049187 0.000000 0.094444
#
#
# Mechanical properties :
#
#
# Convention : Reuss Voigt Hill
#
# Bulk Modulus (GPa) = 50.90227 57.31761 54.10994
# Shear Modulus (GPa) = 17.65932 26.50183 22.08057
#
# Velocity S-wave (km/s) = 3.19154 3.90977 3.56877
# Velocity P-wave (km/s) = 6.55300 7.31045 6.94206
#
# Compressibility (1/GPa) = 0.01964549
#
# Stress axis : x y z
#
# Youngs Moduli (GPa) = 45.73553 110.44607 49.44227
#
# Poissons Ratio (x) = 0.36926 0.51083
# Poissons Ratio (y) = 0.15291 0.10256
# Poissons Ratio (z) = 0.47254 0.22909
#
# Static dielectric constant tensor:
#      x y z
#    x 1.580670 0.000000 0.020540 
#    y 0.000000 1.630050 0.000000 
#    z 0.020540 0.000000 1.590690 
# 
# From -- ./inp_files/26075.got.cif
#   From: 2010.05.17/outbox.cif.g08.bks.cpg/sg10_14_cif.got.tgz:26075.got - 2010.06.03 11:33:40.
