data_PCOD9154382
_publ_section_title
;
Structure prediction by ZEFSAII (Michael W. Deem and Ramdas Pophale) SiO2 
 PCOD9154382
Probable space group: P 2/M
;
_chemical_formula_sum "Si O2"
_cell_formula_units_Z 24
_cell_length_a 11.958320
_cell_length_b 7.576375
_cell_length_c 25.833483
_cell_angle_alpha 90.000000
_cell_angle_beta 29.491088
_cell_angle_gamma 90.000000
_cell_volume 1152.216265
_symmetry_space_group_name_H-M "P 2/M"
_symmetry_group_IT_number 10
_symmetry_cell_setting 'monoclinic'
loop_
_space_group_symop_operation_xyz
x,y,z
-x,y,-z
-x,-y,-z
x,-y,z
loop_
_atom_site_type_symbol
_atom_site_label
_atom_site_fract_x
_atom_site_fract_y
_atom_site_fract_z
Si Si1 0.512039 0.500000 0.430581
Si Si2 0.268966 0.212216 0.284143
Si Si3 0.685738 0.788811 0.856050
Si Si4 0.239979 0.801763 0.909466
Si Si5 0.196337 0.296295 0.040479
Si Si6 0.944949 0.500000 0.459556
Si Si7 0.874625 0.205584 0.257812
O O1 0.500000 0.500000 0.500000
O O2 0.291219 0.500000 0.480279
O O3 0.661486 0.328639 0.354863
O O4 0.270759 0.249190 0.222017
O O5 0.517617 0.271289 0.205030
O O6 0.073701 0.324176 0.388537
O O7 0.250525 0.000000 0.298228
O O8 0.909453 0.727668 0.795746
O O9 0.674144 0.000000 0.868324
O O10 0.439758 0.715776 0.970644
O O11 0.223165 0.000000 0.893869
O O12 0.249135 0.811217 0.967664
O O13 0.000000 0.707105 0.000000
O O14 0.153853 0.500000 0.045403
O O15 0.981004 0.222427 0.157649
O O16 0.000000 0.500000 0.500000
O O17 0.828726 0.000000 0.287918
#
# Coordination Sequence:
#
# PCOD9154382 Si02
#       7
#     2   4   4   4   4   2   4
#     4  12  28  48  68  94 122 160 224 282 326 378
#     4   9  20  41  65  91 123 164 210 255 312 378
#     4   9  19  35  61  94 126 166 206 240 301 389
#     4   9  19  36  59  89 123 164 207 246 301 381
#     4  11  21  32  54  92 133 166 198 242 304 384
#     4  12  28  46  66  94 124 160 220 280 326 374
#     4  11  23  41  64  92 128 165 203 259 322 375
#
# _framework density 20.829423999999999
#
# number of rings (size 3 to 8) (size 9 to 14) (size 15 to 20)
#    0.000    1.833    0.833    4.000    5.833    5.000 
#    0.000    1.667    0.000    0.000    0.000    0.000 
#    0.000    0.000    0.000    0.000    0.000    0.000 
#
# Total GULP energy -133680.057576 kJ/mol
# GULP energy per Si atom -5570.002399 kJ/mol
# Density = 2.078202 g / cm^3
# Si number density = 20.829424 Si / 1000 Ang^3
#
#
#
# Elastic Constant Matrix: (Units=GPa)
#
#
# Indices 1 2 3 4 5 6 
#
# 1 92.9143 20.6548 53.8972 0.0000 -28.5671 0.0000
# 2 20.6548 95.8318 46.6978 0.0000 -14.2768 0.0000
# 3 53.8972 46.6978 129.3703 0.0000 -21.8283 0.0000
# 4 0.0000 0.0000 0.0000 -552.5361 0.0000 -156.3371
# 5 -28.5671 -14.2768 -21.8283 0.0000 41.6837 0.0000
# 6 0.0000 0.0000 0.0000 -156.3371 0.0000 -19.8058
#
#
#
# Elastic Compliance Matrix: (Units=1/GPa)
#
#
# Indices 1 2 3 4 5 6 
#
# 1 0.016549 0.000442 -0.005611 0.000000 0.008555 0.000000
# 2 0.000442 0.012849 -0.004419 0.000000 0.002389 0.000000
# 3 -0.005611 -0.004419 0.011801 0.000000 0.000821 0.000000
# 4 0.000000 0.000000 0.000000 0.001467 0.000000 -0.011582
# 5 0.008555 0.002389 0.000821 0.000000 0.031102 0.000000
# 6 0.000000 0.000000 0.000000 -0.011582 0.000000 0.040935
#
#
# Mechanical properties :
#
#
# Convention : Reuss Voigt Hill
#
# Bulk Modulus (GPa) = 45.40624 62.29066 53.84845
# Shear Modulus (GPa) = 35.40587 -93.00720 -28.80067
#
# Velocity S-wave (km/s) = 4.12734 -6.68945 -3.72249
# Velocity P-wave (km/s) = 6.67530 5.44931 2.72623
#
# Compressibility (1/GPa) = 0.02202340
#
# Stress axis : x y z
#
# Youngs Moduli (GPa) = 60.42568 77.82713 84.74050
#
# Poissons Ratio (x) = -0.03437 0.47544
# Poissons Ratio (y) = -0.02668 0.37445
# Poissons Ratio (z) = 0.33902 0.34390
#
# Static dielectric constant tensor:
#      x y z
#    x 1.912260 0.000000 -0.021560 
#    y 0.000000 1.764440 0.000000 
#    z -0.021560 0.000000 1.729920 
# 
# From -- ./inp_files/88630.got.cif
#   From: 2010.05.17/outbox.cif.g08.bks.cpg/sg10_45_cif.got.tgz:88630.got - 2010.06.03 11:33:40.
