data_PCOD9154623
_publ_section_title
;
Structure prediction by ZEFSAII (Michael W. Deem and Ramdas Pophale) SiO2 
 PCOD9154623
Probable space group: P 2/M
;
_chemical_formula_sum "Si O2"
_cell_formula_units_Z 24
_cell_length_a 9.613296
_cell_length_b 19.623800
_cell_length_c 8.858658
_cell_angle_alpha 90.000000
_cell_angle_beta 130.788750
_cell_angle_gamma 90.000000
_cell_volume 1265.289761
_symmetry_space_group_name_H-M "P 2/M"
_symmetry_group_IT_number 10
_symmetry_cell_setting 'monoclinic'
loop_
_space_group_symop_operation_xyz
x,y,z
-x,y,-z
-x,-y,-z
x,-y,z
loop_
_atom_site_type_symbol
_atom_site_label
_atom_site_fract_x
_atom_site_fract_y
_atom_site_fract_z
Si Si1 0.500415 0.149841 0.327436
Si Si2 0.094347 0.866047 0.911891
Si Si3 0.805153 0.000000 0.179251
Si Si4 0.311635 0.500000 0.788270
Si Si5 0.011998 0.500000 0.188258
Si Si6 0.435343 0.000000 0.711988
Si Si7 0.837939 0.384140 0.510566
Si Si8 0.143645 0.771743 0.464439
O O1 0.500000 0.175412 0.500000
O O2 0.552145 0.069959 0.368577
O O3 0.670166 0.187259 0.367518
O O4 0.303667 0.155913 0.103668
O O5 0.097949 0.930124 0.800741
O O6 0.967344 0.807028 0.751408
O O7 0.000000 0.889633 0.000000
O O8 0.743112 0.000000 0.308081
O O9 0.616138 0.000000 0.947112
O O10 0.301233 0.432736 0.677438
O O11 0.158936 0.500000 0.813364
O O12 0.500000 0.500000 0.000000
O O13 0.110468 0.430139 0.309483
O O14 0.000000 0.500000 0.000000
O O15 0.799200 0.306506 0.524167
O O16 0.000000 0.380793 0.500000
O O17 0.000000 0.774060 0.500000
#
# Coordination Sequence:
#
# PCOD9154623 Si02
#       8
#     4   4   2   2   2   2   4   4
#     4  11  22  40  59  85 119 158 198 246 308 363
#     4  11  22  39  61  82 121 159 196 249 312 357
#     4   9  19  35  57  88 109 148 206 256 294 358
#     4   9  17  37  64  88 120 153 195 227 284 345
#     4   9  17  35  62  88 112 153 191 233 282 333
#     4   9  19  35  59  82 115 148 200 258 298 344
#     4   8  18  38  58  83 122 155 188 236 282 350
#     4  11  23  40  60  88 120 155 201 244 294 357
#
# _framework density 18.967986
#
# number of rings (size 3 to 8) (size 9 to 14) (size 15 to 20)
#    0.000    2.167    1.667    2.500    0.000    3.333 
#    9.000    3.333    0.000    0.000    0.000    0.000 
#    0.000    0.000    0.000    0.000    0.000    0.000 
#
# Total GULP energy -133737.535898 kJ/mol
# GULP energy per Si atom -5572.397329 kJ/mol
# Density = 1.892481 g / cm^3
# Si number density = 18.967986 Si / 1000 Ang^3
#
#
#
# Elastic Constant Matrix: (Units=GPa)
#
#
# Indices 1 2 3 4 5 6 
#
# 1 62.8645 21.7066 24.8820 0.0000 2.4218 0.0000
# 2 21.7066 133.8474 47.5215 0.0000 16.4520 0.0000
# 3 24.8820 47.5215 91.6842 0.0000 8.6857 0.0000
# 4 0.0000 0.0000 0.0000 -68.0285 0.0000 -4.4862
# 5 2.4218 16.4520 8.6857 0.0000 36.5479 0.0000
# 6 0.0000 0.0000 0.0000 -4.4862 0.0000 13.1037
#
#
#
# Elastic Compliance Matrix: (Units=1/GPa)
#
#
# Indices 1 2 3 4 5 6 
#
# 1 0.018058 -0.001508 -0.004164 0.000000 0.000472 0.000000
# 2 -0.001508 0.009630 -0.004277 0.000000 -0.003218 0.000000
# 3 -0.004164 -0.004277 0.014369 0.000000 -0.001214 0.000000
# 4 0.000000 0.000000 0.000000 -0.014375 0.000000 -0.004921
# 5 0.000472 -0.003218 -0.001214 0.000000 0.029067 0.000000
# 6 0.000000 0.000000 0.000000 -0.004921 0.000000 0.074629
#
#
# Mechanical properties :
#
#
# Convention : Reuss Voigt Hill
#
# Bulk Modulus (GPa) = 45.12926 52.95737 49.04332
# Shear Modulus (GPa) = 31.51351 9.27704 20.39528
#
# Velocity S-wave (km/s) = 4.08046 2.21394 3.28265
# Velocity P-wave (km/s) = 6.78558 5.87497 6.34663
#
# Compressibility (1/GPa) = 0.02215857
#
# Stress axis : x y z
#
# Youngs Moduli (GPa) = 55.37767 103.84257 69.59498
#
# Poissons Ratio (x) = 0.15662 0.28977
# Poissons Ratio (y) = 0.08352 0.29767
# Poissons Ratio (z) = 0.23057 0.44415
#
# Static dielectric constant tensor:
#      x y z
#    x 1.636850 0.000000 0.018860 
#    y 0.000000 1.643890 0.000000 
#    z 0.018860 0.000000 1.660020 
# 
# From -- ./inp_files/20199.got.cif
#   From: 2010.05.17/outbox.cif.g08.bks.cpg/sg10_11_cif.got.tgz:20199.got - 2010.06.03 11:33:40.
