data_PCOD9154150
_publ_section_title
;
Structure prediction by ZEFSAII (Michael W. Deem and Ramdas Pophale) SiO2 
 PCOD9154150
Probable space group: P 2/M
;
_chemical_formula_sum "Si O2"
_cell_formula_units_Z 26
_cell_length_a 7.838935
_cell_length_b 16.657244
_cell_length_c 17.862676
_cell_angle_alpha 90.000000
_cell_angle_beta 27.767308
_cell_angle_gamma 90.000000
_cell_volume 1086.632053
_symmetry_space_group_name_H-M "P 2/M"
_symmetry_group_IT_number 10
_symmetry_cell_setting 'monoclinic'
loop_
_space_group_symop_operation_xyz
x,y,z
-x,y,-z
-x,-y,-z
x,-y,z
loop_
_atom_site_type_symbol
_atom_site_label
_atom_site_fract_x
_atom_site_fract_y
_atom_site_fract_z
Si Si1 0.428790 0.248523 0.830798
Si Si2 0.581317 0.732194 0.386402
Si Si3 0.175437 0.000000 0.705836
Si Si4 0.381956 0.409432 0.173223
Si Si5 0.224686 0.149478 0.171318
Si Si6 0.903990 0.588222 0.206441
Si Si7 0.627721 0.133425 0.616522
O O1 0.640004 0.333170 0.763359
O O2 0.537161 0.190553 0.857489
O O3 0.488993 0.193606 0.734521
O O4 0.000000 0.267415 0.000000
O O5 0.500000 0.700801 0.500000
O O6 0.291724 0.801729 0.480530
O O7 0.965895 0.780350 0.238953
O O8 0.616236 0.659504 0.316067
O O9 0.341538 0.069916 0.697145
O O10 0.014145 0.071963 0.713720
O O11 0.344860 0.500000 0.219707
O O12 0.105810 0.404312 0.209287
O O13 0.780262 0.404790 0.978154
O O14 0.500000 0.117756 0.000000
O O15 0.739539 0.500000 0.265345
O O16 0.000000 0.094961 0.500000
#
# Coordination Sequence:
#
# PCOD9154150 Si02
#       7
#     4   4   2   4   4   4   4
#     4  12  23  37  63  96 130 166 202 259 319 372
#     4  11  22  39  63  90 125 169 218 254 308 373
#     4  10  24  46  69  90 117 162 214 264 310 380
#     4   9  18  34  60  94 129 167 211 260 305 356
#     4  11  22  41  66  92 121 160 210 260 309 375
#     4   9  17  33  61  93 125 163 218 267 295 350
#     4  11  25  44  64  92 127 161 203 261 325 382
#
# _framework density 23.927143999999998
#
# number of rings (size 3 to 8) (size 9 to 14) (size 15 to 20)
#    0.000    1.538    1.538    6.000    0.000    1.231 
#    0.000   15.385    0.000    0.923    0.000    0.000 
#    0.000    0.000    0.000    0.000    0.000    0.000 
#
# Total GULP energy -144861.746150 kJ/mol
# GULP energy per Si atom -5571.605621 kJ/mol
# Density = 2.387268 g / cm^3
# Si number density = 23.927144 Si / 1000 Ang^3
#
#
#
# Elastic Constant Matrix: (Units=GPa)
#
#
# Indices 1 2 3 4 5 6 
#
# 1 87.7957 49.2484 -0.4921 0.0000 -10.6780 0.0000
# 2 49.2484 212.1875 11.2863 0.0000 3.3429 0.0000
# 3 -0.4921 11.2863 27.3612 0.0000 0.6411 0.0000
# 4 0.0000 0.0000 0.0000-2280.4843 0.0000 -676.1544
# 5 -10.6780 3.3429 0.6411 0.0000 28.2797 0.0000
# 6 0.0000 0.0000 0.0000 -676.1544 0.0000 -152.9136
#
#
#
# Elastic Compliance Matrix: (Units=1/GPa)
#
#
# Indices 1 2 3 4 5 6 
#
# 1 0.014006 -0.003421 0.001531 0.000000 0.005658 0.000000
# 2 -0.003421 0.005662 -0.002352 0.000000 -0.001908 0.000000
# 3 0.001531 -0.002352 0.037546 0.000000 0.000005 0.000000
# 4 0.000000 0.000000 0.000000 0.001410 0.000000 -0.006234
# 5 0.005658 -0.001908 0.000005 0.000000 0.037723 0.000000
# 6 0.000000 0.000000 0.000000 -0.006234 0.000000 0.021025
#
#
# Mechanical properties :
#
#
# Convention : Reuss Voigt Hill
#
# Bulk Modulus (GPa) = 20.52221 49.71441 35.11831
# Shear Modulus (GPa) = 35.18649 -463.20352 -214.00852
#
# Velocity S-wave (km/s) = 3.83896 -13.92873 -9.46762
# Velocity P-wave (km/s) = 5.31467 15.42260 10.23746
#
# Compressibility (1/GPa) = 0.04872769
#
# Stress axis : x y z
#
# Youngs Moduli (GPa) = 71.39796 176.61348 26.63409
#
# Poissons Ratio (x) = 0.60425 -0.04077
# Poissons Ratio (y) = 0.24428 0.06265
# Poissons Ratio (z) = -0.10928 0.41547
#
# Static dielectric constant tensor:
#      x y z
#    x 1.953950 0.000000 -0.004870 
#    y 0.000000 2.195780 0.000000 
#    z -0.004870 0.000000 1.980010 
# 
# From -- ./inp_files/82775.got.cif
#   From: 2010.05.17/outbox.cif.g08.bks.cpg/sg10_42_cif.got.tgz:82775.got - 2010.06.03 11:33:40.
