data_PCOD9154751
_publ_section_title
;
Structure prediction by ZEFSAII (Michael W. Deem and Ramdas Pophale) SiO2 
 PCOD9154751
Probable space group: P 2/M
;
_chemical_formula_sum "Si O2"
_cell_formula_units_Z 28
_cell_length_a 27.473751
_cell_length_b 8.883912
_cell_length_c 9.654522
_cell_angle_alpha 90.000000
_cell_angle_beta 138.898010
_cell_angle_gamma 90.000000
_cell_volume 1549.114856
_symmetry_space_group_name_H-M "P 2/M"
_symmetry_group_IT_number 10
_symmetry_cell_setting 'monoclinic'
loop_
_space_group_symop_operation_xyz
x,y,z
-x,y,-z
-x,-y,-z
x,-y,z
loop_
_atom_site_type_symbol
_atom_site_label
_atom_site_fract_x
_atom_site_fract_y
_atom_site_fract_z
Si Si1 0.927100 0.820233 0.931553
Si Si2 0.679734 0.828969 0.606642
Si Si3 0.292300 0.822392 0.865027
Si Si4 0.058309 0.674801 0.741224
Si Si5 0.813008 0.834257 0.111503
Si Si6 0.235546 0.678765 0.465374
Si Si7 0.583619 0.183825 0.646829
O O1 0.847657 0.748649 0.720184
O O2 0.919324 0.000000 0.903316
O O3 0.942590 0.772192 0.122506
O O4 0.000000 0.774084 0.000000
O O5 0.714427 0.736443 0.555534
O O6 0.612455 0.766820 0.556616
O O7 0.662549 0.000000 0.522010
O O8 0.744226 0.840817 0.859717
O O9 0.219888 0.811751 0.807333
O O10 0.276423 0.731826 0.692585
O O11 0.303349 0.000000 0.856753
O O12 0.360457 0.771318 0.109296
O O13 0.046921 0.500000 0.752199
O O14 0.135942 0.702579 0.832770
O O15 0.000000 0.721341 0.500000
O O16 0.850196 0.000000 0.184773
O O17 0.228386 0.500000 0.444288
O O18 0.500000 0.229077 0.500000
O O19 0.587010 0.000000 0.649935
#
# Coordination Sequence:
#
# PCOD9154751 Si02
#       7
#     4   4   4   4   4   4   4
#     4  11  25  43  61  81 107 147 194 239 288 338
#     4   9  17  33  58  84 110 144 184 230 277 331
#     4   9  19  35  57  85 114 147 188 233 279 332
#     4  11  24  38  54  81 113 143 180 229 283 335
#     4   9  18  34  56  78 102 141 189 231 272 326
#     4  12  24  37  56  82 115 153 190 234 283 338
#     4   8  15  32  61  93 117 141 184 238 283 325
#
# _framework density 18.074839000000001
#
# number of rings (size 3 to 8) (size 9 to 14) (size 15 to 20)
#    0.000    2.143    1.429    3.857    2.000    2.857 
#    0.000    2.857    0.000    6.000    0.000    0.000 
#    0.000    0.000    0.000    0.000    0.000    0.000 
#
# Total GULP energy -156085.864969 kJ/mol
# GULP energy per Si atom -5574.495177 kJ/mol
# Density = 1.803370 g / cm^3
# Si number density = 18.074839 Si / 1000 Ang^3
#
#
#
# Elastic Constant Matrix: (Units=GPa)
#
#
# Indices 1 2 3 4 5 6 
#
# 1 138.6561 51.6443 69.9851 0.0000 -1.7017 0.0000
# 2 51.6443 55.1830 34.0517 0.0000 -7.7814 0.0000
# 3 69.9851 34.0517 73.5397 0.0000 -5.6621 0.0000
# 4 0.0000 0.0000 0.0000 -151.4018 0.0000 48.9748
# 5 -1.7017 -7.7814 -5.6621 0.0000 28.2397 0.0000
# 6 0.0000 0.0000 0.0000 48.9748 0.0000 -21.0295
#
#
#
# Elastic Compliance Matrix: (Units=1/GPa)
#
#
# Indices 1 2 3 4 5 6 
#
# 1 0.016328 -0.008458 -0.011910 0.000000 -0.003735 0.000000
# 2 -0.008458 0.030384 -0.005499 0.000000 0.006760 0.000000
# 3 -0.011910 -0.005499 0.027735 0.000000 0.003328 0.000000
# 4 0.000000 0.000000 0.000000 -0.026777 0.000000 -0.062360
# 5 -0.003735 0.006760 0.003328 0.000000 0.037716 0.000000
# 6 0.000000 0.000000 0.000000 -0.062360 0.000000 -0.192779
#
#
# Mechanical properties :
#
#
# Convention : Reuss Voigt Hill
#
# Bulk Modulus (GPa) = 44.02869 64.30456 54.16662
# Shear Modulus (GPa) = -103.97514 -21.39180 -62.68347
#
# Velocity S-wave (km/s) = -7.59274 -3.44395 -5.89536
# Velocity P-wave (km/s) = 7.24253 4.45417 4.03823
#
# Compressibility (1/GPa) = 0.02271246
#
# Stress axis : x y z
#
# Youngs Moduli (GPa) = 61.24429 32.91211 36.05599
#
# Poissons Ratio (x) = 0.27839 0.42942
# Poissons Ratio (y) = 0.51803 0.19827
# Poissons Ratio (z) = 0.72941 0.18098
#
# Static dielectric constant tensor:
#      x y z
#    x 1.641870 0.000000 -0.006350 
#    y 0.000000 1.622590 0.000000 
#    z -0.006350 0.000000 1.532830 
# 
# From -- ./inp_files/37318.got.cif
#   From: 2010.05.17/outbox.cif.g08.bks.cpg/sg10_19_cif.got.tgz:37318.got - 2010.06.03 11:33:40.
