data_PCOD9154414
_publ_section_title
;
Structure prediction by ZEFSAII (Michael W. Deem and Ramdas Pophale) SiO2 
 PCOD9154414
Probable space group: P 2/M
;
_chemical_formula_sum "Si O2"
_cell_formula_units_Z 32
_cell_length_a 11.215397
_cell_length_b 8.970952
_cell_length_c 21.540063
_cell_angle_alpha 90.000000
_cell_angle_beta 64.655840
_cell_angle_gamma 90.000000
_cell_volume 1958.618523
_symmetry_space_group_name_H-M "P 2/M"
_symmetry_group_IT_number 10
_symmetry_cell_setting 'monoclinic'
loop_
_space_group_symop_operation_xyz
x,y,z
-x,y,-z
-x,-y,-z
x,-y,z
loop_
_atom_site_type_symbol
_atom_site_label
_atom_site_fract_x
_atom_site_fract_y
_atom_site_fract_z
Si Si1 0.303020 0.678972 0.529317
Si Si2 0.412010 0.326542 0.878554
Si Si3 0.474056 0.820928 0.599979
Si Si4 0.488739 0.320625 0.727921
Si Si5 0.655049 0.827200 0.984563
Si Si6 0.793205 0.679315 0.697797
Si Si7 0.024779 0.175239 0.567870
Si Si8 0.721841 0.326570 0.847777
O O1 0.317112 0.500000 0.525490
O O2 0.368457 0.748697 0.576464
O O3 0.386881 0.751821 0.454406
O O4 0.152796 0.729624 0.557352
O O5 0.375789 0.500000 0.887587
O O6 0.409775 0.274131 0.807757
O O7 0.567094 0.317832 0.862879
O O8 0.333033 0.244348 0.950186
O O9 0.449457 0.767001 0.675260
O O10 0.475653 0.000000 0.594132
O O11 0.472901 0.500000 0.723543
O O12 0.644324 0.294347 0.706676
O O13 0.735452 0.755301 0.910056
O O14 0.684940 0.000000 0.981475
O O15 0.500000 0.810651 0.000000
O O16 0.814379 0.500000 0.690510
O O17 0.797738 0.726662 0.769359
O O18 0.899177 0.764469 0.633279
O O19 0.000000 0.191707 0.500000
O O20 0.047128 0.000000 0.575805
O O21 0.752659 0.500000 0.849966
#
# Coordination Sequence:
#
# PCOD9154414 Si02
#       8
#     4   4   4   4   4   4   4   4
#     4  11  22  37  55  71  90 120 158 193 226 271
#     4   8  14  24  38  56  82 117 153 188 222 263
#     4  11  21  34  52  73  97 120 148 190 238 280
#     4   9  17  30  47  68  94 125 161 193 227 274
#     4   9  15  21  32  53  81 113 149 187 227 270
#     4   9  18  31  47  67  91 123 161 196 228 272
#     4  11  23  36  50  71  98 124 151 188 235 279
#     4   8  14  25  39  55  79 114 154 189 223 265
#
# _framework density 16.338047
#
# number of rings (size 3 to 8) (size 9 to 14) (size 15 to 20)
#    0.000    2.500    0.000    6.000    0.000    6.000 
#    0.000    2.500    0.000    0.000    0.000    0.000 
#    0.000    1.000    0.000   10.500    0.000    8.000 
#
# Total GULP energy -178332.465142 kJ/mol
# GULP energy per Si atom -5572.889536 kJ/mol
# Density = 1.630086 g / cm^3
# Si number density = 16.338047 Si / 1000 Ang^3
#
#
#
# Elastic Constant Matrix: (Units=GPa)
#
#
# Indices 1 2 3 4 5 6 
#
# 1 19.6429 20.4040 19.2392 0.0000 4.4900 0.0000
# 2 20.4040 88.3183 67.4785 0.0000 12.4575 0.0000
# 3 19.2392 67.4785 149.1065 0.0000 25.4132 0.0000
# 4 0.0000 0.0000 0.0000 -7.3222 0.0000 10.3298
# 5 4.4900 12.4575 25.4132 0.0000 19.6524 0.0000
# 6 0.0000 0.0000 0.0000 10.3298 0.0000 15.5782
#
#
#
# Elastic Compliance Matrix: (Units=1/GPa)
#
#
# Indices 1 2 3 4 5 6 
#
# 1 0.067913 -0.013674 -0.001805 0.000000 -0.004514 0.000000
# 2 -0.013674 0.020078 -0.007292 0.000000 -0.000173 0.000000
# 3 -0.001805 -0.007292 0.012034 0.000000 -0.010526 0.000000
# 4 0.000000 0.000000 0.000000 -0.070563 0.000000 0.046790
# 5 -0.004514 -0.000173 -0.010526 0.000000 0.065637 0.000000
# 6 0.000000 0.000000 0.000000 0.046790 0.000000 0.033167
#
#
# Mechanical properties :
#
#
# Convention : Reuss Voigt Hill
#
# Bulk Modulus (GPa) = 18.35492 52.36790 35.36141
# Shear Modulus (GPa) = 26.04594 15.57807 20.81201
#
# Velocity S-wave (km/s) = 3.99706 3.09120 3.57296
# Velocity P-wave (km/s) = 5.70621 6.69799 6.22189
#
# Compressibility (1/GPa) = 0.05448131
#
# Stress axis : x y z
#
# Youngs Moduli (GPa) = 14.72482 49.80634 83.09884
#
# Poissons Ratio (x) = 0.68103 0.15003
# Poissons Ratio (y) = 0.20134 0.60600
# Poissons Ratio (z) = 0.02658 0.36321
#
# Static dielectric constant tensor:
#      x y z
#    x 1.533130 0.000000 0.010660 
#    y 0.000000 1.542660 0.000000 
#    z 0.010660 0.000000 1.571400 
# 
# From -- ./inp_files/83364.got.cif
#   From: 2010.05.17/outbox.cif.g08.bks.cpg/sg10_42_cif.got.tgz:83364.got - 2010.06.03 11:33:40.
