data_PCOD9154731
_publ_section_title
;
Structure prediction by ZEFSAII (Michael W. Deem and Ramdas Pophale) SiO2 
 PCOD9154731
Probable space group: P 2/M
;
_chemical_formula_sum "Si O2"
_cell_formula_units_Z 18
_cell_length_a 7.036569
_cell_length_b 11.324356
_cell_length_c 10.252728
_cell_angle_alpha 90.000000
_cell_angle_beta 82.153521
_cell_angle_gamma 90.000000
_cell_volume 809.335573
_symmetry_space_group_name_H-M "P 2/M"
_symmetry_group_IT_number 10
_symmetry_cell_setting 'monoclinic'
loop_
_space_group_symop_operation_xyz
x,y,z
-x,y,-z
-x,-y,-z
x,-y,z
loop_
_atom_site_type_symbol
_atom_site_label
_atom_site_fract_x
_atom_site_fract_y
_atom_site_fract_z
Si Si1 0.036843 0.000000 0.264871
Si Si2 0.269407 0.634226 0.042105
Si Si3 0.216561 0.635730 0.534709
Si Si4 0.321569 0.213564 0.286625
Si Si5 0.239472 0.785729 0.793726
O O1 0.180496 0.896610 0.310636
O O2 0.103407 0.896415 0.783152
O O3 0.197013 0.500000 0.050786
O O4 0.242130 0.699520 0.181627
O O5 0.500000 0.627540 0.000000
O O6 0.198004 0.713665 0.929287
O O7 0.279265 0.500000 0.535410
O O8 0.331460 0.713053 0.418906
O O9 0.220527 0.696519 0.674375
O O10 0.000000 0.637510 0.500000
O O11 0.536123 0.175918 0.225059
#
# Coordination Sequence:
#
# PCOD9154731 Si02
#       5
#     2   4   4   4   4
#     4  12  26  46  62  96 134 172 222 274 298 388
#     4   9  20  41  68 100 130 162 213 269 323 389
#     4  11  23  43  68 100 132 164 211 270 326 387
#     4  11  24  43  69  95 129 175 214 263 325 379
#     4  11  24  43  69  95 129 175 214 263 325 379
#
# _framework density 22.240466999999999
#
# number of rings (size 3 to 8) (size 9 to 14) (size 15 to 20)
#    0.000    1.333    2.222    2.667    0.000    8.000 
#    0.000    6.667    0.000    0.000    0.000    0.000 
#    0.000    0.000    0.000    0.000    0.000    0.000 
#
# Total GULP energy -100247.115172 kJ/mol
# GULP energy per Si atom -5569.284176 kJ/mol
# Density = 2.218985 g / cm^3
# Si number density = 22.240467 Si / 1000 Ang^3
#
#
#
# Elastic Constant Matrix: (Units=GPa)
#
#
# Indices 1 2 3 4 5 6 
#
# 1 81.9505 47.8948 24.3482 0.0000 19.4077 0.0000
# 2 47.8948 218.7062 68.6248 0.0000 18.0918 0.0000
# 3 24.3482 68.6248 143.4784 0.0000 20.7083 0.0000
# 4 0.0000 0.0000 0.0000 9.7106 0.0000 17.1041
# 5 19.4077 18.0918 20.7083 0.0000 32.0060 0.0000
# 6 0.0000 0.0000 0.0000 17.1041 0.0000 43.9266
#
#
#
# Elastic Compliance Matrix: (Units=1/GPa)
#
#
# Indices 1 2 3 4 5 6 
#
# 1 0.015719 -0.002720 -0.000235 0.000000 -0.007842 0.000000
# 2 -0.002720 0.005918 -0.002343 0.000000 -0.000180 0.000000
# 3 -0.000235 -0.002343 0.008734 0.000000 -0.004184 0.000000
# 4 0.000000 0.000000 0.000000 0.327799 0.000000 -0.127638
# 5 -0.007842 -0.000180 -0.004184 0.000000 0.038809 0.000000
# 6 0.000000 0.000000 0.000000 -0.127638 0.000000 0.072465
#
#
# Mechanical properties :
#
#
# Convention : Reuss Voigt Hill
#
# Bulk Modulus (GPa) = 50.56662 80.65231 65.60947
# Shear Modulus (GPa) = 10.27472 37.34645 23.81059
#
# Velocity S-wave (km/s) = 2.15171 4.10226 3.27555
# Velocity P-wave (km/s) = 5.38134 7.66685 6.62342
#
# Compressibility (1/GPa) = 0.01977589
#
# Stress axis : x y z
#
# Youngs Moduli (GPa) = 63.61687 168.97403 114.49379
#
# Poissons Ratio (x) = 0.45961 0.02687
# Poissons Ratio (y) = 0.17304 0.26826
# Poissons Ratio (z) = 0.01493 0.39591
#
# Static dielectric constant tensor:
#      x y z
#    x 1.903100 0.000000 -0.024680 
#    y 0.000000 1.709910 0.000000 
#    z -0.024680 0.000000 1.778200 
# 
# From -- ./inp_files/17321.got.cif
#   From: 2010.05.17/outbox.cif.g08.bks.cpg/sg10_9_cif.got.tgz:17321.got - 2010.06.03 11:33:40.
