data_PCOD9154672
_publ_section_title
;
Structure prediction by ZEFSAII (Michael W. Deem and Ramdas Pophale) SiO2 
 PCOD9154672
Probable space group: P 2/M
;
_chemical_formula_sum "Si O2"
_cell_formula_units_Z 28
_cell_length_a 25.462917
_cell_length_b 7.506351
_cell_length_c 23.023757
_cell_angle_alpha 90.000000
_cell_angle_beta 17.457041
_cell_angle_gamma 90.000000
_cell_volume 1320.142831
_symmetry_space_group_name_H-M "P 2/M"
_symmetry_group_IT_number 10
_symmetry_cell_setting 'monoclinic'
loop_
_space_group_symop_operation_xyz
x,y,z
-x,y,-z
-x,-y,-z
x,-y,z
loop_
_atom_site_type_symbol
_atom_site_label
_atom_site_fract_x
_atom_site_fract_y
_atom_site_fract_z
Si Si1 0.412223 0.791448 0.803659
Si Si2 0.676859 0.781668 0.974394
Si Si3 0.210973 0.704659 0.788327
Si Si4 0.587046 0.782697 0.847363
Si Si5 0.755681 0.710164 0.371136
Si Si6 0.976980 0.217469 0.457265
Si Si7 0.146207 0.715930 0.981930
O O1 0.593883 0.726188 0.584731
O O2 0.437993 0.000000 0.784814
O O3 0.361320 0.717451 0.920375
O O4 0.258613 0.765463 0.918975
O O5 0.862524 0.724516 0.752002
O O6 0.679713 0.000000 0.971888
O O7 0.527383 0.726481 0.086690
O O8 0.274055 0.500000 0.725811
O O9 0.284516 0.785319 0.651076
O O10 0.230929 0.781827 0.831699
O O11 0.000000 0.702312 0.000000
O O12 0.787913 0.725435 0.634069
O O13 0.585308 0.000000 0.849606
O O14 0.500000 0.726611 0.000000
O O15 0.783711 0.500000 0.331569
O O16 0.943183 0.777258 0.196739
O O17 0.000000 0.272806 0.500000
O O18 0.978671 0.000000 0.455984
O O19 0.146627 0.500000 0.978911
#
# Coordination Sequence:
#
# PCOD9154672 Si02
#       7
#     4   4   4   4   4   4   4
#     4  11  23  34  46  71 112 150 172 198 248 318
#     4   9  18  29  38  58  93 132 166 194 238 299
#     4   7  12  27  53  80  97 117 162 226 275 297
#     4   9  14  22  39  59  80 112 156 202 242 283
#     4   9  18  35  58  78  98 129 175 224 263 300
#     4   9  14  22  39  59  80 112 156 202 242 283
#     4   9  18  35  58  78  98 129 175 224 263 300
#
# _framework density 21.209826
#
# number of rings (size 3 to 8) (size 9 to 14) (size 15 to 20)
#    0.000    3.000    1.429    2.143    0.000    2.286 
#    0.000    6.429    0.000    2.571    0.000    0.000 
#    0.000    4.571    0.000    0.000    0.000    0.000 
#
# Total GULP energy -156210.902877 kJ/mol
# GULP energy per Si atom -5578.960817 kJ/mol
# Density = 2.116155 g / cm^3
# Si number density = 21.209826 Si / 1000 Ang^3
#
#
#
# Elastic Constant Matrix: (Units=GPa)
#
#
# Indices 1 2 3 4 5 6 
#
# 1 200.9446 -13.0774 119.2989 0.0000 19.0570 0.0000
# 2 -13.0774 49.2523 -6.6756 0.0000 2.6254 0.0000
# 3 119.2989 -6.6756 187.7319 0.0000 14.4619 0.0000
# 4 0.0000 0.0000 0.0000 14.3619 0.0000 1.5098
# 5 19.0570 2.6254 14.4619 0.0000 39.3260 0.0000
# 6 0.0000 0.0000 0.0000 1.5098 0.0000 14.4978
#
#
#
# Elastic Compliance Matrix: (Units=1/GPa)
#
#
# Indices 1 2 3 4 5 6 
#
# 1 0.008287 0.001639 -0.005032 0.000000 -0.002274 0.000000
# 2 0.001639 0.020834 -0.000136 0.000000 -0.002135 0.000000
# 3 -0.005032 -0.000136 0.008574 0.000000 -0.000705 0.000000
# 4 0.000000 0.000000 0.000000 0.070400 0.000000 -0.007331
# 5 -0.002274 -0.002135 -0.000705 0.000000 0.026933 0.000000
# 6 0.000000 0.000000 0.000000 -0.007331 0.000000 0.069740
#
#
# Mechanical properties :
#
#
# Convention : Reuss Voigt Hill
#
# Bulk Modulus (GPa) = 32.64133 70.78010 51.71071
# Shear Modulus (GPa) = 22.51871 36.19599 29.35735
#
# Velocity S-wave (km/s) = 3.26193 4.13554 3.72444
# Velocity P-wave (km/s) = 5.44151 7.49983 6.55200
#
# Compressibility (1/GPa) = 0.03063601
#
# Stress axis : x y z
#
# Youngs Moduli (GPa) = 120.67707 47.99798 116.62894
#
# Poissons Ratio (x) = -0.07869 0.58692
# Poissons Ratio (y) = -0.19784 0.01592
# Poissons Ratio (z) = 0.60730 0.00655
#
# Static dielectric constant tensor:
#      x y z
#    x 1.751900 0.000000 0.015400 
#    y 0.000000 1.832500 0.000000 
#    z 0.015400 0.000000 1.757260 
# 
# From -- ./inp_files/86483.got.cif
#   From: 2010.05.17/outbox.cif.g08.bks.cpg/sg10_44_cif.got.tgz:86483.got - 2010.06.03 11:33:40.
