data_PCOD9154888
_publ_section_title
;
Structure prediction by ZEFSAII (Michael W. Deem and Ramdas Pophale) SiO2 
 PCOD9154888
Probable space group: P 2/M
;
_chemical_formula_sum "Si O2"
_cell_formula_units_Z 32
_cell_length_a 8.061970
_cell_length_b 7.223535
_cell_length_c 24.993168
_cell_angle_alpha 90.000000
_cell_angle_beta 128.920795
_cell_angle_gamma 90.000000
_cell_volume 1132.401250
_symmetry_space_group_name_H-M "P 2/M"
_symmetry_group_IT_number 10
_symmetry_cell_setting 'monoclinic'
loop_
_space_group_symop_operation_xyz
x,y,z
-x,y,-z
-x,-y,-z
x,-y,z
loop_
_atom_site_type_symbol
_atom_site_label
_atom_site_fract_x
_atom_site_fract_y
_atom_site_fract_z
Si Si1 0.071220 0.225764 0.956296
Si Si2 0.372452 0.724693 0.668123
Si Si3 0.036529 0.288107 0.296958
Si Si4 0.920175 0.277917 0.544913
Si Si5 0.000071 0.223509 0.827982
Si Si6 0.524340 0.273313 0.580747
Si Si7 0.515083 0.788376 0.079018
Si Si8 0.449103 0.723312 0.796685
O O1 0.319780 0.284646 0.004872
O O2 0.068740 0.000000 0.956191
O O3 0.944824 0.282909 0.877363
O O4 0.000000 0.289895 0.000000
O O5 0.372969 0.500000 0.668184
O O6 0.454882 0.780317 0.626963
O O7 0.502445 0.783568 0.747037
O O8 0.123113 0.783721 0.620630
O O9 0.010142 0.500000 0.308883
O O10 0.230295 0.211369 0.371312
O O11 0.106253 0.289733 0.248356
O O12 0.798701 0.210889 0.248638
O O13 0.907981 0.500000 0.549065
O O14 0.674486 0.213705 0.496263
O O15 0.000000 0.245302 0.500000
O O16 0.247748 0.290114 0.873482
O O17 0.991750 0.000000 0.823996
O O18 0.529861 0.500000 0.578748
O O19 0.442768 0.789151 0.126959
O O20 0.544429 0.000000 0.068624
O O21 0.456771 0.500000 0.800497
#
# Coordination Sequence:
#
# PCOD9154888 Si02
#       8
#     4   4   4   4   4   4   4   4
#     4   9  17  29  46  67  86 102 128 171 210 232
#     4   8  13  22  37  56  79 108 138 166 199 240
#     4   9  17  28  41  60  86 110 132 164 204 239
#     4   7  10  18  33  53  76 103 136 168 196 233
#     4   9  17  30  47  63  80 107 139 164 192 239
#     4   8  13  22  37  56  79 108 138 166 199 240
#     4   9  17  30  47  63  80 107 139 164 192 239
#     4   9  17  28  41  60  86 110 132 164 204 239
#
# _framework density 28.258535999999999
#
# number of rings (size 3 to 8) (size 9 to 14) (size 15 to 20)
#    0.000    3.500    0.000    1.875    0.000    2.500 
#    0.000    1.250    0.000    7.500    0.000    0.875 
#    0.000    7.000    0.000    0.000    0.000    0.000 
#
# Total GULP energy -178884.074865 kJ/mol
# GULP energy per Si atom -5590.127340 kJ/mol
# Density = 2.819422 g / cm^3
# Si number density = 28.258536 Si / 1000 Ang^3
#
#
#
# Elastic Constant Matrix: (Units=GPa)
#
#
# Indices 1 2 3 4 5 6 
#
# 1 77.1057 -8.2432 13.4861 0.0000 -0.1859 0.0000
# 2 -8.2432 140.4297 -7.5259 0.0000 3.5607 0.0000
# 3 13.4861 -7.5259 223.7573 0.0000 -2.4304 0.0000
# 4 0.0000 0.0000 0.0000 23.0282 0.0000 -5.2058
# 5 -0.1859 3.5607 -2.4304 0.0000 64.6674 0.0000
# 6 0.0000 0.0000 0.0000 -5.2058 0.0000 -5.5766
#
#
#
# Elastic Compliance Matrix: (Units=1/GPa)
#
#
# Indices 1 2 3 4 5 6 
#
# 1 0.013182 0.000733 -0.000770 0.000000 -0.000031 0.000000
# 2 0.000733 0.007184 0.000193 0.000000 -0.000386 0.000000
# 3 -0.000770 0.000193 0.004524 0.000000 0.000157 0.000000
# 4 0.000000 0.000000 0.000000 0.035858 0.000000 -0.033473
# 5 -0.000031 -0.000386 0.000157 0.000000 0.015491 0.000000
# 6 0.000000 0.000000 0.000000 -0.033473 0.000000 -0.148072
#
#
# Mechanical properties :
#
#
# Convention : Reuss Voigt Hill
#
# Bulk Modulus (GPa) = 39.67791 48.52517 44.10154
# Shear Modulus (GPa) = -78.43735 45.99552 -16.22092
#
# Velocity S-wave (km/s) = -5.27421 4.03881 -2.39847
# Velocity P-wave (km/s) = 4.79773 6.24167 2.82314
#
# Compressibility (1/GPa) = 0.02520294
#
# Stress axis : x y z
#
# Youngs Moduli (GPa) = 75.85965 139.19446 221.05534
#
# Poissons Ratio (x) = -0.10207 0.17025
# Poissons Ratio (y) = -0.05563 -0.04272
# Poissons Ratio (z) = 0.05843 -0.02690
#
# Static dielectric constant tensor:
#      x y z
#    x 2.323870 0.000000 -0.033150 
#    y 0.000000 2.109510 0.000000 
#    z -0.033150 0.000000 2.131340 
# 
# From -- ./inp_files/54879.got.cif
#   From: 2010.05.17/outbox.cif.g08.bks.cpg/sg10_28_cif.got.tgz:54879.got - 2010.06.03 11:33:40.
