data_PCOD9154701
_publ_section_title
;
Structure prediction by ZEFSAII (Michael W. Deem and Ramdas Pophale) SiO2 
 PCOD9154701
Probable space group: P 2/M
;
_chemical_formula_sum "Si O2"
_cell_formula_units_Z 24
_cell_length_a 13.826722
_cell_length_b 10.949761
_cell_length_c 20.696330
_cell_angle_alpha 90.000000
_cell_angle_beta 155.357432
_cell_angle_gamma 90.000000
_cell_volume 1306.494673
_symmetry_space_group_name_H-M "P 2/M"
_symmetry_group_IT_number 10
_symmetry_cell_setting 'monoclinic'
loop_
_space_group_symop_operation_xyz
x,y,z
-x,y,-z
-x,-y,-z
x,-y,z
loop_
_atom_site_type_symbol
_atom_site_label
_atom_site_fract_x
_atom_site_fract_y
_atom_site_fract_z
Si Si1 0.228078 0.000000 0.985853
Si Si2 0.795006 0.260857 0.459796
Si Si3 0.706652 0.642478 0.271211
Si Si4 0.296794 0.000000 0.284429
Si Si5 0.139691 0.355421 0.361801
Si Si6 0.337578 0.227309 0.960408
Si Si7 0.442055 0.000000 0.690249
Si Si8 0.500000 0.793871 0.500000
O O1 0.257228 0.882874 0.957386
O O2 0.976994 0.000000 0.867483
O O3 0.424387 0.000000 0.160394
O O4 0.668983 0.328687 0.323845
O O5 0.753680 0.322215 0.503709
O O6 0.714093 0.121113 0.410644
O O7 0.069064 0.278284 0.612641
O O8 0.763685 0.500000 0.297045
O O9 0.491315 0.681729 0.097233
O O10 0.373653 0.000000 0.256693
O O11 0.407317 0.117455 0.387245
O O12 0.129024 0.500000 0.346951
O O13 0.295769 0.290144 0.402950
O O14 0.884341 0.297156 0.202419
O O15 0.500000 0.183956 0.000000
#
# Coordination Sequence:
#
# PCOD9154701 Si02
#       8
#     2   4   4   2   4   4   2   2
#     4  12  25  46  64  89 133 167 216 273 314 380
#     4  11  23  39  65  94 126 170 214 260 317 370
#     4  11  23  42  62  92 135 174 212 255 314 388
#     4  11  23  43  68  89 123 165 218 267 328 376
#     4  12  24  42  67  97 132 170 213 262 319 386
#     4  12  25  41  65  98 130 174 211 258 325 383
#     4  12  24  42  69  92 122 167 221 273 316 380
#     4  11  23  42  68  94 123 169 214 266 326 377
#
# _framework density 18.369764
#
# number of rings (size 3 to 8) (size 9 to 14) (size 15 to 20)
#    0.000    0.500    6.667    3.250    0.000    3.333 
#    0.000    0.000    0.000    0.000    0.000    7.000 
#    0.000    0.000    0.000    0.000    0.000    0.000 
#
# Total GULP energy -134170.695432 kJ/mol
# GULP energy per Si atom -5590.445643 kJ/mol
# Density = 1.832795 g / cm^3
# Si number density = 18.369764 Si / 1000 Ang^3
#
#
#
# Elastic Constant Matrix: (Units=GPa)
#
#
# Indices 1 2 3 4 5 6 
#
# 1 96.8927 56.0036 38.2462 0.0000 -3.2518 0.0000
# 2 56.0036 147.4961 45.3839 0.0000 9.6045 0.0000
# 3 38.2462 45.3839 77.6973 0.0000 -1.8686 0.0000
# 4 0.0000 0.0000 0.0000 7.8952 0.0000 -0.1243
# 5 -3.2518 9.6045 -1.8686 0.0000 37.6477 0.0000
# 6 0.0000 0.0000 0.0000 -0.1243 0.0000 35.6177
#
#
#
# Elastic Compliance Matrix: (Units=1/GPa)
#
#
# Indices 1 2 3 4 5 6 
#
# 1 0.014721 -0.004284 -0.004692 0.000000 0.002132 0.000000
# 2 -0.004284 0.009726 -0.003645 0.000000 -0.003032 0.000000
# 3 -0.004692 -0.003645 0.017343 0.000000 0.001385 0.000000
# 4 0.000000 0.000000 0.000000 0.126665 0.000000 0.000442
# 5 0.002132 -0.003032 0.001385 0.000000 0.027588 0.000000
# 6 0.000000 0.000000 0.000000 0.000442 0.000000 0.028077
#
#
# Mechanical properties :
#
#
# Convention : Reuss Voigt Hill
#
# Bulk Modulus (GPa) = 60.43848 66.81705 63.62777
# Shear Modulus (GPa) = 19.61718 28.39562 24.00640
#
# Velocity S-wave (km/s) = 3.27143 3.93591 3.61895
# Velocity P-wave (km/s) = 6.87329 7.55695 7.22321
#
# Compressibility (1/GPa) = 0.01654575
#
# Stress axis : x y z
#
# Youngs Moduli (GPa) = 67.93099 102.82240 57.66167
#
# Poissons Ratio (x) = 0.44053 0.27057
# Poissons Ratio (y) = 0.29104 0.21016
# Poissons Ratio (z) = 0.31876 0.37476
#
# Static dielectric constant tensor:
#      x y z
#    x 1.641920 0.000000 -0.012690 
#    y 0.000000 1.597250 0.000000 
#    z -0.012690 0.000000 1.609200 
# 
# From -- ./inp_files/76759.got.cif
#   From: 2010.05.17/outbox.cif.g08.bks.cpg/sg10_39_cif.got.tgz:76759.got - 2010.06.03 11:33:40.
