data_PCOD9154185
_publ_section_title
;
Structure prediction by ZEFSAII (Michael W. Deem and Ramdas Pophale) SiO2 
 PCOD9154185
Probable space group: P 2/M
;
_chemical_formula_sum "Si O2"
_cell_formula_units_Z 14
_cell_length_a 5.014329
_cell_length_b 18.578029
_cell_length_c 5.942620
_cell_angle_alpha 90.000000
_cell_angle_beta 106.622072
_cell_angle_gamma 90.000000
_cell_volume 530.459499
_symmetry_space_group_name_H-M "P 2/M"
_symmetry_group_IT_number 10
_symmetry_cell_setting 'monoclinic'
loop_
_space_group_symop_operation_xyz
x,y,z
-x,y,-z
-x,-y,-z
x,-y,z
loop_
_atom_site_type_symbol
_atom_site_label
_atom_site_fract_x
_atom_site_fract_y
_atom_site_fract_z
Si Si1 0.134018 0.500000 0.788020
Si Si2 0.687453 0.220197 0.852094
Si Si3 0.312782 0.358093 0.647909
Si Si4 0.857180 0.078401 0.713439
O O1 0.268317 0.420994 0.813455
O O2 0.000000 0.500000 0.500000
O O3 0.000000 0.500000 0.000000
O O4 0.499768 0.289146 0.750657
O O5 0.731100 0.158122 0.682233
O O6 0.500000 0.183326 0.000000
O O7 0.000000 0.243821 0.000000
O O8 0.500000 0.394521 0.500000
O O9 0.000000 0.334601 0.500000
O O10 0.000000 0.074870 0.500000
O O11 0.712049 0.000000 0.700065
O O12 0.000000 0.081930 0.000000
#
# Coordination Sequence:
#
# PCOD9154185 Si02
#       4
#     2   4   4   4
#     4  10  25  52  81 114 154 206 267 326 392 474
#     4  11  25  45  73 115 159 204 260 325 398 472
#     4  11  25  48  77 113 156 205 261 324 397 473
#     4   9  20  43  74 109 152 205 263 323 389 466
#
# _framework density 26.392216000000001
#
# number of rings (size 3 to 8) (size 9 to 14) (size 15 to 20)
#    0.000    1.714    0.000    2.143    0.000   12.000 
#    0.000    7.143    0.000   17.143    0.000    0.000 
#    0.000    0.000    0.000    0.000    0.000    0.000 
#
# Total GULP energy -77970.045910 kJ/mol
# GULP energy per Si atom -5569.288994 kJ/mol
# Density = 2.633215 g / cm^3
# Si number density = 26.392216 Si / 1000 Ang^3
#
#
#
# Elastic Constant Matrix: (Units=GPa)
#
#
# Indices 1 2 3 4 5 6 
#
# 1 213.1547 94.0617 82.5815 0.0000 24.9254 0.0000
# 2 94.0617 289.0169 58.1533 0.0000 1.7199 0.0000
# 3 82.5815 58.1533 183.4107 0.0000 -3.8573 0.0000
# 4 0.0000 0.0000 0.0000 26.9105 0.0000 -57.9655
# 5 24.9254 1.7199 -3.8573 0.0000 76.6276 0.0000
# 6 0.0000 0.0000 0.0000 -57.9655 0.0000 -0.4215
#
#
#
# Elastic Compliance Matrix: (Units=1/GPa)
#
#
# Indices 1 2 3 4 5 6 
#
# 1 0.006660 -0.001646 -0.002524 0.000000 -0.002256 0.000000
# 2 -0.001646 0.004104 -0.000551 0.000000 0.000416 0.000000
# 3 -0.002524 -0.000551 0.006788 0.000000 0.001175 0.000000
# 4 0.000000 0.000000 0.000000 0.000125 0.000000 -0.017194
# 5 -0.002256 0.000416 0.001175 0.000000 0.013834 0.000000
# 6 0.000000 0.000000 0.000000 -0.017194 0.000000 -0.007982
#
#
# Mechanical properties :
#
#
# Convention : Reuss Voigt Hill
#
# Bulk Modulus (GPa) = 123.32045 128.35283 125.83664
# Shear Modulus (GPa) = 140.15507 50.67571 95.41539
#
# Velocity S-wave (km/s) = 7.29520 4.38665 6.01925
# Velocity P-wave (km/s) = 10.85299 8.62527 9.80262
#
# Compressibility (1/GPa) = 0.00810896
#
# Stress axis : x y z
#
# Youngs Moduli (GPa) = 150.16073 243.65253 147.31351
#
# Poissons Ratio (x) = 0.40107 0.37182
# Poissons Ratio (y) = 0.24718 0.08123
# Poissons Ratio (z) = 0.37901 0.13435
#
# Static dielectric constant tensor:
#      x y z
#    x 2.307630 0.000000 0.084400 
#    y 0.000000 2.010170 0.000000 
#    z 0.084400 0.000000 2.216110 
# 
# From -- ./inp_files/1157.got.cif
#   From: 2010.05.17/outbox.cif.g08.bks.cpg/sg10_1_cif.got.tgz:1157.got - 2010.06.03 11:33:40.
