data_PCOD9154410
_publ_section_title
;
Structure prediction by ZEFSAII (Michael W. Deem and Ramdas Pophale) SiO2 
 PCOD9154410
Probable space group: P 2/M
;
_chemical_formula_sum "Si O2"
_cell_formula_units_Z 24
_cell_length_a 20.973765
_cell_length_b 9.031412
_cell_length_c 11.911887
_cell_angle_alpha 90.000000
_cell_angle_beta 39.569918
_cell_angle_gamma 90.000000
_cell_volume 1437.358985
_symmetry_space_group_name_H-M "P 2/M"
_symmetry_group_IT_number 10
_symmetry_cell_setting 'monoclinic'
loop_
_space_group_symop_operation_xyz
x,y,z
-x,y,-z
-x,-y,-z
x,-y,z
loop_
_atom_site_type_symbol
_atom_site_label
_atom_site_fract_x
_atom_site_fract_y
_atom_site_fract_z
Si Si1 0.258946 0.675077 0.839012
Si Si2 0.582238 0.830912 0.526282
Si Si3 0.357244 0.175311 0.906476
Si Si4 0.883372 0.821957 0.146265
Si Si5 0.389399 0.676828 0.103687
Si Si6 0.276311 0.171504 0.452587
O O1 0.249098 0.500000 0.861769
O O2 0.357543 0.718819 0.632993
O O3 0.275448 0.749273 0.937579
O O4 0.168697 0.743963 0.888811
O O5 0.465538 0.803488 0.700094
O O6 0.633955 0.824109 0.578102
O O7 0.597786 0.000000 0.462503
O O8 0.340164 0.000000 0.938917
O O9 0.366653 0.247143 0.016001
O O10 0.820693 0.782025 0.343528
O O11 0.871615 0.000000 0.149102
O O12 0.000000 0.787347 0.000000
O O13 0.388636 0.500000 0.091981
O O14 0.308575 0.729261 0.304980
O O15 0.500000 0.720102 0.000000
O O16 0.264083 0.000000 0.433830
#
# Coordination Sequence:
#
# PCOD9154410 Si02
#       6
#     4   4   4   4   4   4
#     4  11  22  33  49  77 110 137 169 215 270 321
#     4   9  18  32  50  72 101 140 182 217 252 304
#     4  11  21  34  52  71 101 145 186 218 252 304
#     4   9  19  38  62  83 103 132 174 221 265 314
#     4  11  22  33  48  74 110 146 179 215 257 307
#     4   9  17  32  53  78 104 136 178 217 256 304
#
# _framework density 16.697289999999999
#
# number of rings (size 3 to 8) (size 9 to 14) (size 15 to 20)
#    0.000    2.000    1.667    4.000    0.000    7.000 
#    0.000    0.000    0.000    1.000    0.000    7.000 
#    0.000    0.000    0.000    0.000    0.000    0.000 
#
# Total GULP energy -133950.796775 kJ/mol
# GULP energy per Si atom -5581.283199 kJ/mol
# Density = 1.665929 g / cm^3
# Si number density = 16.697290 Si / 1000 Ang^3
#
#
#
# Elastic Constant Matrix: (Units=GPa)
#
#
# Indices 1 2 3 4 5 6 
#
# 1 130.8377 77.0348 73.7861 0.0000 10.5766 0.0000
# 2 77.0348 85.6380 48.7702 0.0000 7.2668 0.0000
# 3 73.7861 48.7702 73.8470 0.0000 -5.5770 0.0000
# 4 0.0000 0.0000 0.0000 -135.4957 0.0000 15.9412
# 5 10.5766 7.2668 -5.5770 0.0000 24.7925 0.0000
# 6 0.0000 0.0000 0.0000 15.9412 0.0000 23.5569
#
#
#
# Elastic Compliance Matrix: (Units=1/GPa)
#
#
# Indices 1 2 3 4 5 6 
#
# 1 0.026825 -0.011640 -0.020063 0.000000 -0.012545 0.000000
# 2 -0.011640 0.025665 -0.005608 0.000000 -0.003818 0.000000
# 3 -0.020063 -0.005608 0.038720 0.000000 0.018913 0.000000
# 4 0.000000 0.000000 0.000000 -0.006836 0.000000 0.004626
# 5 -0.012545 -0.003818 0.018913 0.000000 0.051060 0.000000
# 6 0.000000 0.000000 0.000000 0.004626 0.000000 0.039320
#
#
# Mechanical properties :
#
#
# Convention : Reuss Voigt Hill
#
# Bulk Modulus (GPa) = 60.28318 76.61165 68.44742
# Shear Modulus (GPa) = 19.61497 -11.38050 4.11724
#
# Velocity S-wave (km/s) = 3.43117 -2.61354 1.57199
# Velocity P-wave (km/s) = 7.20272 6.07247 6.66161
#
# Compressibility (1/GPa) = 0.01658838
#
# Stress axis : x y z
#
# Youngs Moduli (GPa) = 37.27814 38.96287 25.82627
#
# Poissons Ratio (x) = 0.45353 0.51816
# Poissons Ratio (y) = 0.43392 0.14483
# Poissons Ratio (z) = 0.74792 0.21850
#
# Static dielectric constant tensor:
#      x y z
#    x 1.563570 0.000000 0.005400 
#    y 0.000000 1.558530 0.000000 
#    z 0.005400 0.000000 1.553610 
# 
# From -- ./inp_files/45120.got.cif
#   From: 2010.05.17/outbox.cif.g08.bks.cpg/sg10_23_cif.got.tgz:45120.got - 2010.06.03 11:33:40.
