data_PCOD9154953
_publ_section_title
;
Structure prediction by ZEFSAII (Michael W. Deem and Ramdas Pophale) SiO2 
 PCOD9154953
Probable space group: P 2/M
;
_chemical_formula_sum "Si O2"
_cell_formula_units_Z 24
_cell_length_a 11.803279
_cell_length_b 7.537974
_cell_length_c 20.672117
_cell_angle_alpha 90.000000
_cell_angle_beta 43.472398
_cell_angle_gamma 90.000000
_cell_volume 1265.417652
_symmetry_space_group_name_H-M "P 2/M"
_symmetry_group_IT_number 10
_symmetry_cell_setting 'monoclinic'
loop_
_space_group_symop_operation_xyz
x,y,z
-x,y,-z
-x,-y,-z
x,-y,z
loop_
_atom_site_type_symbol
_atom_site_label
_atom_site_fract_x
_atom_site_fract_y
_atom_site_fract_z
Si Si1 0.396106 0.286581 0.821698
Si Si2 0.094415 0.209514 0.024335
Si Si3 0.110679 0.716327 0.548874
Si Si4 0.239987 0.283626 0.355842
Si Si5 0.798528 0.292836 0.224286
Si Si6 0.688631 0.717277 0.409530
O O1 0.399491 0.500000 0.816542
O O2 0.583742 0.223035 0.743124
O O3 0.301701 0.218504 0.796089
O O4 0.284799 0.243045 0.930125
O O5 0.992287 0.280054 0.127325
O O6 0.070081 0.000000 0.035871
O O7 0.000000 0.284831 0.000000
O O8 0.110893 0.500000 0.549365
O O9 0.210396 0.768437 0.442883
O O10 0.197036 0.776594 0.578550
O O11 0.921689 0.772808 0.616712
O O12 0.240594 0.500000 0.354676
O O13 0.754166 0.500000 0.244885
O O14 0.749998 0.219453 0.314044
O O15 0.500000 0.768225 0.500000
O O16 0.693746 0.500000 0.407531
#
# Coordination Sequence:
#
# PCOD9154953 Si02
#       6
#     4   4   4   4   4   4
#     4   9  15  24  40  61  82 103 132 167 200 234
#     4   9  17  28  41  58  80 105 133 166 204 241
#     4   8  13  21  33  54  84 111 133 158 193 235
#     4   8  13  21  35  56  82 108 131 161 198 232
#     4   9  16  25  39  60  84 107 130 161 200 237
#     4   9  15  22  35  57  84 110 133 158 192 236
#
# _framework density 18.966070999999999
#
# number of rings (size 3 to 8) (size 9 to 14) (size 15 to 20)
#    0.000    3.333    0.000    2.500    0.000    6.000 
#    0.000    0.000    0.000    1.500    0.000   11.667 
#    0.000    0.000    0.000    0.000    0.000    0.000 
#
# Total GULP energy -133711.158859 kJ/mol
# GULP energy per Si atom -5571.298286 kJ/mol
# Density = 1.892290 g / cm^3
# Si number density = 18.966071 Si / 1000 Ang^3
#
#
#
# Elastic Constant Matrix: (Units=GPa)
#
#
# Indices 1 2 3 4 5 6 
#
# 1 89.6905 0.0800 71.0642 0.0000 0.5924 0.0000
# 2 0.0800 45.2335 -6.3955 0.0000 3.3724 0.0000
# 3 71.0642 -6.3955 173.3511 0.0000 -7.8776 0.0000
# 4 0.0000 0.0000 0.0000 -61.5489 0.0000 7.1196
# 5 0.5924 3.3724 -7.8776 0.0000 26.8662 0.0000
# 6 0.0000 0.0000 0.0000 7.1196 0.0000 -4.1665
#
#
#
# Elastic Compliance Matrix: (Units=1/GPa)
#
#
# Indices 1 2 3 4 5 6 
#
# 1 0.016696 -0.000844 -0.006981 0.000000 -0.002309 0.000000
# 2 -0.000844 0.022445 0.001061 0.000000 -0.002488 0.000000
# 3 -0.006981 0.001061 0.008787 0.000000 0.002597 0.000000
# 4 0.000000 0.000000 0.000000 -0.020250 0.000000 -0.034602
# 5 -0.002309 -0.002488 0.002597 0.000000 0.038346 0.000000
# 6 0.000000 0.000000 0.000000 -0.034602 0.000000 -0.299135
#
#
# Mechanical properties :
#
#
# Convention : Reuss Voigt Hill
#
# Bulk Modulus (GPa) = 29.06919 48.64137 38.85528
# Shear Modulus (GPa) = -24.02516 8.46524 -7.77996
#
# Velocity S-wave (km/s) = -3.56300 2.11496 -2.02755
# Velocity P-wave (km/s) = 1.25155 5.62728 3.87943
#
# Compressibility (1/GPa) = 0.03440068
#
# Stress axis : x y z
#
# Youngs Moduli (GPa) = 59.89305 44.55432 113.79801
#
# Poissons Ratio (x) = 0.03762 0.79439
# Poissons Ratio (y) = 0.05057 -0.12076
# Poissons Ratio (z) = 0.41809 -0.04728
#
# Static dielectric constant tensor:
#      x y z
#    x 1.643060 0.000000 -0.012590 
#    y 0.000000 1.706830 0.000000 
#    z -0.012590 0.000000 1.674860 
# 
# From -- ./inp_files/45641.got.cif
#   From: 2010.05.17/outbox.cif.g08.bks.cpg/sg10_23_cif.got.tgz:45641.got - 2010.06.03 11:33:40.
