data_PCOD9154876
_publ_section_title
;
Structure prediction by ZEFSAII (Michael W. Deem and Ramdas Pophale) SiO2 
 PCOD9154876
Probable space group: P 2/M
;
_chemical_formula_sum "Si O2"
_cell_formula_units_Z 32
_cell_length_a 19.225171
_cell_length_b 9.300928
_cell_length_c 20.501010
_cell_angle_alpha 90.000000
_cell_angle_beta 157.106741
_cell_angle_gamma 90.000000
_cell_volume 1426.063067
_symmetry_space_group_name_H-M "P 2/M"
_symmetry_group_IT_number 10
_symmetry_cell_setting 'monoclinic'
loop_
_space_group_symop_operation_xyz
x,y,z
-x,y,-z
-x,-y,-z
x,-y,z
loop_
_atom_site_type_symbol
_atom_site_label
_atom_site_fract_x
_atom_site_fract_y
_atom_site_fract_z
Si Si1 0.322106 0.667281 0.993746
Si Si2 0.955392 0.163709 0.166955
Si Si3 0.798333 0.326139 0.841521
Si Si4 0.765126 0.666702 0.671414
Si Si5 0.371618 0.325132 0.828568
Si Si6 0.489253 0.668734 0.313080
Si Si7 0.768438 0.165029 0.470617
Si Si8 0.051050 0.667562 0.634838
O O1 0.339418 0.500000 0.026209
O O2 0.514138 0.724295 0.134994
O O3 0.220042 0.752262 0.961398
O O4 0.189364 0.670776 0.815925
O O5 0.067519 0.241094 0.207867
O O6 0.091016 0.164447 0.346741
O O7 0.913977 0.000000 0.115092
O O8 0.797424 0.500000 0.848633
O O9 0.703046 0.293498 0.690251
O O10 0.695543 0.271329 0.816487
O O11 0.000000 0.280805 0.000000
O O12 0.823568 0.500000 0.725121
O O13 0.616679 0.675128 0.487343
O O14 0.368109 0.500000 0.822510
O O15 0.173672 0.281389 0.680091
O O16 0.500000 0.286304 0.000000
O O17 0.473816 0.500000 0.282149
O O18 0.595580 0.752469 0.349088
O O19 0.878751 0.244945 0.509032
O O20 0.729000 0.000000 0.419862
O O21 0.001616 0.500000 0.582490
#
# Coordination Sequence:
#
# PCOD9154876 Si02
#       8
#     4   4   4   4   4   4   4   4
#     4   8  12  19  31  46  66  95 131 167 201 238
#     4   9  16  24  34  51  75 101 131 168 204 234
#     4   9  17  29  46  67  86 102 126 165 206 238
#     4   9  16  27  44  63  81 104 134 164 196 239
#     4   7  10  16  27  43  63  91 128 165 198 235
#     4   9  16  27  44  63  81 104 134 164 196 239
#     4   9  16  24  34  51  75 101 131 168 204 234
#     4   8  12  19  31  46  66  95 131 167 201 238
#
# _framework density 22.439399999999999
#
# number of rings (size 3 to 8) (size 9 to 14) (size 15 to 20)
#    0.000    3.500    0.000    2.625    0.000    4.500 
#    0.000    1.250    0.000    8.250    0.000    0.000 
#    0.000    0.000    0.000    1.125    0.000   27.000 
#
# Total GULP energy -178637.574475 kJ/mol
# GULP energy per Si atom -5582.424202 kJ/mol
# Density = 2.238833 g / cm^3
# Si number density = 22.439400 Si / 1000 Ang^3
#
#
#
# Elastic Constant Matrix: (Units=GPa)
#
#
# Indices 1 2 3 4 5 6 
#
# 1 166.6041 55.1257 67.1887 0.0000 49.3649 0.0000
# 2 55.1257 73.5168 41.6778 0.0000 46.8101 0.0000
# 3 67.1887 41.6778 131.4331 0.0000 42.0727 0.0000
# 4 0.0000 0.0000 0.0000 -22.7123 0.0000 -6.5578
# 5 49.3649 46.8101 42.0727 0.0000 65.8901 0.0000
# 6 0.0000 0.0000 0.0000 -6.5578 0.0000 -7.8785
#
#
#
# Elastic Compliance Matrix: (Units=1/GPa)
#
#
# Indices 1 2 3 4 5 6 
#
# 1 0.009021 -0.003715 -0.002658 0.000000 -0.002422 0.000000
# 2 -0.003715 0.027216 -0.001801 0.000000 -0.015401 0.000000
# 3 -0.002658 -0.001801 0.010673 0.000000 -0.003544 0.000000
# 4 0.000000 0.000000 0.000000 -0.057958 0.000000 0.048243
# 5 -0.002422 -0.015401 -0.003544 0.000000 0.030196 0.000000
# 6 0.000000 0.000000 0.000000 0.048243 0.000000 -0.167084
#
#
# Mechanical properties :
#
#
# Convention : Reuss Voigt Hill
#
# Bulk Modulus (GPa) = 32.72167 77.72647 55.22407
# Shear Modulus (GPa) = -41.18584 20.89731 -10.14427
#
# Velocity S-wave (km/s) = -4.28883 3.05499 -2.12851
# Velocity P-wave (km/s) = 3.14826 6.86714 4.31544
#
# Compressibility (1/GPa) = 0.03056078
#
# Stress axis : x y z
#
# Youngs Moduli (GPa) = 110.84981 36.74371 93.69586
#
# Poissons Ratio (x) = 0.13652 0.24907
# Poissons Ratio (y) = 0.41185 0.16872
# Poissons Ratio (z) = 0.29467 0.06617
#
# Static dielectric constant tensor:
#      x y z
#    x 1.848890 0.000000 -0.052580 
#    y 0.000000 1.739540 0.000000 
#    z -0.052580 0.000000 1.901920 
# 
# From -- ./inp_files/87091.got.cif
#   From: 2010.05.17/outbox.cif.g08.bks.cpg/sg10_44_cif.got.tgz:87091.got - 2010.06.03 11:33:40.
