data_PCOD9154925
_publ_section_title
;
Structure prediction by ZEFSAII (Michael W. Deem and Ramdas Pophale) SiO2 
 PCOD9154925
Probable space group: P 2/M
;
_chemical_formula_sum "Si O2"
_cell_formula_units_Z 32
_cell_length_a 24.074812
_cell_length_b 7.397701
_cell_length_c 6.879528
_cell_angle_alpha 90.000000
_cell_angle_beta 94.718574
_cell_angle_gamma 90.000000
_cell_volume 1221.079381
_symmetry_space_group_name_H-M "P 2/M"
_symmetry_group_IT_number 10
_symmetry_cell_setting 'monoclinic'
loop_
_space_group_symop_operation_xyz
x,y,z
-x,y,-z
-x,-y,-z
x,-y,z
loop_
_atom_site_type_symbol
_atom_site_label
_atom_site_fract_x
_atom_site_fract_y
_atom_site_fract_z
Si Si1 0.336973 0.721300 0.616963
Si Si2 0.868519 0.214218 0.857629
Si Si3 0.101430 0.291806 0.688680
Si Si4 0.557890 0.278633 0.607256
Si Si5 0.369308 0.291873 0.047514
Si Si6 0.780660 0.283419 0.342168
Si Si7 0.250464 0.786863 0.120926
Si Si8 0.986660 0.282498 0.776052
O O1 0.334619 0.500000 0.614912
O O2 0.389111 0.776084 0.504866
O O3 0.273645 0.782820 0.556933
O O4 0.352419 0.787582 0.837552
O O5 0.806071 0.281451 0.788925
O O6 0.921159 0.244463 0.731429
O O7 0.863633 0.000000 0.884784
O O8 0.885270 0.294146 0.073518
O O9 0.098221 0.500000 0.622710
O O10 0.157250 0.206809 0.614184
O O11 0.038958 0.214290 0.664236
O O12 0.500000 0.217342 0.500000
O O13 0.556302 0.500000 0.608758
O O14 0.577282 0.216989 0.825840
O O15 0.382804 0.500000 0.010951
O O16 0.312528 0.291930 0.160582
O O17 0.784225 0.500000 0.364510
O O18 0.764964 0.248840 0.111045
O O19 0.256026 0.000000 0.150879
O O20 0.991539 0.500000 0.773891
O O21 0.000000 0.218617 0.000000
#
# Coordination Sequence:
#
# PCOD9154925 Si02
#       8
#     4   4   4   4   4   4   4   4
#     4   8  14  25  42  65  91 118 148 180 215 256
#     4   9  15  20  28  45  69  99 135 174 217 257
#     4   8  13  20  29  43  67 101 138 173 211 255
#     4   9  17  28  44  70  99 119 141 179 218 253
#     4   9  17  29  46  66  88 118 150 178 216 261
#     4   8  13  23  39  57  79 109 145 182 219 261
#     4   9  16  25  38  57  81 109 143 184 224 259
#     4   8  13  19  26  39  64 100 137 171 210 256
#
# _framework density 26.206320999999999
#
# number of rings (size 3 to 8) (size 9 to 14) (size 15 to 20)
#    0.000    3.500    0.000    2.250    0.000    4.250 
#    0.000    2.500    0.000    3.375    0.000    3.500 
#    0.000    1.000    0.000   12.625    0.000   22.250 
#
# Total GULP energy -178708.908385 kJ/mol
# GULP energy per Si atom -5584.653387 kJ/mol
# Density = 2.614667 g / cm^3
# Si number density = 26.206321 Si / 1000 Ang^3
#
#
#
# Elastic Constant Matrix: (Units=GPa)
#
#
# Indices 1 2 3 4 5 6 
#
# 1 187.0426 -4.6823 50.5669 0.0000 39.1110 0.0000
# 2 -4.6823 115.3143 1.0180 0.0000 3.7580 0.0000
# 3 50.5669 1.0180 68.5614 0.0000 14.5854 0.0000
# 4 0.0000 0.0000 0.0000 13.9274 0.0000 41.9562
# 5 39.1110 3.7580 14.5854 0.0000 52.7326 0.0000
# 6 0.0000 0.0000 0.0000 41.9562 0.0000 -10.5850
#
#
#
# Elastic Compliance Matrix: (Units=1/GPa)
#
#
# Indices 1 2 3 4 5 6 
#
# 1 0.007515 0.000487 -0.004629 0.000000 -0.004328 0.000000
# 2 0.000487 0.008724 -0.000297 0.000000 -0.000901 0.000000
# 3 -0.004629 -0.000297 0.018349 0.000000 -0.001621 0.000000
# 4 0.000000 0.000000 0.000000 0.005548 0.000000 0.021993
# 5 -0.004328 -0.000901 -0.001621 0.000000 0.022686 0.000000
# 6 0.000000 0.000000 0.000000 0.021993 0.000000 -0.007300
#
#
# Mechanical properties :
#
#
# Convention : Reuss Voigt Hill
#
# Bulk Modulus (GPa) = 38.89667 51.63594 45.26631
# Shear Modulus (GPa) = 68.52134 32.81606 50.66870
#
# Velocity S-wave (km/s) = 5.11895 3.54251 4.40188
# Velocity P-wave (km/s) = 7.05782 6.03978 6.56855
#
# Compressibility (1/GPa) = 0.02570914
#
# Stress axis : x y z
#
# Youngs Moduli (GPa) = 133.06560 114.63014 54.49939
#
# Poissons Ratio (x) = -0.05583 0.25229
# Poissons Ratio (y) = -0.06481 0.01619
# Poissons Ratio (z) = 0.61598 0.03406
#
# Static dielectric constant tensor:
#      x y z
#    x 2.058140 0.000000 -0.011880 
#    y 0.000000 1.972330 0.000000 
#    z -0.011880 0.000000 2.157950 
# 
# From -- ./inp_files/35695.got.cif
#   From: 2010.05.17/outbox.cif.g08.bks.cpg/sg10_18_cif.got.tgz:35695.got - 2010.06.03 11:33:40.
