data_PCOD9154230
_publ_section_title
;
Structure prediction by ZEFSAII (Michael W. Deem and Ramdas Pophale) SiO2 
 PCOD9154230
Probable space group: P 2/M
;
_chemical_formula_sum "Si O2"
_cell_formula_units_Z 20
_cell_length_a 7.817184
_cell_length_b 13.274195
_cell_length_c 9.563927
_cell_angle_alpha 90.000000
_cell_angle_beta 100.183353
_cell_angle_gamma 90.000000
_cell_volume 976.784788
_symmetry_space_group_name_H-M "P 2/M"
_symmetry_group_IT_number 10
_symmetry_cell_setting 'monoclinic'
loop_
_space_group_symop_operation_xyz
x,y,z
-x,y,-z
-x,-y,-z
x,-y,z
loop_
_atom_site_type_symbol
_atom_site_label
_atom_site_fract_x
_atom_site_fract_y
_atom_site_fract_z
Si Si1 0.500000 0.329601 0.000000
Si Si2 0.382380 0.822806 0.217516
Si Si3 0.089465 0.000000 0.710278
Si Si4 0.404462 0.000000 0.629724
Si Si5 0.793646 0.000000 0.982972
Si Si6 0.944335 0.781771 0.654599
Si Si7 0.888316 0.386977 0.125380
O O1 0.542134 0.262649 0.870241
O O2 0.316872 0.383167 0.939894
O O3 0.533261 0.894824 0.295938
O O4 0.256787 0.778429 0.320967
O O5 0.278193 0.900488 0.101205
O O6 0.992528 0.104348 0.705806
O O7 0.198826 0.000000 0.583900
O O8 0.235080 0.000000 0.855003
O O9 0.500000 0.000000 0.500000
O O10 0.000000 0.000000 0.000000
O O11 0.000000 0.769814 0.500000
O O12 0.052623 0.700048 0.759541
O O13 0.929928 0.500000 0.183625
O O14 0.000000 0.370557 0.000000
#
# Coordination Sequence:
#
# PCOD9154230 Si02
#       7
#     2   4   2   2   2   4   4
#     4  12  23  41  72 100 124 157 230 286 337 386
#     4  11  22  36  58  93 127 173 221 269 326 382
#     4  12  22  36  62  92 134 180 217 267 324 387
#     4  11  22  36  50  81 136 182 219 259 316 393
#     4  11  19  33  56  86 131 168 221 266 306 381
#     4  12  24  41  66  98 139 180 220 265 333 408
#     4  11  25  47  73  99 130 171 224 284 337 392
#
# _framework density 20.475339000000002
#
# number of rings (size 3 to 8) (size 9 to 14) (size 15 to 20)
#    0.000    0.600    4.000    6.000    0.000    2.000 
#    0.000    0.000    0.000    1.200    0.000    0.000 
#    0.000    0.000    0.000    0.000    0.000    0.000 
#
# Total GULP energy -111706.672471 kJ/mol
# GULP energy per Si atom -5585.333624 kJ/mol
# Density = 2.042874 g / cm^3
# Si number density = 20.475339 Si / 1000 Ang^3
#
#
#
# Elastic Constant Matrix: (Units=GPa)
#
#
# Indices 1 2 3 4 5 6 
#
# 1 114.1467 38.0620 23.4978 0.0000 -26.6764 0.0000
# 2 38.0620 132.7048 56.7736 0.0000 -1.2313 0.0000
# 3 23.4978 56.7736 89.9952 0.0000 -24.1476 0.0000
# 4 0.0000 0.0000 0.0000 12.4697 0.0000 10.8581
# 5 -26.6764 -1.2313 -24.1476 0.0000 38.8193 0.0000
# 6 0.0000 0.0000 0.0000 10.8581 0.0000 24.6738
#
#
#
# Elastic Compliance Matrix: (Units=1/GPa)
#
#
# Indices 1 2 3 4 5 6 
#
# 1 0.011924 -0.004209 0.002046 0.000000 0.009333 0.000000
# 2 -0.004209 0.012496 -0.008947 0.000000 -0.008061 0.000000
# 3 0.002046 -0.008947 0.019833 0.000000 0.013460 0.000000
# 4 0.000000 0.000000 0.000000 0.130016 0.000000 -0.057216
# 5 0.009333 -0.008061 0.013460 0.000000 0.040291 0.000000
# 6 0.000000 0.000000 0.000000 -0.057216 0.000000 0.065708
#
#
# Mechanical properties :
#
#
# Convention : Reuss Voigt Hill
#
# Bulk Modulus (GPa) = 45.38542 63.72372 54.55457
# Shear Modulus (GPa) = 16.13782 29.76009 22.94895
#
# Velocity S-wave (km/s) = 2.81046 3.81656 3.35148
# Velocity P-wave (km/s) = 5.72238 7.11416 6.45588
#
# Compressibility (1/GPa) = 0.02203351
#
# Stress axis : x y z
#
# Youngs Moduli (GPa) = 83.86354 80.02839 50.42066
#
# Poissons Ratio (x) = 0.33682 -0.10317
# Poissons Ratio (y) = 0.35297 0.45111
# Poissons Ratio (z) = -0.17159 0.71601
#
# Static dielectric constant tensor:
#      x y z
#    x 1.747380 0.000000 -0.054300 
#    y 0.000000 1.987140 0.000000 
#    z -0.054300 0.000000 1.853510 
# 
# From -- ./inp_files/17919.got.cif
#   From: 2010.05.17/outbox.cif.g08.bks.cpg/sg10_9_cif.got.tgz:17919.got - 2010.06.03 11:33:40.
