data_PCOD9154411
_publ_section_title
;
Structure prediction by ZEFSAII (Michael W. Deem and Ramdas Pophale) SiO2 
 PCOD9154411
Probable space group: P 2/M
;
_chemical_formula_sum "Si O2"
_cell_formula_units_Z 32
_cell_length_a 30.705442
_cell_length_b 8.160836
_cell_length_c 22.498929
_cell_angle_alpha 90.000000
_cell_angle_beta 19.365649
_cell_angle_gamma 90.000000
_cell_volume 1869.478929
_symmetry_space_group_name_H-M "P 2/M"
_symmetry_group_IT_number 10
_symmetry_cell_setting 'monoclinic'
loop_
_space_group_symop_operation_xyz
x,y,z
-x,y,-z
-x,-y,-z
x,-y,z
loop_
_atom_site_type_symbol
_atom_site_label
_atom_site_fract_x
_atom_site_fract_y
_atom_site_fract_z
Si Si1 0.441402 0.693810 0.482929
Si Si2 0.599906 0.195750 0.035955
Si Si3 0.601526 0.302081 0.169095
Si Si4 0.857145 0.302106 0.913426
Si Si5 0.418702 0.304401 0.162554
Si Si6 0.127151 0.200368 0.372805
Si Si7 0.290018 0.306198 0.785713
Si Si8 0.128329 0.195750 0.507466
O O1 0.412111 0.500000 0.513256
O O2 0.485020 0.760205 0.362721
O O3 0.576326 0.702603 0.347339
O O4 0.328352 0.764490 0.671684
O O5 0.583510 0.254301 0.124357
O O6 0.489221 0.249232 0.132001
O O7 0.603970 0.000000 0.031424
O O8 0.739338 0.256314 0.830420
O O9 0.601226 0.500000 0.173477
O O10 0.742161 0.246523 0.015609
O O11 0.849221 0.500000 0.925462
O O12 0.000668 0.254367 0.707110
O O13 0.819502 0.239765 0.028165
O O14 0.422056 0.500000 0.155738
O O15 0.268291 0.248985 0.352938
O O16 0.500000 0.240663 0.000000
O O17 0.121345 0.256338 0.448286
O O18 0.000000 0.253489 0.500000
O O19 0.128042 0.000000 0.371917
O O20 0.262778 0.500000 0.811927
O O21 0.125012 0.000000 0.510344
#
# Coordination Sequence:
#
# PCOD9154411 Si02
#       8
#     4   4   4   4   4   4   4   4
#     4   7  10  19  38  64  94 129 165 197 231 276
#     4  11  21  34  52  71  96 128 165 201 239 289
#     4   9  17  29  46  72 105 134 163 202 244 284
#     4   9  17  29  46  72 105 134 163 202 244 284
#     4  11  23  39  57  73  92 117 156 209 257 292
#     4   9  18  31  47  68  94 125 158 189 224 275
#     4   7  10  19  38  64  94 129 165 197 231 276
#     4  11  21  34  52  71  96 128 165 201 239 289
#
# _framework density 17.117069000000001
#
# number of rings (size 3 to 8) (size 9 to 14) (size 15 to 20)
#    0.000    2.750    1.250    4.125    0.000    2.000 
#    0.000    0.000    0.000    3.750    0.000    4.375 
#    0.000    7.000    0.000    0.000    0.000    0.000 
#
# Total GULP energy -178232.115465 kJ/mol
# GULP energy per Si atom -5569.753608 kJ/mol
# Density = 1.707811 g / cm^3
# Si number density = 17.117069 Si / 1000 Ang^3
#
#
#
# Elastic Constant Matrix: (Units=GPa)
#
#
# Indices 1 2 3 4 5 6 
#
# 1 125.4185 14.5802 121.8382 0.0000 21.2949 0.0000
# 2 14.5802 17.8295 15.0359 0.0000 4.0761 0.0000
# 3 121.8382 15.0359 131.8355 0.0000 26.8145 0.0000
# 4 0.0000 0.0000 0.0000 0.4803 0.0000 4.6196
# 5 21.2949 4.0761 26.8145 0.0000 37.0949 0.0000
# 6 0.0000 0.0000 0.0000 4.6196 0.0000 -0.3217
#
#
#
# Elastic Compliance Matrix: (Units=1/GPa)
#
#
# Indices 1 2 3 4 5 6 
#
# 1 0.080671 -0.003996 -0.075932 0.000000 0.009017 0.000000
# 2 -0.003996 0.062380 -0.002924 0.000000 -0.002447 0.000000
# 3 -0.075932 -0.002924 0.081083 0.000000 -0.014700 0.000000
# 4 0.000000 0.000000 0.000000 0.014967 0.000000 0.214912
# 5 0.009017 -0.002447 -0.014700 0.000000 0.032677 0.000000
# 6 0.000000 0.000000 0.000000 0.214912 0.000000 -0.022346
#
#
# Mechanical properties :
#
#
# Convention : Reuss Voigt Hill
#
# Bulk Modulus (GPa) = 17.11449 64.22133 40.66791
# Shear Modulus (GPa) = 11.50452 15.69265 13.59859
#
# Velocity S-wave (km/s) = 2.59532 3.03113 2.82165
# Velocity P-wave (km/s) = 4.35902 7.06050 5.86736
#
# Compressibility (1/GPa) = 0.05843004
#
# Stress axis : x y z
#
# Youngs Moduli (GPa) = 12.39596 16.03082 12.33307
#
# Poissons Ratio (x) = 0.06406 0.93648
# Poissons Ratio (y) = 0.04954 0.03606
# Poissons Ratio (z) = 0.94125 0.04687
#
# Static dielectric constant tensor:
#      x y z
#    x 1.588700 0.000000 0.043580 
#    y 0.000000 1.602920 0.000000 
#    z 0.043580 0.000000 1.595800 
# 
# From -- ./inp_files/86919.got.cif
#   From: 2010.05.17/outbox.cif.g08.bks.cpg/sg10_44_cif.got.tgz:86919.got - 2010.06.03 11:33:40.
