data_PCOD9154917
_publ_section_title
;
Structure prediction by ZEFSAII (Michael W. Deem and Ramdas Pophale) SiO2 
 PCOD9154917
Probable space group: P 2/M
;
_chemical_formula_sum "Si O2"
_cell_formula_units_Z 32
_cell_length_a 14.651529
_cell_length_b 7.401646
_cell_length_c 15.472840
_cell_angle_alpha 90.000000
_cell_angle_beta 92.411749
_cell_angle_gamma 90.000000
_cell_volume 1676.472504
_symmetry_space_group_name_H-M "P 2/M"
_symmetry_group_IT_number 10
_symmetry_cell_setting 'monoclinic'
loop_
_space_group_symop_operation_xyz
x,y,z
-x,y,-z
-x,-y,-z
x,-y,z
loop_
_atom_site_type_symbol
_atom_site_label
_atom_site_fract_x
_atom_site_fract_y
_atom_site_fract_z
Si Si1 0.171478 0.716734 0.824584
Si Si2 0.609004 0.280481 0.748840
Si Si3 0.470342 0.210491 0.590418
Si Si4 0.015133 0.279093 0.101233
Si Si5 0.307970 0.720488 0.980936
Si Si6 0.216540 0.719702 0.156915
Si Si7 0.531304 0.295119 0.118274
Si Si8 0.666235 0.213381 0.276550
O O1 0.169093 0.500000 0.828632
O O2 0.235902 0.781098 0.905720
O O3 0.226954 0.762499 0.739767
O O4 0.069638 0.779170 0.842409
O O5 0.604947 0.500000 0.750000
O O6 0.553464 0.222538 0.662235
O O7 0.714449 0.225391 0.763899
O O8 0.552429 0.214645 0.831206
O O9 0.500000 0.291432 0.500000
O O10 0.380770 0.281934 0.637420
O O11 0.449910 0.000000 0.573161
O O12 0.016124 0.500000 0.099696
O O13 0.112360 0.219151 0.143404
O O14 0.000000 0.225097 0.000000
O O15 0.310472 0.500000 0.978914
O O16 0.409643 0.782266 0.958775
O O17 0.268230 0.772470 0.071021
O O18 0.213371 0.500000 0.158532
O O19 0.503694 0.500000 0.095503
O O20 0.609780 0.302347 0.196110
O O21 0.646795 0.000000 0.269775
#
# Coordination Sequence:
#
# PCOD9154917 Si02
#       8
#     4   4   4   4   4   4   4   4
#     4   9  15  24  40  61  85 113 147 184 212 236
#     4   9  17  27  40  63  92 113 133 171 217 254
#     4   9  18  33  51  67  83 107 138 168 205 263
#     4   9  14  22  38  61  86 115 154 191 213 232
#     4   8  12  19  33  54  79 109 144 177 201 228
#     4   9  15  22  35  59  88 115 146 181 212 240
#     4   8  14  24  37  55  81 112 143 171 201 241
#     4   9  16  26  42  63  84 105 131 169 215 259
#
# _framework density 19.087698
#
# number of rings (size 3 to 8) (size 9 to 14) (size 15 to 20)
#    0.000    3.250    1.250    1.125    0.000    1.250 
#    0.000    2.500    0.000    4.125    0.000   12.250 
#    0.000    7.000    0.000    0.000    0.000    0.000 
#
# Total GULP energy -178272.183852 kJ/mol
# GULP energy per Si atom -5571.005745 kJ/mol
# Density = 1.904425 g / cm^3
# Si number density = 19.087698 Si / 1000 Ang^3
#
#
#
# Elastic Constant Matrix: (Units=GPa)
#
#
# Indices 1 2 3 4 5 6 
#
# 1 166.2347 -3.1786 64.1645 0.0000 -24.5179 0.0000
# 2 -3.1786 66.2983 -0.2049 0.0000 -3.3242 0.0000
# 3 64.1645 -0.2049 101.9156 0.0000 -25.2978 0.0000
# 4 0.0000 0.0000 0.0000 6.2036 0.0000 -7.3798
# 5 -24.5179 -3.3242 -25.2978 0.0000 21.8132 0.0000
# 6 0.0000 0.0000 0.0000 -7.3798 0.0000 -13.8701
#
#
#
# Elastic Compliance Matrix: (Units=1/GPa)
#
#
# Indices 1 2 3 4 5 6 
#
# 1 0.008284 0.000621 -0.004043 0.000000 0.004716 0.000000
# 2 0.000621 0.015299 0.000550 0.000000 0.003668 0.000000
# 3 -0.004043 0.000550 0.015800 0.000000 0.013863 0.000000
# 4 0.000000 0.000000 0.000000 0.098715 0.000000 -0.052523
# 5 0.004716 0.003668 0.013863 0.000000 0.067782 0.000000
# 6 0.000000 0.000000 0.000000 -0.052523 0.000000 -0.044152
#
#
# Mechanical properties :
#
#
# Convention : Reuss Voigt Hill
#
# Bulk Modulus (GPa) = 29.72827 50.66784 40.19805
# Shear Modulus (GPa) = 27.98231 21.07384 24.52808
#
# Velocity S-wave (km/s) = 3.83297 3.32634 3.58861
# Velocity P-wave (km/s) = 5.93273 6.43079 6.18677
#
# Compressibility (1/GPa) = 0.03363802
#
# Stress axis : x y z
#
# Youngs Moduli (GPa) = 120.71800 65.36495 63.29140
#
# Poissons Ratio (x) = -0.04060 0.25591
# Poissons Ratio (y) = -0.07498 -0.03481
# Poissons Ratio (z) = 0.48811 -0.03596
#
# Static dielectric constant tensor:
#      x y z
#    x 1.708100 0.000000 -0.028730 
#    y 0.000000 1.742520 0.000000 
#    z -0.028730 0.000000 1.672680 
# 
# From -- ./inp_files/66054.got.cif
#   From: 2010.05.17/outbox.cif.g08.bks.cpg/sg10_34_cif.got.tgz:66054.got - 2010.06.03 11:33:40.
