data_PCOD9154192
_publ_section_title
;
Structure prediction by ZEFSAII (Michael W. Deem and Ramdas Pophale) SiO2 
 PCOD9154192
Probable space group: P 2/M
;
_chemical_formula_sum "Si O2"
_cell_formula_units_Z 20
_cell_length_a 10.266234
_cell_length_b 12.577230
_cell_length_c 6.681839
_cell_angle_alpha 90.000000
_cell_angle_beta 67.501363
_cell_angle_gamma 90.000000
_cell_volume 797.098137
_symmetry_space_group_name_H-M "P 2/M"
_symmetry_group_IT_number 10
_symmetry_cell_setting 'monoclinic'
loop_
_space_group_symop_operation_xyz
x,y,z
-x,y,-z
-x,-y,-z
x,-y,z
loop_
_atom_site_type_symbol
_atom_site_label
_atom_site_fract_x
_atom_site_fract_y
_atom_site_fract_z
Si Si1 0.143558 0.834369 0.827293
Si Si2 0.126513 0.339119 0.535490
Si Si3 0.608743 0.120515 0.609708
Si Si4 0.609591 0.500000 0.060109
Si Si5 0.619344 0.500000 0.553325
Si Si6 0.296801 0.741665 0.099576
O O1 0.095285 0.722535 0.756799
O O2 0.238957 0.881837 0.592395
O O3 0.252672 0.815812 0.943538
O O4 0.000000 0.883537 0.000000
O O5 0.271254 0.400627 0.497797
O O6 0.162958 0.264197 0.326107
O O7 0.000000 0.399320 0.500000
O O8 0.500000 0.152637 0.500000
O O9 0.599714 0.204329 0.796619
O O10 0.576809 0.000000 0.694960
O O11 0.570514 0.500000 0.826856
O O12 0.673624 0.622169 0.002470
O O13 0.576310 0.500000 0.333831
#
# Coordination Sequence:
#
# PCOD9154192 Si02
#       6
#     4   4   4   2   2   4
#     4  11  24  42  71 102 140 188 239 289 359 429
#     4  11  22  41  64  93 139 190 236 292 356 424
#     4  10  26  48  74 106 140 186 239 299 369 428
#     4  12  24  40  64 106 137 189 242 274 351 432
#     4  12  25  40  61  96 141 187 250 299 351 421
#     4  11  24  44  70 101 148 184 234 297 349 430
#
# _framework density 25.091011000000002
#
# number of rings (size 3 to 8) (size 9 to 14) (size 15 to 20)
#    0.000    1.000    4.000    1.500    2.800    4.400 
#    0.000    4.500    0.000    0.000    0.000    0.000 
#    0.000    0.000    0.000    0.000    0.000    0.000 
#
# Total GULP energy -111342.306199 kJ/mol
# GULP energy per Si atom -5567.115310 kJ/mol
# Density = 2.503390 g / cm^3
# Si number density = 25.091011 Si / 1000 Ang^3
#
#
#
# Elastic Constant Matrix: (Units=GPa)
#
#
# Indices 1 2 3 4 5 6 
#
# 1 131.2357 36.4145 58.0541 0.0000 23.9015 0.0000
# 2 36.4145 100.2322 68.9537 0.0000 15.9659 0.0000
# 3 58.0541 68.9537 196.1872 0.0000 1.7991 0.0000
# 4 0.0000 0.0000 0.0000 -30.7214 0.0000 -14.5782
# 5 23.9015 15.9659 1.7991 0.0000 66.2010 0.0000
# 6 0.0000 0.0000 0.0000 -14.5782 0.0000 8.6692
#
#
#
# Elastic Compliance Matrix: (Units=1/GPa)
#
#
# Indices 1 2 3 4 5 6 
#
# 1 0.009592 -0.001403 -0.002317 0.000000 -0.003062 0.000000
# 2 -0.001403 0.014009 -0.004483 0.000000 -0.002750 0.000000
# 3 -0.002317 -0.004483 0.007343 0.000000 0.001718 0.000000
# 4 0.000000 0.000000 0.000000 -0.018104 0.000000 -0.030444
# 5 -0.003062 -0.002750 0.001718 0.000000 0.016828 0.000000
# 6 0.000000 0.000000 0.000000 -0.030444 0.000000 0.064156
#
#
# Mechanical properties :
#
#
# Convention : Reuss Voigt Hill
#
# Bulk Modulus (GPa) = 68.79159 83.83330 76.31244
# Shear Modulus (GPa) = 43.44972 26.44526 34.94749
#
# Velocity S-wave (km/s) = 4.16587 3.25002 3.73611
# Velocity P-wave (km/s) = 7.11446 6.89693 7.00654
#
# Compressibility (1/GPa) = 0.01453666
#
# Stress axis : x y z
#
# Youngs Moduli (GPa) = 104.25553 71.38351 136.18721
#
# Poissons Ratio (x) = 0.10015 0.31557
# Poissons Ratio (y) = 0.14627 0.61057
# Poissons Ratio (z) = 0.24158 0.32003
#
# Static dielectric constant tensor:
#      x y z
#    x 2.189700 0.000000 -0.062560 
#    y 0.000000 2.004170 0.000000 
#    z -0.062560 0.000000 1.963320 
# 
# From -- ./inp_files/6734.got.cif
#   From: 2010.05.17/outbox.cif.g08.bks.cpg/sg10_4_cif.got.tgz:6734.got - 2010.06.03 11:33:40.
