data_PCOD9154620
_publ_section_title
;
Structure prediction by ZEFSAII (Michael W. Deem and Ramdas Pophale) SiO2 
 PCOD9154620
Probable space group: P 2/M
;
_chemical_formula_sum "Si O2"
_cell_formula_units_Z 22
_cell_length_a 5.292701
_cell_length_b 15.449144
_cell_length_c 14.652091
_cell_angle_alpha 90.000000
_cell_angle_beta 61.466206
_cell_angle_gamma 90.000000
_cell_volume 1052.545104
_symmetry_space_group_name_H-M "P 2/M"
_symmetry_group_IT_number 10
_symmetry_cell_setting 'monoclinic'
loop_
_space_group_symop_operation_xyz
x,y,z
-x,y,-z
-x,-y,-z
x,-y,z
loop_
_atom_site_type_symbol
_atom_site_label
_atom_site_fract_x
_atom_site_fract_y
_atom_site_fract_z
Si Si1 0.705159 0.102513 0.785515
Si Si2 0.929661 0.178887 0.117647
Si Si3 0.099043 0.239954 0.380757
Si Si4 0.777731 0.411258 0.388028
Si Si5 0.644956 0.649463 0.218965
Si Si6 0.651521 0.500000 0.073331
O O1 0.376325 0.129354 0.820165
O O2 0.900202 0.153725 0.678882
O O3 0.822933 0.138452 0.861720
O O4 0.735360 0.000000 0.776871
O O5 0.884554 0.280227 0.149410
O O6 0.000000 0.171526 0.000000
O O7 0.398393 0.288918 0.305541
O O8 0.000000 0.220067 0.500000
O O9 0.893134 0.316769 0.386306
O O10 0.500000 0.415653 0.500000
O O11 0.951162 0.500000 0.381047
O O12 0.729772 0.410240 0.288606
O O13 0.571585 0.586304 0.146681
O O14 0.500000 0.500000 0.000000
O O15 0.000000 0.500000 0.000000
#
# Coordination Sequence:
#
# PCOD9154620 Si02
#       6
#     4   4   4   4   4   2
#     4  11  25  44  69 100 132 174 223 279 341 405
#     4  11  24  43  69  96 132 175 228 280 339 396
#     4  11  24  41  66  96 137 174 218 275 335 404
#     4  11  22  38  66  98 133 174 225 270 331 396
#     4  11  24  41  65  94 133 181 222 272 332 397
#     4  12  30  46  66  98 138 182 232 280 324 388
#
# _framework density 20.901716
#
# number of rings (size 3 to 8) (size 9 to 14) (size 15 to 20)
#    0.000    0.909    4.545    1.636    3.818    5.818 
#    0.000    0.000    0.000    3.818    0.000    0.000 
#    0.000    0.000    0.000    0.000    0.000    0.000 
#
# Total GULP energy -122697.649631 kJ/mol
# GULP energy per Si atom -5577.165892 kJ/mol
# Density = 2.085414 g / cm^3
# Si number density = 20.901716 Si / 1000 Ang^3
#
#
#
# Elastic Constant Matrix: (Units=GPa)
#
#
# Indices 1 2 3 4 5 6 
#
# 1 34.9096 -2.0241 -2.7467 0.0000 4.2721 0.0000
# 2 -2.0241 149.5959 29.3046 0.0000 4.3957 0.0000
# 3 -2.7467 29.3046 112.0253 0.0000 19.0819 0.0000
# 4 0.0000 0.0000 0.0000 13.2936 0.0000 3.8379
# 5 4.2721 4.3957 19.0819 0.0000 31.3768 0.0000
# 6 0.0000 0.0000 0.0000 3.8379 0.0000 34.9006
#
#
#
# Elastic Compliance Matrix: (Units=1/GPa)
#
#
# Indices 1 2 3 4 5 6 
#
# 1 0.029383 0.000250 0.001498 0.000000 -0.004946 0.000000
# 2 0.000250 0.007048 -0.001856 0.000000 0.000107 0.000000
# 3 0.001498 -0.001856 0.010530 0.000000 -0.006348 0.000000
# 4 0.000000 0.000000 0.000000 0.077691 0.000000 -0.008543
# 5 -0.004946 0.000107 -0.006348 0.000000 0.036390 0.000000
# 6 0.000000 0.000000 0.000000 -0.008543 0.000000 0.029592
#
#
# Mechanical properties :
#
#
# Convention : Reuss Voigt Hill
#
# Bulk Modulus (GPa) = 21.39306 38.39983 29.89644
# Shear Modulus (GPa) = 24.22093 34.04733 29.13413
#
# Velocity S-wave (km/s) = 3.40781 4.04037 3.73750
# Velocity P-wave (km/s) = 5.07361 6.33858 5.74104
#
# Compressibility (1/GPa) = 0.04674413
#
# Stress axis : x y z
#
# Youngs Moduli (GPa) = 34.03322 141.87485 94.96647
#
# Poissons Ratio (x) = -0.03540 -0.14223
# Poissons Ratio (y) = -0.00849 0.17625
# Poissons Ratio (z) = -0.05097 0.26331
#
# Static dielectric constant tensor:
#      x y z
#    x 1.923430 0.000000 -0.009990 
#    y 0.000000 1.734910 0.000000 
#    z -0.009990 0.000000 1.642750 
# 
# From -- ./inp_files/9333.got.cif
#   From: 2010.05.17/outbox.cif.g08.bks.cpg/sg10_5_cif.got.tgz:9333.got - 2010.06.03 11:33:40.
