data_PCOD9154499
_publ_section_title
;
Structure prediction by ZEFSAII (Michael W. Deem and Ramdas Pophale) SiO2 
 PCOD9154499
Probable space group: P 2/M
;
_chemical_formula_sum "Si O2"
_cell_formula_units_Z 18
_cell_length_a 9.082730
_cell_length_b 19.776606
_cell_length_c 5.458232
_cell_angle_alpha 90.000000
_cell_angle_beta 72.241770
_cell_angle_gamma 90.000000
_cell_volume 933.722135
_symmetry_space_group_name_H-M "P 2/M"
_symmetry_group_IT_number 10
_symmetry_cell_setting 'monoclinic'
loop_
_space_group_symop_operation_xyz
x,y,z
-x,y,-z
-x,-y,-z
x,-y,z
loop_
_atom_site_type_symbol
_atom_site_label
_atom_site_fract_x
_atom_site_fract_y
_atom_site_fract_z
Si Si1 0.000000 0.820268 0.500000
Si Si2 0.158704 0.075696 0.070739
Si Si3 0.838063 0.718619 0.225916
Si Si4 0.597324 0.177462 0.200595
Si Si5 0.102235 0.574296 0.697115
O O1 0.886573 0.870307 0.701547
O O2 0.885835 0.770888 0.412322
O O3 0.198454 0.000000 0.135781
O O4 0.293881 0.110984 0.849070
O O5 0.000000 0.071371 0.000000
O O6 0.706602 0.756138 0.140092
O O7 0.799168 0.643027 0.333490
O O8 0.000000 0.713430 0.000000
O O9 0.500000 0.180788 0.500000
O O10 0.500000 0.174244 0.000000
O O11 0.179361 0.500000 0.643615
O O12 0.000000 0.580858 0.500000
O O13 0.000000 0.572502 0.000000
#
# Coordination Sequence:
#
# PCOD9154499 Si02
#       5
#     2   4   4   4   4
#     4  12  17  38  65  92 114 154 206 264 287 364
#     4  11  24  41  63  88 117 160 207 257 309 370
#     4  11  21  37  65  89 119 162 210 252 299 359
#     4  12  26  42  61  90 128 162 205 255 308 367
#     4   9  18  31  54  92 125 150 191 253 309 346
#
# _framework density 19.277683
#
# number of rings (size 3 to 8) (size 9 to 14) (size 15 to 20)
#    0.000    1.111    5.556    1.667    0.000    0.889 
#    0.000    0.000    0.000    1.333    0.000    0.000 
#    0.000    0.000    0.000    0.000    0.000    0.000 
#
# Total GULP energy -100343.013807 kJ/mol
# GULP energy per Si atom -5574.611878 kJ/mol
# Density = 1.923381 g / cm^3
# Si number density = 19.277683 Si / 1000 Ang^3
#
#
#
# Elastic Constant Matrix: (Units=GPa)
#
#
# Indices 1 2 3 4 5 6 
#
# 1 84.9054 39.3187 22.1042 0.0000 6.5624 0.0000
# 2 39.3187 207.3503 29.2948 0.0000 1.9719 0.0000
# 3 22.1042 29.2948 84.3405 0.0000 1.9957 0.0000
# 4 0.0000 0.0000 0.0000 36.8722 0.0000 33.1431
# 5 6.5624 1.9719 1.9957 0.0000 30.0651 0.0000
# 6 0.0000 0.0000 0.0000 33.1431 0.0000 -38.9563
#
#
#
# Elastic Compliance Matrix: (Units=1/GPa)
#
#
# Indices 1 2 3 4 5 6 
#
# 1 0.013717 -0.002184 -0.002773 0.000000 -0.002667 0.000000
# 2 -0.002184 0.005421 -0.001315 0.000000 0.000208 0.000000
# 3 -0.002773 -0.001315 0.013045 0.000000 -0.000174 0.000000
# 4 0.000000 0.000000 0.000000 0.015368 0.000000 0.013075
# 5 -0.002667 0.000208 -0.000174 0.000000 0.033841 0.000000
# 6 0.000000 0.000000 0.000000 0.013075 0.000000 -0.014546
#
#
# Mechanical properties :
#
#
# Convention : Reuss Voigt Hill
#
# Bulk Modulus (GPa) = 50.92389 62.00350 56.46370
# Shear Modulus (GPa) = 58.18206 24.65477 41.41842
#
# Velocity S-wave (km/s) = 5.49969 3.58009 4.64024
# Velocity P-wave (km/s) = 8.17325 7.02300 7.61986
#
# Compressibility (1/GPa) = 0.01963715
#
# Stress axis : x y z
#
# Youngs Moduli (GPa) = 72.90058 184.47644 76.66022
#
# Poissons Ratio (x) = 0.40289 0.21261
# Poissons Ratio (y) = 0.15921 0.10084
# Poissons Ratio (z) = 0.20218 0.24266
#
# Static dielectric constant tensor:
#      x y z
#    x 1.719150 0.000000 -0.007120 
#    y 0.000000 1.734110 0.000000 
#    z -0.007120 0.000000 1.778970 
# 
# From -- ./inp_files/4542.got.cif
#   From: 2010.05.17/outbox.cif.g08.bks.cpg/sg10_3_cif.got.tgz:4542.got - 2010.06.03 11:33:40.
