data_PCOD9154154
_publ_section_title
;
Structure prediction by ZEFSAII (Michael W. Deem and Ramdas Pophale) SiO2 
 PCOD9154154
Probable space group: P 2/M
;
_chemical_formula_sum "Si O2"
_cell_formula_units_Z 18
_cell_length_a 9.375879
_cell_length_b 20.728802
_cell_length_c 5.639202
_cell_angle_alpha 90.000000
_cell_angle_beta 51.897265
_cell_angle_gamma 90.000000
_cell_volume 862.435186
_symmetry_space_group_name_H-M "P 2/M"
_symmetry_group_IT_number 10
_symmetry_cell_setting 'monoclinic'
loop_
_space_group_symop_operation_xyz
x,y,z
-x,y,-z
-x,-y,-z
x,-y,z
loop_
_atom_site_type_symbol
_atom_site_label
_atom_site_fract_x
_atom_site_fract_y
_atom_site_fract_z
Si Si1 0.000000 0.705680 0.000000
Si Si2 0.152283 0.188845 0.507728
Si Si3 0.389164 0.926787 0.365982
Si Si4 0.334223 0.376103 0.814421
Si Si5 0.500000 0.727978 0.000000
Si Si6 0.888916 0.500000 0.856559
O O1 0.035469 0.754859 0.751139
O O2 0.176369 0.661326 0.836425
O O3 0.241390 0.129198 0.551992
O O4 0.000000 0.157596 0.500000
O O5 0.328205 0.227022 0.231292
O O6 0.500000 0.924957 0.500000
O O7 0.317800 0.000000 0.415448
O O8 0.500000 0.915112 0.000000
O O9 0.500000 0.405518 0.500000
O O10 0.430463 0.320625 0.869363
O O11 0.231291 0.435485 0.036977
O O12 0.000000 0.500000 0.500000
O O13 0.000000 0.500000 0.000000
#
# Coordination Sequence:
#
# PCOD9154154 Si02
#       6
#     2   4   4   4   2   2
#     4  12  26  43  69 108 146 180 242 304 358 424
#     4  12  26  42  70 107 143 190 239 302 361 429
#     4  10  24  46  72 102 144 194 244 296 354 427
#     4  12  27  48  74 101 145 192 241 291 370 431
#     4  12  26  43  71 106 142 188 242 296 362 432
#     4  12  31  51  78 107 146 190 244 304 353 428
#
# _framework density 20.871131999999999
#
# number of rings (size 3 to 8) (size 9 to 14) (size 15 to 20)
#    0.000    0.444    6.667    0.333   12.444    0.889 
#    0.000    0.556    0.000    0.000    0.000    0.000 
#    0.000    0.000    0.000    0.000    0.000    0.000 
#
# Total GULP energy -100298.733248 kJ/mol
# GULP energy per Si atom -5572.151847 kJ/mol
# Density = 2.082363 g / cm^3
# Si number density = 20.871132 Si / 1000 Ang^3
#
#
#
# Elastic Constant Matrix: (Units=GPa)
#
#
# Indices 1 2 3 4 5 6 
#
# 1 100.3937 25.4981 32.8123 0.0000 -14.3363 0.0000
# 2 25.4981 122.1667 24.4653 0.0000 -11.8823 0.0000
# 3 32.8123 24.4653 97.8550 0.0000 -11.6713 0.0000
# 4 0.0000 0.0000 0.0000 -210.9791 0.0000 186.5411
# 5 -14.3363 -11.8823 -11.6713 0.0000 29.3868 0.0000
# 6 0.0000 0.0000 0.0000 186.5411 0.0000 -202.3398
#
#
#
# Elastic Compliance Matrix: (Units=1/GPa)
#
#
# Indices 1 2 3 4 5 6 
#
# 1 0.011935 -0.001472 -0.003160 0.000000 0.003972 0.000000
# 2 -0.001472 0.009017 -0.001482 0.000000 0.002339 0.000000
# 3 -0.003160 -0.001482 0.011961 0.000000 0.002609 0.000000
# 4 0.000000 0.000000 0.000000 -0.025639 0.000000 -0.023637
# 5 0.003972 0.002339 0.002609 0.000000 0.037949 0.000000
# 6 0.000000 0.000000 0.000000 -0.023637 0.000000 -0.026734
#
#
# Mechanical properties :
#
#
# Convention : Reuss Voigt Hill
#
# Bulk Modulus (GPa) = 48.34493 53.99632 51.17063
# Shear Modulus (GPa) = 132.94021 -60.94377 35.99822
#
# Velocity S-wave (km/s) = 7.98962 -5.40957 4.15756
# Velocity P-wave (km/s) = 10.40797 3.61807 6.90056
#
# Compressibility (1/GPa) = 0.02068469
#
# Stress axis : x y z
#
# Youngs Moduli (GPa) = 83.78960 110.90146 83.60800
#
# Poissons Ratio (x) = 0.16322 0.26421
# Poissons Ratio (y) = 0.12332 0.12390
# Poissons Ratio (z) = 0.26479 0.16434
#
# Static dielectric constant tensor:
#      x y z
#    x 1.783790 0.000000 0.006840 
#    y 0.000000 1.724550 0.000000 
#    z 0.006840 0.000000 1.770000 
# 
# From -- ./inp_files/4602.got.cif
#   From: 2010.05.17/outbox.cif.g08.bks.cpg/sg10_3_cif.got.tgz:4602.got - 2010.06.03 11:33:40.
