data_PCOD9154806
_publ_section_title
;
Structure prediction by ZEFSAII (Michael W. Deem and Ramdas Pophale) SiO2 
 PCOD9154806
Probable space group: P 2/M
;
_chemical_formula_sum "Si O2"
_cell_formula_units_Z 26
_cell_length_a 9.174541
_cell_length_b 13.956693
_cell_length_c 14.860638
_cell_angle_alpha 90.000000
_cell_angle_beta 143.161822
_cell_angle_gamma 90.000000
_cell_volume 1140.866473
_symmetry_space_group_name_H-M "P 2/M"
_symmetry_group_IT_number 10
_symmetry_cell_setting 'monoclinic'
loop_
_space_group_symop_operation_xyz
x,y,z
-x,y,-z
-x,-y,-z
x,-y,z
loop_
_atom_site_type_symbol
_atom_site_label
_atom_site_fract_x
_atom_site_fract_y
_atom_site_fract_z
Si Si1 0.593799 0.000000 0.442491
Si Si2 0.523648 0.781427 0.660709
Si Si3 0.878348 0.000000 0.320585
Si Si4 0.729805 0.398567 0.549099
Si Si5 0.759702 0.000000 0.070755
Si Si6 0.237392 0.208359 0.683714
Si Si7 0.063526 0.800863 0.925116
Si Si8 0.235669 0.336860 0.862681
O O1 0.500000 0.000000 0.500000
O O2 0.515352 0.893702 0.374876
O O3 0.848591 0.000000 0.511604
O O4 0.335298 0.703840 0.527888
O O5 0.474314 0.767158 0.742285
O O6 0.793041 0.771311 0.755266
O O7 0.748772 0.097622 0.280583
O O8 0.941379 0.000000 0.245103
O O9 0.500000 0.407210 0.500000
O O10 0.732709 0.500000 0.495039
O O11 0.987617 0.394919 0.726884
O O12 0.828292 0.905148 0.048489
O O13 0.500000 0.000000 0.000000
O O14 0.226157 0.269086 0.769002
O O15 0.000000 0.218641 0.500000
O O16 0.220356 0.726337 0.945434
O O17 0.000000 0.798736 0.000000
O O18 0.500000 0.385689 0.000000
#
# Coordination Sequence:
#
# PCOD9154806 Si02
#       8
#     2   4   2   4   2   4   4   4
#     4  12  23  34  63  99 138 179 236 300 348 420
#     4  12  24  42  69 106 142 187 251 299 357 441
#     4  12  22  38  57  91 140 192 237 302 360 424
#     4  11  24  47  78 108 146 190 241 309 376 439
#     4  12  27  43  62  96 150 200 255 295 368 439
#     4  12  23  40  67 102 145 193 243 302 367 433
#     4  12  26  45  67  99 143 201 251 304 362 439
#     4  12  25  46  72 106 145 187 239 306 377 439
#
# _framework density 22.789695999999999
#
# number of rings (size 3 to 8) (size 9 to 14) (size 15 to 20)
#    0.000    0.154    6.154    4.154    2.154    0.308 
#    0.000    1.538    0.000    3.692    0.000    0.000 
#    0.000    0.000    0.000    0.000    0.000    0.000 
#
# Total GULP energy -144776.117827 kJ/mol
# GULP energy per Si atom -5568.312224 kJ/mol
# Density = 2.273783 g / cm^3
# Si number density = 22.789696 Si / 1000 Ang^3
#
#
#
# Elastic Constant Matrix: (Units=GPa)
#
#
# Indices 1 2 3 4 5 6 
#
# 1 146.5148 44.1324 42.5017 0.0000 8.5695 0.0000
# 2 44.1324 94.0976 60.6176 0.0000 -4.7665 0.0000
# 3 42.5017 60.6176 94.1584 0.0000 18.6130 0.0000
# 4 0.0000 0.0000 0.0000 29.8156 0.0000 13.9986
# 5 8.5695 -4.7665 18.6130 0.0000 60.7655 0.0000
# 6 0.0000 0.0000 0.0000 13.9986 0.0000 80.9135
#
#
#
# Elastic Compliance Matrix: (Units=1/GPa)
#
#
# Indices 1 2 3 4 5 6 
#
# 1 0.008218 -0.002756 -0.001771 0.000000 -0.000833 0.000000
# 2 -0.002756 0.020861 -0.013398 0.000000 0.006129 0.000000
# 3 -0.001771 -0.013398 0.021505 0.000000 -0.007388 0.000000
# 4 0.000000 0.000000 0.000000 0.036505 0.000000 -0.006316
# 5 -0.000833 0.006129 -0.007388 0.000000 0.019318 0.000000
# 6 0.000000 0.000000 0.000000 -0.006316 0.000000 0.013452
#
#
# Mechanical properties :
#
#
# Convention : Reuss Voigt Hill
#
# Bulk Modulus (GPa) = 67.86063 69.91935 68.88999
# Shear Modulus (GPa) = 31.12984 46.80020 38.96502
#
# Velocity S-wave (km/s) = 3.69990 4.53655 4.13942
# Velocity P-wave (km/s) = 6.93498 7.62805 7.28976
#
# Compressibility (1/GPa) = 0.01473608
#
# Stress axis : x y z
#
# Youngs Moduli (GPa) = 121.68945 47.93680 46.50017
#
# Poissons Ratio (x) = 0.13210 0.08234
# Poissons Ratio (y) = 0.33533 0.62299
# Poissons Ratio (z) = 0.21547 0.64223
#
# Static dielectric constant tensor:
#      x y z
#    x 1.879050 0.000000 0.004040 
#    y 0.000000 1.570720 0.000000 
#    z 0.004040 0.000000 1.847800 
# 
# From -- ./inp_files/62123.got.cif
#   From: 2010.05.17/outbox.cif.g08.bks.cpg/sg10_32_cif.got.tgz:62123.got - 2010.06.03 11:33:40.
