data_PCOD9154666
_publ_section_title
;
Structure prediction by ZEFSAII (Michael W. Deem and Ramdas Pophale) SiO2 
 PCOD9154666
Probable space group: P 2/M
;
_chemical_formula_sum "Si O2"
_cell_formula_units_Z 28
_cell_length_a 9.208983
_cell_length_b 16.638839
_cell_length_c 10.964532
_cell_angle_alpha 90.000000
_cell_angle_beta 65.822107
_cell_angle_gamma 90.000000
_cell_volume 1532.682128
_symmetry_space_group_name_H-M "P 2/M"
_symmetry_group_IT_number 10
_symmetry_cell_setting 'monoclinic'
loop_
_space_group_symop_operation_xyz
x,y,z
-x,y,-z
-x,-y,-z
x,-y,z
loop_
_atom_site_type_symbol
_atom_site_label
_atom_site_fract_x
_atom_site_fract_y
_atom_site_fract_z
Si Si1 0.723336 0.754202 0.843984
Si Si2 0.811316 0.407472 0.418866
Si Si3 0.805702 0.407201 0.707698
Si Si4 0.029396 0.840322 0.631196
Si Si5 0.330818 0.250901 0.622664
Si Si6 0.271406 0.000000 0.920095
Si Si7 0.990447 0.000000 0.203984
Si Si8 0.393492 0.820984 0.865127
O O1 0.719737 0.659092 0.819247
O O2 0.575848 0.796668 0.826826
O O3 0.888023 0.785386 0.732166
O O4 0.705490 0.780022 0.990680
O O5 0.767919 0.500000 0.409404
O O6 0.775312 0.390213 0.574366
O O7 0.721487 0.343946 0.365882
O O8 0.002874 0.400734 0.340257
O O9 0.761710 0.500000 0.746700
O O10 0.195635 0.795723 0.594144
O O11 0.000000 0.855569 0.500000
O O12 0.027360 0.921710 0.708155
O O13 0.500000 0.241387 0.500000
O O14 0.338363 0.214082 0.755003
O O15 0.146416 0.000000 0.851417
O O16 0.369299 0.082871 0.880396
O O17 0.161250 0.000000 0.078362
#
# Coordination Sequence:
#
# PCOD9154666 Si02
#       8
#     4   4   4   4   4   2   2   4
#     4  11  23  41  64  94 122 167 213 253 305 378
#     4   9  18  34  61  92 126 162 206 254 303 365
#     4   9  17  35  62  93 125 164 205 250 304 367
#     4  12  23  40  65  93 125 161 213 260 306 370
#     4  12  24  40  62  93 128 163 206 262 315 368
#     4  11  22  44  65  90 126 164 207 264 311 374
#     4  11  23  41  66  93 120 163 216 249 318 374
#     4  11  25  42  64  90 125 164 211 257 321 363
#
# _framework density 18.268629000000001
#
# number of rings (size 3 to 8) (size 9 to 14) (size 15 to 20)
#    0.000    1.286    4.286    3.643    0.000    2.571 
#    0.000    5.714    0.000    1.714    0.000    0.000 
#    0.000    0.000    0.000    0.000    0.000    0.000 
#
# Total GULP energy -156453.656174 kJ/mol
# GULP energy per Si atom -5587.630578 kJ/mol
# Density = 1.822705 g / cm^3
# Si number density = 18.268629 Si / 1000 Ang^3
#
#
#
# Elastic Constant Matrix: (Units=GPa)
#
#
# Indices 1 2 3 4 5 6 
#
# 1 74.3929 46.6542 50.0212 0.0000 -5.4702 0.0000
# 2 46.6542 172.0712 68.4354 0.0000 2.5168 0.0000
# 3 50.0212 68.4354 71.9128 0.0000 7.6266 0.0000
# 4 0.0000 0.0000 0.0000 24.4450 0.0000 15.3360
# 5 -5.4702 2.5168 7.6266 0.0000 27.0438 0.0000
# 6 0.0000 0.0000 0.0000 15.3360 0.0000 173.1608
#
#
#
# Elastic Compliance Matrix: (Units=1/GPa)
#
#
# Indices 1 2 3 4 5 6 
#
# 1 0.028494 0.000778 -0.021816 0.000000 0.011844 0.000000
# 2 0.000778 0.009447 -0.009746 0.000000 0.002027 0.000000
# 3 -0.021816 -0.009746 0.039922 0.000000 -0.014764 0.000000
# 4 0.000000 0.000000 0.000000 0.043315 0.000000 -0.003836
# 5 0.011844 0.002027 -0.014764 0.000000 0.043348 0.000000
# 6 0.000000 0.000000 0.000000 -0.003836 0.000000 0.006115
#
#
# Mechanical properties :
#
#
# Convention : Reuss Voigt Hill
#
# Bulk Modulus (GPa) = 61.37475 72.06649 66.72062
# Shear Modulus (GPa) = 21.04010 55.14766 38.09388
#
# Velocity S-wave (km/s) = 3.39736 5.50024 4.57136
# Velocity P-wave (km/s) = 7.00415 8.93704 8.02897
#
# Compressibility (1/GPa) = 0.01629335
#
# Stress axis : x y z
#
# Youngs Moduli (GPa) = 35.09464 105.84991 25.04911
#
# Poissons Ratio (x) = -0.08232 0.54648
# Poissons Ratio (y) = -0.02729 0.24414
# Poissons Ratio (z) = 0.76563 1.03165
#
# Static dielectric constant tensor:
#      x y z
#    x 1.616620 0.000000 -0.000120 
#    y 0.000000 1.642580 0.000000 
#    z -0.000120 0.000000 1.604150 
# 
# From -- ./inp_files/25444.got.cif
#   From: 2010.05.17/outbox.cif.g08.bks.cpg/sg10_13_cif.got.tgz:25444.got - 2010.06.03 11:33:40.
