data_PCOD9154976
_publ_section_title
;
Structure prediction by ZEFSAII (Michael W. Deem and Ramdas Pophale) SiO2 
 PCOD9154976
Probable space group: P 2/M
;
_chemical_formula_sum "Si O2"
_cell_formula_units_Z 28
_cell_length_a 29.207434
_cell_length_b 7.465755
_cell_length_c 7.901653
_cell_angle_alpha 90.000000
_cell_angle_beta 144.376735
_cell_angle_gamma 90.000000
_cell_volume 1003.566231
_symmetry_space_group_name_H-M "P 2/M"
_symmetry_group_IT_number 10
_symmetry_cell_setting 'monoclinic'
loop_
_space_group_symop_operation_xyz
x,y,z
-x,y,-z
-x,-y,-z
x,-y,z
loop_
_atom_site_type_symbol
_atom_site_label
_atom_site_fract_x
_atom_site_fract_y
_atom_site_fract_z
Si Si1 0.016050 0.205533 0.273879
Si Si2 0.301449 0.218558 0.732720
Si Si3 0.123531 0.710091 0.918512
Si Si4 0.450203 0.219246 0.008901
Si Si5 0.838219 0.782989 0.478069
Si Si6 0.407335 0.205828 0.362900
Si Si7 0.730071 0.289375 0.821467
O O1 0.070400 0.213418 0.606152
O O2 0.074330 0.283863 0.305521
O O3 0.931194 0.270854 0.081301
O O4 0.002873 0.000000 0.192796
O O5 0.214454 0.282744 0.522162
O O6 0.297924 0.000000 0.720356
O O7 0.359928 0.276577 0.758349
O O8 0.354138 0.279816 0.053164
O O9 0.129901 0.500000 0.904482
O O10 0.212612 0.781671 0.157771
O O11 0.507335 0.277505 0.333832
O O12 0.449816 0.000000 0.005591
O O13 0.500000 0.282511 0.000000
O O14 0.842581 0.000000 0.502789
O O15 0.786038 0.740357 0.155029
O O16 0.352041 0.205814 0.365081
O O17 0.419205 0.000000 0.350561
O O18 0.716160 0.500000 0.760974
#
# Coordination Sequence:
#
# PCOD9154976 Si02
#       7
#     4   4   4   4   4   4   4
#     4   9  14  19  29  46  69  98 130 158 186 225
#     4   8  13  23  39  57  79 106 132 158 191 231
#     4   9  15  21  29  44  69 100 129 156 191 229
#     4   9  16  25  40  63  84 100 126 164 198 230
#     4   8  14  23  35  52  74 102 133 161 192 231
#     4   9  16  26  41  59  79 104 132 161 195 233
#     4   9  16  24  35  52  74 101 133 165 194 228
#
# _framework density 27.900500999999998
#
# number of rings (size 3 to 8) (size 9 to 14) (size 15 to 20)
#    0.000    3.286    0.000    3.429    0.000    4.000 
#    0.000    0.000    0.000    7.286    0.000    0.000 
#    0.000    1.143    0.000   14.286    0.000   10.571 
#
# Total GULP energy -156463.486526 kJ/mol
# GULP energy per Si atom -5587.981662 kJ/mol
# Density = 2.783700 g / cm^3
# Si number density = 27.900501 Si / 1000 Ang^3
#
#
#
# Elastic Constant Matrix: (Units=GPa)
#
#
# Indices 1 2 3 4 5 6 
#
# 1 248.5732 10.0119 53.6698 0.0000 31.2725 0.0000
# 2 10.0119 105.0965 9.8267 0.0000 10.2694 0.0000
# 3 53.6698 9.8267 141.1384 0.0000 53.6647 0.0000
# 4 0.0000 0.0000 0.0000 -37.8396 0.0000 254.7670
# 5 31.2725 10.2694 53.6647 0.0000 59.6939 0.0000
# 6 0.0000 0.0000 0.0000 254.7670 0.0000-1355.6759
#
#
#
# Elastic Compliance Matrix: (Units=1/GPa)
#
#
# Indices 1 2 3 4 5 6 
#
# 1 0.004445 -0.000192 -0.001222 0.000000 -0.001197 0.000000
# 2 -0.000192 0.009686 -0.000009 0.000000 -0.001558 0.000000
# 3 -0.001222 -0.000009 0.011101 0.000000 -0.009338 0.000000
# 4 0.000000 0.000000 0.000000 0.099623 0.000000 0.018722
# 5 -0.001197 -0.001558 -0.009338 0.000000 0.026042 0.000000
# 6 0.000000 0.000000 0.000000 0.018722 0.000000 0.002781
#
#
# Mechanical properties :
#
#
# Convention : Reuss Voigt Hill
#
# Bulk Modulus (GPa) = 44.66948 71.31387 57.99168
# Shear Modulus (GPa) = 30.49017 -238.67767 -104.09375
#
# Velocity S-wave (km/s) = 3.30937 -9.25914 -6.11473
# Velocity P-wave (km/s) = 5.53603 9.41772 5.38729
#
# Compressibility (1/GPa) = 0.02238665
#
# Stress axis : x y z
#
# Youngs Moduli (GPa) = 224.96628 103.23735 90.08103
#
# Poissons Ratio (x) = 0.01985 0.11005
# Poissons Ratio (y) = 0.04325 0.00082
# Poissons Ratio (z) = 0.27483 0.00094
#
# Static dielectric constant tensor:
#      x y z
#    x 2.306090 0.000000 -0.078890 
#    y 0.000000 2.021380 0.000000 
#    z -0.078890 0.000000 2.213280 
# 
# From -- ./inp_files/38010.got.cif
#   From: 2010.05.17/outbox.cif.g08.bks.cpg/sg10_20_cif.got.tgz:38010.got - 2010.06.03 11:33:40.
