data_PCOD9154618
_publ_section_title
;
Structure prediction by ZEFSAII (Michael W. Deem and Ramdas Pophale) SiO2 
 PCOD9154618
Probable space group: P 2/M
;
_chemical_formula_sum "Si O2"
_cell_formula_units_Z 24
_cell_length_a 10.219887
_cell_length_b 13.069064
_cell_length_c 17.425109
_cell_angle_alpha 90.000000
_cell_angle_beta 34.593792
_cell_angle_gamma 90.000000
_cell_volume 1321.376896
_symmetry_space_group_name_H-M "P 2/M"
_symmetry_group_IT_number 10
_symmetry_cell_setting 'monoclinic'
loop_
_space_group_symop_operation_xyz
x,y,z
-x,y,-z
-x,-y,-z
x,-y,z
loop_
_atom_site_type_symbol
_atom_site_label
_atom_site_fract_x
_atom_site_fract_y
_atom_site_fract_z
Si Si1 0.246288 0.882977 0.781821
Si Si2 0.499718 0.683176 0.909004
Si Si3 0.576679 0.687966 0.375083
Si Si4 0.680071 0.500000 0.581489
Si Si5 0.704871 0.882444 0.057869
Si Si6 0.014986 0.382318 0.079414
Si Si7 0.777461 0.500000 0.709597
O O1 0.419173 0.803902 0.658143
O O2 0.286915 0.877097 0.853711
O O3 0.285153 0.000000 0.738773
O O4 0.970693 0.861726 0.902796
O O5 0.471698 0.797667 0.888339
O O6 0.700802 0.605236 0.787492
O O7 0.500000 0.690503 0.000000
O O8 0.270148 0.629447 0.987335
O O9 0.500000 0.682801 0.500000
O O10 0.431287 0.603101 0.399056
O O11 0.839214 0.658672 0.227655
O O12 0.657340 0.500000 0.684100
O O13 0.949581 0.500000 0.432226
O O14 0.649394 0.000000 0.063262
O O15 0.949861 0.500000 0.101877
O O16 0.000000 0.336336 0.000000
#
# Coordination Sequence:
#
# PCOD9154618 Si02
#       7
#     4   4   4   2   4   4   2
#     4   9  18  35  61  89 115 148 197 251 298 351
#     4  12  24  35  60  88 124 154 192 250 304 349
#     4  12  24  35  60  88 124 154 192 250 304 349
#     4  11  25  41  57  81 119 163 201 235 285 361
#     4   9  18  35  61  89 115 148 197 251 298 351
#     4  11  22  38  63  89 115 156 208 249 293 358
#     4  11  25  41  57  81 119 163 201 235 285 361
#
# _framework density 18.162873000000001
#
# number of rings (size 3 to 8) (size 9 to 14) (size 15 to 20)
#    0.000    1.333    3.333    4.500    2.333    0.667 
#    0.000    0.000    0.000    1.000    0.000    4.667 
#    0.000    0.000    0.000    0.000    0.000    0.000 
#
# Total GULP energy -133830.470828 kJ/mol
# GULP energy per Si atom -5576.269618 kJ/mol
# Density = 1.812153 g / cm^3
# Si number density = 18.162873 Si / 1000 Ang^3
#
#
#
# Elastic Constant Matrix: (Units=GPa)
#
#
# Indices 1 2 3 4 5 6 
#
# 1 18.2251 6.0159 -4.9470 0.0000 0.0018 0.0000
# 2 6.0159 145.8181 26.4921 0.0000 4.1969 0.0000
# 3 -4.9470 26.4921 59.1190 0.0000 4.7285 0.0000
# 4 0.0000 0.0000 0.0000 43.2708 0.0000 36.8296
# 5 0.0018 4.1969 4.7285 0.0000 19.3857 0.0000
# 6 0.0000 0.0000 0.0000 36.8296 0.0000 42.7902
#
#
#
# Elastic Compliance Matrix: (Units=1/GPa)
#
#
# Indices 1 2 3 4 5 6 
#
# 1 0.057799 -0.003540 0.006488 0.000000 -0.000822 0.000000
# 2 -0.003540 0.007695 -0.003683 0.000000 -0.000767 0.000000
# 3 0.006488 -0.003683 0.019424 0.000000 -0.003941 0.000000
# 4 0.000000 0.000000 0.000000 0.086419 0.000000 -0.074381
# 5 -0.000822 -0.000767 -0.003941 0.000000 0.052712 0.000000
# 6 0.000000 0.000000 0.000000 -0.074381 0.000000 0.087390
#
#
# Mechanical properties :
#
#
# Convention : Reuss Voigt Hill
#
# Bulk Modulus (GPa) = 11.98335 30.92046 21.45190
# Shear Modulus (GPa) = 14.67464 34.12942 24.40203
#
# Velocity S-wave (km/s) = 2.84552 4.33953 3.66937
# Velocity P-wave (km/s) = 4.17230 6.49382 5.45792
#
# Compressibility (1/GPa) = 0.08344911
#
# Stress axis : x y z
#
# Youngs Moduli (GPa) = 17.30130 129.95239 51.48358
#
# Poissons Ratio (x) = 0.46000 -0.33405
# Poissons Ratio (y) = 0.06124 0.18962
# Poissons Ratio (z) = -0.11226 0.47863
#
# Static dielectric constant tensor:
#      x y z
#    x 1.598350 0.000000 0.000050 
#    y 0.000000 1.700150 0.000000 
#    z 0.000050 0.000000 1.609570 
# 
# From -- ./inp_files/61715.got.cif
#   From: 2010.05.17/outbox.cif.g08.bks.cpg/sg10_31_cif.got.tgz:61715.got - 2010.06.03 11:33:40.
