data_PCOD9154501
_publ_section_title
;
Structure prediction by ZEFSAII (Michael W. Deem and Ramdas Pophale) SiO2 
 PCOD9154501
Probable space group: P 2/M
;
_chemical_formula_sum "Si O2"
_cell_formula_units_Z 28
_cell_length_a 9.575744
_cell_length_b 15.378940
_cell_length_c 12.490183
_cell_angle_alpha 90.000000
_cell_angle_beta 52.969037
_cell_angle_gamma 90.000000
_cell_volume 1468.383151
_symmetry_space_group_name_H-M "P 2/M"
_symmetry_group_IT_number 10
_symmetry_cell_setting 'monoclinic'
loop_
_space_group_symop_operation_xyz
x,y,z
-x,y,-z
-x,-y,-z
x,-y,z
loop_
_atom_site_type_symbol
_atom_site_label
_atom_site_fract_x
_atom_site_fract_y
_atom_site_fract_z
Si Si1 0.517214 0.403117 0.612504
Si Si2 0.539798 0.903693 0.356257
Si Si3 0.083892 0.173868 0.850652
Si Si4 0.293901 0.395880 0.071201
Si Si5 0.724036 0.754999 0.595100
Si Si6 0.814049 0.363975 0.113077
Si Si7 0.064733 0.250647 0.288855
O O1 0.500000 0.367612 0.500000
O O2 0.595331 0.500000 0.572579
O O3 0.624810 0.337341 0.636240
O O4 0.322058 0.409258 0.747516
O O5 0.500000 0.905035 0.500000
O O6 0.743285 0.880453 0.252190
O O7 0.416768 0.829347 0.364613
O O8 0.503869 0.000000 0.327954
O O9 0.145446 0.271610 0.852057
O O10 0.960905 0.187901 0.802967
O O11 0.000000 0.140336 0.000000
O O12 0.257770 0.500000 0.091513
O O13 0.154542 0.340420 0.205448
O O14 0.500000 0.384404 0.000000
O O15 0.273559 0.358161 0.961694
O O16 0.811599 0.775566 0.668863
O O17 0.873852 0.745806 0.433975
O O18 0.000000 0.405713 0.000000
#
# Coordination Sequence:
#
# PCOD9154501 Si02
#       7
#     4   4   4   4   4   4   4
#     4  11  23  37  59  89 124 167 214 265 314 369
#     4  11  23  43  72  98 127 167 211 262 325 392
#     4  11  21  40  66  96 125 162 214 265 318 384
#     4  11  24  39  57  88 130 173 225 265 313 380
#     4  11  23  41  65  92 131 164 215 267 313 396
#     4  11  21  38  60  87 118 165 212 267 303 368
#     4  11  23  40  62  93 125 173 209 261 329 364
#
# _framework density 19.068593
#
# number of rings (size 3 to 8) (size 9 to 14) (size 15 to 20)
#    0.000    1.000    5.714    2.571    0.000    3.714 
#    0.000    3.571    0.000    0.857    0.000    0.000 
#    0.000    0.000    0.000    0.000    0.000    0.000 
#
# Total GULP energy -156134.727425 kJ/mol
# GULP energy per Si atom -5576.240265 kJ/mol
# Density = 1.902519 g / cm^3
# Si number density = 19.068593 Si / 1000 Ang^3
#
#
#
# Elastic Constant Matrix: (Units=GPa)
#
#
# Indices 1 2 3 4 5 6 
#
# 1 109.9798 26.8406 39.1708 0.0000 7.9827 0.0000
# 2 26.8406 64.1909 13.3878 0.0000 -5.0829 0.0000
# 3 39.1708 13.3878 128.8054 0.0000 -1.7848 0.0000
# 4 0.0000 0.0000 0.0000 5.4208 0.0000 -9.7537
# 5 7.9827 -5.0829 -1.7848 0.0000 33.7721 0.0000
# 6 0.0000 0.0000 0.0000 -9.7537 0.0000 -3.0145
#
#
#
# Elastic Compliance Matrix: (Units=1/GPa)
#
#
# Indices 1 2 3 4 5 6 
#
# 1 0.011543 -0.004463 -0.003096 0.000000 -0.003564 0.000000
# 2 -0.004463 0.017832 -0.000445 0.000000 0.003715 0.000000
# 3 -0.003096 -0.000445 0.008767 0.000000 0.001128 0.000000
# 4 0.000000 0.000000 0.000000 0.027042 0.000000 -0.087496
# 5 -0.003564 0.003715 0.001128 0.000000 0.031071 0.000000
# 6 0.000000 0.000000 0.000000 -0.087496 0.000000 -0.048627
#
#
# Mechanical properties :
#
#
# Convention : Reuss Voigt Hill
#
# Bulk Modulus (GPa) = 45.17830 51.30828 48.24329
# Shear Modulus (GPa) = 70.40904 22.14079 46.27491
#
# Velocity S-wave (km/s) = 6.08311 3.41121 4.93156
# Velocity P-wave (km/s) = 8.54886 6.51773 7.60144
#
# Compressibility (1/GPa) = 0.02213452
#
# Stress axis : x y z
#
# Youngs Moduli (GPa) = 86.63185 56.08005 114.06449
#
# Poissons Ratio (x) = 0.25029 0.35313
# Poissons Ratio (y) = 0.38665 0.05072
# Poissons Ratio (z) = 0.26820 0.02494
#
# Static dielectric constant tensor:
#      x y z
#    x 1.720250 0.000000 -0.012790 
#    y 0.000000 1.651230 0.000000 
#    z -0.012790 0.000000 1.692860 
# 
# From -- ./inp_files/42905.got.cif
#   From: 2010.05.17/outbox.cif.g08.bks.cpg/sg10_22_cif.got.tgz:42905.got - 2010.06.03 11:33:40.
