data_PCOD9154344
_publ_section_title
;
Structure prediction by ZEFSAII (Michael W. Deem and Ramdas Pophale) SiO2 
 PCOD9154344
Probable space group: P 2/M
;
_chemical_formula_sum "Si O2"
_cell_formula_units_Z 21
_cell_length_a 8.479637
_cell_length_b 17.599984
_cell_length_c 10.931367
_cell_angle_alpha 90.000000
_cell_angle_beta 139.757678
_cell_angle_gamma 90.000000
_cell_volume 1053.928413
_symmetry_space_group_name_H-M "P 2/M"
_symmetry_group_IT_number 10
_symmetry_cell_setting 'monoclinic'
loop_
_space_group_symop_operation_xyz
x,y,z
-x,y,-z
-x,-y,-z
x,-y,z
loop_
_atom_site_type_symbol
_atom_site_label
_atom_site_fract_x
_atom_site_fract_y
_atom_site_fract_z
Si Si1 0.756689 0.821407 0.410607
Si Si2 0.338434 0.085782 0.280012
Si Si3 0.060671 0.777893 0.213771
Si Si4 0.541316 0.305232 0.889795
Si Si5 0.671358 0.369221 0.717034
Si Si6 0.000000 0.500000 0.000000
O O1 0.525085 0.875749 0.294834
O O2 0.835442 0.786325 0.587711
O O3 0.671634 0.753432 0.272393
O O4 0.000000 0.859506 0.500000
O O5 0.500000 0.082624 0.500000
O O6 0.116422 0.141400 0.183987
O O7 0.271835 0.000000 0.207328
O O8 0.222559 0.714865 0.241467
O O9 0.788584 0.745203 0.046365
O O10 0.558821 0.364302 0.787435
O O11 0.500000 0.339397 0.000000
O O12 0.500000 0.384360 0.500000
O O13 0.875776 0.433004 0.842113
#
# Coordination Sequence:
#
# PCOD9154344 Si02
#       6
#     4   4   4   4   4   1
#     4  11  21  36  60  93 126 168 215 264 321 377
#     4   9  19  36  60  90 123 167 218 268 318 373
#     4  11  20  39  67  90 123 168 217 267 311 382
#     4  12  23  38  66  96 126 165 213 266 320 377
#     4  12  23  43  69  96 128 168 215 258 313 380
#     4  12  26  40  70 104 130 164 212 270 308 372
#
# _framework density 19.925453000000001
#
# number of rings (size 3 to 8) (size 9 to 14) (size 15 to 20)
#    0.000    0.952    7.619    0.857    0.000    0.381 
#    0.000    2.381    0.000    2.286    0.000    0.000 
#    0.000    0.000    0.000    0.000    0.000    0.000 
#
# Total GULP energy -116956.154400 kJ/mol
# GULP energy per Si atom -5569.340686 kJ/mol
# Density = 1.988010 g / cm^3
# Si number density = 19.925453 Si / 1000 Ang^3
#
#
#
# Elastic Constant Matrix: (Units=GPa)
#
#
# Indices 1 2 3 4 5 6 
#
# 1 88.6024 -4.1989 20.1002 0.0000 -23.4607 0.0000
# 2 -4.1989 59.4807 7.3058 0.0000 -17.9268 0.0000
# 3 20.1002 7.3058 120.4639 0.0000 -23.5176 0.0000
# 4 0.0000 0.0000 0.0000 12.8344 0.0000 -6.0443
# 5 -23.4607 -17.9268 -23.5176 0.0000 38.5310 0.0000
# 6 0.0000 0.0000 0.0000 -6.0443 0.0000 -11.8280
#
#
#
# Elastic Compliance Matrix: (Units=1/GPa)
#
#
# Indices 1 2 3 4 5 6 
#
# 1 0.014359 0.004198 -0.000638 0.000000 0.010307 0.000000
# 2 0.004198 0.020829 0.000485 0.000000 0.012543 0.000000
# 3 -0.000638 0.000485 0.009476 0.000000 0.005620 0.000000
# 4 0.000000 0.000000 0.000000 0.062802 0.000000 -0.032093
# 5 0.010307 0.012543 0.005620 0.000000 0.041495 0.000000
# 6 0.000000 0.000000 0.000000 -0.032093 0.000000 -0.068145
#
#
# Mechanical properties :
#
#
# Convention : Reuss Voigt Hill
#
# Bulk Modulus (GPa) = 18.95584 34.99568 26.97576
# Shear Modulus (GPa) = 55.36468 24.26347 39.81408
#
# Velocity S-wave (km/s) = 5.27695 3.49336 4.47492
# Velocity P-wave (km/s) = 6.83098 5.82004 6.34568
#
# Compressibility (1/GPa) = 0.05275419
#
# Stress axis : x y z
#
# Youngs Moduli (GPa) = 69.64148 48.00909 105.53426
#
# Poissons Ratio (x) = -0.20156 0.06738
# Poissons Ratio (y) = -0.29238 -0.05118
# Poissons Ratio (z) = 0.04446 -0.02328
#
# Static dielectric constant tensor:
#      x y z
#    x 1.766550 0.000000 0.004120 
#    y 0.000000 1.649670 0.000000 
#    z 0.004120 0.000000 1.750570 
# 
# From -- ./inp_files/43346.got.cif
#   From: 2010.05.17/outbox.cif.g08.bks.cpg/sg10_22_cif.got.tgz:43346.got - 2010.06.03 11:33:40.
