data_PCOD9154249
_publ_section_title
;
Structure prediction by ZEFSAII (Michael W. Deem and Ramdas Pophale) SiO2 
 PCOD9154249
Probable space group: P 2/M
;
_chemical_formula_sum "Si O2"
_cell_formula_units_Z 24
_cell_length_a 11.789473
_cell_length_b 8.653035
_cell_length_c 20.626384
_cell_angle_alpha 90.000000
_cell_angle_beta 136.766514
_cell_angle_gamma 90.000000
_cell_volume 1441.316711
_symmetry_space_group_name_H-M "P 2/M"
_symmetry_group_IT_number 10
_symmetry_cell_setting 'monoclinic'
loop_
_space_group_symop_operation_xyz
x,y,z
-x,y,-z
-x,-y,-z
x,-y,z
loop_
_atom_site_type_symbol
_atom_site_label
_atom_site_fract_x
_atom_site_fract_y
_atom_site_fract_z
Si Si1 0.689375 0.311185 0.590570
Si Si2 0.397743 0.817510 0.184694
Si Si3 0.109317 0.311971 0.450809
Si Si4 0.245762 0.686749 0.647109
Si Si5 0.120540 0.321804 0.987153
Si Si6 0.812350 0.312469 0.783143
O O1 0.500000 0.263304 0.500000
O O2 0.690952 0.500000 0.591094
O O3 0.804119 0.258768 0.578855
O O4 0.755349 0.262648 0.688331
O O5 0.583489 0.755285 0.256980
O O6 0.282256 0.769639 0.076031
O O7 0.312633 0.745163 0.213485
O O8 0.397666 0.000000 0.191420
O O9 0.109818 0.500000 0.450404
O O10 0.210907 0.267406 0.557682
O O11 0.918595 0.265521 0.381863
O O12 0.256002 0.500000 0.653053
O O13 0.165938 0.500000 0.993287
O O14 0.000000 0.320807 0.000000
O O15 0.999032 0.262764 0.880087
O O16 0.811607 0.500000 0.785551
#
# Coordination Sequence:
#
# PCOD9154249 Si02
#       6
#     4   4   4   4   4   4
#     4   9  15  24  44  73  97 114 139 177 218 263
#     4  11  20  28  43  67  91 116 150 187 223 263
#     4   8  15  27  46  71  92 115 148 182 217 259
#     4   9  16  29  48  67  90 118 149 184 219 257
#     4   8  15  28  44  63  87 115 147 183 224 264
#     4   9  17  29  46  67  92 120 146 178 222 267
#
# _framework density 16.651440999999998
#
# number of rings (size 3 to 8) (size 9 to 14) (size 15 to 20)
#    0.000    3.000    0.000    4.500    0.000    5.667 
#    0.000    1.667    0.000    6.500    0.000    7.000 
#    0.000    0.000    0.000    0.000    0.000    0.000 
#
# Total GULP energy -133691.823141 kJ/mol
# GULP energy per Si atom -5570.492631 kJ/mol
# Density = 1.661354 g / cm^3
# Si number density = 16.651441 Si / 1000 Ang^3
#
#
#
# Elastic Constant Matrix: (Units=GPa)
#
#
# Indices 1 2 3 4 5 6 
#
# 1 88.1846 15.9063 76.8960 0.0000 2.8843 0.0000
# 2 15.9063 18.3085 29.0187 0.0000 6.1891 0.0000
# 3 76.8960 29.0187 173.8131 0.0000 12.6441 0.0000
# 4 0.0000 0.0000 0.0000 -7.2232 0.0000 -4.3059
# 5 2.8843 6.1891 12.6441 0.0000 26.4732 0.0000
# 6 0.0000 0.0000 0.0000 -4.3059 0.0000 -1.2359
#
#
#
# Elastic Compliance Matrix: (Units=1/GPa)
#
#
# Indices 1 2 3 4 5 6 
#
# 1 0.018896 -0.005163 -0.007703 0.000000 0.002828 0.000000
# 2 -0.005163 0.079457 -0.010019 0.000000 -0.013228 0.000000
# 3 -0.007703 -0.010019 0.010984 0.000000 -0.002065 0.000000
# 4 0.000000 0.000000 0.000000 0.128545 0.000000 -0.447874
# 5 0.002828 -0.013228 -0.002065 0.000000 0.041545 0.000000
# 6 0.000000 0.000000 0.000000 -0.447874 0.000000 0.751312
#
#
# Mechanical properties :
#
#
# Convention : Reuss Voigt Hill
#
# Bulk Modulus (GPa) = 15.73164 58.21647 36.97406
# Shear Modulus (GPa) = 4.55499 14.16849 9.36174
#
# Velocity S-wave (km/s) = 1.65573 2.92016 2.37369
# Velocity P-wave (km/s) = 3.62262 6.81231 5.45577
#
# Compressibility (1/GPa) = 0.06356615
#
# Stress axis : x y z
#
# Youngs Moduli (GPa) = 52.92155 12.58547 91.03897
#
# Poissons Ratio (x) = 0.06497 0.70131
# Poissons Ratio (y) = 0.27322 0.91215
# Poissons Ratio (z) = 0.40768 0.12610
#
# Static dielectric constant tensor:
#      x y z
#    x 1.543030 0.000000 -0.001910 
#    y 0.000000 1.551580 0.000000 
#    z -0.001910 0.000000 1.578300 
# 
# From -- ./inp_files/48657.got.cif
#   From: 2010.05.17/outbox.cif.g08.bks.cpg/sg10_25_cif.got.tgz:48657.got - 2010.06.03 11:33:40.
