data_PCOD9154356
_publ_section_title
;
Structure prediction by ZEFSAII (Michael W. Deem and Ramdas Pophale) SiO2 
 PCOD9154356
Probable space group: P 2/M
;
_chemical_formula_sum "Si O2"
_cell_formula_units_Z 24
_cell_length_a 21.882752
_cell_length_b 7.929104
_cell_length_c 13.295403
_cell_angle_alpha 90.000000
_cell_angle_beta 141.230392
_cell_angle_gamma 90.000000
_cell_volume 1444.554448
_symmetry_space_group_name_H-M "P 2/M"
_symmetry_group_IT_number 10
_symmetry_cell_setting 'monoclinic'
loop_
_space_group_symop_operation_xyz
x,y,z
-x,y,-z
-x,-y,-z
x,-y,z
loop_
_atom_site_type_symbol
_atom_site_label
_atom_site_fract_x
_atom_site_fract_y
_atom_site_fract_z
Si Si1 0.389538 0.202838 0.362660
Si Si2 0.117074 0.193017 0.353943
Si Si3 0.231486 0.803972 0.995341
Si Si4 0.854866 0.500000 0.233280
Si Si5 0.079296 0.500000 0.452751
Si Si6 0.089269 0.192360 0.000396
Si Si7 0.245093 0.689306 0.349761
O O1 0.500000 0.267190 0.500000
O O2 0.333693 0.249976 0.393533
O O3 0.391416 0.000000 0.361752
O O4 0.323953 0.252374 0.182147
O O5 0.112232 0.333977 0.433608
O O6 0.211763 0.207824 0.404572
O O7 0.022950 0.231190 0.162384
O O8 0.105613 0.000000 0.375300
O O9 0.203486 0.666926 0.876446
O O10 0.142343 0.804199 0.960688
O O11 0.244603 0.000000 0.978947
O O12 0.875582 0.500000 0.378207
O O13 0.961455 0.500000 0.315595
O O14 0.098237 0.000000 0.050830
O O15 0.152799 0.304896 0.155313
O O16 0.263686 0.500000 0.406916
#
# Coordination Sequence:
#
# PCOD9154356 Si02
#       7
#     4   4   4   2   2   4   4
#     4   9  19  35  53  78 110 139 169 205 250 310
#     4  11  21  35  50  70 103 139 177 214 253 302
#     4   9  18  33  53  76 104 139 173 207 255 308
#     4  11  22  36  54  73 104 135 178 226 262 303
#     4  11  24  36  50  76 100 138 183 222 264 298
#     4   9  18  30  46  71 101 138 176 203 242 304
#     4  11  21  29  48  76 106 139 170 205 251 310
#
# _framework density 16.614118000000001
#
# number of rings (size 3 to 8) (size 9 to 14) (size 15 to 20)
#    0.000    2.000    2.500    3.000    5.833    3.000 
#    0.000    1.667    0.000    0.000    0.000    2.333 
#    0.000    5.333    0.000    0.000    0.000    0.000 
#
# Total GULP energy -133807.411326 kJ/mol
# GULP energy per Si atom -5575.308805 kJ/mol
# Density = 1.657630 g / cm^3
# Si number density = 16.614118 Si / 1000 Ang^3
#
#
#
# Elastic Constant Matrix: (Units=GPa)
#
#
# Indices 1 2 3 4 5 6 
#
# 1 92.3926 41.2629 51.5916 0.0000 7.1054 0.0000
# 2 41.2629 78.3323 39.6182 0.0000 -7.9227 0.0000
# 3 51.5916 39.6182 67.1446 0.0000 11.6993 0.0000
# 4 0.0000 0.0000 0.0000 11.9281 0.0000 6.0392
# 5 7.1054 -7.9227 11.6993 0.0000 21.0039 0.0000
# 6 0.0000 0.0000 0.0000 6.0392 0.0000 3.2893
#
#
#
# Elastic Compliance Matrix: (Units=1/GPa)
#
#
# Indices 1 2 3 4 5 6 
#
# 1 0.019783 -0.004265 -0.012446 0.000000 -0.001369 0.000000
# 2 -0.004265 0.023979 -0.014064 0.000000 0.018321 0.000000
# 3 -0.012446 -0.014064 0.036486 0.000000 -0.021418 0.000000
# 4 0.000000 0.000000 0.000000 1.190238 0.000000 -2.185275
# 5 -0.001369 0.018321 -0.021418 0.000000 0.066914 0.000000
# 6 0.000000 0.000000 0.000000 -2.185275 0.000000 4.316173
#
#
# Mechanical properties :
#
#
# Convention : Reuss Voigt Hill
#
# Bulk Modulus (GPa) = 53.47808 55.86831 54.67319
# Shear Modulus (GPa) = 0.87392 14.27073 7.57232
#
# Velocity S-wave (km/s) = 0.72605 2.93397 2.13721
# Velocity P-wave (km/s) = 5.74117 6.72143 6.25055
#
# Compressibility (1/GPa) = 0.01869925
#
# Stress axis : x y z
#
# Youngs Moduli (GPa) = 50.54877 41.70341 27.40772
#
# Poissons Ratio (x) = 0.17786 0.34110
# Poissons Ratio (y) = 0.21558 0.38546
# Poissons Ratio (z) = 0.62911 0.58651
#
# Static dielectric constant tensor:
#      x y z
#    x 1.571510 0.000000 0.015310 
#    y 0.000000 1.591970 0.000000 
#    z 0.015310 0.000000 1.544690 
# 
# From -- ./inp_files/48898.got.cif
#   From: 2010.05.17/outbox.cif.g08.bks.cpg/sg10_25_cif.got.tgz:48898.got - 2010.06.03 11:33:40.
