data_PCOD9154804
_publ_section_title
;
Structure prediction by ZEFSAII (Michael W. Deem and Ramdas Pophale) SiO2 
 PCOD9154804
Probable space group: P 2/M
;
_chemical_formula_sum "Si O2"
_cell_formula_units_Z 14
_cell_length_a 9.344564
_cell_length_b 9.789292
_cell_length_c 7.270613
_cell_angle_alpha 90.000000
_cell_angle_beta 129.343413
_cell_angle_gamma 90.000000
_cell_volume 514.355161
_symmetry_space_group_name_H-M "P 2/M"
_symmetry_group_IT_number 10
_symmetry_cell_setting 'monoclinic'
loop_
_space_group_symop_operation_xyz
x,y,z
-x,y,-z
-x,-y,-z
x,-y,z
loop_
_atom_site_type_symbol
_atom_site_label
_atom_site_fract_x
_atom_site_fract_y
_atom_site_fract_z
Si Si1 0.814673 0.196445 0.602869
Si Si2 0.673764 0.500000 0.009051
Si Si3 0.199667 0.500000 0.270384
Si Si4 0.500000 0.000000 0.000000
Si Si5 0.500000 0.000000 0.500000
Si Si6 0.212768 0.803012 0.850818
O O1 0.790526 0.359369 0.609705
O O2 0.799807 0.156939 0.374679
O O3 0.030154 0.160672 0.814237
O O4 0.660731 0.117498 0.587636
O O5 0.775533 0.641004 0.132256
O O6 0.500000 0.500000 0.000000
O O7 0.649118 0.500000 0.769798
O O8 0.000000 0.500000 0.000000
O O9 0.399569 0.117504 0.049253
#
# Coordination Sequence:
#
# PCOD9154804 Si02
#       6
#     4   2   2   1   1   4
#     4  11  26  49  73 107 150 193 245 306 374 433
#     4  12  25  43  74 109 139 184 246 306 371 429
#     4  12  25  48  77 110 140 190 252 317 367 426
#     4  12  24  40  76 108 142 200 252 284 354 454
#     4  12  28  44  70 106 148 194 242 298 360 442
#     4  11  24  47  75 105 147 195 242 301 368 448
#
# _framework density 27.218544000000001
#
# number of rings (size 3 to 8) (size 9 to 14) (size 15 to 20)
#    0.000    0.571    4.286    2.571    4.000    7.429 
#    0.000    0.714    0.000    0.000    0.000    0.000 
#    0.000    0.000    0.000    0.000    0.000    0.000 
#
# Total GULP energy -78020.443657 kJ/mol
# GULP energy per Si atom -5572.888833 kJ/mol
# Density = 2.715659 g / cm^3
# Si number density = 27.218544 Si / 1000 Ang^3
#
#
#
# Elastic Constant Matrix: (Units=GPa)
#
#
# Indices 1 2 3 4 5 6 
#
# 1 325.2181 81.2424 52.6469 0.0000 36.2799 0.0000
# 2 81.2424 264.7997 11.8097 0.0000 27.2211 0.0000
# 3 52.6469 11.8097 61.4552 0.0000 -0.9194 0.0000
# 4 0.0000 0.0000 0.0000 424.4267 0.0000 -187.1848
# 5 36.2799 27.2211 -0.9194 0.0000 64.5149 0.0000
# 6 0.0000 0.0000 0.0000 -187.1848 0.0000 158.4371
#
#
#
# Elastic Compliance Matrix: (Units=1/GPa)
#
#
# Indices 1 2 3 4 5 6 
#
# 1 0.004055 -0.000895 -0.003331 0.000000 -0.001950 0.000000
# 2 -0.000895 0.004183 -0.000056 0.000000 -0.001263 0.000000
# 3 -0.003331 -0.000056 0.019169 0.000000 0.002170 0.000000
# 4 0.000000 0.000000 0.000000 0.004919 0.000000 0.005812
# 5 -0.001950 -0.001263 0.002170 0.000000 0.017161 0.000000
# 6 0.000000 0.000000 0.000000 0.005812 0.000000 0.013178
#
#
# Mechanical properties :
#
#
# Convention : Reuss Voigt Hill
#
# Bulk Modulus (GPa) = 53.07007 104.76344 78.91676
# Shear Modulus (GPa) = 64.50657 163.19400 113.85028
#
# Velocity S-wave (km/s) = 4.87349 7.75159 6.47449
# Velocity P-wave (km/s) = 7.15598 10.89447 9.21676
#
# Compressibility (1/GPa) = 0.01884301
#
# Stress axis : x y z
#
# Youngs Moduli (GPa) = 246.59075 239.04247 52.16763
#
# Poissons Ratio (x) = 0.21398 0.17378
# Poissons Ratio (y) = 0.22073 0.00292
# Poissons Ratio (z) = 0.82145 0.01338
#
# Static dielectric constant tensor:
#      x y z
#    x 2.128400 0.000000 0.114320 
#    y 0.000000 1.998440 0.000000 
#    z 0.114320 0.000000 2.735660 
# 
# From -- ./inp_files/16540.got.cif
#   From: 2010.05.17/outbox.cif.g08.bks.cpg/sg10_9_cif.got.tgz:16540.got - 2010.06.03 11:33:40.
