data_PCOD9154882
_publ_section_title
;
Structure prediction by ZEFSAII (Michael W. Deem and Ramdas Pophale) SiO2 
 PCOD9154882
Probable space group: P 2/M
;
_chemical_formula_sum "Si O2"
_cell_formula_units_Z 28
_cell_length_a 7.099461
_cell_length_b 14.917695
_cell_length_c 11.478644
_cell_angle_alpha 90.000000
_cell_angle_beta 109.607962
_cell_angle_gamma 90.000000
_cell_volume 1145.179548
_symmetry_space_group_name_H-M "P 2/M"
_symmetry_group_IT_number 10
_symmetry_cell_setting 'monoclinic'
loop_
_space_group_symop_operation_xyz
x,y,z
-x,y,-z
-x,-y,-z
x,-y,z
loop_
_atom_site_type_symbol
_atom_site_label
_atom_site_fract_x
_atom_site_fract_y
_atom_site_fract_z
Si Si1 0.201577 0.391997 0.979445
Si Si2 0.085540 0.102066 0.137663
Si Si3 0.465738 0.898917 0.858365
Si Si4 0.955482 0.600386 0.707940
Si Si5 0.623723 0.772596 0.356909
Si Si6 0.177573 0.787971 0.375603
Si Si7 0.534038 0.398010 0.766643
O O1 0.211657 0.500000 0.999636
O O2 0.143956 0.382880 0.833141
O O3 0.392835 0.359602 0.092272
O O4 0.000000 0.357841 0.000000
O O5 0.318732 0.096089 0.157458
O O6 0.063012 0.154177 0.254221
O O7 0.007793 0.000000 0.130194
O O8 0.000000 0.143635 0.000000
O O9 0.355883 0.825439 0.758964
O O10 0.381791 0.000000 0.836222
O O11 0.500000 0.874838 0.000000
O O12 0.971569 0.500000 0.660142
O O13 0.922160 0.690588 0.630452
O O14 0.747389 0.598223 0.741258
O O15 0.399132 0.781508 0.363512
O O16 0.771953 0.815357 0.482176
O O17 0.620223 0.666287 0.330739
O O18 0.462411 0.500000 0.760944
#
# Coordination Sequence:
#
# PCOD9154882 Si02
#       7
#     4   4   4   4   4   4   4
#     4   7  10  17  29  47  73 108 147 179 210 252
#     4   9  18  32  50  72  95 118 148 189 234 276
#     4   9  18  33  52  70  89 119 156 190 226 271
#     4   8  13  20  31  51  82 118 151 181 218 267
#     4   9  17  27  40  63  90 118 154 188 223 273
#     4   9  17  26  39  63  93 121 148 184 232 276
#     4   8  13  21  34  54  83 116 147 183 225 265
#
# _framework density 24.450315
#
# number of rings (size 3 to 8) (size 9 to 14) (size 15 to 20)
#    0.000    3.571    0.000    1.714    0.000    5.143 
#    0.000    5.714    0.000    1.286    0.000    4.000 
#    0.000    0.000    0.000    7.857    0.000   18.429 
#
# Total GULP energy -156179.400131 kJ/mol
# GULP energy per Si atom -5577.835719 kJ/mol
# Density = 2.439467 g / cm^3
# Si number density = 24.450315 Si / 1000 Ang^3
#
#
#
# Elastic Constant Matrix: (Units=GPa)
#
#
# Indices 1 2 3 4 5 6 
#
# 1 104.1890 4.5635 -1.3956 0.0000 2.0825 0.0000
# 2 4.5635 104.5774 91.2008 0.0000 3.6145 0.0000
# 3 -1.3956 91.2008 150.1425 0.0000 8.3146 0.0000
# 4 0.0000 0.0000 0.0000 69.1839 0.0000 -22.4461
# 5 2.0825 3.6145 8.3146 0.0000 22.6773 0.0000
# 6 0.0000 0.0000 0.0000 -22.4461 0.0000 9.0730
#
#
#
# Elastic Compliance Matrix: (Units=1/GPa)
#
#
# Indices 1 2 3 4 5 6 
#
# 1 0.009677 -0.001094 0.000811 0.000000 -0.001011 0.000000
# 2 -0.001094 0.020496 -0.012539 0.000000 0.001431 0.000000
# 3 0.000811 -0.012539 0.014472 0.000000 -0.003382 0.000000
# 4 0.000000 0.000000 0.000000 0.073241 0.000000 0.181193
# 5 -0.001011 0.001431 -0.003382 0.000000 0.045202 0.000000
# 6 0.000000 0.000000 0.000000 0.181193 0.000000 0.558477
#
#
# Mechanical properties :
#
#
# Convention : Reuss Voigt Hill
#
# Bulk Modulus (GPa) = 52.63435 60.84957 56.74196
# Shear Modulus (GPa) = 6.63533 37.82285 22.22909
#
# Velocity S-wave (km/s) = 1.64915 3.93737 3.01849
# Velocity P-wave (km/s) = 5.01997 6.75363 5.95028
#
# Compressibility (1/GPa) = 0.01899900
#
# Stress axis : x y z
#
# Youngs Moduli (GPa) = 103.33842 48.79029 69.09980
#
# Poissons Ratio (x) = 0.05339 -0.05602
# Poissons Ratio (y) = 0.11308 0.86646
# Poissons Ratio (z) = -0.08377 0.61179
#
# Static dielectric constant tensor:
#      x y z
#    x 2.063320 0.000000 -0.014870 
#    y 0.000000 1.911920 0.000000 
#    z -0.014870 0.000000 1.988860 
# 
# From -- ./inp_files/42740.got.cif
#   From: 2010.05.17/outbox.cif.g08.bks.cpg/sg10_22_cif.got.tgz:42740.got - 2010.06.03 11:33:40.
