data_PCOD9154828
_publ_section_title
;
Structure prediction by ZEFSAII (Michael W. Deem and Ramdas Pophale) SiO2 
 PCOD9154828
Probable space group: P 2/M
;
_chemical_formula_sum "Si O2"
_cell_formula_units_Z 26
_cell_length_a 7.442565
_cell_length_b 18.775386
_cell_length_c 9.408236
_cell_angle_alpha 90.000000
_cell_angle_beta 104.182568
_cell_angle_gamma 90.000000
_cell_volume 1274.607468
_symmetry_space_group_name_H-M "P 2/M"
_symmetry_group_IT_number 10
_symmetry_cell_setting 'monoclinic'
loop_
_space_group_symop_operation_xyz
x,y,z
-x,y,-z
-x,-y,-z
x,-y,z
loop_
_atom_site_type_symbol
_atom_site_label
_atom_site_fract_x
_atom_site_fract_y
_atom_site_fract_z
Si Si1 0.777603 0.917466 0.936251
Si Si2 0.500000 0.308921 0.000000
Si Si3 0.688362 0.576841 0.904645
Si Si4 0.037778 0.420343 0.771376
Si Si5 0.056196 0.735458 0.350762
Si Si6 0.274501 0.807734 0.842336
Si Si7 0.588665 0.182610 0.667043
O O1 0.702879 0.874713 0.783911
O O2 0.724762 0.000000 0.916394
O O3 0.702812 0.879330 0.064651
O O4 0.000000 0.913243 0.000000
O O5 0.459455 0.360780 0.123107
O O6 0.671822 0.256908 0.043414
O O7 0.595565 0.500000 0.881027
O O8 0.840345 0.578928 0.813085
O O9 0.807238 0.583483 0.074001
O O10 0.060020 0.500000 0.707541
O O11 0.021283 0.345291 0.687110
O O12 0.268399 0.753290 0.348198
O O13 0.000000 0.752874 0.500000
O O14 0.933761 0.791136 0.238479
O O15 0.415438 0.799704 0.737666
O O16 0.500000 0.157129 0.500000
#
# Coordination Sequence:
#
# PCOD9154828 Si02
#       7
#     4   2   4   4   4   4   4
#     4  11  25  46  73 103 137 174 214 265 324 393
#     4  12  19  32  59  92 120 158 218 266 329 382
#     4   9  18  31  52  84 122 156 205 277 332 381
#     4   9  19  35  55  82 119 169 218 262 328 392
#     4  12  24  41  65  90 133 172 219 283 327 384
#     4  12  24  40  66 101 125 174 221 269 322 390
#     4  12  25  43  69 100 135 172 222 266 332 391
#
# _framework density 20.398436
#
# number of rings (size 3 to 8) (size 9 to 14) (size 15 to 20)
#    0.000    1.077    6.154    2.077    0.000    1.846 
#    0.000    0.000    0.000    3.231    0.000    0.000 
#    0.000    0.000    0.000    0.000    0.000    0.000 
#
# Total GULP energy -144868.216531 kJ/mol
# GULP energy per Si atom -5571.854482 kJ/mol
# Density = 2.035201 g / cm^3
# Si number density = 20.398436 Si / 1000 Ang^3
#
#
#
# Elastic Constant Matrix: (Units=GPa)
#
#
# Indices 1 2 3 4 5 6 
#
# 1 74.0290 14.9524 6.0663 0.0000 -6.7046 0.0000
# 2 14.9524 118.3806 32.3738 0.0000 2.0494 0.0000
# 3 6.0663 32.3738 76.0266 0.0000 5.8940 0.0000
# 4 0.0000 0.0000 0.0000 14.2603 0.0000 -1.2383
# 5 -6.7046 2.0494 5.8940 0.0000 28.6359 0.0000
# 6 0.0000 0.0000 0.0000 -1.2383 0.0000 27.5263
#
#
#
# Elastic Compliance Matrix: (Units=1/GPa)
#
#
# Indices 1 2 3 4 5 6 
#
# 1 0.014228 -0.001667 -0.000704 0.000000 0.003596 0.000000
# 2 -0.001667 0.009757 -0.004001 0.000000 -0.000265 0.000000
# 3 -0.000704 -0.004001 0.015145 0.000000 -0.002996 0.000000
# 4 0.000000 0.000000 0.000000 0.070400 0.000000 0.003167
# 5 0.003596 -0.000265 -0.002996 0.000000 0.036399 0.000000
# 6 0.000000 0.000000 0.000000 0.003167 0.000000 0.036471
#
#
# Mechanical properties :
#
#
# Convention : Reuss Voigt Hill
#
# Bulk Modulus (GPa) = 37.89872 41.69121 39.79497
# Shear Modulus (GPa) = 24.51706 28.42075 26.46890
#
# Velocity S-wave (km/s) = 3.47062 3.73672 3.60612
# Velocity P-wave (km/s) = 5.88896 6.25302 6.07371
#
# Compressibility (1/GPa) = 0.02638612
#
# Stress axis : x y z
#
# Youngs Moduli (GPa) = 70.28277 102.49451 66.02638
#
# Poissons Ratio (x) = 0.17084 0.04650
# Poissons Ratio (y) = 0.11715 0.26417
# Poissons Ratio (z) = 0.04950 0.41008
#
# Static dielectric constant tensor:
#      x y z
#    x 1.775670 0.000000 0.027090 
#    y 0.000000 1.751970 0.000000 
#    z 0.027090 0.000000 1.747380 
# 
# From -- ./inp_files/19683.got.cif
#   From: 2010.05.17/outbox.cif.g08.bks.cpg/sg10_10_cif.got.tgz:19683.got - 2010.06.03 11:33:40.
