data_PCOD9154827
_publ_section_title
;
Structure prediction by ZEFSAII (Michael W. Deem and Ramdas Pophale) SiO2 
 PCOD9154827
Probable space group: P 2/M
;
_chemical_formula_sum "Si O2"
_cell_formula_units_Z 16
_cell_length_a 9.353830
_cell_length_b 17.546182
_cell_length_c 8.174239
_cell_angle_alpha 90.000000
_cell_angle_beta 148.714251
_cell_angle_gamma 90.000000
_cell_volume 696.695893
_symmetry_space_group_name_H-M "P 2/M"
_symmetry_group_IT_number 10
_symmetry_cell_setting 'monoclinic'
loop_
_space_group_symop_operation_xyz
x,y,z
-x,y,-z
-x,-y,-z
x,-y,z
loop_
_atom_site_type_symbol
_atom_site_label
_atom_site_fract_x
_atom_site_fract_y
_atom_site_fract_z
Si Si1 0.881556 0.911929 0.201785
Si Si2 0.877213 0.328347 0.559775
Si Si3 0.377210 0.828348 0.559772
Si Si4 0.381559 0.588071 0.201787
O O1 0.130498 0.889264 0.325684
O O2 0.000000 0.901348 0.500000
O O3 0.799413 0.000000 0.102115
O O4 0.623413 0.858249 0.914580
O O5 0.750003 0.250000 0.500004
O O6 0.630501 0.389263 0.325687
O O7 0.000000 0.318964 0.500000
O O8 0.123415 0.358249 0.914581
O O9 0.500000 0.818966 0.500000
O O10 0.500000 0.598652 0.500000
O O11 0.299419 0.500000 0.102118
#
# Coordination Sequence:
#
# PCOD9154827 Si02
#       4
#     4   4   4   4
#     4  11  25  46  72 102 138 180 227 282 344 408
#     4  12  26  45  69 101 141 182 229 282 340 408
#     4  12  26  45  69 101 141 182 229 282 340 408
#     4  11  25  46  72 102 138 180 227 282 344 408
#
# _framework density 22.965544000000001
#
# number of rings (size 3 to 8) (size 9 to 14) (size 15 to 20)
#    0.000    0.500    0.000    7.500    0.000   14.000 
#    0.000    0.000    0.000    0.000    0.000    0.000 
#    0.000    0.000    0.000    0.000    0.000    0.000 
#
# Total GULP energy -89782.180403 kJ/mol
# GULP energy per Si atom -5611.386275 kJ/mol
# Density = 2.291327 g / cm^3
# Si number density = 22.965544 Si / 1000 Ang^3
#
#
#
# Elastic Constant Matrix: (Units=GPa)
#
#
# Indices 1 2 3 4 5 6 
#
# 1 164.5057 82.5460 52.0882 0.0000 11.7158 0.0000
# 2 82.5460 161.6335 98.2747 0.0000 -9.7227 0.0000
# 3 52.0882 98.2747 166.8198 0.0000 14.6263 0.0000
# 4 0.0000 0.0000 0.0000 45.0100 0.0000 -5.7006
# 5 11.7158 -9.7227 14.6263 0.0000 33.4979 0.0000
# 6 0.0000 0.0000 0.0000 -5.7006 0.0000 14.9959
#
#
#
# Elastic Compliance Matrix: (Units=1/GPa)
#
#
# Indices 1 2 3 4 5 6 
#
# 1 0.008840 -0.005299 0.000798 0.000000 -0.004978 0.000000
# 2 -0.005299 0.013895 -0.007328 0.000000 0.009086 0.000000
# 3 0.000798 -0.007328 0.010682 0.000000 -0.007070 0.000000
# 4 0.000000 0.000000 0.000000 0.023341 0.000000 0.008873
# 5 -0.004978 0.009086 -0.007070 0.000000 0.037318 0.000000
# 6 0.000000 0.000000 0.000000 0.008873 0.000000 0.070058
#
#
# Mechanical properties :
#
#
# Convention : Reuss Voigt Hill
#
# Bulk Modulus (GPa) = 102.46686 106.53076 104.49881
# Shear Modulus (GPa) = 26.17203 36.03742 31.10473
#
# Velocity S-wave (km/s) = 3.37949 3.96560 3.68422
# Velocity P-wave (km/s) = 7.74225 8.21316 7.98118
#
# Compressibility (1/GPa) = 0.00975925
#
# Stress axis : x y z
#
# Youngs Moduli (GPa) = 113.12671 71.96914 93.61641
#
# Poissons Ratio (x) = 0.38137 -0.07472
# Poissons Ratio (y) = 0.59947 0.68598
# Poissons Ratio (z) = -0.09029 0.52736
#
# Static dielectric constant tensor:
#      x y z
#    x 1.848880 0.000000 -0.008750 
#    y 0.000000 1.837030 0.000000 
#    z -0.008750 0.000000 1.835090 
# 
# From -- ./inp_files/20357.got.cif
#   From: 2010.05.17/outbox.cif.g08.bks.cpg/sg10_11_cif.got.tgz:20357.got - 2010.06.03 11:33:40.
