data_PCOD9154039
_publ_section_title
;
Structure prediction by ZEFSAII (Michael W. Deem and Ramdas Pophale) SiO2 
 PCOD9154039
Probable space group: P 2/M
;
_chemical_formula_sum "Si O2"
_cell_formula_units_Z 28
_cell_length_a 23.672056
_cell_length_b 7.652077
_cell_length_c 21.058466
_cell_angle_alpha 90.000000
_cell_angle_beta 160.825049
_cell_angle_gamma 90.000000
_cell_volume 1252.899575
_symmetry_space_group_name_H-M "P 2/M"
_symmetry_group_IT_number 10
_symmetry_cell_setting 'monoclinic'
loop_
_space_group_symop_operation_xyz
x,y,z
-x,y,-z
-x,-y,-z
x,-y,z
loop_
_atom_site_type_symbol
_atom_site_label
_atom_site_fract_x
_atom_site_fract_y
_atom_site_fract_z
Si Si1 0.147854 0.710396 0.855186
Si Si2 0.075698 0.701679 0.644588
Si Si3 0.706936 0.296314 0.551561
Si Si4 0.432053 0.796912 0.362188
Si Si5 0.458942 0.286064 0.752056
Si Si6 0.081068 0.792328 0.928472
Si Si7 0.515948 0.701773 0.947502
O O1 0.147362 0.500000 0.848978
O O2 0.050462 0.776901 0.688497
O O3 0.078514 0.753582 0.850612
O O4 0.347692 0.766259 0.063056
O O5 0.010426 0.500000 0.576787
O O6 0.000000 0.783391 0.500000
O O7 0.281719 0.697095 0.854310
O O8 0.659717 0.500000 0.502467
O O9 0.583734 0.209160 0.471804
O O10 0.665519 0.229898 0.436438
O O11 0.908485 0.277593 0.777217
O O12 0.500000 0.716606 0.500000
O O13 0.391777 0.000000 0.333031
O O14 0.257666 0.721511 0.146535
O O15 0.455331 0.500000 0.751780
O O16 0.426985 0.223201 0.789994
O O17 0.078891 0.000000 0.932821
O O18 0.453765 0.500000 0.887766
O O19 0.500000 0.784284 0.000000
#
# Coordination Sequence:
#
# PCOD9154039 Si02
#       7
#     4   4   4   4   4   4   4
#     4   9  16  31  53  76 108 146 190 239 286 336
#     4   8  14  23  39  67 101 138 178 228 284 331
#     4  11  22  37  61  90 120 151 190 238 287 343
#     4  10  23  44  66  86 115 155 193 235 286 341
#     4   8  15  28  47  73 105 143 182 227 281 329
#     4  11  23  38  59  87 117 150 193 236 283 346
#     4   8  13  21  35  59  97 138 174 216 269 328
#
# _framework density 22.34816
#
# number of rings (size 3 to 8) (size 9 to 14) (size 15 to 20)
#    0.000    2.714    1.429    2.571    0.000    2.571 
#    0.000    7.143    0.000    0.429    0.000    0.000 
#    0.000    5.714    0.000    0.000    0.000    0.000 
#
# Total GULP energy -156187.262749 kJ/mol
# GULP energy per Si atom -5578.116527 kJ/mol
# Density = 2.229729 g / cm^3
# Si number density = 22.348160 Si / 1000 Ang^3
#
#
#
# Elastic Constant Matrix: (Units=GPa)
#
#
# Indices 1 2 3 4 5 6 
#
# 1 100.0424 -6.8959 67.0013 0.0000 -32.1634 0.0000
# 2 -6.8959 42.1265 -1.9008 0.0000 -8.6043 0.0000
# 3 67.0013 -1.9008 117.7702 0.0000 -19.6105 0.0000
# 4 0.0000 0.0000 0.0000 6.5472 0.0000 2.2233
# 5 -32.1634 -8.6043 -19.6105 0.0000 37.0639 0.0000
# 6 0.0000 0.0000 0.0000 2.2233 0.0000 18.7401
#
#
#
# Elastic Compliance Matrix: (Units=1/GPa)
#
#
# Indices 1 2 3 4 5 6 
#
# 1 0.021920 0.006265 -0.009825 0.000000 0.015277 0.000000
# 2 0.006265 0.026954 -0.001296 0.000000 0.011008 0.000000
# 3 -0.009825 -0.001296 0.013807 0.000000 -0.001522 0.000000
# 4 0.000000 0.000000 0.000000 0.159148 0.000000 -0.018881
# 5 0.015277 0.011008 -0.001522 0.000000 0.041988 0.000000
# 6 0.000000 0.000000 0.000000 -0.018881 0.000000 0.055602
#
#
# Mechanical properties :
#
#
# Convention : Reuss Voigt Hill
#
# Bulk Modulus (GPa) = 18.87984 41.81649 30.34817
# Shear Modulus (GPa) = 14.41810 25.91919 20.16865
#
# Velocity S-wave (km/s) = 2.54275 3.40927 3.00738
# Velocity P-wave (km/s) = 4.13366 5.85230 5.06639
#
# Compressibility (1/GPa) = 0.05296654
#
# Stress axis : x y z
#
# Youngs Moduli (GPa) = 45.62129 37.10091 72.42940
#
# Poissons Ratio (x) = -0.23244 0.71165
# Poissons Ratio (y) = -0.28583 0.09389
# Poissons Ratio (z) = 0.44825 0.04810
#
# Static dielectric constant tensor:
#      x y z
#    x 1.828260 0.000000 -0.047260 
#    y 0.000000 1.853660 0.000000 
#    z -0.047260 0.000000 1.842650 
# 
# From -- ./inp_files/86554.got.cif
#   From: 2010.05.17/outbox.cif.g08.bks.cpg/sg10_44_cif.got.tgz:86554.got - 2010.06.03 11:33:40.
