data_PCOD9154853
_publ_section_title
;
Structure prediction by ZEFSAII (Michael W. Deem and Ramdas Pophale) SiO2 
 PCOD9154853
Probable space group: P 2/M
;
_chemical_formula_sum "Si O2"
_cell_formula_units_Z 28
_cell_length_a 20.197330
_cell_length_b 7.598377
_cell_length_c 21.543789
_cell_angle_alpha 90.000000
_cell_angle_beta 152.381598
_cell_angle_gamma 90.000000
_cell_volume 1532.717708
_symmetry_space_group_name_H-M "P 2/M"
_symmetry_group_IT_number 10
_symmetry_cell_setting 'monoclinic'
loop_
_space_group_symop_operation_xyz
x,y,z
-x,y,-z
-x,-y,-z
x,-y,z
loop_
_atom_site_type_symbol
_atom_site_label
_atom_site_fract_x
_atom_site_fract_y
_atom_site_fract_z
Si Si1 0.450423 0.710469 0.391892
Si Si2 0.165648 0.500000 0.622373
Si Si3 0.856870 0.708684 0.912122
Si Si4 0.253444 0.788116 0.053027
Si Si5 0.649982 0.792132 0.996794
Si Si6 0.560999 0.788803 0.356323
Si Si7 0.323205 0.791216 0.674932
Si Si8 0.340556 0.500000 0.893601
O O1 0.500000 0.778835 0.500000
O O2 0.436706 0.500000 0.385690
O O3 0.294313 0.780206 0.240251
O O4 0.565059 0.742939 0.432084
O O5 0.218883 0.669187 0.627503
O O6 0.241994 0.500000 0.752152
O O7 0.000000 0.500000 0.500000
O O8 0.854370 0.500000 0.897859
O O9 0.858139 0.733219 0.987552
O O10 0.000000 0.782055 0.000000
O O11 0.250077 0.737050 0.978367
O O12 0.405764 0.720925 0.205343
O O13 0.258542 0.000000 0.057241
O O14 0.485087 0.769907 0.836657
O O15 0.669425 0.000000 0.025387
O O16 0.677858 0.670570 0.078436
O O17 0.668886 0.735062 0.391299
O O18 0.558024 0.000000 0.350053
O O19 0.289908 0.000000 0.651064
O O20 0.500000 0.500000 0.000000
#
# Coordination Sequence:
#
# PCOD9154853 Si02
#       8
#     4   2   4   4   4   4   4   2
#     4   9  17  28  44  69  98 128 164 208 254 291
#     4  12  26  40  56  82 115 142 180 210 261 330
#     4   9  17  28  44  67  97 133 168 202 244 298
#     4   8  15  28  47  74 100 128 165 209 257 299
#     4   9  18  33  57  86 113 134 171 230 273 307
#     4   8  15  28  49  75  97 124 169 214 253 297
#     4   9  18  35  58  83 109 140 177 221 267 315
#     4  12  22  36  58  90 107 136 180 214 263 328
#
# _framework density 18.268204999999998
#
# number of rings (size 3 to 8) (size 9 to 14) (size 15 to 20)
#    0.000    2.857    1.429    1.714    2.000    1.714 
#    0.000    0.000    3.143    0.000    0.000    0.000 
#    0.000    0.000    0.000    0.000    0.000    0.000 
#
# Total GULP energy -155910.454232 kJ/mol
# GULP energy per Si atom -5568.230508 kJ/mol
# Density = 1.822663 g / cm^3
# Si number density = 18.268205 Si / 1000 Ang^3
#
#
#
# Elastic Constant Matrix: (Units=GPa)
#
#
# Indices 1 2 3 4 5 6 
#
# 1 208.0807 53.7986 69.9653 0.0000 -4.7534 0.0000
# 2 53.7986 64.5644 23.0221 0.0000 1.1361 0.0000
# 3 69.9653 23.0221 58.2147 0.0000 -0.9425 0.0000
# 4 0.0000 0.0000 0.0000 5.9630 0.0000 -4.0358
# 5 -4.7534 1.1361 -0.9425 0.0000 28.3074 0.0000
# 6 0.0000 0.0000 0.0000 -4.0358 0.0000 37.2571
#
#
#
# Elastic Compliance Matrix: (Units=1/GPa)
#
#
# Indices 1 2 3 4 5 6 
#
# 1 0.009008 -0.004281 -0.009110 0.000000 0.001381 0.000000
# 2 -0.004281 0.020092 -0.002826 0.000000 -0.001619 0.000000
# 3 -0.009110 -0.002826 0.029237 0.000000 -0.000443 0.000000
# 4 0.000000 0.000000 0.000000 0.180969 0.000000 0.019603
# 5 0.001381 -0.001619 -0.000443 0.000000 0.035609 0.000000
# 6 0.000000 0.000000 0.000000 0.019603 0.000000 0.028964
#
#
# Mechanical properties :
#
#
# Convention : Reuss Voigt Hill
#
# Bulk Modulus (GPa) = 38.60836 69.38134 53.99485
# Shear Modulus (GPa) = 14.49492 26.57709 20.53601
#
# Velocity S-wave (km/s) = 2.81988 3.81836 3.35646
# Velocity P-wave (km/s) = 5.63759 7.58298 6.68146
#
# Compressibility (1/GPa) = 0.02590113
#
# Stress axis : x y z
#
# Youngs Moduli (GPa) = 111.01814 49.77041 34.20270
#
# Poissons Ratio (x) = 0.21309 0.31159
# Poissons Ratio (y) = 0.47531 0.09667
# Poissons Ratio (z) = 1.01139 0.14068
#
# Static dielectric constant tensor:
#      x y z
#    x 1.663180 0.000000 -0.004470 
#    y 0.000000 1.650440 0.000000 
#    z -0.004470 0.000000 1.609680 
# 
# From -- ./inp_files/85668.got.cif
#   From: 2010.05.17/outbox.cif.g08.bks.cpg/sg10_43_cif.got.tgz:85668.got - 2010.06.03 11:33:40.
