data_PCOD9154573
_publ_section_title
;
Structure prediction by ZEFSAII (Michael W. Deem and Ramdas Pophale) SiO2 
 PCOD9154573
Probable space group: P 2/M
;
_chemical_formula_sum "Si O2"
_cell_formula_units_Z 24
_cell_length_a 8.451235
_cell_length_b 8.887384
_cell_length_c 21.497509
_cell_angle_alpha 90.000000
_cell_angle_beta 131.462574
_cell_angle_gamma 90.000000
_cell_volume 1210.010733
_symmetry_space_group_name_H-M "P 2/M"
_symmetry_group_IT_number 10
_symmetry_cell_setting 'monoclinic'
loop_
_space_group_symop_operation_xyz
x,y,z
-x,y,-z
-x,-y,-z
x,-y,z
loop_
_atom_site_type_symbol
_atom_site_label
_atom_site_fract_x
_atom_site_fract_y
_atom_site_fract_z
Si Si1 0.297007 0.821960 0.172488
Si Si2 0.434983 0.673046 0.330226
Si Si3 0.507180 0.321330 0.104482
Si Si4 0.277922 0.825948 0.401929
Si Si5 0.152527 0.321316 0.905049
Si Si6 0.806636 0.172780 0.494238
O O1 0.426078 0.776082 0.267630
O O2 0.416716 0.755623 0.143179
O O3 0.063425 0.755836 0.128023
O O4 0.280179 0.000000 0.161000
O O5 0.412284 0.500000 0.307594
O O6 0.265936 0.724360 0.338387
O O7 0.646811 0.709372 0.423093
O O8 0.530423 0.500000 0.122562
O O9 0.725041 0.269579 0.126476
O O10 0.324788 0.303821 0.004747
O O11 0.500000 0.808142 0.500000
O O12 0.121025 0.789777 0.417036
O O13 0.256562 0.000000 0.378108
O O14 0.110403 0.500000 0.886916
O O15 0.000000 0.167723 0.500000
O O16 0.717707 0.000000 0.472328
#
# Coordination Sequence:
#
# PCOD9154573 Si02
#       6
#     4   4   4   4   4   4
#     4  12  24  37  56  84 120 158 195 237 290 344
#     4  11  22  36  54  77 108 146 187 232 278 329
#     4   9  19  38  63  88 116 151 192 238 287 343
#     4   8  15  31  54  76 101 134 171 214 266 326
#     4   9  19  38  63  88 115 151 193 236 287 346
#     4   9  18  35  58  82 108 140 176 221 279 340
#
# _framework density 19.834536
#
# number of rings (size 3 to 8) (size 9 to 14) (size 15 to 20)
#    0.000    2.333    0.000    5.500    0.000    6.667 
#    3.000    1.667    0.000    0.000    0.000    0.000 
#    0.000    0.000    0.000    0.000    0.000    0.000 
#
# Total GULP energy -133639.055688 kJ/mol
# GULP energy per Si atom -5568.293987 kJ/mol
# Density = 1.978939 g / cm^3
# Si number density = 19.834536 Si / 1000 Ang^3
#
#
#
# Elastic Constant Matrix: (Units=GPa)
#
#
# Indices 1 2 3 4 5 6 
#
# 1 165.7440 51.9776 34.6824 0.0000 -46.5314 0.0000
# 2 51.9776 67.7185 18.6867 0.0000 -16.2961 0.0000
# 3 34.6824 18.6867 32.8948 0.0000 -22.9699 0.0000
# 4 0.0000 0.0000 0.0000 25.5749 0.0000 -6.0781
# 5 -46.5314 -16.2961 -22.9699 0.0000 28.8647 0.0000
# 6 0.0000 0.0000 0.0000 -6.0781 0.0000 28.0155
#
#
#
# Elastic Compliance Matrix: (Units=1/GPa)
#
#
# Indices 1 2 3 4 5 6 
#
# 1 0.012860 -0.006084 0.004445 0.000000 0.020834 0.000000
# 2 -0.006084 0.020646 -0.009055 0.000000 -0.005357 0.000000
# 3 0.004445 -0.009055 0.072676 0.000000 0.059887 0.000000
# 4 0.000000 0.000000 0.000000 0.041227 0.000000 0.008944
# 5 0.020834 -0.005357 0.059887 0.000000 0.112862 0.000000
# 6 0.000000 0.000000 0.000000 0.008944 0.000000 0.037635
#
#
# Mechanical properties :
#
#
# Convention : Reuss Voigt Hill
#
# Bulk Modulus (GPa) = 11.79323 53.00563 32.39943
# Shear Modulus (GPa) = 14.38610 27.22504 20.80557
#
# Velocity S-wave (km/s) = 2.69607 3.70889 3.24227
# Velocity P-wave (km/s) = 3.95607 6.71737 5.51242
#
# Compressibility (1/GPa) = 0.08479439
#
# Stress axis : x y z
#
# Youngs Moduli (GPa) = 77.76005 48.43496 13.75979
#
# Poissons Ratio (x) = 0.29467 -0.06116
# Poissons Ratio (y) = 0.47308 0.12459
# Poissons Ratio (z) = -0.34564 0.43857
#
# Static dielectric constant tensor:
#      x y z
#    x 1.860910 0.000000 0.012850 
#    y 0.000000 1.685950 0.000000 
#    z 0.012850 0.000000 1.717950 
# 
# From -- ./inp_files/81929.got.cif
#   From: 2010.05.17/outbox.cif.g08.bks.cpg/sg10_41_cif.got.tgz:81929.got - 2010.06.03 11:33:40.
