data_PCOD9154722
_publ_section_title
;
Structure prediction by ZEFSAII (Michael W. Deem and Ramdas Pophale) SiO2 
 PCOD9154722
Probable space group: P 2/M
;
_chemical_formula_sum "Si O2"
_cell_formula_units_Z 23
_cell_length_a 11.336506
_cell_length_b 11.845910
_cell_length_c 8.453910
_cell_angle_alpha 90.000000
_cell_angle_beta 109.026851
_cell_angle_gamma 90.000000
_cell_volume 1073.260641
_symmetry_space_group_name_H-M "P 2/M"
_symmetry_group_IT_number 10
_symmetry_cell_setting 'monoclinic'
loop_
_space_group_symop_operation_xyz
x,y,z
-x,y,-z
-x,-y,-z
x,-y,z
loop_
_atom_site_type_symbol
_atom_site_label
_atom_site_fract_x
_atom_site_fract_y
_atom_site_fract_z
Si Si1 0.355526 0.000000 0.651022
Si Si2 0.138806 0.803078 0.034076
Si Si3 0.552639 0.234509 0.200295
Si Si4 0.328506 0.634409 0.241179
Si Si5 0.000000 0.500000 0.500000
Si Si6 0.169784 0.000000 0.300567
Si Si7 0.745057 0.622921 0.429711
Si Si8 0.885610 0.000000 0.230743
O O1 0.435892 0.891188 0.729455
O O2 0.298124 0.000000 0.451864
O O3 0.225604 0.000000 0.692982
O O4 0.235537 0.701545 0.084290
O O5 0.166955 0.889305 0.189916
O O6 0.136627 0.887188 0.884206
O O7 0.000000 0.756592 0.000000
O O8 0.462177 0.310907 0.267636
O O9 0.688617 0.289032 0.283196
O O10 0.500000 0.235112 0.000000
O O11 0.327665 0.500000 0.214101
O O12 0.283998 0.655011 0.401900
O O13 0.890435 0.596887 0.473430
O O14 0.034903 0.000000 0.332386
O O15 0.682583 0.500000 0.374085
#
# Coordination Sequence:
#
# PCOD9154722 Si02
#       8
#     2   4   4   4   1   2   4   2
#     4  12  24  41  60  92 126 171 221 271 327 381
#     4   9  19  39  63  91 130 170 210 264 324 384
#     4  12  26  43  63  95 135 175 217 272 330 382
#     4  11  23  42  65  95 129 170 224 263 318 393
#     4   8  20  48  72 100 126 172 212 270 320 382
#     4   9  19  37  64  92 122 159 219 266 324 388
#     4   9  21  45  70  95 128 170 214 267 315 384
#     4   9  19  40  62  90 130 172 212 267 329 380
#
# _framework density 21.430024
#
# number of rings (size 3 to 8) (size 9 to 14) (size 15 to 20)
#    0.522    1.391    0.000    4.696    0.000    4.522 
#   12.522    2.609    0.000    0.000    0.000    0.000 
#    0.000    0.000    0.000    0.000    0.000    0.000 
#
# Total GULP energy -128190.871892 kJ/mol
# GULP energy per Si atom -5573.516169 kJ/mol
# Density = 2.138125 g / cm^3
# Si number density = 21.430024 Si / 1000 Ang^3
#
#
#
# Elastic Constant Matrix: (Units=GPa)
#
#
# Indices 1 2 3 4 5 6 
#
# 1 111.3053 49.2746 39.3759 0.0000 17.8772 0.0000
# 2 49.2746 123.8027 44.2105 0.0000 16.9389 0.0000
# 3 39.3759 44.2105 79.5428 0.0000 15.5534 0.0000
# 4 0.0000 0.0000 0.0000 20.9396 0.0000 13.5734
# 5 17.8772 16.9389 15.5534 0.0000 12.4387 0.0000
# 6 0.0000 0.0000 0.0000 13.5734 0.0000 -26.9447
#
#
#
# Elastic Compliance Matrix: (Units=1/GPa)
#
#
# Indices 1 2 3 4 5 6 
#
# 1 0.012969 -0.002597 -0.002678 0.000000 -0.011754 0.000000
# 2 -0.002597 0.011400 -0.003633 0.000000 -0.007249 0.000000
# 3 -0.002678 -0.003633 0.018791 0.000000 -0.014700 0.000000
# 4 0.000000 0.000000 0.000000 0.036001 0.000000 0.018135
# 5 -0.011754 -0.007249 -0.014700 0.000000 0.125540 0.000000
# 6 0.000000 0.000000 0.000000 0.018135 0.000000 -0.027977
#
#
# Mechanical properties :
#
#
# Convention : Reuss Voigt Hill
#
# Bulk Modulus (GPa) = 39.45777 64.48587 51.97182
# Shear Modulus (GPa) = 24.63169 13.40604 19.01887
#
# Velocity S-wave (km/s) = 3.39396 2.50386 2.98230
# Velocity P-wave (km/s) = 5.81472 6.20611 6.01360
#
# Compressibility (1/GPa) = 0.02534355
#
# Stress axis : x y z
#
# Youngs Moduli (GPa) = 77.10408 87.71631 53.21583
#
# Poissons Ratio (x) = 0.22783 0.14253
# Poissons Ratio (y) = 0.20026 0.19335
# Poissons Ratio (z) = 0.20651 0.31869
#
# Static dielectric constant tensor:
#      x y z
#    x 1.808740 0.000000 -0.023640 
#    y 0.000000 1.761360 0.000000 
#    z -0.023640 0.000000 1.797280 
# 
# From -- ./inp_files/24229.got.cif
#   From: 2010.05.17/outbox.cif.g08.bks.cpg/sg10_13_cif.got.tgz:24229.got - 2010.06.03 11:33:40.
