data_PCOD9154036
_publ_section_title
;
Structure prediction by ZEFSAII (Michael W. Deem and Ramdas Pophale) SiO2 
 PCOD9154036
Probable space group: P 2/M
;
_chemical_formula_sum "Si O2"
_cell_formula_units_Z 17
_cell_length_a 17.867288
_cell_length_b 8.367062
_cell_length_c 4.921232
_cell_angle_alpha 90.000000
_cell_angle_beta 116.173509
_cell_angle_gamma 90.000000
_cell_volume 660.270250
_symmetry_space_group_name_H-M "P 2/M"
_symmetry_group_IT_number 10
_symmetry_cell_setting 'monoclinic'
loop_
_space_group_symop_operation_xyz
x,y,z
-x,y,-z
-x,-y,-z
x,-y,z
loop_
_atom_site_type_symbol
_atom_site_label
_atom_site_fract_x
_atom_site_fract_y
_atom_site_fract_z
Si Si1 0.583971 0.751725 0.738206
Si Si2 0.824438 0.500000 0.353745
Si Si3 0.693286 0.000000 0.219306
Si Si4 0.205194 0.000000 0.115950
Si Si5 0.701488 0.500000 0.656296
Si Si6 0.913637 0.186100 0.721803
Si Si7 0.500000 0.500000 0.000000
O O1 0.500000 0.837038 0.500000
O O2 0.640386 0.651337 0.613887
O O3 0.542268 0.631565 0.875123
O O4 0.645060 0.852213 0.021988
O O5 0.746457 0.500000 0.439908
O O6 0.877721 0.335900 0.491521
O O7 0.777409 0.500000 0.991618
O O8 0.710912 0.000000 0.565906
O O9 0.777741 0.000000 0.173943
O O10 0.153677 0.150019 0.147503
O O11 0.930144 0.000000 0.639637
O O12 0.000000 0.235571 0.000000
#
# Coordination Sequence:
#
# PCOD9154036 Si02
#       7
#     4   2   2   2   2   4   1
#     4  11  26  43  66  94 131 176 227 274 341 393
#     4  12  23  45  69 103 134 179 227 272 339 397
#     4  12  25  43  71  98 130 173 221 286 325 399
#     4  10  23  44  64 102 136 169 221 270 349 387
#     4  11  26  42  70  95 136 175 223 279 333 401
#     4   9  21  44  71 101 140 178 221 275 332 405
#     4  10  24  42  64  82 132 166 220 268 334 390
#
# _framework density 25.747031
#
# number of rings (size 3 to 8) (size 9 to 14) (size 15 to 20)
#    0.706    0.706    0.000    4.941    9.882    0.471 
#    0.000    7.059    0.000    0.000    0.000    0.000 
#    0.000    0.000    0.000    0.000    0.000    0.000 
#
# Total GULP energy -94810.554672 kJ/mol
# GULP energy per Si atom -5577.091451 kJ/mol
# Density = 2.568843 g / cm^3
# Si number density = 25.747031 Si / 1000 Ang^3
#
#
#
# Elastic Constant Matrix: (Units=GPa)
#
#
# Indices 1 2 3 4 5 6 
#
# 1 36.8969 20.9193 28.6994 0.0000 12.5515 0.0000
# 2 20.9193 145.4769 28.2065 0.0000 10.1622 0.0000
# 3 28.6994 28.2065 107.7678 0.0000 29.3483 0.0000
# 4 0.0000 0.0000 0.0000 47.1219 0.0000 25.3301
# 5 12.5515 10.1622 29.3483 0.0000 62.6713 0.0000
# 6 0.0000 0.0000 0.0000 25.3301 0.0000 39.4173
#
#
#
# Elastic Compliance Matrix: (Units=1/GPa)
#
#
# Indices 1 2 3 4 5 6 
#
# 1 0.036255 -0.003466 -0.007935 0.000000 -0.002983 0.000000
# 2 -0.003466 0.007579 -0.001049 0.000000 -0.000044 0.000000
# 3 -0.007935 -0.001049 0.012823 0.000000 -0.004246 0.000000
# 4 0.000000 0.000000 0.000000 0.032421 0.000000 -0.020834
# 5 -0.002983 -0.000044 -0.004246 0.000000 0.018549 0.000000
# 6 0.000000 0.000000 0.000000 -0.020834 0.000000 0.038758
#
#
# Mechanical properties :
#
#
# Convention : Reuss Voigt Hill
#
# Bulk Modulus (GPa) = 31.49008 49.53245 40.51127
# Shear Modulus (GPa) = 27.49210 43.99652 35.74431
#
# Velocity S-wave (km/s) = 3.27123 4.13825 3.73002
# Velocity P-wave (km/s) = 5.15025 6.48948 5.85826
#
# Compressibility (1/GPa) = 0.03175603
#
# Stress axis : x y z
#
# Youngs Moduli (GPa) = 27.58243 131.94744 77.98416
#
# Poissons Ratio (x) = 0.45739 0.61883
# Poissons Ratio (y) = 0.09561 0.08177
# Poissons Ratio (z) = 0.21888 0.13836
#
# Static dielectric constant tensor:
#      x y z
#    x 1.999570 0.000000 0.080040 
#    y 0.000000 2.045130 0.000000 
#    z 0.080040 0.000000 2.070780 
# 
# From -- ./inp_files/10675.got.cif
#   From: 2010.05.17/outbox.cif.g08.bks.cpg/sg10_6_cif.got.tgz:10675.got - 2010.06.03 11:33:40.
