data_PCOD9154685
_publ_section_title
;
Structure prediction by ZEFSAII (Michael W. Deem and Ramdas Pophale) SiO2 
 PCOD9154685
Probable space group: P 2/M
;
_chemical_formula_sum "Si O2"
_cell_formula_units_Z 28
_cell_length_a 18.622538
_cell_length_b 8.484655
_cell_length_c 15.559975
_cell_angle_alpha 90.000000
_cell_angle_beta 141.712685
_cell_angle_gamma 90.000000
_cell_volume 1523.340735
_symmetry_space_group_name_H-M "P 2/M"
_symmetry_group_IT_number 10
_symmetry_cell_setting 'monoclinic'
loop_
_space_group_symop_operation_xyz
x,y,z
-x,y,-z
-x,-y,-z
x,-y,z
loop_
_atom_site_type_symbol
_atom_site_label
_atom_site_fract_x
_atom_site_fract_y
_atom_site_fract_z
Si Si1 0.910463 0.691614 0.119049
Si Si2 0.861391 0.316468 0.887843
Si Si3 0.238967 0.815341 0.864752
Si Si4 0.821550 0.690983 0.664931
Si Si5 0.128425 0.313817 0.592955
Si Si6 0.293671 0.185112 0.608632
Si Si7 0.516133 0.312701 0.915240
O O1 0.903195 0.500000 0.115902
O O2 0.848881 0.763288 0.143484
O O3 0.046741 0.731281 0.240124
O O4 0.849842 0.748378 0.973163
O O5 0.826388 0.500000 0.859798
O O6 0.805789 0.250385 0.748446
O O7 0.000000 0.315302 0.000000
O O8 0.209519 0.719001 0.750870
O O9 0.227229 0.000000 0.835421
O O10 0.370237 0.773900 0.013094
O O11 0.815372 0.500000 0.659820
O O12 0.733495 0.757668 0.512814
O O13 0.124525 0.500000 0.569912
O O14 0.181836 0.226484 0.561815
O O15 0.000000 0.261958 0.500000
O O16 0.402121 0.271281 0.754455
O O17 0.314647 0.000000 0.630461
O O18 0.535519 0.500000 0.931443
O O19 0.500000 0.264856 0.000000
#
# Coordination Sequence:
#
# PCOD9154685 Si02
#       7
#     4   4   4   4   4   4   4
#     4   9  17  32  55  82 112 146 184 222 262 313
#     4   7  12  26  51  80 107 140 183 225 259 301
#     4  12  24  36  54  80 111 141 174 220 274 324
#     4   9  17  32  55  82 112 146 184 222 262 313
#     4  11  23  38  55  76 105 143 183 219 258 309
#     4  12  24  36  54  80 111 141 174 220 274 324
#     4  11  23  41  63  78  96 135 188 230 265 315
#
# _framework density 18.380654
#
# number of rings (size 3 to 8) (size 9 to 14) (size 15 to 20)
#    0.000    1.857    1.429    6.000    0.000    5.714 
#    0.000    0.714    0.000    3.429    0.000    6.000 
#    0.000    0.000    0.000    0.000    0.000    0.000 
#
# Total GULP energy -156288.095166 kJ/mol
# GULP energy per Si atom -5581.717685 kJ/mol
# Density = 1.833882 g / cm^3
# Si number density = 18.380654 Si / 1000 Ang^3
#
#
#
# Elastic Constant Matrix: (Units=GPa)
#
#
# Indices 1 2 3 4 5 6 
#
# 1 12.0492 -0.7976 3.7077 0.0000 -10.4123 0.0000
# 2 -0.7976 21.4787 -3.2606 0.0000 1.6334 0.0000
# 3 3.7077 -3.2606 89.2878 0.0000 -16.7539 0.0000
# 4 0.0000 0.0000 0.0000 82.3292 0.0000 63.3229
# 5 -10.4123 1.6334 -16.7539 0.0000 35.0875 0.0000
# 6 0.0000 0.0000 0.0000 63.3229 0.0000 25.9229
#
#
#
# Elastic Compliance Matrix: (Units=1/GPa)
#
#
# Indices 1 2 3 4 5 6 
#
# 1 0.111934 0.001844 0.001797 0.000000 0.033989 0.000000
# 2 0.001844 0.046919 0.001461 0.000000 -0.000940 0.000000
# 3 0.001797 0.001461 0.012374 0.000000 0.006374 0.000000
# 4 0.000000 0.000000 0.000000 -0.013821 0.000000 0.033762
# 5 0.033989 -0.000940 0.006374 0.000000 0.041674 0.000000
# 6 0.000000 0.000000 0.000000 0.033762 0.000000 -0.043895
#
#
# Mechanical properties :
#
#
# Convention : Reuss Voigt Hill
#
# Bulk Modulus (GPa) = 5.51173 13.56829 9.54001
# Shear Modulus (GPa) = 24.33590 36.87899 30.60745
#
# Velocity S-wave (km/s) = 3.64262 4.48415 4.08511
# Velocity P-wave (km/s) = 4.54937 5.84876 5.23950
#
# Compressibility (1/GPa) = 0.18143115
#
# Stress axis : x y z
#
# Youngs Moduli (GPa) = 8.93387 21.31313 80.81158
#
# Poissons Ratio (x) = -0.03931 -0.14521
# Poissons Ratio (y) = -0.01648 -0.11803
# Poissons Ratio (z) = -0.01605 -0.03113
#
# Static dielectric constant tensor:
#      x y z
#    x 1.623710 0.000000 -0.017470 
#    y 0.000000 1.619720 0.000000 
#    z -0.017470 0.000000 1.656290 
# 
# From -- ./inp_files/68669.got.cif
#   From: 2010.05.17/outbox.cif.g08.bks.cpg/sg10_35_cif.got.tgz:68669.got - 2010.06.03 11:33:40.
