data_PCOD9154528
_publ_section_title
;
Structure prediction by ZEFSAII (Michael W. Deem and Ramdas Pophale) SiO2 
 PCOD9154528
Probable space group: P 2/M
;
_chemical_formula_sum "Si O2"
_cell_formula_units_Z 20
_cell_length_a 18.074051
_cell_length_b 9.718900
_cell_length_c 8.039054
_cell_angle_alpha 90.000000
_cell_angle_beta 46.422502
_cell_angle_gamma 90.000000
_cell_volume 1023.013981
_symmetry_space_group_name_H-M "P 2/M"
_symmetry_group_IT_number 10
_symmetry_cell_setting 'monoclinic'
loop_
_space_group_symop_operation_xyz
x,y,z
-x,y,-z
-x,-y,-z
x,-y,z
loop_
_atom_site_type_symbol
_atom_site_label
_atom_site_fract_x
_atom_site_fract_y
_atom_site_fract_z
Si Si1 0.992697 0.703398 0.707736
Si Si2 0.459978 0.000000 0.375355
Si Si3 0.708467 0.000000 0.619655
Si Si4 0.580692 0.237080 0.003653
Si Si5 0.954609 0.000000 0.255045
Si Si6 0.179557 0.500000 0.910281
Si Si7 0.684291 0.500000 0.984074
Si Si8 0.159968 0.500000 0.564803
O O1 0.085953 0.630708 0.659041
O O2 0.000000 0.670587 0.500000
O O3 0.891647 0.632276 0.938051
O O4 0.003892 0.864398 0.718461
O O5 0.500000 0.000000 0.500000
O O6 0.343535 0.000000 0.484722
O O7 0.512355 0.132275 0.213294
O O8 0.663462 0.863042 0.783059
O O9 0.830799 0.000000 0.437352
O O10 0.625892 0.357847 0.043510
O O11 0.500000 0.301154 0.000000
O O12 0.000000 0.000000 0.000000
O O13 0.268566 0.500000 0.906208
O O14 0.209137 0.500000 0.670865
O O15 0.766674 0.500000 0.706495
#
# Coordination Sequence:
#
# PCOD9154528 Si02
#       8
#     4   2   2   4   2   2   2   2
#     4  11  21  41  59  80 121 172 211 259 313 365
#     4   9  19  44  65  92 124 162 202 254 314 380
#     4   9  20  40  65  84 117 172 202 239 328 382
#     4   9  20  40  66  88 121 161 203 255 318 379
#     4  12  24  38  57  98 129 155 217 273 302 365
#     4  11  23  40  61  86 122 176 212 249 311 383
#     4  12  21  39  61  96 124 154 213 255 314 370
#     4  11  21  40  63  81 121 170 207 250 315 375
#
# _framework density 19.550075
#
# number of rings (size 3 to 8) (size 9 to 14) (size 15 to 20)
#    0.000    1.600    2.000    6.000    0.000    0.000 
#   14.400    0.500    0.000    0.000    0.000    0.000 
#    0.000    0.000    0.000    0.000    0.000    0.000 
#
# Total GULP energy -111628.152793 kJ/mol
# GULP energy per Si atom -5581.407640 kJ/mol
# Density = 1.950558 g / cm^3
# Si number density = 19.550075 Si / 1000 Ang^3
#
#
#
# Elastic Constant Matrix: (Units=GPa)
#
#
# Indices 1 2 3 4 5 6 
#
# 1 144.7420 46.4335 21.3475 0.0000 18.5246 0.0000
# 2 46.4335 131.3946 -8.2012 0.0000 -8.7003 0.0000
# 3 21.3475 -8.2012 17.7092 0.0000 8.3888 0.0000
# 4 0.0000 0.0000 0.0000 9.4089 0.0000 10.0243
# 5 18.5246 -8.7003 8.3888 0.0000 39.8141 0.0000
# 6 0.0000 0.0000 0.0000 10.0243 0.0000 28.7373
#
#
#
# Elastic Compliance Matrix: (Units=1/GPa)
#
#
# Indices 1 2 3 4 5 6 
#
# 1 0.010985 -0.004971 -0.014006 0.000000 -0.003246 0.000000
# 2 -0.004971 0.010127 0.009485 0.000000 0.002527 0.000000
# 3 -0.014006 0.009485 0.081844 0.000000 -0.008655 0.000000
# 4 0.000000 0.000000 0.000000 0.169142 0.000000 -0.059001
# 5 -0.003246 0.002527 -0.008655 0.000000 0.029003 0.000000
# 6 0.000000 0.000000 0.000000 -0.059001 0.000000 0.055379
#
#
# Mechanical properties :
#
#
# Convention : Reuss Voigt Hill
#
# Bulk Modulus (GPa) = 11.90885 45.88949 28.89917
# Shear Modulus (GPa) = 12.39299 31.20979 21.80139
#
# Velocity S-wave (km/s) = 2.52049 3.99984 3.34302
# Velocity P-wave (km/s) = 3.81774 6.69741 5.45117
#
# Compressibility (1/GPa) = 0.08397117
#
# Stress axis : x y z
#
# Youngs Moduli (GPa) = 91.03553 98.74836 12.21838
#
# Poissons Ratio (x) = 0.49088 0.17113
# Poissons Ratio (y) = 0.45254 -0.11589
# Poissons Ratio (z) = 1.27504 -0.93662
#
# Static dielectric constant tensor:
#      x y z
#    x 1.717440 0.000000 0.007960 
#    y 0.000000 1.684660 0.000000 
#    z 0.007960 0.000000 1.698790 
# 
# From -- ./inp_files/31506.got.cif
#   From: 2010.05.17/outbox.cif.g08.bks.cpg/sg10_16_cif.got.tgz:31506.got - 2010.06.03 11:33:40.
