data_PCOD9154063
_publ_section_title
;
Structure prediction by ZEFSAII (Michael W. Deem and Ramdas Pophale) SiO2 
 PCOD9154063
Probable space group: P 2/M
;
_chemical_formula_sum "Si O2"
_cell_formula_units_Z 28
_cell_length_a 22.284946
_cell_length_b 8.290064
_cell_length_c 20.400720
_cell_angle_alpha 90.000000
_cell_angle_beta 160.573895
_cell_angle_gamma 90.000000
_cell_volume 1253.502653
_symmetry_space_group_name_H-M "P 2/M"
_symmetry_group_IT_number 10
_symmetry_cell_setting 'monoclinic'
loop_
_space_group_symop_operation_xyz
x,y,z
-x,y,-z
-x,-y,-z
x,-y,z
loop_
_atom_site_type_symbol
_atom_site_label
_atom_site_fract_x
_atom_site_fract_y
_atom_site_fract_z
Si Si1 0.353892 0.683329 0.509130
Si Si2 0.023644 0.183847 0.895250
Si Si3 0.390271 0.500000 0.983520
Si Si4 0.787279 0.500000 0.330261
Si Si5 0.136966 0.816691 0.509464
Si Si6 0.844069 0.306979 0.103891
Si Si7 0.642318 0.307364 0.701132
Si Si8 0.489508 0.755933 0.790192
O O1 0.312228 0.500000 0.446977
O O2 0.539043 0.725579 0.663220
O O3 0.379229 0.688133 0.613807
O O4 0.188102 0.788380 0.313272
O O5 0.078677 0.289712 0.889280
O O6 0.053456 0.000000 0.907680
O O7 0.161097 0.229509 0.094488
O O8 0.581182 0.500000 0.143297
O O9 0.405399 0.650545 0.047094
O O10 0.228818 0.500000 0.765185
O O11 0.858434 0.670700 0.432498
O O12 0.330516 0.828376 0.671013
O O13 0.994772 0.753390 0.309644
O O14 0.094806 0.000000 0.489357
O O15 0.802859 0.500000 0.069012
O O16 0.669984 0.192241 0.937221
O O17 0.500000 0.252148 0.500000
O O18 0.665092 0.500000 0.717706
#
# Coordination Sequence:
#
# PCOD9154063 Si02
#       8
#     4   4   2   2   4   4   4   4
#     4  11  21  39  66  94 125 160 213 269 316 378
#     4  12  26  39  60  95 133 172 210 259 325 389
#     4   9  18  37  65  99 125 167 227 258 325 401
#     4   9  20  41  65  93 132 176 219 271 319 404
#     4  11  24  41  64  95 133 175 219 273 336 394
#     4  12  22  38  65  98 129 166 222 277 330 392
#     4  10  23  45  70  95 124 164 214 267 320 382
#     4  11  21  37  65  97 125 166 216 275 328 381
#
# _framework density 22.337409000000001
#
# number of rings (size 3 to 8) (size 9 to 14) (size 15 to 20)
#    0.000    1.143    5.000    1.714    0.000    2.571 
#    0.000   10.000    0.000    0.857    0.000    0.000 
#    0.000    0.000    0.000    0.000    0.000    0.000 
#
# Total GULP energy -156001.785397 kJ/mol
# GULP energy per Si atom -5571.492336 kJ/mol
# Density = 2.228657 g / cm^3
# Si number density = 22.337409 Si / 1000 Ang^3
#
#
#
# Elastic Constant Matrix: (Units=GPa)
#
#
# Indices 1 2 3 4 5 6 
#
# 1 34.1812 15.9809 -1.0798 0.0000 -13.5202 0.0000
# 2 15.9809 103.3784 33.5374 0.0000 -8.1308 0.0000
# 3 -1.0798 33.5374 108.1867 0.0000 -14.9645 0.0000
# 4 0.0000 0.0000 0.0000 -33.9702 0.0000 63.8832
# 5 -13.5202 -8.1308 -14.9645 0.0000 46.1094 0.0000
# 6 0.0000 0.0000 0.0000 63.8832 0.0000 -526.6011
#
#
#
# Elastic Compliance Matrix: (Units=1/GPa)
#
#
# Indices 1 2 3 4 5 6 
#
# 1 0.036463 -0.005991 0.003721 0.000000 0.010843 0.000000
# 2 -0.005991 0.011771 -0.003837 0.000000 -0.000926 0.000000
# 3 0.003721 -0.003837 0.011022 0.000000 0.003992 0.000000
# 4 0.000000 0.000000 0.000000 -0.038138 0.000000 -0.004627
# 5 0.010843 -0.000926 0.003992 0.000000 0.025999 0.000000
# 6 0.000000 0.000000 0.000000 -0.004627 0.000000 -0.002460
#
#
# Mechanical properties :
#
#
# Convention : Reuss Voigt Hill
#
# Bulk Modulus (GPa) = 21.25748 38.06928 29.66338
# Shear Modulus (GPa) = 68.91629 -89.73853 -10.41112
#
# Velocity S-wave (km/s) = 5.56052 -6.34518 -2.16124
# Velocity P-wave (km/s) = 7.12482 6.04995 2.66093
#
# Compressibility (1/GPa) = 0.04704226
#
# Stress axis : x y z
#
# Youngs Moduli (GPa) = 27.42492 84.95281 90.72792
#
# Poissons Ratio (x) = 0.50896 -0.33759
# Poissons Ratio (y) = 0.16430 0.34812
# Poissons Ratio (z) = -0.10205 0.32596
#
# Static dielectric constant tensor:
#      x y z
#    x 1.882590 0.000000 0.003220 
#    y 0.000000 1.858480 0.000000 
#    z 0.003220 0.000000 1.822840 
# 
# From -- ./inp_files/86586.got.cif
#   From: 2010.05.17/outbox.cif.g08.bks.cpg/sg10_44_cif.got.tgz:86586.got - 2010.06.03 11:33:40.
