data_PCOD9154640
_publ_section_title
;
Structure prediction by ZEFSAII (Michael W. Deem and Ramdas Pophale) SiO2 
 PCOD9154640
Probable space group: P 2/M
;
_chemical_formula_sum "Si O2"
_cell_formula_units_Z 26
_cell_length_a 5.426998
_cell_length_b 21.828992
_cell_length_c 11.966774
_cell_angle_alpha 90.000000
_cell_angle_beta 120.128110
_cell_angle_gamma 90.000000
_cell_volume 1226.136936
_symmetry_space_group_name_H-M "P 2/M"
_symmetry_group_IT_number 10
_symmetry_cell_setting 'monoclinic'
loop_
_space_group_symop_operation_xyz
x,y,z
-x,y,-z
-x,-y,-z
x,-y,z
loop_
_atom_site_type_symbol
_atom_site_label
_atom_site_fract_x
_atom_site_fract_y
_atom_site_fract_z
Si Si1 0.085273 0.751147 0.318395
Si Si2 0.710176 0.723720 0.869278
Si Si3 0.766212 0.362765 0.265732
Si Si4 0.500000 0.843268 0.500000
Si Si5 0.647044 0.426589 0.651796
Si Si6 0.614019 0.157545 0.143063
Si Si7 0.301730 0.928977 0.634652
O O1 0.268900 0.719676 0.261432
O O2 0.239328 0.796742 0.437338
O O3 0.932051 0.697109 0.349885
O O4 0.877945 0.795516 0.200385
O O5 0.472809 0.675413 0.858032
O O6 0.623564 0.794255 0.869038
O O7 0.000000 0.710402 0.000000
O O8 0.575634 0.402796 0.305715
O O9 0.026192 0.401203 0.270520
O O10 0.509769 0.887440 0.607825
O O11 0.500000 0.409555 0.500000
O O12 0.662645 0.500000 0.661734
O O13 0.696928 0.103594 0.245805
O O14 0.500000 0.133615 0.000000
O O15 0.000000 0.925560 0.500000
O O16 0.383586 0.000000 0.658495
#
# Coordination Sequence:
#
# PCOD9154640 Si02
#       7
#     4   4   4   2   4   4   4
#     4  11  23  38  64 102 131 175 215 292 352 419
#     4  11  22  41  67  97 136 178 222 286 360 415
#     4  11  24  41  64 104 135 173 229 287 337 415
#     4  12  23  40  66  94 133 176 228 282 366 422
#     4  11  24  44  68  95 140 190 229 276 337 407
#     4  11  22  39  66  95 133 173 230 290 357 424
#     4  11  24  42  62  90 133 183 233 285 350 430
#
# _framework density 21.204806999999999
#
# number of rings (size 3 to 8) (size 9 to 14) (size 15 to 20)
#    0.000    0.923    6.154    1.154    1.077    2.769 
#    0.000    0.000    0.000    4.154    0.000    0.000 
#    0.000    0.000    0.000    0.000    0.000    0.000 
#
# Total GULP energy -144981.300180 kJ/mol
# GULP energy per Si atom -5576.203853 kJ/mol
# Density = 2.115654 g / cm^3
# Si number density = 21.204807 Si / 1000 Ang^3
#
#
#
# Elastic Constant Matrix: (Units=GPa)
#
#
# Indices 1 2 3 4 5 6 
#
# 1 114.6799 59.0631 26.4858 0.0000 6.0170 0.0000
# 2 59.0631 125.6102 44.1777 0.0000 10.1615 0.0000
# 3 26.4858 44.1777 80.2422 0.0000 -1.0564 0.0000
# 4 0.0000 0.0000 0.0000 8.4653 0.0000 11.2113
# 5 6.0170 10.1615 -1.0564 0.0000 28.1526 0.0000
# 6 0.0000 0.0000 0.0000 11.2113 0.0000 14.7604
#
#
#
# Elastic Compliance Matrix: (Units=1/GPa)
#
#
# Indices 1 2 3 4 5 6 
#
# 1 0.011587 -0.005014 -0.001074 0.000000 -0.000707 0.000000
# 2 -0.005014 0.012459 -0.005252 0.000000 -0.003622 0.000000
# 3 -0.001074 -0.005252 0.015744 0.000000 0.002716 0.000000
# 4 0.000000 0.000000 0.000000-19.875393 0.000000 15.096414
# 5 -0.000707 -0.003622 0.002716 0.000000 0.037081 0.000000
# 6 0.000000 0.000000 0.000000 15.096414 0.000000-11.398778
#
#
# Mechanical properties :
#
#
# Convention : Reuss Voigt Hill
#
# Bulk Modulus (GPa) = 58.44109 64.44284 61.44197
# Shear Modulus (GPa) = -0.16042 22.99602 11.41780
#
# Velocity S-wave (km/s) = -0.27535 3.29671 2.32298
# Velocity P-wave (km/s) = 5.24586 6.70430 6.01942
#
# Compressibility (1/GPa) = 0.01711125
#
# Stress axis : x y z
#
# Youngs Moduli (GPa) = 86.30287 80.26470 63.51630
#
# Poissons Ratio (x) = 0.40241 0.06820
# Poissons Ratio (y) = 0.43268 0.33359
# Poissons Ratio (z) = 0.09266 0.42156
#
# Static dielectric constant tensor:
#      x y z
#    x 1.897870 0.000000 0.004610 
#    y 0.000000 1.736130 0.000000 
#    z 0.004610 0.000000 1.791230 
# 
# From -- ./inp_files/39795.got.cif
#   From: 2010.05.17/outbox.cif.g08.bks.cpg/sg10_20_cif.got.tgz:39795.got - 2010.06.03 11:33:40.
