data_PCOD9154226
_publ_section_title
;
Structure prediction by ZEFSAII (Michael W. Deem and Ramdas Pophale) SiO2 
 PCOD9154226
Probable space group: P 2/M
;
_chemical_formula_sum "Si O2"
_cell_formula_units_Z 24
_cell_length_a 15.571431
_cell_length_b 12.186022
_cell_length_c 15.359725
_cell_angle_alpha 90.000000
_cell_angle_beta 28.138725
_cell_angle_gamma 90.000000
_cell_volume 1374.532690
_symmetry_space_group_name_H-M "P 2/M"
_symmetry_group_IT_number 10
_symmetry_cell_setting 'monoclinic'
loop_
_space_group_symop_operation_xyz
x,y,z
-x,y,-z
-x,-y,-z
x,-y,z
loop_
_atom_site_type_symbol
_atom_site_label
_atom_site_fract_x
_atom_site_fract_y
_atom_site_fract_z
Si Si1 0.152397 0.000000 0.740250
Si Si2 0.036448 0.237783 0.365319
Si Si3 0.413135 0.000000 0.221217
Si Si4 0.754236 0.000000 0.139749
Si Si5 0.357394 0.240067 0.352764
Si Si6 0.546226 0.177947 0.559331
Si Si7 0.394571 0.628032 0.002604
Si Si8 0.793288 0.000000 0.778958
O O1 0.269693 0.895827 0.604913
O O2 0.179993 0.000000 0.819342
O O3 0.935314 0.000000 0.918470
O O4 0.203651 0.310537 0.183667
O O5 0.093180 0.110108 0.306870
O O6 0.000000 0.259300 0.500000
O O7 0.853461 0.262506 0.476860
O O8 0.384343 0.888833 0.301755
O O9 0.280298 0.000000 0.255300
O O10 0.616051 0.000000 0.999304
O O11 0.621947 0.104740 0.254113
O O12 0.415274 0.264457 0.400023
O O13 0.482429 0.310312 0.177359
O O14 0.500000 0.206579 0.500000
O O15 0.370976 0.500000 0.003417
O O16 0.500000 0.637395 0.000000
#
# Coordination Sequence:
#
# PCOD9154226 Si02
#       8
#     2   4   2   2   4   4   4   2
#     4   8  14  28  48  74 106 147 189 228 269 326
#     4  12  22  37  58  85 118 151 186 230 279 335
#     4  11  19  32  55  79 117 157 184 215 271 338
#     4   8  14  28  51  71 106 152 185 225 278 318
#     4  12  23  37  58  86 114 153 190 229 283 338
#     4   9  19  34  50  76 111 145 190 235 272 329
#     4  11  24  42  61  83 112 148 190 236 284 336
#     4  11  20  33  52  80 125 154 178 221 267 338
#
# _framework density 17.460481000000001
#
# number of rings (size 3 to 8) (size 9 to 14) (size 15 to 20)
#    0.000    1.500    5.000    2.750    0.000    2.333 
#    3.000    0.000    0.000    0.500    0.000    1.167 
#    0.000    0.000    0.000    0.000    0.000    0.000 
#
# Total GULP energy -133938.438573 kJ/mol
# GULP energy per Si atom -5580.768274 kJ/mol
# Density = 1.742074 g / cm^3
# Si number density = 17.460481 Si / 1000 Ang^3
#
#
#
# Elastic Constant Matrix: (Units=GPa)
#
#
# Indices 1 2 3 4 5 6 
#
# 1 99.0836 40.1590 48.7507 0.0000 -7.5935 0.0000
# 2 40.1590 88.8813 56.0732 0.0000 -1.2875 0.0000
# 3 48.7507 56.0732 142.5108 0.0000 -24.7917 0.0000
# 4 0.0000 0.0000 0.0000 -8.1282 0.0000 -0.0946
# 5 -7.5935 -1.2875 -24.7917 0.0000 25.1647 0.0000
# 6 0.0000 0.0000 0.0000 -0.0946 0.0000 8.7710
#
#
#
# Elastic Compliance Matrix: (Units=1/GPa)
#
#
# Indices 1 2 3 4 5 6 
#
# 1 0.013217 -0.004299 -0.002624 0.000000 0.001183 0.000000
# 2 -0.004299 0.017176 -0.006469 0.000000 -0.006792 0.000000
# 3 -0.002624 -0.006469 0.012388 0.000000 0.011081 0.000000
# 4 0.000000 0.000000 0.000000 -0.123013 0.000000 -0.001327
# 5 0.001183 -0.006792 0.011081 0.000000 0.050665 0.000000
# 6 0.000000 0.000000 0.000000 -0.001327 0.000000 0.113998
#
#
# Mechanical properties :
#
#
# Convention : Reuss Voigt Hill
#
# Bulk Modulus (GPa) = 62.51395 68.93797 65.72596
# Shear Modulus (GPa) = 42.90141 17.52769 30.21455
#
# Velocity S-wave (km/s) = 4.96225 3.17180 4.16438
# Velocity P-wave (km/s) = 8.28931 7.27885 7.80046
#
# Compressibility (1/GPa) = 0.01599643
#
# Stress axis : x y z
#
# Youngs Moduli (GPa) = 75.66254 58.21977 80.72538
#
# Poissons Ratio (x) = 0.25030 0.21180
# Poissons Ratio (y) = 0.32529 0.52222
# Poissons Ratio (z) = 0.19852 0.37663
#
# Static dielectric constant tensor:
#      x y z
#    x 1.614880 0.000000 -0.007840 
#    y 0.000000 1.569980 0.000000 
#    z -0.007840 0.000000 1.604720 
# 
# From -- ./inp_files/67085.got.cif
#   From: 2010.05.17/outbox.cif.g08.bks.cpg/sg10_34_cif.got.tgz:67085.got - 2010.06.03 11:33:40.
