data_PCOD9154260
_publ_section_title
;
Structure prediction by ZEFSAII (Michael W. Deem and Ramdas Pophale) SiO2 
 PCOD9154260
Probable space group: P 2/M
;
_chemical_formula_sum "Si O2"
_cell_formula_units_Z 24
_cell_length_a 12.449331
_cell_length_b 8.559090
_cell_length_c 22.306302
_cell_angle_alpha 90.000000
_cell_angle_beta 38.491154
_cell_angle_gamma 90.000000
_cell_volume 1479.334696
_symmetry_space_group_name_H-M "P 2/M"
_symmetry_group_IT_number 10
_symmetry_cell_setting 'monoclinic'
loop_
_space_group_symop_operation_xyz
x,y,z
-x,y,-z
-x,-y,-z
x,-y,z
loop_
_atom_site_type_symbol
_atom_site_label
_atom_site_fract_x
_atom_site_fract_y
_atom_site_fract_z
Si Si1 0.231816 0.189543 0.733221
Si Si2 0.338941 0.184735 0.997731
Si Si3 0.927404 0.189218 0.327581
Si Si4 0.581872 0.182997 0.531204
Si Si5 0.704267 0.315134 0.849984
Si Si6 0.030619 0.313044 0.055358
O O1 0.133588 0.228047 0.713739
O O2 0.430032 0.246686 0.639681
O O3 0.127528 0.259569 0.833714
O O4 0.232681 0.000000 0.736910
O O5 0.535032 0.232099 0.897327
O O6 0.326999 0.000000 0.012985
O O7 0.294326 0.268344 0.080203
O O8 0.202292 0.237218 0.008055
O O9 0.774835 0.246756 0.438549
O O10 0.115196 0.258740 0.256051
O O11 0.934707 0.000000 0.327475
O O12 0.500000 0.187492 0.500000
O O13 0.600820 0.000000 0.538479
O O14 0.685121 0.500000 0.853123
O O15 0.047326 0.500000 0.051034
O O16 0.000000 0.266848 0.000000
#
# Coordination Sequence:
#
# PCOD9154260 Si02
#       6
#     4   4   4   4   4   4
#     4   9  16  28  47  68  93 126 162 199 232 274
#     4  11  21  34  50  68  91 124 166 202 235 280
#     4   9  15  26  45  70  98 128 158 189 230 284
#     4   7  12  23  41  66  94 123 155 190 232 276
#     4  11  20  30  47  71 101 129 154 191 242 291
#     4  11  23  36  49  68  97 130 161 198 244 286
#
# _framework density 16.223510000000001
#
# number of rings (size 3 to 8) (size 9 to 14) (size 15 to 20)
#    0.000    2.333    1.667    6.500    0.000    1.333 
#    0.000    0.833    0.000    3.000    0.000    1.167 
#    0.000    9.333    0.000    0.000    0.000    0.000 
#
# Total GULP energy -133747.238384 kJ/mol
# GULP energy per Si atom -5572.801599 kJ/mol
# Density = 1.618658 g / cm^3
# Si number density = 16.223510 Si / 1000 Ang^3
#
#
#
# Elastic Constant Matrix: (Units=GPa)
#
#
# Indices 1 2 3 4 5 6 
#
# 1 58.3209 3.9700 47.1820 0.0000 -8.9602 0.0000
# 2 3.9700 17.7198 6.4729 0.0000 4.0107 0.0000
# 3 47.1820 6.4729 116.5145 0.0000 -26.9437 0.0000
# 4 0.0000 0.0000 0.0000 48.9232 0.0000 -43.6028
# 5 -8.9602 4.0107 -26.9437 0.0000 25.1131 0.0000
# 6 0.0000 0.0000 0.0000 -43.6028 0.0000 49.3126
#
#
#
# Elastic Compliance Matrix: (Units=1/GPa)
#
#
# Indices 1 2 3 4 5 6 
#
# 1 0.025658 -0.001270 -0.010847 0.000000 -0.002280 0.000000
# 2 -0.001270 0.063540 -0.007271 0.000000 -0.018402 0.000000
# 3 -0.010847 -0.007271 0.016960 0.000000 0.015488 0.000000
# 4 0.000000 0.000000 0.000000 0.096441 0.000000 0.085274
# 5 -0.002280 -0.018402 0.015488 0.000000 0.058562 0.000000
# 6 0.000000 0.000000 0.000000 0.085274 0.000000 0.095680
#
#
# Mechanical properties :
#
#
# Convention : Reuss Voigt Hill
#
# Bulk Modulus (GPa) = 14.84071 34.20056 24.52063
# Shear Modulus (GPa) = 11.95953 33.66514 22.81234
#
# Velocity S-wave (km/s) = 2.71804 4.56025 3.75391
# Velocity P-wave (km/s) = 4.36094 6.98960 5.82547
#
# Compressibility (1/GPa) = 0.06738223
#
# Stress axis : x y z
#
# Youngs Moduli (GPa) = 38.97460 15.73822 58.96091
#
# Poissons Ratio (x) = 0.01999 0.63953
# Poissons Ratio (y) = 0.04951 0.42870
# Poissons Ratio (z) = 0.42274 0.11443
#
# Static dielectric constant tensor:
#      x y z
#    x 1.519760 0.000000 -0.033120 
#    y 0.000000 1.546090 0.000000 
#    z -0.033120 0.000000 1.579910 
# 
# From -- ./inp_files/83283.got.cif
#   From: 2010.05.17/outbox.cif.g08.bks.cpg/sg10_42_cif.got.tgz:83283.got - 2010.06.03 11:33:40.
