data_PCOD9154633
_publ_section_title
;
Structure prediction by ZEFSAII (Michael W. Deem and Ramdas Pophale) SiO2 
 PCOD9154633
Probable space group: P 2/M
;
_chemical_formula_sum "Si O2"
_cell_formula_units_Z 20
_cell_length_a 11.085394
_cell_length_b 11.783056
_cell_length_c 10.181346
_cell_angle_alpha 90.000000
_cell_angle_beta 48.508104
_cell_angle_gamma 90.000000
_cell_volume 996.150031
_symmetry_space_group_name_H-M "P 2/M"
_symmetry_group_IT_number 10
_symmetry_cell_setting 'monoclinic'
loop_
_space_group_symop_operation_xyz
x,y,z
-x,y,-z
-x,-y,-z
x,-y,z
loop_
_atom_site_type_symbol
_atom_site_label
_atom_site_fract_x
_atom_site_fract_y
_atom_site_fract_z
Si Si1 0.024210 0.500000 0.325365
Si Si2 0.673751 0.287642 0.413419
Si Si3 0.578892 0.365008 0.766918
Si Si4 0.243587 0.286743 0.115229
Si Si5 0.016736 0.866870 0.830643
Si Si6 0.165035 0.500000 0.794671
O O1 0.880412 0.500000 0.326455
O O2 0.000000 0.500000 0.500000
O O3 0.121051 0.390010 0.213378
O O4 0.500000 0.236620 0.500000
O O5 0.637914 0.345125 0.578698
O O6 0.730981 0.385329 0.268866
O O7 0.820740 0.200762 0.322328
O O8 0.592240 0.500000 0.792397
O O9 0.683553 0.286322 0.790013
O O10 0.396559 0.323741 0.918949
O O11 0.139381 0.184706 0.130859
O O12 0.031247 0.000000 0.791631
O O13 0.000000 0.851998 0.000000
O O14 0.000000 0.500000 0.000000
#
# Coordination Sequence:
#
# PCOD9154633 Si02
#       6
#     2   4   4   4   4   2
#     4  12  22  35  66  97 137 172 212 259 327 403
#     4  12  25  40  64  98 135 170 218 270 331 389
#     4  11  22  39  64 102 142 175 202 264 332 414
#     4  11  22  40  66  96 132 177 217 258 329 396
#     4  11  26  48  68  89 124 176 230 280 328 380
#     4  12  25  36  60  99 136 168 212 268 335 399
#
# _framework density 20.077297000000002
#
# number of rings (size 3 to 8) (size 9 to 14) (size 15 to 20)
#    0.000    0.600    5.000    3.900    2.800    0.400 
#    0.000    5.000    0.000    0.000    0.000    0.000 
#    0.000    0.000    0.000    0.000    0.000    0.000 
#
# Total GULP energy -111695.592567 kJ/mol
# GULP energy per Si atom -5584.779628 kJ/mol
# Density = 2.003160 g / cm^3
# Si number density = 20.077297 Si / 1000 Ang^3
#
#
#
# Elastic Constant Matrix: (Units=GPa)
#
#
# Indices 1 2 3 4 5 6 
#
# 1 134.2862 46.1512 43.4132 0.0000 -15.9231 0.0000
# 2 46.1512 108.5544 44.7017 0.0000 -17.9228 0.0000
# 3 43.4132 44.7017 109.8689 0.0000 -16.0069 0.0000
# 4 0.0000 0.0000 0.0000 3.3812 0.0000 15.4355
# 5 -15.9231 -17.9228 -16.0069 0.0000 36.8626 0.0000
# 6 0.0000 0.0000 0.0000 15.4355 0.0000 9.7049
#
#
#
# Elastic Compliance Matrix: (Units=1/GPa)
#
#
# Indices 1 2 3 4 5 6 
#
# 1 0.009340 -0.002731 -0.002333 0.000000 0.001694 0.000000
# 2 -0.002731 0.012346 -0.003460 0.000000 0.003321 0.000000
# 3 -0.002333 -0.003460 0.011785 0.000000 0.002427 0.000000
# 4 0.000000 0.000000 0.000000 -0.047239 0.000000 0.075133
# 5 0.001694 0.003321 0.002427 0.000000 0.030528 0.000000
# 6 0.000000 0.000000 0.000000 0.075133 0.000000 -0.016458
#
#
# Mechanical properties :
#
#
# Convention : Reuss Voigt Hill
#
# Bulk Modulus (GPa) = 60.88800 69.02686 64.95743
# Shear Modulus (GPa) = 219.06000 24.55263 121.80631
#
# Velocity S-wave (km/s) = 10.45682 3.50080 7.79746
# Velocity P-wave (km/s) = 13.27351 7.12713 10.65322
#
# Compressibility (1/GPa) = 0.01642360
#
# Stress axis : x y z
#
# Youngs Moduli (GPa) = 107.06299 80.99727 84.85269
#
# Poissons Ratio (x) = 0.22117 0.19795
# Poissons Ratio (y) = 0.29235 0.29363
# Poissons Ratio (z) = 0.24977 0.28029
#
# Static dielectric constant tensor:
#      x y z
#    x 1.826780 0.000000 -0.010900 
#    y 0.000000 1.662090 0.000000 
#    z -0.010900 0.000000 1.723400 
# 
# From -- ./inp_files/46463.got.cif
#   From: 2010.05.17/outbox.cif.g08.bks.cpg/sg10_24_cif.got.tgz:46463.got - 2010.06.03 11:33:40.
