data_PCOD9154334
_publ_section_title
;
Structure prediction by ZEFSAII (Michael W. Deem and Ramdas Pophale) SiO2 
 PCOD9154334
Probable space group: P 2/M
;
_chemical_formula_sum "Si O2"
_cell_formula_units_Z 16
_cell_length_a 15.681693
_cell_length_b 5.270486
_cell_length_c 10.039544
_cell_angle_alpha 90.000000
_cell_angle_beta 76.951177
_cell_angle_gamma 90.000000
_cell_volume 808.343458
_symmetry_space_group_name_H-M "P 2/M"
_symmetry_group_IT_number 10
_symmetry_cell_setting 'monoclinic'
loop_
_space_group_symop_operation_xyz
x,y,z
-x,y,-z
-x,-y,-z
x,-y,z
loop_
_atom_site_type_symbol
_atom_site_label
_atom_site_fract_x
_atom_site_fract_y
_atom_site_fract_z
Si Si1 0.127823 0.500000 0.777810
Si Si2 0.584639 0.500000 0.217849
Si Si3 0.236361 0.500000 0.010698
Si Si4 0.515797 0.000000 0.836804
Si Si5 0.817351 0.000000 0.811719
Si Si6 0.985131 0.000000 0.165046
Si Si7 0.307332 0.500000 0.551416
Si Si8 0.693377 0.000000 0.625955
O O1 0.069844 0.750054 0.780647
O O2 0.211401 0.500000 0.652266
O O3 0.166821 0.500000 0.914058
O O4 0.528608 0.249753 0.209168
O O5 0.623120 0.500000 0.352986
O O6 0.667894 0.500000 0.088876
O O7 0.220526 0.249805 0.102963
O O8 0.617568 0.000000 0.763759
O O9 0.500000 0.000000 0.000000
O O10 0.785091 0.000000 0.671537
O O11 0.921256 0.000000 0.796636
O O12 0.000000 0.000000 0.000000
O O13 0.316779 0.249264 0.459809
#
# Coordination Sequence:
#
# PCOD9154334 Si02
#       8
#     2   2   2   2   2   2   2   2
#     4  11  22  40  64  95 128 163 206 271 311 375
#     4  11  24  41  68  96 124 173 213 259 314 372
#     4  11  20  38  62  94 129 159 204 265 327 385
#     4  12  25  43  68 100 132 158 209 269 331 372
#     4  12  24  38  63  94 130 166 210 259 336 372
#     4  12  21  38  65 102 129 156 212 267 326 378
#     4  11  26  46  66  90 130 176 224 248 305 378
#     4  12  26  45  63  90 131 175 211 264 310 381
#
# _framework density 19.793565000000001
#
# number of rings (size 3 to 8) (size 9 to 14) (size 15 to 20)
#    0.000    0.500    2.500    6.750    0.000    7.000 
#    0.000    3.750    0.000    0.000    0.000    0.000 
#    0.000    0.000    0.000    0.000    0.000    0.000 
#
# Total GULP energy -89611.381785 kJ/mol
# GULP energy per Si atom -5600.711362 kJ/mol
# Density = 1.974851 g / cm^3
# Si number density = 19.793565 Si / 1000 Ang^3
#
#
#
# Elastic Constant Matrix: (Units=GPa)
#
#
# Indices 1 2 3 4 5 6 
#
# 1 124.5264 52.0241 39.4288 0.0000 14.9540 0.0000
# 2 52.0241 195.9943 52.4065 0.0000 7.3659 0.0000
# 3 39.4288 52.4065 105.1378 0.0000 11.7587 0.0000
# 4 0.0000 0.0000 0.0000 23.3021 0.0000 -35.8041
# 5 14.9540 7.3659 11.7587 0.0000 24.0535 0.0000
# 6 0.0000 0.0000 0.0000 -35.8041 0.0000 -12.7367
#
#
#
# Elastic Compliance Matrix: (Units=1/GPa)
#
#
# Indices 1 2 3 4 5 6 
#
# 1 0.010107 -0.001886 -0.002340 0.000000 -0.004562 0.000000
# 2 -0.001886 0.006242 -0.002456 0.000000 0.000461 0.000000
# 3 -0.002340 -0.002456 0.012024 0.000000 -0.003671 0.000000
# 4 0.000000 0.000000 0.000000 0.008068 0.000000 -0.022679
# 5 -0.004562 0.000461 -0.003671 0.000000 0.046063 0.000000
# 6 0.000000 0.000000 0.000000 -0.022679 0.000000 -0.014760
#
#
# Mechanical properties :
#
#
# Convention : Reuss Voigt Hill
#
# Bulk Modulus (GPa) = 66.62498 79.26416 72.94457
# Shear Modulus (GPa) = 58.06513 25.71037 41.88775
#
# Velocity S-wave (km/s) = 5.42209 3.60797 4.60524
# Velocity P-wave (km/s) = 8.54001 7.58215 8.07529
#
# Compressibility (1/GPa) = 0.01500939
#
# Stress axis : x y z
#
# Youngs Moduli (GPa) = 98.94132 160.20477 83.16946
#
# Poissons Ratio (x) = 0.30208 0.19464
# Poissons Ratio (y) = 0.18656 0.20425
# Poissons Ratio (z) = 0.23155 0.39344
#
# Static dielectric constant tensor:
#      x y z
#    x 1.678710 0.000000 -0.002920 
#    y 0.000000 1.666190 0.000000 
#    z -0.002920 0.000000 1.670190 
# 
# From -- ./inp_files/26395.got.cif
#   From: 2010.05.17/outbox.cif.g08.bks.cpg/sg10_14_cif.got.tgz:26395.got - 2010.06.03 11:33:40.
