data_PCOD9154359
_publ_section_title
;
Structure prediction by ZEFSAII (Michael W. Deem and Ramdas Pophale) SiO2 
 PCOD9154359
Probable space group: P 2/M
;
_chemical_formula_sum "Si O2"
_cell_formula_units_Z 24
_cell_length_a 20.968057
_cell_length_b 7.646641
_cell_length_c 7.645683
_cell_angle_alpha 90.000000
_cell_angle_beta 50.907718
_cell_angle_gamma 90.000000
_cell_volume 951.437810
_symmetry_space_group_name_H-M "P 2/M"
_symmetry_group_IT_number 10
_symmetry_cell_setting 'monoclinic'
loop_
_space_group_symop_operation_xyz
x,y,z
-x,y,-z
-x,-y,-z
x,-y,z
loop_
_atom_site_type_symbol
_atom_site_label
_atom_site_fract_x
_atom_site_fract_y
_atom_site_fract_z
Si Si1 0.058956 0.207366 0.655031
Si Si2 0.553615 0.786518 0.651110
Si Si3 0.110510 0.209997 0.162433
Si Si4 0.231552 0.694670 0.492338
Si Si5 0.282926 0.804067 0.766249
Si Si6 0.385293 0.209365 0.060667
O O1 0.083536 0.229155 0.409064
O O2 0.135534 0.286445 0.623073
O O3 0.965142 0.274432 0.827253
O O4 0.057794 0.000000 0.696369
O O5 0.626112 0.724147 0.398223
O O6 0.583533 0.745111 0.796860
O O7 0.553421 0.000000 0.635987
O O8 0.458941 0.728397 0.807563
O O9 0.116048 0.000000 0.119018
O O10 0.201476 0.284233 0.982497
O O11 0.249296 0.500000 0.522776
O O12 0.258211 0.818085 0.603994
O O13 0.291035 0.728849 0.222861
O O14 0.290571 0.000000 0.830521
O O15 0.383644 0.000000 0.051080
#
# Coordination Sequence:
#
# PCOD9154359 Si02
#       6
#     4   4   4   4   4   4
#     4   9  17  33  52  70  90 117 152 191 228 270
#     4   7  11  21  42  67  89 112 145 184 226 267
#     4   8  16  31  54  74  87 111 154 194 228 271
#     4  11  21  30  42  68  98 125 154 186 222 267
#     4   9  16  30  50  72  94 118 147 188 233 271
#     4   8  13  25  43  63  87 119 151 185 224 264
#
# _framework density 25.224976999999999
#
# number of rings (size 3 to 8) (size 9 to 14) (size 15 to 20)
#    0.000    3.333    0.000    4.500    0.000    0.667 
#    0.000   13.333    0.000    1.000    0.000    7.000 
#    0.000    0.000    0.000    0.000    0.000    0.000 
#
# Total GULP energy -133825.026223 kJ/mol
# GULP energy per Si atom -5576.042759 kJ/mol
# Density = 2.516756 g / cm^3
# Si number density = 25.224977 Si / 1000 Ang^3
#
#
#
# Elastic Constant Matrix: (Units=GPa)
#
#
# Indices 1 2 3 4 5 6 
#
# 1 96.0803 4.7611 33.6855 0.0000 -22.3036 0.0000
# 2 4.7611 65.0344 8.7668 0.0000 3.0235 0.0000
# 3 33.6855 8.7668 206.0808 0.0000 -21.6639 0.0000
# 4 0.0000 0.0000 0.0000 66.8971 0.0000 -49.6373
# 5 -22.3036 3.0235 -21.6639 0.0000 -23.6009 0.0000
# 6 0.0000 0.0000 0.0000 -49.6373 0.0000 16.1970
#
#
#
# Elastic Compliance Matrix: (Units=1/GPa)
#
#
# Indices 1 2 3 4 5 6 
#
# 1 0.009599 -0.000069 -0.002299 0.000000 -0.006970 0.000000
# 2 -0.000069 0.015323 -0.000390 0.000000 0.002386 0.000000
# 3 -0.002299 -0.000390 0.004987 0.000000 -0.002455 0.000000
# 4 0.000000 0.000000 0.000000 -0.011734 0.000000 -0.035960
# 5 -0.006970 0.002386 -0.002455 0.000000 -0.033225 0.000000
# 6 0.000000 0.000000 0.000000 -0.035960 0.000000 -0.048465
#
#
# Mechanical properties :
#
#
# Convention : Reuss Voigt Hill
#
# Bulk Modulus (GPa) = 40.99332 51.29136 46.14234
# Shear Modulus (GPa) = -100.26425 33.23079 -33.51673
#
# Velocity S-wave (km/s) = -6.31144 3.63351 -3.64910
# Velocity P-wave (km/s) = 6.06845 6.16286 0.75987
#
# Compressibility (1/GPa) = 0.02439422
#
# Stress axis : x y z
#
# Youngs Moduli (GPa) = 104.17411 65.26076 200.53137
#
# Poissons Ratio (x) = 0.00449 0.46100
# Poissons Ratio (y) = 0.00717 0.07817
# Poissons Ratio (z) = 0.23948 0.02544
#
# Static dielectric constant tensor:
#      x y z
#    x 1.996220 0.000000 -0.012200 
#    y 0.000000 1.932170 0.000000 
#    z -0.012200 0.000000 2.096270 
# 
# From -- ./inp_files/52614.got.cif
#   From: 2010.05.17/outbox.cif.g08.bks.cpg/sg10_27_cif.got.tgz:52614.got - 2010.06.03 11:33:40.
