data_PCOD9154448
_publ_section_title
;
Structure prediction by ZEFSAII (Michael W. Deem and Ramdas Pophale) SiO2 
 PCOD9154448
Probable space group: P 2/M
;
_chemical_formula_sum "Si O2"
_cell_formula_units_Z 28
_cell_length_a 22.476305
_cell_length_b 8.677640
_cell_length_c 14.965010
_cell_angle_alpha 90.000000
_cell_angle_beta 149.808231
_cell_angle_gamma 90.000000
_cell_volume 1467.849569
_symmetry_space_group_name_H-M "P 2/M"
_symmetry_group_IT_number 10
_symmetry_cell_setting 'monoclinic'
loop_
_space_group_symop_operation_xyz
x,y,z
-x,y,-z
-x,-y,-z
x,-y,z
loop_
_atom_site_type_symbol
_atom_site_label
_atom_site_fract_x
_atom_site_fract_y
_atom_site_fract_z
Si Si1 0.620710 0.812994 0.046662
Si Si2 0.350614 0.186770 0.711892
Si Si3 0.758613 0.817219 0.718846
Si Si4 0.879042 0.683828 0.050071
Si Si5 0.721957 0.183995 0.994325
Si Si6 0.138079 0.316331 0.318896
Si Si7 0.504559 0.317695 0.399067
O O1 0.483479 0.767053 0.855023
O O2 0.701883 0.761913 0.070111
O O3 0.619977 0.000000 0.045018
O O4 0.659499 0.768569 0.196656
O O5 0.248779 0.261402 0.521258
O O6 0.342716 0.000000 0.694923
O O7 0.801730 0.759790 0.871152
O O8 0.849927 0.763019 0.761788
O O9 0.632004 0.741364 0.532968
O O10 0.746494 0.000000 0.702684
O O11 0.865041 0.500000 0.025399
O O12 0.829080 0.740330 0.079546
O O13 0.015212 0.723982 0.207783
O O14 0.601886 0.228748 0.786262
O O15 0.736085 0.000000 0.011763
O O16 0.141233 0.500000 0.310515
O O17 0.500000 0.292682 0.500000
O O18 0.491837 0.500000 0.366018
#
# Coordination Sequence:
#
# PCOD9154448 Si02
#       7
#     4   4   4   4   4   4   4
#     4   8  17  34  59  90 117 143 177 229 290 339
#     4   9  17  36  63  87 114 145 183 230 283 340
#     4  12  24  38  60  86 111 145 193 241 283 334
#     4  11  24  41  56  76 113 157 193 233 284 339
#     4  11  21  35  58  87 117 150 193 238 282 333
#     4  11  24  40  58  81 113 150 191 236 286 341
#     4  11  22  36  56  82 118 154 183 223 281 338
#
# _framework density 19.075524000000001
#
# number of rings (size 3 to 8) (size 9 to 14) (size 15 to 20)
#    0.000    1.571    1.429    5.143    0.000    5.714 
#    0.000    4.286    0.000    4.286    0.000    0.000 
#    0.000    0.000    0.000    0.000    0.000    0.000 
#
# Total GULP energy -156509.283276 kJ/mol
# GULP energy per Si atom -5589.617260 kJ/mol
# Density = 1.903211 g / cm^3
# Si number density = 19.075524 Si / 1000 Ang^3
#
#
#
# Elastic Constant Matrix: (Units=GPa)
#
#
# Indices 1 2 3 4 5 6 
#
# 1 140.0815 13.2955 13.2243 0.0000 14.3403 0.0000
# 2 13.2955 16.2253 -2.4966 0.0000 5.6384 0.0000
# 3 13.2243 -2.4966 27.4652 0.0000 6.5493 0.0000
# 4 0.0000 0.0000 0.0000 9.3860 0.0000 10.7857
# 5 14.3403 5.6384 6.5493 0.0000 24.0081 0.0000
# 6 0.0000 0.0000 0.0000 10.7857 0.0000 27.0165
#
#
#
# Elastic Compliance Matrix: (Units=1/GPa)
#
#
# Indices 1 2 3 4 5 6 
#
# 1 0.008400 -0.006707 -0.004100 0.000000 -0.002324 0.000000
# 2 -0.006707 0.075445 0.014286 0.000000 -0.017610 0.000000
# 3 -0.004100 0.014286 0.042675 0.000000 -0.012548 0.000000
# 4 0.000000 0.000000 0.000000 0.196848 0.000000 -0.078587
# 5 -0.002324 -0.017610 -0.012548 0.000000 0.050599 0.000000
# 6 0.000000 0.000000 0.000000 -0.078587 0.000000 0.068388
#
#
# Mechanical properties :
#
#
# Convention : Reuss Voigt Hill
#
# Bulk Modulus (GPa) = 7.49180 25.75760 16.62470
# Shear Modulus (GPa) = 10.41907 22.73205 16.57556
#
# Velocity S-wave (km/s) = 2.33963 3.45583 2.95098
# Velocity P-wave (km/s) = 3.35178 5.42733 4.51056
#
# Compressibility (1/GPa) = 0.13347930
#
# Stress axis : x y z
#
# Youngs Moduli (GPa) = 119.04453 13.25464 23.43317
#
# Poissons Ratio (x) = 0.08889 0.09608
# Poissons Ratio (y) = 0.79839 -0.33477
# Poissons Ratio (z) = 0.48809 -0.18936
#
# Static dielectric constant tensor:
#      x y z
#    x 1.690250 0.000000 0.006890 
#    y 0.000000 1.638530 0.000000 
#    z 0.006890 0.000000 1.630570 
# 
# From -- ./inp_files/49363.got.cif
#   From: 2010.05.17/outbox.cif.g08.bks.cpg/sg10_25_cif.got.tgz:49363.got - 2010.06.03 11:33:40.
