data_PCOD9154008
_publ_section_title
;
Structure prediction by ZEFSAII (Michael W. Deem and Ramdas Pophale) SiO2 
 PCOD9154008
Probable space group: P 2/M
;
_chemical_formula_sum "Si O2"
_cell_formula_units_Z 24
_cell_length_a 14.359612
_cell_length_b 14.181833
_cell_length_c 12.139719
_cell_angle_alpha 90.000000
_cell_angle_beta 31.464346
_cell_angle_gamma 90.000000
_cell_volume 1290.409310
_symmetry_space_group_name_H-M "P 2/M"
_symmetry_group_IT_number 10
_symmetry_cell_setting 'monoclinic'
loop_
_space_group_symop_operation_xyz
x,y,z
-x,y,-z
-x,-y,-z
x,-y,z
loop_
_atom_site_type_symbol
_atom_site_label
_atom_site_fract_x
_atom_site_fract_y
_atom_site_fract_z
Si Si1 0.362556 0.891796 0.970109
Si Si2 0.716065 0.607888 0.290085
Si Si3 0.059368 0.299786 0.562766
Si Si4 0.740470 0.707606 0.044546
Si Si5 0.640855 0.387749 0.605934
Si Si6 0.764085 0.891935 0.650961
O O1 0.295053 0.816704 0.949774
O O2 0.575515 0.882862 0.777312
O O3 0.325665 0.000000 0.976867
O O4 0.277953 0.874978 0.177013
O O5 0.500000 0.604653 0.500000
O O6 0.779469 0.500000 0.207343
O O7 0.778653 0.678182 0.131891
O O8 0.744426 0.637779 0.387531
O O9 0.241026 0.351147 0.413422
O O10 0.102912 0.188051 0.523603
O O11 0.000000 0.323388 0.500000
O O12 0.902187 0.324891 0.804798
O O13 0.555426 0.656367 0.198730
O O14 0.624349 0.500000 0.622698
O O15 0.826878 0.000000 0.575783
#
# Coordination Sequence:
#
# PCOD9154008 Si02
#       6
#     4   4   4   4   4   4
#     4   9  17  32  59  85 113 154 192 228 278 337
#     4   8  17  37  63  84 102 143 200 242 281 331
#     4  12  24  35  57  89 120 151 190 228 284 353
#     4  11  20  35  62  87 116 146 190 238 284 335
#     4  10  23  43  61  79 113 152 193 247 287 324
#     4   9  18  35  56  82 117 155 193 230 271 333
#
# _framework density 18.598749999999999
#
# number of rings (size 3 to 8) (size 9 to 14) (size 15 to 20)
#    0.000    2.167    3.333    2.500    0.000    4.000 
#    0.000    2.500    0.000    5.500    0.000    2.333 
#    0.000    0.000    0.000    0.000    0.000    0.000 
#
# Total GULP energy -133954.793906 kJ/mol
# GULP energy per Si atom -5581.449746 kJ/mol
# Density = 1.855642 g / cm^3
# Si number density = 18.598750 Si / 1000 Ang^3
#
#
#
# Elastic Constant Matrix: (Units=GPa)
#
#
# Indices 1 2 3 4 5 6 
#
# 1 46.4344 12.7143 10.9794 0.0000 -4.8255 0.0000
# 2 12.7143 60.3493 27.0692 0.0000 6.5990 0.0000
# 3 10.9794 27.0692 79.7224 0.0000 -0.4494 0.0000
# 4 0.0000 0.0000 0.0000 -2.7484 0.0000 91.2762
# 5 -4.8255 6.5990 -0.4494 0.0000 21.7193 0.0000
# 6 0.0000 0.0000 0.0000 91.2762 0.0000 -233.3607
#
#
#
# Elastic Compliance Matrix: (Units=1/GPa)
#
#
# Indices 1 2 3 4 5 6 
#
# 1 0.024013 -0.005123 -0.001529 0.000000 0.006860 0.000000
# 2 -0.005123 0.021477 -0.006631 0.000000 -0.007801 0.000000
# 3 -0.001529 -0.006631 0.015017 0.000000 0.001986 0.000000
# 4 0.000000 0.000000 0.000000 0.030346 0.000000 0.011869
# 5 0.006860 -0.007801 0.001986 0.000000 0.049977 0.000000
# 6 0.000000 0.000000 0.000000 0.011869 0.000000 0.000357
#
#
# Mechanical properties :
#
#
# Convention : Reuss Voigt Hill
#
# Bulk Modulus (GPa) = 29.46319 32.00354 30.73337
# Shear Modulus (GPa) = 27.92258 -33.82841 -2.95291
#
# Velocity S-wave (km/s) = 3.87888 -4.26943 -1.26140
# Velocity P-wave (km/s) = 5.99474 2.65694 3.79984
#
# Compressibility (1/GPa) = 0.03394065
#
# Stress axis : x y z
#
# Youngs Moduli (GPa) = 41.64411 46.56207 66.59270
#
# Poissons Ratio (x) = 0.23856 0.10181
# Poissons Ratio (y) = 0.21336 0.44155
# Poissons Ratio (z) = 0.06367 0.30874
#
# Static dielectric constant tensor:
#      x y z
#    x 1.656520 0.000000 -0.017040 
#    y 0.000000 1.635760 0.000000 
#    z -0.017040 0.000000 1.661380 
# 
# From -- ./inp_files/51547.got.cif
#   From: 2010.05.17/outbox.cif.g08.bks.cpg/sg10_26_cif.got.tgz:51547.got - 2010.06.03 11:33:40.
