data_PCOD9154015
_publ_section_title
;
Structure prediction by ZEFSAII (Michael W. Deem and Ramdas Pophale) SiO2 
 PCOD9154015
Probable space group: P 2/M
;
_chemical_formula_sum "Si O2"
_cell_formula_units_Z 32
_cell_length_a 12.084448
_cell_length_b 8.682706
_cell_length_c 22.356164
_cell_angle_alpha 90.000000
_cell_angle_beta 143.173581
_cell_angle_gamma 90.000000
_cell_volume 1406.017371
_symmetry_space_group_name_H-M "P 2/M"
_symmetry_group_IT_number 10
_symmetry_cell_setting 'monoclinic'
loop_
_space_group_symop_operation_xyz
x,y,z
-x,y,-z
-x,-y,-z
x,-y,z
loop_
_atom_site_type_symbol
_atom_site_label
_atom_site_fract_x
_atom_site_fract_y
_atom_site_fract_z
Si Si1 0.569918 0.319626 0.183910
Si Si2 0.889085 0.182255 0.393731
Si Si3 0.780290 0.318125 0.527436
Si Si4 0.746538 0.177646 0.021398
Si Si5 0.783566 0.180517 0.652301
Si Si6 0.595501 0.683226 0.688792
Si Si7 0.816491 0.321225 0.171730
Si Si8 0.890385 0.181075 0.895391
O O1 0.530492 0.500000 0.173786
O O2 0.384162 0.226945 0.089887
O O3 0.690327 0.297249 0.175127
O O4 0.698292 0.261905 0.293316
O O5 0.036538 0.221543 0.405846
O O6 0.000000 0.240120 0.500000
O O7 0.860126 0.000000 0.386681
O O8 0.821760 0.500000 0.542107
O O9 0.711759 0.274336 0.563789
O O10 0.620540 0.278334 0.410884
O O11 0.710372 0.000000 0.020910
O O12 0.715114 0.282545 0.065719
O O13 0.958133 0.192556 0.091905
O O14 0.692914 0.237239 0.674286
O O15 0.002072 0.216048 0.749138
O O16 0.749906 0.000000 0.629591
O O17 0.611999 0.500000 0.689837
O O18 0.704438 0.736992 0.794439
O O19 0.875382 0.500000 0.197303
O O20 0.851923 0.000000 0.889153
O O21 0.000000 0.243985 0.000000
#
# Coordination Sequence:
#
# PCOD9154015 Si02
#       8
#     4   4   4   4   4   4   4   4
#     4  11  24  41  64  92 126 167 205 252 313 375
#     4  11  25  44  66  92 123 163 212 264 313 367
#     4  11  24  42  64  94 128 165 206 254 312 372
#     4  11  23  39  63  94 126 164 208 258 309 367
#     4  12  23  37  63  95 127 165 205 251 310 373
#     4  11  24  41  64  93 127 164 206 257 310 373
#     4  11  22  38  62  92 127 164 202 250 310 374
#     4  10  23  43  64  88 122 164 210 259 311 366
#
# _framework density 22.759321
#
# number of rings (size 3 to 8) (size 9 to 14) (size 15 to 20)
#    0.000    1.000    2.500    4.125    0.000    9.250 
#    0.000    3.750    0.000    0.000    0.000    0.000 
#    0.000    0.000    0.000    0.000    0.000    0.000 
#
# Total GULP energy -179150.419441 kJ/mol
# GULP energy per Si atom -5598.450608 kJ/mol
# Density = 2.270752 g / cm^3
# Si number density = 22.759321 Si / 1000 Ang^3
#
#
#
# Elastic Constant Matrix: (Units=GPa)
#
#
# Indices 1 2 3 4 5 6 
#
# 1 24.5762 -5.5705 1.4734 0.0000 -5.8506 0.0000
# 2 -5.5705 40.5746 12.5299 0.0000 9.3596 0.0000
# 3 1.4734 12.5299 146.1039 0.0000 -4.3752 0.0000
# 4 0.0000 0.0000 0.0000 34.7653 0.0000 -23.7084
# 5 -5.8506 9.3596 -4.3752 0.0000 39.0608 0.0000
# 6 0.0000 0.0000 0.0000 -23.7084 0.0000 -36.8157
#
#
#
# Elastic Compliance Matrix: (Units=1/GPa)
#
#
# Indices 1 2 3 4 5 6 
#
# 1 0.043087 0.004934 -0.000702 0.000000 0.005193 0.000000
# 2 0.004934 0.027544 -0.002596 0.000000 -0.006152 0.000000
# 3 -0.000702 -0.002596 0.007114 0.000000 0.001314 0.000000
# 4 0.000000 0.000000 0.000000 0.019987 0.000000 -0.012871
# 5 0.005193 -0.006152 0.001314 0.000000 0.028000 0.000000
# 6 0.000000 0.000000 0.000000 -0.012871 0.000000 -0.018874
#
#
# Mechanical properties :
#
#
# Convention : Reuss Voigt Hill
#
# Bulk Modulus (GPa) = 12.34321 25.34673 18.84497
# Shear Modulus (GPa) = 38.28752 20.92354 29.60553
#
# Velocity S-wave (km/s) = 4.10601 3.03535 3.61059
# Velocity P-wave (km/s) = 5.28339 4.84206 5.06753
#
# Compressibility (1/GPa) = 0.08101619
#
# Stress axis : x y z
#
# Youngs Moduli (GPa) = 23.20911 36.30532 140.57751
#
# Poissons Ratio (x) = -0.17914 0.09871
# Poissons Ratio (y) = -0.11452 0.36496
# Poissons Ratio (z) = 0.01630 0.09426
#
# Static dielectric constant tensor:
#      x y z
#    x 1.869280 0.000000 -0.026460 
#    y 0.000000 1.753010 0.000000 
#    z -0.026460 0.000000 1.892700 
# 
# From -- ./inp_files/89608.got.cif
#   From: 2010.05.17/outbox.cif.g08.bks.cpg/sg10_45_cif.got.tgz:89608.got - 2010.06.03 11:33:40.
