data_PCOD9154209
_publ_section_title
;
Structure prediction by ZEFSAII (Michael W. Deem and Ramdas Pophale) SiO2 
 PCOD9154209
Probable space group: P 2/M
;
_chemical_formula_sum "Si O2"
_cell_formula_units_Z 18
_cell_length_a 13.185991
_cell_length_b 11.475505
_cell_length_c 10.311578
_cell_angle_alpha 90.000000
_cell_angle_beta 145.458270
_cell_angle_gamma 90.000000
_cell_volume 884.703228
_symmetry_space_group_name_H-M "P 2/M"
_symmetry_group_IT_number 10
_symmetry_cell_setting 'monoclinic'
loop_
_space_group_symop_operation_xyz
x,y,z
-x,y,-z
-x,-y,-z
x,-y,z
loop_
_atom_site_type_symbol
_atom_site_label
_atom_site_fract_x
_atom_site_fract_y
_atom_site_fract_z
Si Si1 0.468758 0.862645 0.118930
Si Si2 0.236534 0.500000 0.963580
Si Si3 0.613733 0.500000 0.246806
Si Si4 0.711796 0.500000 0.691961
Si Si5 0.764957 0.703486 0.543426
Si Si6 0.092457 0.251066 0.736035
O O1 0.265292 0.829336 0.934071
O O2 0.500951 0.000000 0.163508
O O3 0.500000 0.828796 0.000000
O O4 0.601045 0.792043 0.353102
O O5 0.163214 0.383854 0.820384
O O6 0.452706 0.500000 0.181736
O O7 0.188652 0.500000 0.065114
O O8 0.733224 0.612178 0.391949
O O9 0.500000 0.500000 0.000000
O O10 0.500000 0.500000 0.500000
O O11 0.758858 0.617208 0.660196
O O12 0.950383 0.764024 0.702884
O O13 0.000000 0.227935 0.500000
#
# Coordination Sequence:
#
# PCOD9154209 Si02
#       6
#     4   2   2   2   4   4
#     4  11  23  41  63  90 125 164 211 265 314 368
#     4  12  22  37  62  93 130 162 201 248 301 383
#     4  11  18  33  60  87 128 156 186 246 316 372
#     4  11  21  41  64  91 128 170 209 244 308 374
#     4  11  22  38  61  91 125 165 204 252 306 375
#     4  12  23  38  61  95 130 161 200 254 319 372
#
# _framework density 20.345806
#
# number of rings (size 3 to 8) (size 9 to 14) (size 15 to 20)
#    0.000    0.667    6.667    3.667    0.000    3.111 
#    0.000    0.000    0.000    6.000    0.000    7.778 
#    0.000    0.000    0.000    0.000    0.000    0.000 
#
# Total GULP energy -100597.325488 kJ/mol
# GULP energy per Si atom -5588.740305 kJ/mol
# Density = 2.029950 g / cm^3
# Si number density = 20.345806 Si / 1000 Ang^3
#
#
#
# Elastic Constant Matrix: (Units=GPa)
#
#
# Indices 1 2 3 4 5 6 
#
# 1 115.3517 12.1098 37.2310 0.0000 9.5922 0.0000
# 2 12.1098 66.1579 16.4953 0.0000 -3.7774 0.0000
# 3 37.2310 16.4953 53.8315 0.0000 21.5855 0.0000
# 4 0.0000 0.0000 0.0000 5.2078 0.0000 -5.1135
# 5 9.5922 -3.7774 21.5855 0.0000 44.4074 0.0000
# 6 0.0000 0.0000 0.0000 -5.1135 0.0000 9.1971
#
#
#
# Elastic Compliance Matrix: (Units=1/GPa)
#
#
# Indices 1 2 3 4 5 6 
#
# 1 0.011262 0.000165 -0.008533 0.000000 0.001729 0.000000
# 2 0.000165 0.017219 -0.007407 0.000000 0.005030 0.000000
# 3 -0.008533 -0.007407 0.032619 0.000000 -0.014642 0.000000
# 4 0.000000 0.000000 0.000000 0.422878 0.000000 0.235116
# 5 0.001729 0.005030 -0.014642 0.000000 0.029690 0.000000
# 6 0.000000 0.000000 0.000000 0.235116 0.000000 0.239452
#
#
# Mechanical properties :
#
#
# Convention : Reuss Voigt Hill
#
# Bulk Modulus (GPa) = 33.84104 40.77923 37.31013
# Shear Modulus (GPa) = 6.29310 23.06282 14.67796
#
# Velocity S-wave (km/s) = 1.76062 3.37046 2.68885
# Velocity P-wave (km/s) = 4.56093 5.93576 5.29317
#
# Compressibility (1/GPa) = 0.02954992
#
# Stress axis : x y z
#
# Youngs Moduli (GPa) = 88.79296 58.07477 30.65693
#
# Poissons Ratio (x) = -0.00957 0.26159
# Poissons Ratio (y) = -0.01463 0.22708
# Poissons Ratio (z) = 0.75766 0.43016
#
# Static dielectric constant tensor:
#      x y z
#    x 1.838290 0.000000 0.009370 
#    y 0.000000 1.686460 0.000000 
#    z 0.009370 0.000000 1.744860 
# 
# From -- ./inp_files/50887.got.cif
#   From: 2010.05.17/outbox.cif.g08.bks.cpg/sg10_26_cif.got.tgz:50887.got - 2010.06.03 11:33:40.
