data_PCOD9154242
_publ_section_title
;
Structure prediction by ZEFSAII (Michael W. Deem and Ramdas Pophale) SiO2 
 PCOD9154242
Probable space group: P 2/M
;
_chemical_formula_sum "Si O2"
_cell_formula_units_Z 32
_cell_length_a 10.217238
_cell_length_b 18.287332
_cell_length_c 13.508020
_cell_angle_alpha 90.000000
_cell_angle_beta 144.990883
_cell_angle_gamma 90.000000
_cell_volume 1447.989898
_symmetry_space_group_name_H-M "P 2/M"
_symmetry_group_IT_number 10
_symmetry_cell_setting 'monoclinic'
loop_
_space_group_symop_operation_xyz
x,y,z
-x,y,-z
-x,-y,-z
x,-y,z
loop_
_atom_site_type_symbol
_atom_site_label
_atom_site_fract_x
_atom_site_fract_y
_atom_site_fract_z
Si Si1 0.797908 0.619736 0.947884
Si Si2 0.819632 0.720308 0.299439
Si Si3 0.473771 0.852230 0.097258
Si Si4 0.128593 0.581306 0.780451
Si Si5 0.958556 0.787559 0.081474
Si Si6 0.788009 0.917454 0.439785
Si Si7 0.597275 0.371120 0.449378
Si Si8 0.780747 0.783793 0.577043
O O1 0.568987 0.605831 0.742786
O O2 0.807330 0.587751 0.063987
O O3 0.855344 0.706084 0.001859
O O4 0.000000 0.593262 0.000000
O O5 0.617896 0.776047 0.200011
O O6 0.750046 0.642465 0.211890
O O7 0.000000 0.710650 0.500000
O O8 0.970248 0.757211 0.306928
O O9 0.578847 0.911048 0.235518
O O10 0.500000 0.873574 0.000000
O O11 0.218979 0.836424 0.970019
O O12 0.177017 0.500000 0.774845
O O13 0.854504 0.597486 0.603185
O O14 0.190429 0.785803 0.287768
O O15 0.000000 0.819124 0.000000
O O16 0.743897 0.859684 0.499223
O O17 0.000000 0.894152 0.500000
O O18 0.829921 0.000000 0.499721
O O19 0.500000 0.386631 0.500000
O O20 0.618820 0.283305 0.449890
#
# Coordination Sequence:
#
# PCOD9154242 Si02
#       8
#     4   4   4   4   4   4   4   4
#     4  11  20  38  61  91 126 166 219 278 326 387
#     4  11  21  40  64  92 118 164 224 267 327 390
#     4  12  20  37  68  95 127 173 217 272 329 393
#     4  11  25  42  59  90 135 170 215 279 339 404
#     4  11  22  37  65 102 129 161 224 282 324 381
#     4  11  22  37  61  98 134 170 220 275 335 395
#     4  11  21  38  65  93 122 171 228 269 324 399
#     4  11  19  40  62  93 129 166 210 275 331 383
#
# _framework density 22.099602000000001
#
# number of rings (size 3 to 8) (size 9 to 14) (size 15 to 20)
#    0.000    0.875    7.500    1.500    1.750    1.500 
#    0.000    0.625    0.000    5.250    0.000    0.000 
#    0.000    0.000    0.000    0.000    0.000    0.000 
#
# Total GULP energy -178958.679246 kJ/mol
# GULP energy per Si atom -5592.458726 kJ/mol
# Density = 2.204930 g / cm^3
# Si number density = 22.099602 Si / 1000 Ang^3
#
#
#
# Elastic Constant Matrix: (Units=GPa)
#
#
# Indices 1 2 3 4 5 6 
#
# 1 37.6344 2.3952 7.9523 0.0000 -13.2526 0.0000
# 2 2.3952 70.7231 13.0870 0.0000 -11.1616 0.0000
# 3 7.9523 13.0870 128.9394 0.0000 -28.1443 0.0000
# 4 0.0000 0.0000 0.0000 67.5748 0.0000 -83.2510
# 5 -13.2526 -11.1616 -28.1443 0.0000 39.5756 0.0000
# 6 0.0000 0.0000 0.0000 -83.2510 0.0000 111.2175
#
#
#
# Elastic Compliance Matrix: (Units=1/GPa)
#
#
# Indices 1 2 3 4 5 6 
#
# 1 0.030164 0.000570 0.000381 0.000000 0.010532 0.000000
# 2 0.000570 0.014863 -0.000695 0.000000 0.003888 0.000000
# 3 0.000381 -0.000695 0.009219 0.000000 0.006487 0.000000
# 4 0.000000 0.000000 0.000000 0.190192 0.000000 0.142367
# 5 0.010532 0.003888 0.006487 0.000000 0.034505 0.000000
# 6 0.000000 0.000000 0.000000 0.142367 0.000000 0.115559
#
#
# Mechanical properties :
#
#
# Convention : Reuss Voigt Hill
#
# Bulk Modulus (GPa) = 18.26252 31.57399 24.91825
# Shear Modulus (GPa) = 12.12881 57.93107 35.02994
#
# Velocity S-wave (km/s) = 2.34524 5.12548 3.98564
# Velocity P-wave (km/s) = 3.95161 7.02464 5.69916
#
# Compressibility (1/GPa) = 0.05475696
#
# Stress axis : x y z
#
# Youngs Moduli (GPa) = 33.15260 67.28288 108.47549
#
# Poissons Ratio (x) = -0.03837 -0.04130
# Poissons Ratio (y) = -0.01890 0.07538
# Poissons Ratio (z) = -0.01262 0.04676
#
# Static dielectric constant tensor:
#      x y z
#    x 1.801010 0.000000 0.143790 
#    y 0.000000 1.804020 0.000000 
#    z 0.143790 0.000000 1.239620 
# 
# From -- ./inp_files/65404.got.cif
#   From: 2010.05.17/outbox.cif.g08.bks.cpg/sg10_33_cif.got.tgz:65404.got - 2010.06.03 11:33:40.
