data_PCOD9154733
_publ_section_title
;
Structure prediction by ZEFSAII (Michael W. Deem and Ramdas Pophale) SiO2 
 PCOD9154733
Probable space group: P 2/M
;
_chemical_formula_sum "Si O2"
_cell_formula_units_Z 17
_cell_length_a 8.962552
_cell_length_b 10.763985
_cell_length_c 7.819146
_cell_angle_alpha 90.000000
_cell_angle_beta 81.789106
_cell_angle_gamma 90.000000
_cell_volume 746.602101
_symmetry_space_group_name_H-M "P 2/M"
_symmetry_group_IT_number 10
_symmetry_cell_setting 'monoclinic'
loop_
_space_group_symop_operation_xyz
x,y,z
-x,y,-z
-x,-y,-z
x,-y,z
loop_
_atom_site_type_symbol
_atom_site_label
_atom_site_fract_x
_atom_site_fract_y
_atom_site_fract_z
Si Si1 0.178014 0.136452 0.434387
Si Si2 0.366879 0.768196 0.698057
Si Si3 0.844698 0.773316 0.942203
Si Si4 0.480019 0.500000 0.750271
Si Si5 0.767191 0.500000 0.902580
Si Si6 0.500000 0.000000 0.500000
O O1 0.246731 0.227836 0.562312
O O2 0.194786 0.164861 0.232193
O O3 0.000000 0.130102 0.500000
O O4 0.250143 0.000000 0.466932
O O5 0.444840 0.634715 0.680414
O O6 0.471939 0.886012 0.648559
O O7 0.282499 0.784714 0.892699
O O8 0.860121 0.626137 0.899383
O O9 0.000000 0.821162 0.000000
O O10 0.342144 0.500000 0.241921
O O11 0.360021 0.500000 0.927940
#
# Coordination Sequence:
#
# PCOD9154733 Si02
#       6
#     4   4   4   2   2   1
#     4  11  24  42  67 102 139 179 236 285 341 414
#     4  11  25  47  68 104 141 180 232 287 343 411
#     4  11  23  43  72 100 137 182 224 289 353 398
#     4   9  22  44  71  95 144 191 221 279 349 415
#     4   9  21  41  68 103 135 178 235 275 338 427
#     4  12  28  46  70 100 144 176 240 286 328 424
#
# _framework density 22.769825000000001
#
# number of rings (size 3 to 8) (size 9 to 14) (size 15 to 20)
#    0.000    1.412    3.529    0.353    4.941    1.882 
#    0.000    2.353    0.000    0.000    0.000    0.000 
#    0.000    0.000    0.000    0.000    0.000    0.000 
#
# Total GULP energy -94825.396315 kJ/mol
# GULP energy per Si atom -5577.964489 kJ/mol
# Density = 2.271800 g / cm^3
# Si number density = 22.769825 Si / 1000 Ang^3
#
#
#
# Elastic Constant Matrix: (Units=GPa)
#
#
# Indices 1 2 3 4 5 6 
#
# 1 62.9497 34.2342 28.6598 0.0000 11.4632 0.0000
# 2 34.2342 168.5770 46.4458 0.0000 8.8373 0.0000
# 3 28.6598 46.4458 172.4110 0.0000 -4.7858 0.0000
# 4 0.0000 0.0000 0.0000 35.6056 0.0000 12.0224
# 5 11.4632 8.8373 -4.7858 0.0000 48.0264 0.0000
# 6 0.0000 0.0000 0.0000 12.0224 0.0000 31.0971
#
#
#
# Elastic Compliance Matrix: (Units=1/GPa)
#
#
# Indices 1 2 3 4 5 6 
#
# 1 0.019482 -0.003028 -0.002543 0.000000 -0.004346 0.000000
# 2 -0.003028 0.006967 -0.001393 0.000000 -0.000698 0.000000
# 3 -0.002543 -0.001393 0.006640 0.000000 0.001525 0.000000
# 4 0.000000 0.000000 0.000000 0.032302 0.000000 -0.012488
# 5 -0.004346 -0.000698 0.001525 0.000000 0.022140 0.000000
# 6 0.000000 0.000000 0.000000 -0.012488 0.000000 0.036985
#
#
# Mechanical properties :
#
#
# Convention : Reuss Voigt Hill
#
# Bulk Modulus (GPa) = 52.18888 69.17971 60.68430
# Shear Modulus (GPa) = 34.52272 42.58566 38.55419
#
# Velocity S-wave (km/s) = 3.89802 4.32935 4.11933
# Velocity P-wave (km/s) = 6.57490 7.44575 7.02383
#
# Compressibility (1/GPa) = 0.01916117
#
# Stress axis : x y z
#
# Youngs Moduli (GPa) = 51.33023 143.52850 150.59136
#
# Poissons Ratio (x) = 0.43456 0.38302
# Poissons Ratio (y) = 0.15541 0.20977
# Poissons Ratio (z) = 0.13056 0.19994
#
# Static dielectric constant tensor:
#      x y z
#    x 1.623730 0.000000 0.028360 
#    y 0.000000 1.811220 0.000000 
#    z 0.028360 0.000000 1.851650 
# 
# From -- ./inp_files/6269.got.cif
#   From: 2010.05.17/outbox.cif.g08.bks.cpg/sg10_4_cif.got.tgz:6269.got - 2010.06.03 11:33:40.
