data_PCOD9154449
_publ_section_title
;
Structure prediction by ZEFSAII (Michael W. Deem and Ramdas Pophale) SiO2 
 PCOD9154449
Probable space group: P 2/M
;
_chemical_formula_sum "Si O2"
_cell_formula_units_Z 24
_cell_length_a 11.068706
_cell_length_b 17.036762
_cell_length_c 7.435799
_cell_angle_alpha 90.000000
_cell_angle_beta 140.481517
_cell_angle_gamma 90.000000
_cell_volume 892.261128
_symmetry_space_group_name_H-M "P 2/M"
_symmetry_group_IT_number 10
_symmetry_cell_setting 'monoclinic'
loop_
_space_group_symop_operation_xyz
x,y,z
-x,y,-z
-x,-y,-z
x,-y,z
loop_
_atom_site_type_symbol
_atom_site_label
_atom_site_fract_x
_atom_site_fract_y
_atom_site_fract_z
Si Si1 0.247335 0.586773 0.540990
Si Si2 0.793666 0.253197 0.363583
Si Si3 0.759250 0.916027 0.901894
Si Si4 0.693553 0.583462 0.965396
Si Si5 0.347920 0.261097 0.168157
Si Si6 0.786903 0.915992 0.519509
O O1 0.170058 0.500000 0.394827
O O2 0.191875 0.679801 0.465881
O O3 0.464291 0.586495 0.719034
O O4 0.234892 0.581906 0.746372
O O5 0.744973 0.166640 0.380441
O O6 0.000000 0.249527 0.500000
O O7 0.639739 0.273951 0.032773
O O8 0.711398 0.829344 0.907853
O O9 0.710069 0.915176 0.633975
O O10 0.687230 0.000000 0.892717
O O11 0.985687 0.918342 0.193498
O O12 0.741896 0.500000 0.937380
O O13 0.765452 0.656850 0.931411
O O14 0.500000 0.262867 0.500000
O O15 0.733480 0.000000 0.371685
#
# Coordination Sequence:
#
# PCOD9154449 Si02
#       6
#     4   4   4   4   4   4
#     4   8  16  32  55  81 112 147 184 227 276 332
#     4  11  21  35  58  88 110 143 193 236 275 325
#     4   9  19  38  59  82 113 150 185 225 284 337
#     4   8  16  34  56  78 109 153 192 219 266 339
#     4  11  23  35  54  87 117 148 181 237 283 322
#     4   9  19  37  62  82 107 151 193 225 270 344
#
# _framework density 26.897955
#
# number of rings (size 3 to 8) (size 9 to 14) (size 15 to 20)
#    0.000    2.667    1.667    2.000    2.333    2.000 
#    0.000    0.000    0.000    2.000    0.000    4.667 
#    0.000    0.000    0.000    0.000    0.000    0.000 
#
# Total GULP energy -133654.140554 kJ/mol
# GULP energy per Si atom -5568.922523 kJ/mol
# Density = 2.683673 g / cm^3
# Si number density = 26.897955 Si / 1000 Ang^3
#
#
#
# Elastic Constant Matrix: (Units=GPa)
#
#
# Indices 1 2 3 4 5 6 
#
# 1 70.3761 35.1112 33.0789 0.0000 4.3671 0.0000
# 2 35.1112 321.3106 20.1802 0.0000 -8.0247 0.0000
# 3 33.0789 20.1802 80.7897 0.0000 -7.2091 0.0000
# 4 0.0000 0.0000 0.0000 143.8693 0.0000 72.6065
# 5 4.3671 -8.0247 -7.2091 0.0000 31.3294 0.0000
# 6 0.0000 0.0000 0.0000 72.6065 0.0000 94.2093
#
#
#
# Elastic Compliance Matrix: (Units=1/GPa)
#
#
# Indices 1 2 3 4 5 6 
#
# 1 0.019034 -0.001712 -0.007802 0.000000 -0.004887 0.000000
# 2 -0.001712 0.003329 -0.000034 0.000000 0.001083 0.000000
# 3 -0.007802 -0.000034 0.016006 0.000000 0.004762 0.000000
# 4 0.000000 0.000000 0.000000 0.011375 0.000000 -0.008767
# 5 -0.004887 0.001083 0.004762 0.000000 0.033973 0.000000
# 6 0.000000 0.000000 0.000000 -0.008767 0.000000 0.017371
#
#
# Mechanical properties :
#
#
# Convention : Reuss Voigt Hill
#
# Bulk Modulus (GPa) = 51.88641 72.13523 62.01082
# Shear Modulus (GPa) = 39.49242 79.48866 59.49054
#
# Velocity S-wave (km/s) = 3.83591 5.44207 4.70799
# Velocity P-wave (km/s) = 6.24106 8.14644 7.25656
#
# Compressibility (1/GPa) = 0.01927287
#
# Stress axis : x y z
#
# Youngs Moduli (GPa) = 52.53812 300.43476 62.47835
#
# Poissons Ratio (x) = 0.51434 0.48744
# Poissons Ratio (y) = 0.08994 0.00211
# Poissons Ratio (z) = 0.40989 0.01015
#
# Static dielectric constant tensor:
#      x y z
#    x 2.155360 0.000000 0.047640 
#    y 0.000000 2.396680 0.000000 
#    z 0.047640 0.000000 2.122350 
# 
# From -- ./inp_files/29649.got.cif
#   From: 2010.05.17/outbox.cif.g08.bks.cpg/sg10_15_cif.got.tgz:29649.got - 2010.06.03 11:33:40.
