data_PCOD9154569
_publ_section_title
;
Structure prediction by ZEFSAII (Michael W. Deem and Ramdas Pophale) SiO2 
 PCOD9154569
Probable space group: P 2/M
;
_chemical_formula_sum "Si O2"
_cell_formula_units_Z 18
_cell_length_a 9.395617
_cell_length_b 9.604198
_cell_length_c 19.754788
_cell_angle_alpha 90.000000
_cell_angle_beta 151.934374
_cell_angle_gamma 90.000000
_cell_volume 838.691662
_symmetry_space_group_name_H-M "P 2/M"
_symmetry_group_IT_number 10
_symmetry_cell_setting 'monoclinic'
loop_
_space_group_symop_operation_xyz
x,y,z
-x,y,-z
-x,-y,-z
x,-y,z
loop_
_atom_site_type_symbol
_atom_site_label
_atom_site_fract_x
_atom_site_fract_y
_atom_site_fract_z
Si Si1 0.351673 0.000000 0.256458
Si Si2 0.001504 0.500000 0.276408
Si Si3 0.665807 0.000000 0.997749
Si Si4 0.453429 0.500000 0.596584
Si Si5 0.338270 0.740263 0.657379
Si Si6 0.272515 0.241832 0.779975
Si Si7 0.774217 0.000000 0.562280
O O1 0.418147 0.862719 0.241778
O O2 0.024543 0.000000 0.152322
O O3 0.607152 0.000000 0.420969
O O4 0.213113 0.500000 0.433617
O O5 0.224118 0.500000 0.305763
O O6 0.801526 0.361310 0.197474
O O7 0.500000 0.000000 0.000000
O O8 0.549037 0.860215 0.912487
O O9 0.409877 0.630641 0.628456
O O10 0.320776 0.687678 0.726978
O O11 0.000000 0.795078 0.500000
O O12 0.985727 0.135827 0.657716
O O13 0.500000 0.000000 0.500000
#
# Coordination Sequence:
#
# PCOD9154569 Si02
#       7
#     2   2   2   2   4   4   2
#     4  12  23  40  70  95 131 178 225 275 332 402
#     4  11  23  40  67 102 138 182 223 272 343 402
#     4  11  28  48  68  97 138 181 230 283 335 397
#     4  11  24  37  67 108 141 170 222 283 339 402
#     4  12  22  40  67 106 140 171 214 283 342 395
#     4  11  24  43  69  98 138 177 222 276 345 401
#     4  11  22  35  66 102 131 168 222 279 336 398
#
# _framework density 21.461998000000001
#
# number of rings (size 3 to 8) (size 9 to 14) (size 15 to 20)
#    0.000    0.667    4.444    4.000    9.333    1.778 
#    0.000    1.667    0.000    2.667    0.000    0.000 
#    0.000    0.000    0.000    0.000    0.000    0.000 
#
# Total GULP energy -100669.115740 kJ/mol
# GULP energy per Si atom -5592.728652 kJ/mol
# Density = 2.141315 g / cm^3
# Si number density = 21.461998 Si / 1000 Ang^3
#
#
#
# Elastic Constant Matrix: (Units=GPa)
#
#
# Indices 1 2 3 4 5 6 
#
# 1 144.2576 48.2307 7.4217 0.0000 17.0662 0.0000
# 2 48.2307 121.2076 35.4401 0.0000 25.1957 0.0000
# 3 7.4217 35.4401 51.9170 0.0000 17.1499 0.0000
# 4 0.0000 0.0000 0.0000 20.5294 0.0000 18.1585
# 5 17.0662 25.1957 17.1499 0.0000 33.6232 0.0000
# 6 0.0000 0.0000 0.0000 18.1585 0.0000 36.0881
#
#
#
# Elastic Compliance Matrix: (Units=1/GPa)
#
#
# Indices 1 2 3 4 5 6 
#
# 1 0.008254 -0.003294 0.001969 0.000000 -0.002726 0.000000
# 2 -0.003294 0.012363 -0.006567 0.000000 -0.004243 0.000000
# 3 0.001969 -0.006567 0.026659 0.000000 -0.009676 0.000000
# 4 0.000000 0.000000 0.000000 0.087777 0.000000 -0.044167
# 5 -0.002726 -0.004243 -0.009676 0.000000 0.039240 0.000000
# 6 0.000000 0.000000 0.000000 -0.044167 0.000000 0.049933
#
#
# Mechanical properties :
#
#
# Convention : Reuss Voigt Hill
#
# Bulk Modulus (GPa) = 31.75304 55.50746 43.63025
# Shear Modulus (GPa) = 19.95945 33.13411 26.54678
#
# Velocity S-wave (km/s) = 3.05288 3.93345 3.52080
# Velocity P-wave (km/s) = 5.22053 6.82266 6.07464
#
# Compressibility (1/GPa) = 0.03149304
#
# Stress axis : x y z
#
# Youngs Moduli (GPa) = 121.14745 80.88652 37.51051
#
# Poissons Ratio (x) = 0.26641 -0.07385
# Poissons Ratio (y) = 0.39901 0.24633
# Poissons Ratio (z) = -0.23851 0.53117
#
# Static dielectric constant tensor:
#      x y z
#    x 1.772490 0.000000 -0.038580 
#    y 0.000000 1.788380 0.000000 
#    z -0.038580 0.000000 1.768680 
# 
# From -- ./inp_files/82161.got.cif
#   From: 2010.05.17/outbox.cif.g08.bks.cpg/sg10_42_cif.got.tgz:82161.got - 2010.06.03 11:33:40.
