data_PCOD9154474
_publ_section_title
;
Structure prediction by ZEFSAII (Michael W. Deem and Ramdas Pophale) SiO2 
 PCOD9154474
Probable space group: P 2/M
;
_chemical_formula_sum "Si O2"
_cell_formula_units_Z 24
_cell_length_a 16.788851
_cell_length_b 14.513501
_cell_length_c 9.487522
_cell_angle_alpha 90.000000
_cell_angle_beta 150.539118
_cell_angle_gamma 90.000000
_cell_volume 1136.999531
_symmetry_space_group_name_H-M "P 2/M"
_symmetry_group_IT_number 10
_symmetry_cell_setting 'monoclinic'
loop_
_space_group_symop_operation_xyz
x,y,z
-x,y,-z
-x,-y,-z
x,-y,z
loop_
_atom_site_type_symbol
_atom_site_label
_atom_site_fract_x
_atom_site_fract_y
_atom_site_fract_z
Si Si1 0.675512 0.893012 0.553873
Si Si2 0.864986 0.208494 0.616331
Si Si3 0.729206 0.602304 0.059090
Si Si4 0.848661 0.892743 0.103071
Si Si5 0.013863 0.602653 0.284465
Si Si6 0.649263 0.791856 0.020295
O O1 0.807805 0.833459 0.674439
O O2 0.706309 0.884677 0.767570
O O3 0.696650 0.000000 0.548458
O O4 0.500695 0.857672 0.238637
O O5 0.938863 0.310752 0.736645
O O6 0.708350 0.211777 0.271869
O O7 0.993650 0.143941 0.734379
O O8 0.655372 0.500000 0.941765
O O9 0.857479 0.604002 0.386956
O O10 0.614900 0.688827 0.910798
O O11 0.838939 0.615031 0.088793
O O12 0.865187 0.000000 0.167296
O O13 0.799017 0.830799 0.158530
O O14 0.021457 0.500000 0.233186
#
# Coordination Sequence:
#
# PCOD9154474 Si02
#       6
#     4   4   4   4   4   4
#     4  11  25  41  54  75 118 162 181 215 292 351
#     4  11  21  36  60  88 110 140 190 238 274 317
#     4   8  14  28  53  84 113 139 174 225 280 327
#     4  11  23  39  58  79 108 150 195 231 272 335
#     4   8  14  28  53  84 113 139 174 225 280 327
#     4  11  21  36  60  88 110 140 190 238 274 317
#
# _framework density 21.108187999999998
#
# number of rings (size 3 to 8) (size 9 to 14) (size 15 to 20)
#    0.000    2.000    1.667    4.000    0.000    6.667 
#    0.000    0.833    0.000   10.000    0.000    0.000 
#    0.000    0.000    0.000    0.000    0.000    0.000 
#
# Total GULP energy -134114.451144 kJ/mol
# GULP energy per Si atom -5588.102131 kJ/mol
# Density = 2.106014 g / cm^3
# Si number density = 21.108188 Si / 1000 Ang^3
#
#
#
# Elastic Constant Matrix: (Units=GPa)
#
#
# Indices 1 2 3 4 5 6 
#
# 1 54.1371 20.5238 -1.4941 0.0000 -10.5154 0.0000
# 2 20.5238 137.2497 2.8460 0.0000 -16.1951 0.0000
# 3 -1.4941 2.8460 46.5550 0.0000 -8.7628 0.0000
# 4 0.0000 0.0000 0.0000 90.4387 0.0000 33.3150
# 5 -10.5154 -16.1951 -8.7628 0.0000 20.9238 0.0000
# 6 0.0000 0.0000 0.0000 33.3150 0.0000 40.6667
#
#
#
# Elastic Compliance Matrix: (Units=1/GPa)
#
#
# Indices 1 2 3 4 5 6 
#
# 1 0.021316 -0.002030 0.002745 0.000000 0.010291 0.000000
# 2 -0.002030 0.008235 0.000477 0.000000 0.005553 0.000000
# 3 0.002745 0.000477 0.023739 0.000000 0.011690 0.000000
# 4 0.000000 0.000000 0.000000 0.015836 0.000000 -0.012973
# 5 0.010291 0.005553 0.011690 0.000000 0.062158 0.000000
# 6 0.000000 0.000000 0.000000 -0.012973 0.000000 0.035218
#
#
# Mechanical properties :
#
#
# Convention : Reuss Voigt Hill
#
# Bulk Modulus (GPa) = 17.96184 31.29925 24.63055
# Shear Modulus (GPa) = 27.37065 44.81024 36.09045
#
# Velocity S-wave (km/s) = 3.60486 4.61248 4.13944
# Velocity P-wave (km/s) = 5.08474 6.57471 5.87713
#
# Compressibility (1/GPa) = 0.05567359
#
# Stress axis : x y z
#
# Youngs Moduli (GPa) = 46.91347 121.43358 42.12409
#
# Poissons Ratio (x) = 0.24653 -0.11564
# Poissons Ratio (y) = 0.09524 -0.02008
# Poissons Ratio (z) = -0.12879 -0.05788
#
# Static dielectric constant tensor:
#      x y z
#    x 1.724240 0.000000 -0.000710 
#    y 0.000000 1.753830 0.000000 
#    z -0.000710 0.000000 1.785070 
# 
# From -- ./inp_files/29667.got.cif
#   From: 2010.05.17/outbox.cif.g08.bks.cpg/sg10_15_cif.got.tgz:29667.got - 2010.06.03 11:33:40.
