data_PCOD9154420
_publ_section_title
;
Structure prediction by ZEFSAII (Michael W. Deem and Ramdas Pophale) SiO2 
 PCOD9154420
Probable space group: P 2/M
;
_chemical_formula_sum "Si O2"
_cell_formula_units_Z 24
_cell_length_a 15.067526
_cell_length_b 11.775709
_cell_length_c 21.458624
_cell_angle_alpha 90.000000
_cell_angle_beta 159.433445
_cell_angle_gamma 90.000000
_cell_volume 1337.528621
_symmetry_space_group_name_H-M "P 2/M"
_symmetry_group_IT_number 10
_symmetry_cell_setting 'monoclinic'
loop_
_space_group_symop_operation_xyz
x,y,z
-x,y,-z
-x,-y,-z
x,-y,z
loop_
_atom_site_type_symbol
_atom_site_label
_atom_site_fract_x
_atom_site_fract_y
_atom_site_fract_z
Si Si1 0.390708 0.362605 0.794962
Si Si2 0.342215 0.364015 0.497464
Si Si3 0.889695 0.000000 0.710904
Si Si4 0.139290 0.362840 0.498645
Si Si5 0.912710 0.758315 0.138042
Si Si6 0.657548 0.000000 0.698502
Si Si7 0.135267 0.757272 0.150441
O O1 0.423344 0.500000 0.819319
O O2 0.303323 0.331678 0.667098
O O3 0.151951 0.330121 0.681087
O O4 0.648739 0.300110 0.980676
O O5 0.342006 0.500000 0.494203
O O6 0.253033 0.325886 0.507954
O O7 0.621135 0.315929 0.670755
O O8 0.143531 0.313205 0.318433
O O9 0.764928 0.000000 0.698172
O O10 0.646385 0.000000 0.505735
O O11 0.051107 0.885708 0.812708
O O12 0.138837 0.500000 0.497902
O O13 0.950573 0.761099 0.088233
O O14 0.761332 0.884071 0.795637
O O15 0.000000 0.711152 0.000000
#
# Coordination Sequence:
#
# PCOD9154420 Si02
#       7
#     4   4   2   4   4   2   4
#     4   9  17  33  57  80 104 135 172 213 255 303
#     4  11  22  34  51  77 109 140 171 209 256 310
#     4   9  18  34  54  73 101 136 170 213 258 299
#     4   8  17  34  54  77 105 139 175 209 249 301
#     4  11  21  34  54  77 105 137 171 215 259 305
#     4   9  17  36  56  73  96 133 181 213 245 301
#     4  11  22  35  54  78 104 136 173 214 258 305
#
# _framework density 17.943541
#
# number of rings (size 3 to 8) (size 9 to 14) (size 15 to 20)
#    0.000    2.167    1.667    3.250    0.000    3.000 
#    0.000    2.500    0.000    5.000    0.000    0.000 
#    0.000    0.000    0.000    0.000    0.000    0.000 
#
# Total GULP energy -133903.749990 kJ/mol
# GULP energy per Si atom -5579.322916 kJ/mol
# Density = 1.790270 g / cm^3
# Si number density = 17.943541 Si / 1000 Ang^3
#
#
#
# Elastic Constant Matrix: (Units=GPa)
#
#
# Indices 1 2 3 4 5 6 
#
# 1 28.1658 -3.4097 -10.3719 0.0000 7.7603 0.0000
# 2 -3.4097 77.4790 27.9159 0.0000 12.4248 0.0000
# 3 -10.3719 27.9159 96.4236 0.0000 15.1648 0.0000
# 4 0.0000 0.0000 0.0000 23.4605 0.0000 -12.4015
# 5 7.7603 12.4248 15.1648 0.0000 20.0454 0.0000
# 6 0.0000 0.0000 0.0000 -12.4015 0.0000 -53.4268
#
#
#
# Elastic Compliance Matrix: (Units=1/GPa)
#
#
# Indices 1 2 3 4 5 6 
#
# 1 0.046035 0.003277 0.008088 0.000000 -0.025971 0.000000
# 2 0.003277 0.015444 -0.002740 0.000000 -0.008769 0.000000
# 3 0.008088 -0.002740 0.013915 0.000000 -0.011960 0.000000
# 4 0.000000 0.000000 0.000000 0.037966 0.000000 -0.008813
# 5 -0.025971 -0.008769 -0.011960 0.000000 0.074424 0.000000
# 6 0.000000 0.000000 0.000000 -0.008813 0.000000 -0.016672
#
#
# Mechanical properties :
#
#
# Convention : Reuss Voigt Hill
#
# Bulk Modulus (GPa) = 10.79407 25.59300 18.19353
# Shear Modulus (GPa) = 27.06433 10.54475 18.80454
#
# Velocity S-wave (km/s) = 3.88790 2.42681 3.24077
# Velocity P-wave (km/s) = 5.11693 4.70601 4.91577
#
# Compressibility (1/GPa) = 0.09264347
#
# Stress axis : x y z
#
# Youngs Moduli (GPa) = 21.72272 64.74899 71.86459
#
# Poissons Ratio (x) = -0.21216 -0.58122
# Poissons Ratio (y) = -0.07118 0.19689
# Poissons Ratio (z) = -0.17569 0.17740
#
# Static dielectric constant tensor:
#      x y z
#    x 1.615150 0.000000 -0.012280 
#    y 0.000000 1.604870 0.000000 
#    z -0.012280 0.000000 1.599230 
# 
# From -- ./inp_files/24106.got.cif
#   From: 2010.05.17/outbox.cif.g08.bks.cpg/sg10_13_cif.got.tgz:24106.got - 2010.06.03 11:33:40.
