data_PCOD9154217
_publ_section_title
;
Structure prediction by ZEFSAII (Michael W. Deem and Ramdas Pophale) SiO2 
 PCOD9154217
Probable space group: P 2/M
;
_chemical_formula_sum "Si O2"
_cell_formula_units_Z 32
_cell_length_a 14.382333
_cell_length_b 18.232775
_cell_length_c 21.492291
_cell_angle_alpha 90.000000
_cell_angle_beta 19.391735
_cell_angle_gamma 90.000000
_cell_volume 1871.266738
_symmetry_space_group_name_H-M "P 2/M"
_symmetry_group_IT_number 10
_symmetry_cell_setting 'monoclinic'
loop_
_space_group_symop_operation_xyz
x,y,z
-x,y,-z
-x,-y,-z
x,-y,z
loop_
_atom_site_type_symbol
_atom_site_label
_atom_site_fract_x
_atom_site_fract_y
_atom_site_fract_z
Si Si1 0.336898 0.213885 0.781491
Si Si2 0.335435 0.380339 0.795929
Si Si3 0.842978 0.588726 0.660889
Si Si4 0.170005 0.682517 0.700993
Si Si5 0.802580 0.918747 0.062886
Si Si6 0.859890 0.584179 0.397624
Si Si7 0.746456 0.839503 0.301873
Si Si8 0.730272 0.582751 0.028236
O O1 0.432727 0.295287 0.736155
O O2 0.404590 0.147341 0.785951
O O3 0.389527 0.192220 0.676595
O O4 0.000000 0.221355 0.000000
O O5 0.527379 0.415542 0.622066
O O6 0.402835 0.416722 0.819262
O O7 0.000000 0.387533 0.000000
O O8 0.848974 0.500000 0.653515
O O9 0.515286 0.608051 0.862945
O O10 0.000000 0.617230 0.500000
O O11 0.986658 0.606988 0.635355
O O12 0.500000 0.669221 0.500000
O O13 0.083664 0.643407 0.691414
O O14 0.134910 0.769093 0.735483
O O15 0.984451 0.639381 0.868141
O O16 0.685813 0.000000 0.124983
O O17 0.000000 0.925091 0.000000
O O18 0.006716 0.891983 0.878506
O O19 0.942275 0.500000 0.330069
O O20 0.500000 0.872636 0.500000
O O21 0.821738 0.500000 0.956154
#
# Coordination Sequence:
#
# PCOD9154217 Si02
#       8
#     4   4   4   4   4   4   4   4
#     4   8  15  27  41  58  86 121 151 182 224 277
#     4  11  19  29  46  68  90 121 160 192 236 289
#     4   9  18  36  52  65  84 110 157 211 254 289
#     4  11  22  34  45  66  99 128 154 190 238 291
#     4   8  14  25  42  63  86 117 159 194 214 252
#     4  11  22  34  49  65  89 124 161 207 248 277
#     4   9  16  28  42  58  90 126 150 181 225 275
#     4  11  21  32  49  65  85 120 159 204 245 282
#
# _framework density 17.100715000000001
#
# number of rings (size 3 to 8) (size 9 to 14) (size 15 to 20)
#    0.000    2.500    1.250    5.250    0.000    3.750 
#    0.000    1.875    0.000    0.000    0.000    0.000 
#    0.000    0.000    0.000   18.000    0.000   17.625 
#
# Total GULP energy -178153.266372 kJ/mol
# GULP energy per Si atom -5567.289574 kJ/mol
# Density = 1.706179 g / cm^3
# Si number density = 17.100715 Si / 1000 Ang^3
#
#
#
# Elastic Constant Matrix: (Units=GPa)
#
#
# Indices 1 2 3 4 5 6 
#
# 1 64.8875 15.5925 14.1137 0.0000 12.3971 0.0000
# 2 15.5925 88.2895 6.8448 0.0000 4.4694 0.0000
# 3 14.1137 6.8448 41.1617 0.0000 16.0325 0.0000
# 4 0.0000 0.0000 0.0000 2.8061 0.0000 5.6762
# 5 12.3971 4.4694 16.0325 0.0000 30.5895 0.0000
# 6 0.0000 0.0000 0.0000 5.6762 0.0000 -0.7740
#
#
#
# Elastic Compliance Matrix: (Units=1/GPa)
#
#
# Indices 1 2 3 4 5 6 
#
# 1 0.017784 -0.002603 -0.003777 0.000000 -0.004848 0.000000
# 2 -0.002603 0.011873 -0.001027 0.000000 -0.000142 0.000000
# 3 -0.003777 -0.001027 0.031545 0.000000 -0.014853 0.000000
# 4 0.000000 0.000000 0.000000 0.022507 0.000000 0.165048
# 5 -0.004848 -0.000142 -0.014853 0.000000 0.042461 0.000000
# 6 0.000000 0.000000 0.000000 0.165048 0.000000 -0.081594
#
#
# Mechanical properties :
#
#
# Convention : Reuss Voigt Hill
#
# Bulk Modulus (GPa) = 21.55641 29.71563 25.63602
# Shear Modulus (GPa) = 66.79763 17.04349 41.92056
#
# Velocity S-wave (km/s) = 6.25668 3.16041 4.95652
# Velocity P-wave (km/s) = 8.05157 5.54366 6.91230
#
# Compressibility (1/GPa) = 0.04638992
#
# Stress axis : x y z
#
# Youngs Moduli (GPa) = 56.22902 84.22620 31.70033
#
# Poissons Ratio (x) = 0.21921 0.11973
# Poissons Ratio (y) = 0.14634 0.03255
# Poissons Ratio (z) = 0.21238 0.08647
#
# Static dielectric constant tensor:
#      x y z
#    x 1.608030 0.000000 0.021910 
#    y 0.000000 1.619160 0.000000 
#    z 0.021910 0.000000 1.626260 
# 
# From -- ./inp_files/85473.got.cif
#   From: 2010.05.17/outbox.cif.g08.bks.cpg/sg10_43_cif.got.tgz:85473.got - 2010.06.03 11:33:40.
