data_PCOD9154770
_publ_section_title
;
Structure prediction by ZEFSAII (Michael W. Deem and Ramdas Pophale) SiO2 
 PCOD9154770
Probable space group: P 2/M
;
_chemical_formula_sum "Si O2"
_cell_formula_units_Z 17
_cell_length_a 9.641817
_cell_length_b 17.714643
_cell_length_c 8.541837
_cell_angle_alpha 90.000000
_cell_angle_beta 29.692090
_cell_angle_gamma 90.000000
_cell_volume 722.678056
_symmetry_space_group_name_H-M "P 2/M"
_symmetry_group_IT_number 10
_symmetry_cell_setting 'monoclinic'
loop_
_space_group_symop_operation_xyz
x,y,z
-x,y,-z
-x,-y,-z
x,-y,z
loop_
_atom_site_type_symbol
_atom_site_label
_atom_site_fract_x
_atom_site_fract_y
_atom_site_fract_z
Si Si1 0.847601 0.686907 0.492170
Si Si2 0.663428 0.087369 0.186047
Si Si3 0.000000 0.500000 0.000000
Si Si4 0.840567 0.139526 0.499792
Si Si5 0.342981 0.643011 0.800259
O O1 0.588295 0.636588 0.689256
O O2 0.000000 0.659333 0.500000
O O3 0.753570 0.773024 0.607796
O O4 0.087495 0.687315 0.125864
O O5 0.500000 0.116220 0.500000
O O6 0.433972 0.093783 0.274145
O O7 0.738229 0.000000 0.140068
O O8 0.937689 0.130197 0.858845
O O9 0.207170 0.566049 0.870764
O O10 0.000000 0.114715 0.500000
O O11 0.500000 0.681005 0.500000
#
# Coordination Sequence:
#
# PCOD9154770 Si02
#       5
#     4   4   1   4   4
#     4  11  25  44  67 101 137 173 219 282 334 383
#     4  11  24  41  63  94 134 174 222 279 330 388
#     4  12  26  48  72 102 138 172 218 272 324 386
#     4  11  24  42  65  94 132 173 222 274 330 393
#     4  12  24  44  73  96 133 175 220 266 325 399
#
# _framework density 23.523614999999999
#
# number of rings (size 3 to 8) (size 9 to 14) (size 15 to 20)
#    0.000    0.706    2.353    4.588    0.000   14.118 
#    0.000    3.529    0.000    0.000    0.000    0.000 
#    0.000    0.000    0.000    0.000    0.000    0.000 
#
# Total GULP energy -94881.893388 kJ/mol
# GULP energy per Si atom -5581.287846 kJ/mol
# Density = 2.347007 g / cm^3
# Si number density = 23.523615 Si / 1000 Ang^3
#
#
#
# Elastic Constant Matrix: (Units=GPa)
#
#
# Indices 1 2 3 4 5 6 
#
# 1 135.8944 38.4629 36.4750 0.0000 -43.5180 0.0000
# 2 38.4629 58.3866 26.1684 0.0000 -18.0104 0.0000
# 3 36.4750 26.1684 118.3959 0.0000 -16.1892 0.0000
# 4 0.0000 0.0000 0.0000 21.8840 0.0000 -33.7892
# 5 -43.5180 -18.0104 -16.1892 0.0000 54.5600 0.0000
# 6 0.0000 0.0000 0.0000 -33.7892 0.0000 30.2941
#
#
#
# Elastic Compliance Matrix: (Units=1/GPa)
#
#
# Indices 1 2 3 4 5 6 
#
# 1 0.011331 -0.004609 -0.001505 0.000000 0.007070 0.000000
# 2 -0.004609 0.022441 -0.003158 0.000000 0.002795 0.000000
# 3 -0.001505 -0.003158 0.009695 0.000000 0.000633 0.000000
# 4 0.000000 0.000000 0.000000 -0.063277 0.000000 -0.070578
# 5 0.007070 0.002795 0.000633 0.000000 0.025078 0.000000
# 6 0.000000 0.000000 0.000000 -0.070578 0.000000 -0.045710
#
#
# Mechanical properties :
#
#
# Convention : Reuss Voigt Hill
#
# Bulk Modulus (GPa) = 40.12543 57.20995 48.66769
# Shear Modulus (GPa) = -367.89345 35.45233 -166.22056
#
# Velocity S-wave (km/s) = -12.51930 3.88634 -8.41514
# Velocity P-wave (km/s) = 13.85217 6.67167 8.58403
#
# Compressibility (1/GPa) = 0.02492185
#
# Stress axis : x y z
#
# Youngs Moduli (GPa) = 88.25148 44.56162 103.14987
#
# Poissons Ratio (x) = 0.20539 0.15529
# Poissons Ratio (y) = 0.40675 0.32574
# Poissons Ratio (z) = 0.13286 0.14072
#
# Static dielectric constant tensor:
#      x y z
#    x 1.971480 0.000000 0.029440 
#    y 0.000000 1.774890 0.000000 
#    z 0.029440 0.000000 1.893680 
# 
# From -- ./inp_files/20024.got.cif
#   From: 2010.05.17/outbox.cif.g08.bks.cpg/sg10_11_cif.got.tgz:20024.got - 2010.06.03 11:33:40.
