data_PCOD9154176
_publ_section_title
;
Structure prediction by ZEFSAII (Michael W. Deem and Ramdas Pophale) SiO2 
 PCOD9154176
Probable space group: P 2/M
;
_chemical_formula_sum "Si O2"
_cell_formula_units_Z 13
_cell_length_a 14.500529
_cell_length_b 7.653358
_cell_length_c 13.668213
_cell_angle_alpha 90.000000
_cell_angle_beta 19.743051
_cell_angle_gamma 90.000000
_cell_volume 512.401696
_symmetry_space_group_name_H-M "P 2/M"
_symmetry_group_IT_number 10
_symmetry_cell_setting 'monoclinic'
loop_
_space_group_symop_operation_xyz
x,y,z
-x,y,-z
-x,-y,-z
x,-y,z
loop_
_atom_site_type_symbol
_atom_site_label
_atom_site_fract_x
_atom_site_fract_y
_atom_site_fract_z
Si Si1 0.662279 0.299780 0.051794
Si Si2 0.683177 0.702981 0.415088
Si Si3 0.000000 0.000000 0.000000
Si Si4 0.156345 0.799957 0.437311
O O1 0.742066 0.500000 0.987487
O O2 0.506565 0.241699 0.304897
O O3 0.432433 0.288165 0.197099
O O4 0.933159 0.204256 0.746609
O O5 0.500000 0.709309 0.500000
O O6 0.772354 0.500000 0.339751
O O7 0.912849 0.844982 0.165584
O O8 0.000000 0.721589 0.500000
O O9 0.226201 0.000000 0.343787
#
# Coordination Sequence:
#
# PCOD9154176 Si02
#       4
#     4   4   1   4
#     4  11  25  43  69  99 133 178 223 276 336 398
#     4  10  25  44  64  98 138 174 224 279 332 402
#     4  12  24  40  72  96 126 186 224 276 334 402
#     4  11  25  44  68  99 135 174 223 280 335 400
#
# _framework density 25.370719000000001
#
# number of rings (size 3 to 8) (size 9 to 14) (size 15 to 20)
#    0.000    1.231    0.000    3.692    8.615    6.154 
#    0.000    0.000    0.000    0.000    0.000    0.000 
#    0.000    0.000    0.000    0.000    0.000    0.000 
#
# Total GULP energy -72586.884119 kJ/mol
# GULP energy per Si atom -5583.606471 kJ/mol
# Density = 2.531297 g / cm^3
# Si number density = 25.370719 Si / 1000 Ang^3
#
#
#
# Elastic Constant Matrix: (Units=GPa)
#
#
# Indices 1 2 3 4 5 6 
#
# 1 93.4629 -8.8615 24.7322 0.0000 -5.1273 0.0000
# 2 -8.8615 83.9212 40.4352 0.0000 15.8298 0.0000
# 3 24.7322 40.4352 115.0454 0.0000 7.7294 0.0000
# 4 0.0000 0.0000 0.0000 80.4664 0.0000 -4.2975
# 5 -5.1273 15.8298 7.7294 0.0000 53.6365 0.0000
# 6 0.0000 0.0000 0.0000 -4.2975 0.0000 33.4256
#
#
#
# Elastic Compliance Matrix: (Units=1/GPa)
#
#
# Indices 1 2 3 4 5 6 
#
# 1 0.011978 0.002861 -0.003636 0.000000 0.000825 0.000000
# 2 0.002861 0.015727 -0.005907 0.000000 -0.003517 0.000000
# 3 -0.003636 -0.005907 0.011568 0.000000 -0.000271 0.000000
# 4 0.000000 0.000000 0.000000 0.012513 0.000000 0.001609
# 5 0.000825 -0.003517 -0.000271 0.000000 0.019800 0.000000
# 6 0.000000 0.000000 0.000000 0.001609 0.000000 0.030124
#
#
# Mechanical properties :
#
#
# Convention : Reuss Voigt Hill
#
# Bulk Modulus (GPa) = 38.59393 45.00461 41.79927
# Shear Modulus (GPa) = 40.41687 49.24727 44.83207
#
# Velocity S-wave (km/s) = 3.99564 4.41058 4.20822
# Velocity P-wave (km/s) = 6.04416 6.61173 6.33430
#
# Compressibility (1/GPa) = 0.02591081
#
# Stress axis : x y z
#
# Youngs Moduli (GPa) = 83.48555 63.58348 86.44463
#
# Poissons Ratio (x) = -0.18192 0.31432
# Poissons Ratio (y) = -0.23887 0.51059
# Poissons Ratio (z) = 0.30356 0.37556
#
# Static dielectric constant tensor:
#      x y z
#    x 2.054720 0.000000 -0.005300 
#    y 0.000000 1.911300 0.000000 
#    z -0.005300 0.000000 1.960300 
# 
# From -- ./inp_files/8401.got.cif
#   From: 2010.05.17/outbox.cif.g08.bks.cpg/sg10_5_cif.got.tgz:8401.got - 2010.06.03 11:33:40.
