data_PCOD9154290
_publ_section_title
;
Structure prediction by ZEFSAII (Michael W. Deem and Ramdas Pophale) SiO2 
 PCOD9154290
Probable space group: P 2/M
;
_chemical_formula_sum "Si O2"
_cell_formula_units_Z 32
_cell_length_a 17.302405
_cell_length_b 8.397185
_cell_length_c 14.868832
_cell_angle_alpha 90.000000
_cell_angle_beta 64.125280
_cell_angle_gamma 90.000000
_cell_volume 1943.744179
_symmetry_space_group_name_H-M "P 2/M"
_symmetry_group_IT_number 10
_symmetry_cell_setting 'monoclinic'
loop_
_space_group_symop_operation_xyz
x,y,z
-x,y,-z
-x,-y,-z
x,-y,z
loop_
_atom_site_type_symbol
_atom_site_label
_atom_site_fract_x
_atom_site_fract_y
_atom_site_fract_z
Si Si1 0.401764 0.807722 0.945185
Si Si2 0.036482 0.310920 0.727898
Si Si3 0.847261 0.183215 0.813680
Si Si4 0.233311 0.317074 0.320152
Si Si5 0.769251 0.309709 0.036874
Si Si6 0.598320 0.191861 0.845990
Si Si7 0.916389 0.811897 0.483682
Si Si8 0.914755 0.306733 0.098198
O O1 0.330669 0.735772 0.915696
O O2 0.500103 0.761432 0.875361
O O3 0.396478 0.000000 0.944707
O O4 0.383870 0.760480 0.058718
O O5 0.017374 0.500000 0.743211
O O6 0.086075 0.275283 0.610805
O O7 0.080205 0.262081 0.799720
O O8 0.948148 0.214655 0.765043
O O9 0.807352 0.294177 0.757958
O O10 0.827816 0.000000 0.800391
O O11 0.809352 0.225830 0.929328
O O12 0.231070 0.500000 0.348778
O O13 0.330634 0.258821 0.257219
O O14 0.170377 0.219923 0.417153
O O15 0.777854 0.500000 0.022847
O O16 0.827821 0.258246 0.091322
O O17 0.602426 0.000000 0.842264
O O18 0.000000 0.757927 0.500000
O O19 0.927391 0.000000 0.462886
O O20 0.916999 0.500000 0.094389
O O21 0.000000 0.252452 0.000000
#
# Coordination Sequence:
#
# PCOD9154290 Si02
#       8
#     4   4   4   4   4   4   4   4
#     4   9  18  32  50  73 104 139 169 204 254 307
#     4  11  21  36  55  73  99 135 178 218 250 294
#     4  12  22  32  47  71 105 139 172 211 255 299
#     4  12  23  34  52  77 101 134 177 213 249 302
#     4  11  20  32  51  75 102 138 177 213 251 298
#     4   9  18  33  51  72 104 139 167 204 257 306
#     4  11  23  37  53  74 104 137 169 209 257 305
#     4   9  18  33  51  74 104 136 170 211 258 297
#
# _framework density 16.463072
#
# number of rings (size 3 to 8) (size 9 to 14) (size 15 to 20)
#    0.000    1.500    3.750    4.125    0.000    1.000 
#    0.000    4.375    0.000    0.000    0.000    0.875 
#    0.000    7.000    0.000    0.000    0.000    0.000 
#
# Total GULP energy -178598.912701 kJ/mol
# GULP energy per Si atom -5581.216022 kJ/mol
# Density = 1.642560 g / cm^3
# Si number density = 16.463072 Si / 1000 Ang^3
#
#
#
# Elastic Constant Matrix: (Units=GPa)
#
#
# Indices 1 2 3 4 5 6 
#
# 1 102.1526 7.7925 47.4549 0.0000 -7.8480 0.0000
# 2 7.7925 28.2233 2.8211 0.0000 -1.2486 0.0000
# 3 47.4549 2.8211 84.5843 0.0000 -0.7310 0.0000
# 4 0.0000 0.0000 0.0000 3.4040 0.0000 -12.3157
# 5 -7.8480 -1.2486 -0.7310 0.0000 26.2376 0.0000
# 6 0.0000 0.0000 0.0000 -12.3157 0.0000 16.3692
#
#
#
# Elastic Compliance Matrix: (Units=1/GPa)
#
#
# Indices 1 2 3 4 5 6 
#
# 1 0.013851 -0.002893 -0.007642 0.000000 0.003793 0.000000
# 2 -0.002893 0.036227 0.000422 0.000000 0.000870 0.000000
# 3 -0.007642 0.000422 0.016080 0.000000 -0.001818 0.000000
# 4 0.000000 0.000000 0.000000 -0.170592 0.000000 -0.128348
# 5 0.003793 0.000870 -0.001818 0.000000 0.039238 0.000000
# 6 0.000000 0.000000 0.000000 -0.128348 0.000000 -0.035475
#
#
# Mechanical properties :
#
#
# Convention : Reuss Voigt Hill
#
# Bulk Modulus (GPa) = 21.77069 36.78859 29.27964
# Shear Modulus (GPa) = -76.76360 19.66163 -28.55099
#
# Velocity S-wave (km/s) = -6.83586 3.45959 -4.16894
# Velocity P-wave (km/s) = 7.00376 6.19298 2.31296
#
# Compressibility (1/GPa) = 0.04593332
#
# Stress axis : x y z
#
# Youngs Moduli (GPa) = 72.19522 27.60394 62.18869
#
# Poissons Ratio (x) = 0.07985 0.47524
# Poissons Ratio (y) = 0.20884 -0.02626
# Poissons Ratio (z) = 0.55170 -0.01165
#
# Static dielectric constant tensor:
#      x y z
#    x 1.566520 0.000000 -0.017560 
#    y 0.000000 1.562500 0.000000 
#    z -0.017560 0.000000 1.552320 
# 
# From -- ./inp_files/66559.got.cif
#   From: 2010.05.17/outbox.cif.g08.bks.cpg/sg10_34_cif.got.tgz:66559.got - 2010.06.03 11:33:40.
