data_PCOD9154428
_publ_section_title
;
Structure prediction by ZEFSAII (Michael W. Deem and Ramdas Pophale) SiO2 
 PCOD9154428
Probable space group: P 2/M
;
_chemical_formula_sum "Si O2"
_cell_formula_units_Z 26
_cell_length_a 8.475558
_cell_length_b 32.572186
_cell_length_c 5.127596
_cell_angle_alpha 90.000000
_cell_angle_beta 57.468093
_cell_angle_gamma 90.000000
_cell_volume 1193.449447
_symmetry_space_group_name_H-M "P 2/M"
_symmetry_group_IT_number 10
_symmetry_cell_setting 'monoclinic'
loop_
_space_group_symop_operation_xyz
x,y,z
-x,y,-z
-x,-y,-z
x,-y,z
loop_
_atom_site_type_symbol
_atom_site_label
_atom_site_fract_x
_atom_site_fract_y
_atom_site_fract_z
Si Si1 0.271896 0.546348 0.689873
Si Si2 0.200028 0.264133 0.679747
Si Si3 0.136892 0.000000 0.628430
Si Si4 0.136319 0.088035 0.628213
Si Si5 0.136439 0.823178 0.629947
Si Si6 0.711368 0.685946 0.902797
Si Si7 0.728439 0.405511 0.811037
O O1 0.500000 0.546121 0.500000
O O2 0.213082 0.500000 0.681008
O O3 0.212792 0.579008 0.524563
O O4 0.212469 0.561713 0.025527
O O5 0.260455 0.217457 0.561707
O O6 0.195031 0.287757 0.411057
O O7 0.300546 0.290990 0.810646
O O8 0.000000 0.260199 0.000000
O O9 0.241095 0.044050 0.535131
O O10 0.000000 0.000000 0.500000
O O11 0.000000 0.000000 0.000000
O O12 0.236525 0.132344 0.526311
O O13 0.000000 0.088185 0.500000
O O14 0.000000 0.087703 0.000000
O O15 0.000000 0.817257 0.500000
O O16 0.000000 0.826114 0.000000
O O17 0.791597 0.639939 0.838736
O O18 0.500000 0.681355 0.000000
O O19 0.500000 0.405429 0.000000
#
# Coordination Sequence:
#
# PCOD9154428 Si02
#       7
#     4   4   2   4   4   4   4
#     4   9  15  24  40  63  92 123 151 183 228 282
#     4  11  21  35  53  74  99 130 171 212 245 288
#     4   8  12  18  28  46  72 106 143 178 217 276
#     4   8  13  20  32  50  76 109 146 182 225 280
#     4   9  16  27  42  62  87 119 156 197 241 284
#     4  11  22  36  53  74 103 136 165 201 251 298
#     4   9  17  28  42  63  93 125 153 185 234 288
#
# _framework density 21.785589000000002
#
# number of rings (size 3 to 8) (size 9 to 14) (size 15 to 20)
#    0.000    2.615    0.000    4.154    0.000    4.308 
#    0.000    0.000    0.000    0.000    0.000    0.000 
#    0.000   43.077    0.000    4.154    0.000    8.154 
#
# Total GULP energy -144890.301122 kJ/mol
# GULP energy per Si atom -5572.703889 kJ/mol
# Density = 2.173600 g / cm^3
# Si number density = 21.785589 Si / 1000 Ang^3
#
#
#
# Elastic Constant Matrix: (Units=GPa)
#
#
# Indices 1 2 3 4 5 6 
#
# 1 37.1288 23.6254 27.3072 0.0000 18.9762 0.0000
# 2 23.6254 212.2504 11.4323 0.0000 21.4132 0.0000
# 3 27.3072 11.4323 78.2547 0.0000 31.9894 0.0000
# 4 0.0000 0.0000 0.0000 24.5399 0.0000 11.4929
# 5 18.9762 21.4132 31.9894 0.0000 43.9615 0.0000
# 6 0.0000 0.0000 0.0000 11.4929 0.0000 18.4151
#
#
#
# Elastic Compliance Matrix: (Units=1/GPa)
#
#
# Indices 1 2 3 4 5 6 
#
# 1 0.040906 -0.003126 -0.010280 0.000000 -0.008654 0.000000
# 2 -0.003126 0.005202 0.001160 0.000000 -0.002028 0.000000
# 3 -0.010280 0.001160 0.020801 0.000000 -0.011264 0.000000
# 4 0.000000 0.000000 0.000000 0.057580 0.000000 -0.035936
# 5 -0.008654 -0.002028 -0.011264 0.000000 0.035667 0.000000
# 6 0.000000 0.000000 0.000000 -0.035936 0.000000 0.076731
#
#
# Mechanical properties :
#
#
# Convention : Reuss Voigt Hill
#
# Bulk Modulus (GPa) = 23.57563 50.26263 36.91913
# Shear Modulus (GPa) = 18.14758 35.06788 26.60773
#
# Velocity S-wave (km/s) = 2.88932 4.01644 3.49857
# Velocity P-wave (km/s) = 4.68786 6.68062 5.77090
#
# Compressibility (1/GPa) = 0.04241668
#
# Stress axis : x y z
#
# Youngs Moduli (GPa) = 24.44605 192.24998 48.07445
#
# Poissons Ratio (x) = 0.60106 0.49420
# Poissons Ratio (y) = 0.07643 -0.05578
# Poissons Ratio (z) = 0.25130 -0.22306
#
# Static dielectric constant tensor:
#      x y z
#    x 1.860370 0.000000 -0.054330 
#    y 0.000000 1.903260 0.000000 
#    z -0.054330 0.000000 1.789710 
# 
# From -- ./inp_files/5434.got.cif
#   From: 2010.05.17/outbox.cif.g08.bks.cpg/sg10_3_cif.got.tgz:5434.got - 2010.06.03 11:33:40.
