data_PCOD9154267
_publ_section_title
;
Structure prediction by ZEFSAII (Michael W. Deem and Ramdas Pophale) SiO2 
 PCOD9154267
Probable space group: P 2/M
;
_chemical_formula_sum "Si O2"
_cell_formula_units_Z 24
_cell_length_a 22.539412
_cell_length_b 11.367248
_cell_length_c 22.539519
_cell_angle_alpha 90.000000
_cell_angle_beta 166.602932
_cell_angle_gamma 90.000000
_cell_volume 1338.027616
_symmetry_space_group_name_H-M "P 2/M"
_symmetry_group_IT_number 10
_symmetry_cell_setting 'monoclinic'
loop_
_space_group_symop_operation_xyz
x,y,z
-x,y,-z
-x,-y,-z
x,-y,z
loop_
_atom_site_type_symbol
_atom_site_label
_atom_site_fract_x
_atom_site_fract_y
_atom_site_fract_z
Si Si1 0.453886 0.500000 0.046208
Si Si2 0.337684 0.644285 0.162296
Si Si3 0.085416 0.500000 0.414503
Si Si4 0.931302 0.860346 0.568759
Si Si5 0.533873 0.768776 0.966063
Si Si6 0.872023 0.277344 0.627979
Si Si7 0.733049 0.357682 0.766947
O O1 0.469043 0.627217 0.031075
O O2 0.183235 0.500000 0.814978
O O3 0.685095 0.500000 0.316842
O O4 0.342732 0.500000 0.157228
O O5 0.600596 0.703963 0.396218
O O6 0.302182 0.664906 0.197817
O O7 0.103761 0.703972 0.899389
O O8 0.105818 0.387266 0.394114
O O9 0.895831 0.829110 0.604181
O O10 0.197944 0.807684 0.802845
O O11 0.935223 0.000000 0.564885
O O12 0.697219 0.807699 0.302115
O O13 0.500000 0.817980 0.000000
O O14 0.500000 0.313832 0.500000
O O15 0.735801 0.500000 0.764195
O O16 0.000000 0.313831 0.000000
#
# Coordination Sequence:
#
# PCOD9154267 Si02
#       7
#     2   4   2   4   4   4   4
#     4  12  21  40  60  92 114 141 182 229 298 347
#     4  11  20  30  53  83 111 148 187 225 274 335
#     4  12  20  34  61  80 118 151 176 235 292 347
#     4  12  27  44  61  82 114 155 192 236 289 339
#     4  12  25  42  65  88 113 146 188 237 286 348
#     4  12  21  35  55  81 109 142 191 233 280 335
#     4   9  17  29  43  68 112 155 183 211 257 325
#
# _framework density 17.93685
#
# number of rings (size 3 to 8) (size 9 to 14) (size 15 to 20)
#    0.000    0.667    5.000    4.250    0.000    4.667 
#    0.000    2.500    0.000    0.000    0.000    0.000 
#    0.000   13.333    0.000    0.000    0.000    0.000 
#
# Total GULP energy -133966.172797 kJ/mol
# GULP energy per Si atom -5581.923867 kJ/mol
# Density = 1.789602 g / cm^3
# Si number density = 17.936850 Si / 1000 Ang^3
#
#
#
# Elastic Constant Matrix: (Units=GPa)
#
#
# Indices 1 2 3 4 5 6 
#
# 1 157.1136 30.5134 99.3986 0.0000 32.9450 0.0000
# 2 30.5134 92.1756 31.6360 0.0000 0.2418 0.0000
# 3 99.3986 31.6360 216.8672 0.0000 -27.1498 0.0000
# 4 0.0000 0.0000 0.0000 67.0164 0.0000 5.8439
# 5 32.9450 0.2418 -27.1498 0.0000 209.2287 0.0000
# 6 0.0000 0.0000 0.0000 5.8439 0.0000 0.4972
#
#
#
# Elastic Compliance Matrix: (Units=1/GPa)
#
#
# Indices 1 2 3 4 5 6 
#
# 1 0.010107 -0.001743 -0.004653 0.000000 -0.002193 0.000000
# 2 -0.001743 0.011732 -0.000894 0.000000 0.000145 0.000000
# 3 -0.004653 -0.000894 0.007081 0.000000 0.001652 0.000000
# 4 0.000000 0.000000 0.000000 -0.599080 0.000000 7.041169
# 5 -0.002193 0.000145 0.001652 0.000000 0.005339 0.000000
# 6 0.000000 0.000000 0.000000 7.041169 0.000000-80.745857
#
#
# Mechanical properties :
#
#
# Convention : Reuss Voigt Hill
#
# Bulk Modulus (GPa) = 69.73553 87.69472 78.71512
# Shear Modulus (GPa) = -0.06151 75.65570 37.79710
#
# Velocity S-wave (km/s) = -0.18538 6.50158 4.59544
# Velocity P-wave (km/s) = 6.23834 10.26439 8.49337
#
# Compressibility (1/GPa) = 0.01433989
#
# Stress axis : x y z
#
# Youngs Moduli (GPa) = 98.94447 85.23343 141.22472
#
# Poissons Ratio (x) = 0.14857 0.65706
# Poissons Ratio (y) = 0.17247 0.12632
# Poissons Ratio (z) = 0.46034 0.07624
#
# Static dielectric constant tensor:
#      x y z
#    x 1.603310 0.000000 -0.002900 
#    y 0.000000 1.619220 0.000000 
#    z -0.002900 0.000000 1.570340 
# 
# From -- ./inp_files/90842.got.cif
#   From: 2010.05.17/outbox.cif.g08.bks.cpg/sg10_46_cif.got.tgz:90842.got - 2010.06.03 11:33:40.
