data_PCOD9154514
_publ_section_title
;
Structure prediction by ZEFSAII (Michael W. Deem and Ramdas Pophale) SiO2 
 PCOD9154514
Probable space group: P 2/M
;
_chemical_formula_sum "Si O2"
_cell_formula_units_Z 20
_cell_length_a 10.856780
_cell_length_b 15.694543
_cell_length_c 8.658138
_cell_angle_alpha 90.000000
_cell_angle_beta 138.777923
_cell_angle_gamma 90.000000
_cell_volume 972.178488
_symmetry_space_group_name_H-M "P 2/M"
_symmetry_group_IT_number 10
_symmetry_cell_setting 'monoclinic'
loop_
_space_group_symop_operation_xyz
x,y,z
-x,y,-z
-x,-y,-z
x,-y,z
loop_
_atom_site_type_symbol
_atom_site_label
_atom_site_fract_x
_atom_site_fract_y
_atom_site_fract_z
Si Si1 0.276143 0.095458 0.314999
Si Si2 0.113072 0.178298 0.463052
Si Si3 0.715732 0.404803 0.648582
Si Si4 0.578803 0.311276 0.227734
Si Si5 0.800807 0.257697 0.962072
O O1 0.500000 0.098973 0.500000
O O2 0.204137 0.117070 0.419698
O O3 0.202527 0.170862 0.138556
O O4 0.217219 0.000000 0.216360
O O5 0.283432 0.234798 0.687232
O O6 0.000000 0.138364 0.500000
O O7 0.967853 0.242331 0.239586
O O8 0.500000 0.409299 0.500000
O O9 0.794815 0.500000 0.729046
O O10 0.693621 0.369911 0.454184
O O11 0.809758 0.336763 0.851730
O O12 0.399569 0.272161 0.146214
O O13 0.500000 0.355527 0.000000
#
# Coordination Sequence:
#
# PCOD9154514 Si02
#       5
#     4   4   4   4   4
#     4  11  23  42  68  96 127 166 213 262 314 376
#     4  12  24  39  65  95 127 171 210 255 324 376
#     4   9  19  37  64  94 122 165 217 262 312 372
#     4  11  21  39  62  93 130 168 208 260 319 373
#     4  11  21  40  68  91 126 165 215 265 311 371
#
# _framework density 20.572354000000001
#
# number of rings (size 3 to 8) (size 9 to 14) (size 15 to 20)
#    0.000    1.200    6.000    1.200    0.000    2.400 
#    0.000    2.000    0.000    4.800    0.000    0.000 
#    0.000    0.000    0.000    0.000    0.000    0.000 
#
# Total GULP energy -111624.176347 kJ/mol
# GULP energy per Si atom -5581.208817 kJ/mol
# Density = 2.052553 g / cm^3
# Si number density = 20.572354 Si / 1000 Ang^3
#
#
#
# Elastic Constant Matrix: (Units=GPa)
#
#
# Indices 1 2 3 4 5 6 
#
# 1 147.7629 39.1749 44.7298 0.0000 -1.0422 0.0000
# 2 39.1749 120.8582 33.2080 0.0000 -6.0126 0.0000
# 3 44.7298 33.2080 76.7584 0.0000 5.0926 0.0000
# 4 0.0000 0.0000 0.0000 -51.3196 0.0000 -9.9480
# 5 -1.0422 -6.0126 5.0926 0.0000 42.8859 0.0000
# 6 0.0000 0.0000 0.0000 -9.9480 0.0000 7.5362
#
#
#
# Elastic Compliance Matrix: (Units=1/GPa)
#
#
# Indices 1 2 3 4 5 6 
#
# 1 0.008485 -0.001541 -0.004311 0.000000 0.000502 0.000000
# 2 -0.001541 0.009812 -0.003463 0.000000 0.001749 0.000000
# 3 -0.004311 -0.003463 0.017213 0.000000 -0.002634 0.000000
# 4 0.000000 0.000000 0.000000 -0.015516 0.000000 -0.020481
# 5 0.000502 0.001749 -0.002634 0.000000 0.023888 0.000000
# 6 0.000000 0.000000 0.000000 -0.020481 0.000000 0.105658
#
#
# Mechanical properties :
#
#
# Convention : Reuss Voigt Hill
#
# Bulk Modulus (GPa) = 59.24198 64.40055 61.82127
# Shear Modulus (GPa) = 28.76926 15.03829 21.90377
#
# Velocity S-wave (km/s) = 3.74363 2.70662 3.26654
# Velocity P-wave (km/s) = 6.89535 6.41406 6.65905
#
# Compressibility (1/GPa) = 0.01687992
#
# Stress axis : x y z
#
# Youngs Moduli (GPa) = 117.86041 101.91397 58.09497
#
# Poissons Ratio (x) = 0.15702 0.25045
# Poissons Ratio (y) = 0.18158 0.20120
# Poissons Ratio (z) = 0.50810 0.35296
#
# Static dielectric constant tensor:
#      x y z
#    x 1.777390 0.000000 -0.002710 
#    y 0.000000 1.707110 0.000000 
#    z -0.002710 0.000000 1.734800 
# 
# From -- ./inp_files/25766.got.cif
#   From: 2010.05.17/outbox.cif.g08.bks.cpg/sg10_13_cif.got.tgz:25766.got - 2010.06.03 11:33:40.
