data_PCOD9154641
_publ_section_title
;
Structure prediction by ZEFSAII (Michael W. Deem and Ramdas Pophale) SiO2 
 PCOD9154641
Probable space group: P 2/M
;
_chemical_formula_sum "Si O2"
_cell_formula_units_Z 24
_cell_length_a 8.666135
_cell_length_b 18.504787
_cell_length_c 14.661213
_cell_angle_alpha 90.000000
_cell_angle_beta 151.118701
_cell_angle_gamma 90.000000
_cell_volume 1135.595146
_symmetry_space_group_name_H-M "P 2/M"
_symmetry_group_IT_number 10
_symmetry_cell_setting 'monoclinic'
loop_
_space_group_symop_operation_xyz
x,y,z
-x,y,-z
-x,-y,-z
x,-y,z
loop_
_atom_site_type_symbol
_atom_site_label
_atom_site_fract_x
_atom_site_fract_y
_atom_site_fract_z
Si Si1 0.612175 0.082177 0.308856
Si Si2 0.599077 0.802632 0.153272
Si Si3 0.633392 0.802652 0.467690
Si Si4 0.245752 0.660083 0.046756
Si Si5 0.886355 0.583830 0.690708
Si Si6 0.258801 0.660526 0.565233
O O1 0.502836 0.131447 0.168497
O O2 0.527952 0.128377 0.354766
O O3 0.000000 0.079778 0.500000
O O4 0.496014 0.000000 0.249658
O O5 0.425252 0.730297 0.099219
O O6 0.982963 0.798629 0.343712
O O7 0.500000 0.817044 0.000000
O O8 0.500000 0.806181 0.500000
O O9 0.542227 0.725617 0.377104
O O10 0.509632 0.616837 0.245712
O O11 0.000000 0.678715 0.000000
O O12 0.072862 0.621130 0.871531
O O13 0.500000 0.588267 0.500000
O O14 0.978244 0.500000 0.736298
O O15 0.924109 0.620129 0.610949
O O16 0.000000 0.693115 0.500000
#
# Coordination Sequence:
#
# PCOD9154641 Si02
#       6
#     4   4   4   4   4   4
#     4   9  19  39  63  92 131 173 217 268 327 392
#     4  11  23  38  63  99 131 169 222 275 326 393
#     4  11  22  39  66  96 130 174 221 271 328 391
#     4  12  25  42  71 102 131 176 228 275 334 401
#     4  11  26  46  68 100 137 174 222 281 340 402
#     4  12  23  43  69  98 135 175 225 277 331 399
#
# _framework density 21.134293
#
# number of rings (size 3 to 8) (size 9 to 14) (size 15 to 20)
#    0.000    1.000    5.000    2.000    2.333    2.000 
#    0.000    0.833    0.000    3.500    0.000    0.000 
#    0.000    0.667    0.000    0.000    0.000    0.000 
#
# Total GULP energy -133888.087314 kJ/mol
# GULP energy per Si atom -5578.670305 kJ/mol
# Density = 2.108619 g / cm^3
# Si number density = 21.134293 Si / 1000 Ang^3
#
#
#
# Elastic Constant Matrix: (Units=GPa)
#
#
# Indices 1 2 3 4 5 6 
#
# 1 186.9850 82.1382 51.1427 0.0000 -42.4572 0.0000
# 2 82.1382 164.4665 67.7941 0.0000 -36.2779 0.0000
# 3 51.1427 67.7941 130.1778 0.0000 -54.8800 0.0000
# 4 0.0000 0.0000 0.0000 36.4417 0.0000 22.5084
# 5 -42.4572 -36.2779 -54.8800 0.0000 41.9325 0.0000
# 6 0.0000 0.0000 0.0000 22.5084 0.0000 59.6238
#
#
#
# Elastic Compliance Matrix: (Units=1/GPa)
#
#
# Indices 1 2 3 4 5 6 
#
# 1 0.007926 -0.002953 0.001629 0.000000 0.007602 0.000000
# 2 -0.002953 0.009036 -0.003370 0.000000 0.000418 0.000000
# 3 0.001629 -0.003370 0.018434 0.000000 0.022860 0.000000
# 4 0.000000 0.000000 0.000000 0.035785 0.000000 -0.013509
# 5 0.007602 0.000418 0.022860 0.000000 0.061824 0.000000
# 6 0.000000 0.000000 0.000000 -0.013509 0.000000 0.021872
#
#
# Mechanical properties :
#
#
# Convention : Reuss Voigt Hill
#
# Bulk Modulus (GPa) = 38.44910 98.19769 68.32340
# Shear Modulus (GPa) = 28.91282 46.30321 37.60802
#
# Velocity S-wave (km/s) = 3.70273 4.68579 4.22296
# Velocity P-wave (km/s) = 6.04256 8.70862 7.49508
#
# Compressibility (1/GPa) = 0.02600841
#
# Stress axis : x y z
#
# Youngs Moduli (GPa) = 126.17042 110.66685 54.24808
#
# Poissons Ratio (x) = 0.32679 -0.08837
# Poissons Ratio (y) = 0.37257 0.18280
# Poissons Ratio (z) = -0.20552 0.37291
#
# Static dielectric constant tensor:
#      x y z
#    x 1.759450 0.000000 0.026720 
#    y 0.000000 1.739340 0.000000 
#    z 0.026720 0.000000 1.899010 
# 
# From -- ./inp_files/62417.got.cif
#   From: 2010.05.17/outbox.cif.g08.bks.cpg/sg10_32_cif.got.tgz:62417.got - 2010.06.03 11:33:40.
