data_PCOD9154826
_publ_section_title
;
Structure prediction by ZEFSAII (Michael W. Deem and Ramdas Pophale) SiO2 
 PCOD9154826
Probable space group: P 2/M
;
_chemical_formula_sum "Si O2"
_cell_formula_units_Z 13
_cell_length_a 6.978703
_cell_length_b 9.061917
_cell_length_c 7.121161
_cell_angle_alpha 90.000000
_cell_angle_beta 79.982315
_cell_angle_gamma 90.000000
_cell_volume 443.479349
_symmetry_space_group_name_H-M "P 2/M"
_symmetry_group_IT_number 10
_symmetry_cell_setting 'monoclinic'
loop_
_space_group_symop_operation_xyz
x,y,z
-x,y,-z
-x,-y,-z
x,-y,z
loop_
_atom_site_type_symbol
_atom_site_label
_atom_site_fract_x
_atom_site_fract_y
_atom_site_fract_z
Si Si1 0.705508 0.000000 0.074045
Si Si2 0.500000 0.500000 0.000000
Si Si3 0.815450 0.000000 0.663345
Si Si4 0.813085 0.302905 0.163349
Si Si5 0.706886 0.336088 0.572729
O O1 0.855616 0.000000 0.876911
O O2 0.739671 0.861864 0.195258
O O3 0.500000 0.000000 0.000000
O O4 0.364151 0.375762 0.916487
O O5 0.726726 0.830431 0.652956
O O6 0.000000 0.000000 0.500000
O O7 0.853486 0.349086 0.369974
O O8 0.000000 0.320124 0.000000
O O9 0.500000 0.339474 0.500000
O O10 0.709128 0.500000 0.681976
#
# Coordination Sequence:
#
# PCOD9154826 Si02
#       5
#     2   1   2   4   4
#     4  12  24  44  74 104 139 189 242 291 346 423
#     4  12  26  42  74 104 148 170 246 294 348 428
#     4  12  26  46  68 104 145 185 236 289 350 431
#     4  12  25  47  73 104 141 187 237 295 355 418
#     4  11  25  46  71 101 142 189 230 290 365 417
#
# _framework density 29.313652000000001
#
# number of rings (size 3 to 8) (size 9 to 14) (size 15 to 20)
#    0.000    0.308    3.077    6.000    0.000    0.615 
#    0.000    0.000    0.000    0.000    0.000    0.000 
#    0.000    0.000    0.000    0.000    0.000    0.000 
#
# Total GULP energy -72618.996937 kJ/mol
# GULP energy per Si atom -5586.076687 kJ/mol
# Density = 2.924693 g / cm^3
# Si number density = 29.313652 Si / 1000 Ang^3
#
#
#
# Elastic Constant Matrix: (Units=GPa)
#
#
# Indices 1 2 3 4 5 6 
#
# 1 134.2677 76.6754 38.6235 0.0000 18.2819 0.0000
# 2 76.6754 368.5614 26.9189 0.0000 30.8272 0.0000
# 3 38.6235 26.9189 115.7215 0.0000 10.8513 0.0000
# 4 0.0000 0.0000 0.0000 52.9549 0.0000 14.3625
# 5 18.2819 30.8272 10.8513 0.0000 59.2131 0.0000
# 6 0.0000 0.0000 0.0000 14.3625 0.0000 55.2870
#
#
#
# Elastic Compliance Matrix: (Units=1/GPa)
#
#
# Indices 1 2 3 4 5 6 
#
# 1 0.009332 -0.001621 -0.002591 0.000000 -0.001562 0.000000
# 2 -0.001621 0.003151 -0.000086 0.000000 -0.001124 0.000000
# 3 -0.002591 -0.000086 0.009612 0.000000 -0.000917 0.000000
# 4 0.000000 0.000000 0.000000 0.020315 0.000000 -0.005278
# 5 -0.001562 -0.001124 -0.000917 0.000000 0.018124 0.000000
# 6 0.000000 0.000000 0.000000 -0.005278 0.000000 0.019458
#
#
# Mechanical properties :
#
#
# Convention : Reuss Voigt Hill
#
# Bulk Modulus (GPa) = 74.08855 100.33181 87.21018
# Shear Modulus (GPa) = 53.71203 65.24651 59.47927
#
# Velocity S-wave (km/s) = 4.28521 4.72296 4.50940
# Velocity P-wave (km/s) = 7.05785 8.00270 7.54508
#
# Compressibility (1/GPa) = 0.01349736
#
# Stress axis : x y z
#
# Youngs Moduli (GPa) = 107.16056 317.36934 104.03407
#
# Poissons Ratio (x) = 0.51461 0.26954
# Poissons Ratio (y) = 0.17376 0.00899
# Poissons Ratio (z) = 0.27765 0.02741
#
# Static dielectric constant tensor:
#      x y z
#    x 2.312300 0.000000 -0.213050 
#    y 0.000000 2.437480 0.000000 
#    z -0.213050 0.000000 2.242580 
# 
# From -- ./inp_files/16524.got.cif
#   From: 2010.05.17/outbox.cif.g08.bks.cpg/sg10_9_cif.got.tgz:16524.got - 2010.06.03 11:33:40.
