data_PCOD9154160
_publ_section_title
;
Structure prediction by ZEFSAII (Michael W. Deem and Ramdas Pophale) SiO2 
 PCOD9154160
Probable space group: P 2/M
;
_chemical_formula_sum "Si O2"
_cell_formula_units_Z 17
_cell_length_a 4.882485
_cell_length_b 24.785747
_cell_length_c 7.153966
_cell_angle_alpha 90.000000
_cell_angle_beta 134.091589
_cell_angle_gamma 90.000000
_cell_volume 621.802417
_symmetry_space_group_name_H-M "P 2/M"
_symmetry_group_IT_number 10
_symmetry_cell_setting 'monoclinic'
loop_
_space_group_symop_operation_xyz
x,y,z
-x,y,-z
-x,-y,-z
x,-y,z
loop_
_atom_site_type_symbol
_atom_site_label
_atom_site_fract_x
_atom_site_fract_y
_atom_site_fract_z
Si Si1 0.448708 0.384840 0.253270
Si Si2 0.500000 0.000000 0.500000
Si Si3 0.553079 0.897380 0.249668
Si Si4 0.500000 0.189951 0.500000
Si Si5 0.457950 0.732885 0.179744
Si Si6 0.550172 0.500000 0.747047
O O1 0.500000 0.381654 0.500000
O O2 0.597092 0.328975 0.240479
O O3 0.605611 0.442479 0.256330
O O4 0.000000 0.385915 0.000000
O O5 0.473154 0.952920 0.321909
O O6 0.337854 0.851457 0.268061
O O7 0.000000 0.885155 0.500000
O O8 0.500000 0.900980 0.000000
O O9 0.330552 0.234238 0.559894
O O10 0.500000 0.760048 0.000000
O O11 0.000000 0.732243 0.000000
O O12 0.500000 0.500000 0.500000
O O13 0.000000 0.500000 0.000000
#
# Coordination Sequence:
#
# PCOD9154160 Si02
#       6
#     4   1   4   2   4   2
#     4   9  17  35  56  91 125 171 223 286 351 425
#     4  10  24  46  76 108 144 188 232 292 342 420
#     4  11  26  45  72 105 144 186 236 288 349 412
#     4  11  26  41  68  97 140 185 238 292 348 417
#     4  11  25  43  67  97 138 185 239 294 358 425
#     4   8  14  26  55  82 122 163 215 279 352 418
#
# _framework density 27.339873000000001
#
# number of rings (size 3 to 8) (size 9 to 14) (size 15 to 20)
#    0.000    1.882    1.176    1.412    6.588    3.765 
#    0.000    0.588    0.000    0.000    0.000   14.824 
#    0.000    0.000    0.000    0.000    0.000    0.000 
#
# Total GULP energy -94761.980695 kJ/mol
# GULP energy per Si atom -5574.234159 kJ/mol
# Density = 2.727765 g / cm^3
# Si number density = 27.339873 Si / 1000 Ang^3
#
#
#
# Elastic Constant Matrix: (Units=GPa)
#
#
# Indices 1 2 3 4 5 6 
#
# 1 101.3861 14.1286 69.3092 0.0000 -0.4849 0.0000
# 2 14.1286 272.0476 53.9145 0.0000 -39.8164 0.0000
# 3 69.3092 53.9145 291.5425 0.0000 -41.1815 0.0000
# 4 0.0000 0.0000 0.0000 -42.3584 0.0000 44.7873
# 5 -0.4849 -39.8164 -41.1815 0.0000 79.1780 0.0000
# 6 0.0000 0.0000 0.0000 44.7873 0.0000 -65.5588
#
#
#
# Elastic Compliance Matrix: (Units=1/GPa)
#
#
# Indices 1 2 3 4 5 6 
#
# 1 0.011960 -0.000260 -0.003026 0.000000 -0.001631 0.000000
# 2 -0.000260 0.004039 -0.000430 0.000000 0.001806 0.000000
# 3 -0.003026 -0.000430 0.004528 0.000000 0.002121 0.000000
# 4 0.000000 0.000000 0.000000 -0.085024 0.000000 -0.058085
# 5 -0.001631 0.001806 0.002121 0.000000 0.014631 0.000000
# 6 0.000000 0.000000 0.000000 -0.058085 0.000000 -0.054935
#
#
# Mechanical properties :
#
#
# Convention : Reuss Voigt Hill
#
# Bulk Modulus (GPa) = 76.36115 104.40898 90.38506
# Shear Modulus (GPa) = -53.76085 29.42708 -12.16688
#
# Velocity S-wave (km/s) = -4.43921 3.28433 -2.11185
# Velocity P-wave (km/s) = 1.30977 7.25635 5.21393
#
# Compressibility (1/GPa) = 0.01309566
#
# Stress axis : x y z
#
# Youngs Moduli (GPa) = 83.61127 247.59546 220.83054
#
# Poissons Ratio (x) = 0.06444 0.66815
# Poissons Ratio (y) = 0.02176 0.09494
# Poissons Ratio (z) = 0.25297 0.10645
#
# Static dielectric constant tensor:
#      x y z
#    x 2.131520 0.000000 0.178140 
#    y 0.000000 2.142000 0.000000 
#    z 0.178140 0.000000 2.162220 
# 
# From -- ./inp_files/2214.got.cif
#   From: 2010.05.17/outbox.cif.g08.bks.cpg/sg10_2_cif.got.tgz:2214.got - 2010.06.03 11:33:40.
