data_PCOD9154715
_publ_section_title
;
Structure prediction by ZEFSAII (Michael W. Deem and Ramdas Pophale) SiO2 
 PCOD9154715
Probable space group: P 2/M
;
_chemical_formula_sum "Si O2"
_cell_formula_units_Z 24
_cell_length_a 16.274450
_cell_length_b 8.785422
_cell_length_c 22.321031
_cell_angle_alpha 90.000000
_cell_angle_beta 157.714031
_cell_angle_gamma 90.000000
_cell_volume 1210.278725
_symmetry_space_group_name_H-M "P 2/M"
_symmetry_group_IT_number 10
_symmetry_cell_setting 'monoclinic'
loop_
_space_group_symop_operation_xyz
x,y,z
-x,y,-z
-x,-y,-z
x,-y,z
loop_
_atom_site_type_symbol
_atom_site_label
_atom_site_fract_x
_atom_site_fract_y
_atom_site_fract_z
Si Si1 0.068760 0.822205 0.977120
Si Si2 0.871129 0.181958 0.615799
Si Si3 0.270902 0.324827 0.812166
Si Si4 0.539111 0.321342 0.299794
Si Si5 0.244552 0.317167 0.333654
Si Si6 0.258461 0.828476 0.677268
O O1 0.890935 0.749927 0.813167
O O2 0.097143 0.000000 0.980650
O O3 0.295168 0.734617 0.125961
O O4 0.000000 0.812903 0.000000
O O5 0.662925 0.232534 0.436195
O O6 0.845840 0.249400 0.665200
O O7 0.081948 0.248468 0.724128
O O8 0.884356 0.000000 0.626617
O O9 0.206508 0.500000 0.756191
O O10 0.308627 0.234890 0.776337
O O11 0.500000 0.325392 0.000000
O O12 0.546876 0.500000 0.318043
O O13 0.660597 0.280735 0.320297
O O14 0.500000 0.279565 0.500000
O O15 0.223583 0.500000 0.320366
O O16 0.000000 0.835916 0.500000
O O17 0.345079 0.000000 0.726509
#
# Coordination Sequence:
#
# PCOD9154715 Si02
#       6
#     4   4   4   4   4   4
#     4  11  25  45  70 100 133 170 215 268 324 386
#     4  12  25  43  67  96 132 173 219 270 327 389
#     4  11  25  43  65  94 131 173 221 271 325 387
#     4  12  25  42  68  97 132 173 218 271 326 387
#     4  11  25  45  70  99 133 172 216 266 324 388
#     4  11  23  41  66  96 130 171 221 269 322 385
#
# _framework density 19.830141999999999
#
# number of rings (size 3 to 8) (size 9 to 14) (size 15 to 20)
#    0.000    0.667    1.667    6.000    2.333    7.333 
#    0.000    0.000    0.000    0.000    0.000    0.000 
#    0.000    0.000    0.000    0.000    0.000    0.000 
#
# Total GULP energy -134325.913007 kJ/mol
# GULP energy per Si atom -5596.913042 kJ/mol
# Density = 1.978501 g / cm^3
# Si number density = 19.830142 Si / 1000 Ang^3
#
#
#
# Elastic Constant Matrix: (Units=GPa)
#
#
# Indices 1 2 3 4 5 6 
#
# 1 68.6794 12.8369 26.1311 0.0000 -16.1295 0.0000
# 2 12.8369 106.4934 34.0533 0.0000 -0.8132 0.0000
# 3 26.1311 34.0533 110.5673 0.0000 -12.8487 0.0000
# 4 0.0000 0.0000 0.0000 109.5519 0.0000 68.1725
# 5 -16.1295 -0.8132 -12.8487 0.0000 34.8978 0.0000
# 6 0.0000 0.0000 0.0000 68.1725 0.0000 104.8470
#
#
#
# Elastic Compliance Matrix: (Units=1/GPa)
#
#
# Indices 1 2 3 4 5 6 
#
# 1 0.017546 -0.001104 -0.002996 0.000000 0.006981 0.000000
# 2 -0.001104 0.010518 -0.003144 0.000000 -0.001423 0.000000
# 3 -0.002996 -0.003144 0.011023 0.000000 0.002601 0.000000
# 4 0.000000 0.000000 0.000000 0.015331 0.000000 -0.009969
# 5 0.006981 -0.001423 0.002601 0.000000 0.032806 0.000000
# 6 0.000000 0.000000 0.000000 -0.009969 0.000000 0.016019
#
#
# Mechanical properties :
#
#
# Convention : Reuss Voigt Hill
#
# Bulk Modulus (GPa) = 40.65030 47.97587 44.31308
# Shear Modulus (GPa) = 39.70475 64.04058 51.87267
#
# Velocity S-wave (km/s) = 4.47950 5.68900 5.12009
# Velocity P-wave (km/s) = 6.87737 8.20968 7.57288
#
# Compressibility (1/GPa) = 0.02460007
#
# Stress axis : x y z
#
# Youngs Moduli (GPa) = 56.99312 95.07756 90.72208
#
# Poissons Ratio (x) = 0.10495 0.27176
# Poissons Ratio (y) = 0.06291 0.28521
# Poissons Ratio (z) = 0.17073 0.29890
#
# Static dielectric constant tensor:
#      x y z
#    x 1.653930 0.000000 0.032240 
#    y 0.000000 1.682270 0.000000 
#    z 0.032240 0.000000 1.577440 
# 
# From -- ./inp_files/90064.got.cif
#   From: 2010.05.17/outbox.cif.g08.bks.cpg/sg10_46_cif.got.tgz:90064.got - 2010.06.03 11:33:40.
