data_PCOD9154886
_publ_section_title
;
Structure prediction by ZEFSAII (Michael W. Deem and Ramdas Pophale) SiO2 
 PCOD9154886
Probable space group: P 2/M
;
_chemical_formula_sum "Si O2"
_cell_formula_units_Z 32
_cell_length_a 20.566625
_cell_length_b 7.283201
_cell_length_c 8.080516
_cell_angle_alpha 90.000000
_cell_angle_beta 71.845200
_cell_angle_gamma 90.000000
_cell_volume 1150.132148
_symmetry_space_group_name_H-M "P 2/M"
_symmetry_group_IT_number 10
_symmetry_cell_setting 'monoclinic'
loop_
_space_group_symop_operation_xyz
x,y,z
-x,y,-z
-x,-y,-z
x,-y,z
loop_
_atom_site_type_symbol
_atom_site_label
_atom_site_fract_x
_atom_site_fract_y
_atom_site_fract_z
Si Si1 0.413573 0.775479 0.227701
Si Si2 0.670514 0.776630 0.021789
Si Si3 0.076938 0.282352 0.801094
Si Si4 0.457653 0.776945 0.692086
Si Si5 0.047079 0.281152 0.295723
Si Si6 0.202400 0.219813 0.903438
Si Si7 0.167472 0.722020 0.412406
Si Si8 0.290804 0.211260 0.525087
O O1 0.491619 0.725060 0.197663
O O2 0.364546 0.715727 0.417585
O O3 0.413137 0.000000 0.223918
O O4 0.372497 0.712795 0.100554
O O5 0.620169 0.723015 0.213023
O O6 0.748350 0.713589 0.988045
O O7 0.672495 0.000000 0.013513
O O8 0.068692 0.500000 0.792141
O O9 0.123517 0.261824 0.927468
O O10 0.124394 0.219005 0.610331
O O11 0.001456 0.209401 0.814141
O O12 0.500000 0.714635 0.500000
O O13 0.455915 0.000000 0.685888
O O14 0.056139 0.500000 0.266147
O O15 0.121918 0.210945 0.293120
O O16 0.000000 0.259650 0.500000
O O17 0.244580 0.289992 0.708104
O O18 0.204112 0.000000 0.904129
O O19 0.168470 0.500000 0.408919
O O20 0.243509 0.785789 0.396683
O O21 0.302129 0.000000 0.563279
#
# Coordination Sequence:
#
# PCOD9154886 Si02
#       8
#     4   4   4   4   4   4   4   4
#     4   9  16  25  37  54  78 108 138 165 196 238
#     4   9  16  25  37  54  78 108 138 165 196 238
#     4   8  13  22  37  56  78 105 135 165 199 241
#     4   9  15  23  37  57  80 105 134 169 204 234
#     4   7  10  18  33  53  76 101 130 164 200 237
#     4   9  16  25  37  56  82 107 131 164 204 239
#     4   8  13  22  37  56  78 105 135 165 199 241
#     4   9  16  25  37  56  82 107 131 164 204 239
#
# _framework density 27.822889
#
# number of rings (size 3 to 8) (size 9 to 14) (size 15 to 20)
#    0.000    3.500    0.000    2.625    0.000    4.500 
#    0.000    0.625    0.000    4.500    0.000    1.750 
#    0.000   14.000    0.000    0.000    0.000    0.000 
#
# Total GULP energy -178795.992678 kJ/mol
# GULP energy per Si atom -5587.374771 kJ/mol
# Density = 2.775956 g / cm^3
# Si number density = 27.822889 Si / 1000 Ang^3
#
#
#
# Elastic Constant Matrix: (Units=GPa)
#
#
# Indices 1 2 3 4 5 6 
#
# 1 241.2284 -2.1234 42.7538 0.0000 11.4633 0.0000
# 2 -2.1234 122.4521 -6.1725 0.0000 -0.3295 0.0000
# 3 42.7538 -6.1725 91.3416 0.0000 20.2708 0.0000
# 4 0.0000 0.0000 0.0000 -7.3459 0.0000 6.3247
# 5 11.4633 -0.3295 20.2708 0.0000 58.9607 0.0000
# 6 0.0000 0.0000 0.0000 6.3247 0.0000 4.7764
#
#
#
# Elastic Compliance Matrix: (Units=1/GPa)
#
#
# Indices 1 2 3 4 5 6 
#
# 1 0.004522 -0.000027 -0.002082 0.000000 -0.000163 0.000000
# 2 -0.000027 0.008196 0.000601 0.000000 -0.000156 0.000000
# 3 -0.002082 0.000601 0.012853 0.000000 -0.004011 0.000000
# 4 0.000000 0.000000 0.000000 -0.063610 0.000000 0.084230
# 5 -0.000163 -0.000156 -0.004011 0.000000 0.018370 0.000000
# 6 0.000000 0.000000 0.000000 0.084230 0.000000 0.097831
#
#
# Mechanical properties :
#
#
# Convention : Reuss Voigt Hill
#
# Bulk Modulus (GPa) = 44.33641 58.21533 51.27587
# Shear Modulus (GPa) = 56.37209 39.31583 47.84396
#
# Velocity S-wave (km/s) = 4.50611 3.76317 4.15129
# Velocity P-wave (km/s) = 6.56073 6.31275 6.43794
#
# Compressibility (1/GPa) = 0.02255482
#
# Stress axis : x y z
#
# Youngs Moduli (GPa) = 221.14079 122.01274 77.80171
#
# Poissons Ratio (x) = 0.00329 0.16199
# Poissons Ratio (y) = 0.00597 -0.04676
# Poissons Ratio (z) = 0.46045 -0.07333
#
# Static dielectric constant tensor:
#      x y z
#    x 2.114020 0.000000 0.035680 
#    y 0.000000 2.083040 0.000000 
#    z 0.035680 0.000000 2.284640 
# 
# From -- ./inp_files/32187.got.cif
#   From: 2010.05.17/outbox.cif.g08.bks.cpg/sg10_17_cif.got.tgz:32187.got - 2010.06.03 11:33:40.
