data_PCOD9154985
_publ_section_title
;
Structure prediction by ZEFSAII (Michael W. Deem and Ramdas Pophale) SiO2 
 PCOD9154985
Probable space group: P 2/M
;
_chemical_formula_sum "Si O2"
_cell_formula_units_Z 28
_cell_length_a 20.822194
_cell_length_b 7.824003
_cell_length_c 21.907640
_cell_angle_alpha 90.000000
_cell_angle_beta 18.775647
_cell_angle_gamma 90.000000
_cell_volume 1148.742147
_symmetry_space_group_name_H-M "P 2/M"
_symmetry_group_IT_number 10
_symmetry_cell_setting 'monoclinic'
loop_
_space_group_symop_operation_xyz
x,y,z
-x,y,-z
-x,-y,-z
x,-y,z
loop_
_atom_site_type_symbol
_atom_site_label
_atom_site_fract_x
_atom_site_fract_y
_atom_site_fract_z
Si Si1 0.552284 0.691969 0.020147
Si Si2 0.860815 0.202459 0.568110
Si Si3 0.318656 0.696907 0.831644
Si Si4 0.795519 0.683953 0.374297
Si Si5 0.765698 0.000000 0.320049
Si Si6 0.871048 0.802550 0.432456
Si Si7 0.717525 0.000000 0.224106
Si Si8 0.416170 0.291971 0.876599
O O1 0.629678 0.500000 0.938813
O O2 0.329266 0.684936 0.247891
O O3 0.650281 0.766601 0.995307
O O4 0.500000 0.774424 0.000000
O O5 0.970245 0.249331 0.406982
O O6 0.000000 0.220105 0.500000
O O7 0.806114 0.000000 0.612681
O O8 0.255127 0.500000 0.880302
O O9 0.559515 0.696734 0.603196
O O10 0.236995 0.832792 0.857022
O O11 0.293174 0.749580 0.925676
O O12 0.831477 0.500000 0.313902
O O13 0.902776 0.697541 0.343129
O O14 0.842982 0.834476 0.285802
O O15 0.806712 0.000000 0.211471
O O16 0.524102 0.000000 0.547176
O O17 0.636325 0.782049 0.662796
O O18 0.908732 0.000000 0.384295
O O19 0.427022 0.500000 0.868330
#
# Coordination Sequence:
#
# PCOD9154985 Si02
#       8
#     4   4   4   4   2   4   2   4
#     4   9  17  29  44  62  85 112 144 184 225 262
#     4   9  18  30  43  61  86 114 144 182 224 262
#     4   8  14  22  32  46  64  90 123 159 199 238
#     4   9  15  23  34  47  66  91 123 162 200 241
#     4   9  16  24  30  46  65  90 123 157 201 243
#     4   9  14  22  37  53  70  95 130 169 206 245
#     4   9  16  22  32  44  65  90 121 161 197 241
#     4   8  14  23  35  52  71  94 128 167 205 246
#
# _framework density 24.374486999999998
#
# number of rings (size 3 to 8) (size 9 to 14) (size 15 to 20)
#    0.000    3.286    0.714    1.286    3.000    1.714 
#    0.000    2.857    0.000    0.000    0.000    0.000 
#    0.000    0.000    0.000    0.000    0.000    2.857 
#
# Total GULP energy -156215.268890 kJ/mol
# GULP energy per Si atom -5579.116746 kJ/mol
# Density = 2.431901 g / cm^3
# Si number density = 24.374487 Si / 1000 Ang^3
#
#
#
# Elastic Constant Matrix: (Units=GPa)
#
#
# Indices 1 2 3 4 5 6 
#
# 1 206.7040 87.0949 21.7229 0.0000 59.1006 0.0000
# 2 87.0949 109.1468 15.6352 0.0000 20.5719 0.0000
# 3 21.7229 15.6352 104.1891 0.0000 24.0843 0.0000
# 4 0.0000 0.0000 0.0000 635.0706 0.0000 1267.7941
# 5 59.1006 20.5719 24.0843 0.0000 32.2058 0.0000
# 6 0.0000 0.0000 0.0000 1267.7941 0.0000 2516.9174
#
#
#
# Elastic Compliance Matrix: (Units=1/GPa)
#
#
# Indices 1 2 3 4 5 6 
#
# 1 0.014934 -0.007686 0.003917 0.000000 -0.025426 0.000000
# 2 -0.007686 0.014372 -0.002046 0.000000 0.006455 0.000000
# 3 0.003917 -0.002046 0.012631 0.000000 -0.015327 0.000000
# 4 0.000000 0.000000 0.000000 -0.283387 0.000000 0.142744
# 5 -0.025426 0.006455 -0.015327 0.000000 0.085048 0.000000
# 6 0.000000 0.000000 0.000000 0.142744 0.000000 -0.071504
#
#
# Mechanical properties :
#
#
# Convention : Reuss Voigt Hill
#
# Bulk Modulus (GPa) = 32.99564 74.32734 53.66149
# Shear Modulus (GPa) = -24.25143 656.54456 316.14656
#
# Velocity S-wave (km/s) = -3.15771 16.42991 11.40112
# Velocity P-wave (km/s) = 0.52108 19.76064 13.97774
#
# Compressibility (1/GPa) = 0.03030703
#
# Stress axis : x y z
#
# Youngs Moduli (GPa) = 66.95974 69.58162 79.16835
#
# Poissons Ratio (x) = 0.53480 -0.31010
# Poissons Ratio (y) = 0.51465 0.16200
# Poissons Ratio (z) = -0.26228 0.14238
#
# Static dielectric constant tensor:
#      x y z
#    x 2.120850 0.000000 -0.180350 
#    y 0.000000 1.877260 0.000000 
#    z -0.180350 0.000000 2.176710 
# 
# From -- ./inp_files/86049.got.cif
#   From: 2010.05.17/outbox.cif.g08.bks.cpg/sg10_44_cif.got.tgz:86049.got - 2010.06.03 11:33:40.
