data_PCOD9154231
_publ_section_title
;
Structure prediction by ZEFSAII (Michael W. Deem and Ramdas Pophale) SiO2 
 PCOD9154231
Probable space group: P 2/M
;
_chemical_formula_sum "Si O2"
_cell_formula_units_Z 24
_cell_length_a 10.542955
_cell_length_b 14.487227
_cell_length_c 14.015427
_cell_angle_alpha 90.000000
_cell_angle_beta 149.257939
_cell_angle_gamma 90.000000
_cell_volume 1094.265503
_symmetry_space_group_name_H-M "P 2/M"
_symmetry_group_IT_number 10
_symmetry_cell_setting 'monoclinic'
loop_
_space_group_symop_operation_xyz
x,y,z
-x,y,-z
-x,-y,-z
x,-y,z
loop_
_atom_site_type_symbol
_atom_site_label
_atom_site_fract_x
_atom_site_fract_y
_atom_site_fract_z
Si Si1 0.024779 0.606068 0.296798
Si Si2 0.448756 0.899832 0.580588
Si Si3 0.696382 0.608356 0.913083
Si Si4 0.755033 0.703079 0.274668
Si Si5 0.914135 0.898656 0.333571
Si Si6 0.474770 0.699533 0.369460
O O1 0.102526 0.500000 0.354649
O O2 0.797303 0.628750 0.218739
O O3 0.245369 0.670047 0.474800
O O4 0.938423 0.625432 0.133508
O O5 0.500000 0.902550 0.500000
O O6 0.159788 0.890229 0.425382
O O7 0.576482 0.804904 0.693983
O O8 0.531178 0.000000 0.672895
O O9 0.634319 0.500000 0.884447
O O10 0.484217 0.673659 0.820786
O O11 0.700708 0.633291 0.804558
O O12 0.000000 0.699316 0.500000
O O13 0.753063 0.805540 0.227181
O O14 0.000000 0.902394 0.500000
O O15 0.801657 0.000000 0.239524
O O16 0.500000 0.691542 0.500000
#
# Coordination Sequence:
#
# PCOD9154231 Si02
#       6
#     4   4   4   4   4   4
#     4  11  23  38  57  84 116 152 193 241 291 343
#     4   9  17  32  57  86 113 148 193 235 285 352
#     4  11  24  39  57  83 116 155 197 241 289 344
#     4  11  19  34  59  84 111 151 191 236 290 346
#     4   9  16  28  51  83 115 146 187 238 292 347
#     4  11  22  39  62  86 114 153 195 239 291 346
#
# _framework density 21.93252
#
# number of rings (size 3 to 8) (size 9 to 14) (size 15 to 20)
#    0.000    1.667    3.333    2.500    0.000    4.000 
#    0.000    1.667    0.000    5.000    0.000    4.667 
#    0.000    0.000    0.000    0.000    0.000    0.000 
#
# Total GULP energy -133816.645174 kJ/mol
# GULP energy per Si atom -5575.693549 kJ/mol
# Density = 2.188260 g / cm^3
# Si number density = 21.932520 Si / 1000 Ang^3
#
#
#
# Elastic Constant Matrix: (Units=GPa)
#
#
# Indices 1 2 3 4 5 6 
#
# 1 119.3290 20.8704 18.3710 0.0000 -6.8960 0.0000
# 2 20.8704 81.2816 29.4503 0.0000 -9.7441 0.0000
# 3 18.3710 29.4503 59.5398 0.0000 -13.1171 0.0000
# 4 0.0000 0.0000 0.0000 4.9563 0.0000 -12.8721
# 5 -6.8960 -9.7441 -13.1171 0.0000 22.7705 0.0000
# 6 0.0000 0.0000 0.0000 -12.8721 0.0000 28.3055
#
#
#
# Elastic Compliance Matrix: (Units=1/GPa)
#
#
# Indices 1 2 3 4 5 6 
#
# 1 0.008983 -0.001536 -0.001784 0.000000 0.001036 0.000000
# 2 -0.001536 0.015373 -0.006624 0.000000 0.002298 0.000000
# 3 -0.001784 -0.006624 0.022768 0.000000 0.009741 0.000000
# 4 0.000000 0.000000 0.000000 -1.114341 0.000000 -0.506754
# 5 0.001036 0.002298 0.009741 0.000000 0.050825 0.000000
# 6 0.000000 0.000000 0.000000 -0.506754 0.000000 -0.195121
#
#
# Mechanical properties :
#
#
# Convention : Reuss Voigt Hill
#
# Bulk Modulus (GPa) = 36.71482 44.17042 40.44262
# Shear Modulus (GPa) = -4.22816 23.97038 9.87111
#
# Velocity S-wave (km/s) = -1.38996 3.30951 2.12378
# Velocity P-wave (km/s) = 3.76832 5.89803 4.94909
#
# Compressibility (1/GPa) = 0.02723696
#
# Stress axis : x y z
#
# Youngs Moduli (GPa) = 111.31725 65.05046 43.92078
#
# Poissons Ratio (x) = 0.09993 0.07835
# Poissons Ratio (y) = 0.17100 0.29092
# Poissons Ratio (z) = 0.19857 0.43087
#
# Static dielectric constant tensor:
#      x y z
#    x 1.886320 0.000000 -0.025990 
#    y 0.000000 1.825240 0.000000 
#    z -0.025990 0.000000 1.791050 
# 
# From -- ./inp_files/51545.got.cif
#   From: 2010.05.17/outbox.cif.g08.bks.cpg/sg10_26_cif.got.tgz:51545.got - 2010.06.03 11:33:40.
