data_PCOD9154823
_publ_section_title
;
Structure prediction by ZEFSAII (Michael W. Deem and Ramdas Pophale) SiO2 
 PCOD9154823
Probable space group: P 2/M
;
_chemical_formula_sum "Si O2"
_cell_formula_units_Z 13
_cell_length_a 5.035484
_cell_length_b 19.112287
_cell_length_c 5.066047
_cell_angle_alpha 90.000000
_cell_angle_beta 91.287029
_cell_angle_gamma 90.000000
_cell_volume 487.431415
_symmetry_space_group_name_H-M "P 2/M"
_symmetry_group_IT_number 10
_symmetry_cell_setting 'monoclinic'
loop_
_space_group_symop_operation_xyz
x,y,z
-x,y,-z
-x,-y,-z
x,-y,z
loop_
_atom_site_type_symbol
_atom_site_label
_atom_site_fract_x
_atom_site_fract_y
_atom_site_fract_z
Si Si1 0.267372 0.777894 0.685064
Si Si2 0.190671 0.617438 0.756857
Si Si3 0.000000 0.119951 0.000000
Si Si4 0.500000 0.500000 0.500000
Si Si5 0.298363 0.000000 0.743158
O O1 0.500000 0.802808 0.500000
O O2 0.297560 0.696548 0.757767
O O3 0.000000 0.784012 0.500000
O O4 0.228021 0.822851 0.947994
O O5 0.415500 0.561266 0.710712
O O6 0.000000 0.608442 0.500000
O O7 0.000000 0.605612 0.000000
O O8 0.098457 0.065516 0.777190
O O9 0.500000 0.000000 0.500000
O O10 0.500000 0.000000 0.000000
#
# Coordination Sequence:
#
# PCOD9154823 Si02
#       5
#     4   4   2   1   2
#     4  11  25  46  73 110 148 193 249 310 368 437
#     4  11  25  46  68 104 144 189 246 304 366 436
#     4  11  26  44  78 105 148 196 242 309 366 444
#     4  12  24  46  72 100 144 200 236 306 370 434
#     4  11  28  49  74 108 151 192 247 299 374 446
#
# _framework density 26.670415999999999
#
# number of rings (size 3 to 8) (size 9 to 14) (size 15 to 20)
#    0.000    0.923    3.077    1.846    8.615    3.692 
#    0.000    0.000    0.000    0.000    0.000    0.000 
#    0.000    0.000    0.000    0.000    0.000    0.000 
#
# Total GULP energy -72436.213753 kJ/mol
# GULP energy per Si atom -5572.016443 kJ/mol
# Density = 2.660971 g / cm^3
# Si number density = 26.670416 Si / 1000 Ang^3
#
#
#
# Elastic Constant Matrix: (Units=GPa)
#
#
# Indices 1 2 3 4 5 6 
#
# 1 125.8339 23.9098 78.9116 0.0000 -25.9952 0.0000
# 2 23.9098 210.6138 60.0506 0.0000 -45.8401 0.0000
# 3 78.9116 60.0506 277.6115 0.0000 -59.6289 0.0000
# 4 0.0000 0.0000 0.0000 -0.9169 0.0000 20.9946
# 5 -25.9952 -45.8401 -59.6289 0.0000 84.8940 0.0000
# 6 0.0000 0.0000 0.0000 20.9946 0.0000 -86.0391
#
#
#
# Elastic Compliance Matrix: (Units=1/GPa)
#
#
# Indices 1 2 3 4 5 6 
#
# 1 0.009782 -0.000145 -0.002500 0.000000 0.001161 0.000000
# 2 -0.000145 0.005479 -0.000610 0.000000 0.002486 0.000000
# 3 -0.002500 -0.000610 0.004957 0.000000 0.002387 0.000000
# 4 0.000000 0.000000 0.000000 0.237754 0.000000 0.058015
# 5 0.001161 0.002486 0.002387 0.000000 0.015154 0.000000
# 6 0.000000 0.000000 0.000000 0.058015 0.000000 0.002534
#
#
# Mechanical properties :
#
#
# Convention : Reuss Voigt Hill
#
# Bulk Modulus (GPa) = 72.94406 104.42257 88.68332
# Shear Modulus (GPa) = 17.43738 29.66675 23.55206
#
# Velocity S-wave (km/s) = 2.55974 3.33880 2.97489
# Velocity P-wave (km/s) = 6.01215 7.35537 6.71742
#
# Compressibility (1/GPa) = 0.01370914
#
# Stress axis : x y z
#
# Youngs Moduli (GPa) = 102.22799 182.49894 201.71674
#
# Poissons Ratio (x) = 0.02647 0.50425
# Poissons Ratio (y) = 0.01483 0.12307
# Poissons Ratio (z) = 0.25555 0.11135
#
# Static dielectric constant tensor:
#      x y z
#    x 2.197400 0.000000 0.152390 
#    y 0.000000 2.054060 0.000000 
#    z 0.152390 0.000000 2.097650 
# 
# From -- ./inp_files/790.got.cif
#   From: 2010.05.17/outbox.cif.g08.bks.cpg/sg10_1_cif.got.tgz:790.got - 2010.06.03 11:33:40.
