data_PCOD9154830
_publ_section_title
;
Structure prediction by ZEFSAII (Michael W. Deem and Ramdas Pophale) SiO2 
 PCOD9154830
Probable space group: P 2/M
;
_chemical_formula_sum "Si O2"
_cell_formula_units_Z 18
_cell_length_a 5.286585
_cell_length_b 25.151176
_cell_length_c 5.044585
_cell_angle_alpha 90.000000
_cell_angle_beta 88.114386
_cell_angle_gamma 90.000000
_cell_volume 670.384138
_symmetry_space_group_name_H-M "P 2/M"
_symmetry_group_IT_number 10
_symmetry_cell_setting 'monoclinic'
loop_
_space_group_symop_operation_xyz
x,y,z
-x,y,-z
-x,-y,-z
x,-y,z
loop_
_atom_site_type_symbol
_atom_site_label
_atom_site_fract_x
_atom_site_fract_y
_atom_site_fract_z
Si Si1 0.744041 0.386260 0.182569
Si Si2 0.500000 0.190635 0.000000
Si Si3 0.243478 0.119368 0.658206
Si Si4 0.254432 0.000000 0.824347
Si Si5 0.744738 0.500000 0.184551
Si Si6 0.174837 0.729991 0.728415
O O1 0.740632 0.443167 0.331738
O O2 0.752531 0.330971 0.336862
O O3 0.500000 0.383916 0.000000
O O4 0.000000 0.386746 0.000000
O O5 0.723522 0.147754 0.057200
O O6 0.582502 0.234186 0.217768
O O7 0.500000 0.135613 0.500000
O O8 0.000000 0.134424 0.500000
O O9 0.250941 0.055590 0.673102
O O10 0.500000 0.000000 0.000000
O O11 0.000000 0.000000 0.000000
O O12 0.500000 0.500000 0.000000
O O13 0.000000 0.500000 0.000000
O O14 0.000000 0.750381 0.500000
O O15 0.000000 0.730919 0.000000
#
# Coordination Sequence:
#
# PCOD9154830 Si02
#       6
#     4   2   4   2   2   4
#     4   9  17  36  59  96 133 181 234 297 364 437
#     4  12  28  45  74 101 150 184 256 298 370 426
#     4  12  28  48  77 108 147 192 243 300 368 434
#     4  12  24  48  78 109 151 192 238 299 369 437
#     4   8  14  26  57  88 130 173 227 291 362 432
#     4  11  26  46  71 102 145 194 248 306 371 438
#
# _framework density 26.850273000000001
#
# number of rings (size 3 to 8) (size 9 to 14) (size 15 to 20)
#    0.000    1.333    2.222    2.667    6.222    0.000 
#    0.000    0.556    0.000    0.000    0.000   14.000 
#    0.000    0.000    0.000    0.000    0.000    0.000 
#
# Total GULP energy -100675.610399 kJ/mol
# GULP energy per Si atom -5593.089467 kJ/mol
# Density = 2.678916 g / cm^3
# Si number density = 26.850273 Si / 1000 Ang^3
#
#
#
# Elastic Constant Matrix: (Units=GPa)
#
#
# Indices 1 2 3 4 5 6 
#
# 1 232.0332 32.3465 80.4344 0.0000 34.6321 0.0000
# 2 32.3465 302.0103 42.0892 0.0000 33.1508 0.0000
# 3 80.4344 42.0892 123.7163 0.0000 39.1267 0.0000
# 4 0.0000 0.0000 0.0000 31.4866 0.0000 44.0906
# 5 34.6321 33.1508 39.1267 0.0000 82.8631 0.0000
# 6 0.0000 0.0000 0.0000 44.0906 0.0000 54.1484
#
#
#
# Elastic Compliance Matrix: (Units=1/GPa)
#
#
# Indices 1 2 3 4 5 6 
#
# 1 0.005602 -0.000048 -0.003399 0.000000 -0.000717 0.000000
# 2 -0.000048 0.003545 -0.000862 0.000000 -0.000992 0.000000
# 3 -0.003399 -0.000862 0.011788 0.000000 -0.003801 0.000000
# 4 0.000000 0.000000 0.000000 -0.226531 0.000000 0.184454
# 5 -0.000717 -0.000992 -0.003801 0.000000 0.014559 0.000000
# 6 0.000000 0.000000 0.000000 0.184454 0.000000 -0.131725
#
#
# Mechanical properties :
#
#
# Convention : Reuss Voigt Hill
#
# Bulk Modulus (GPa) = 81.17706 107.49999 94.33852
# Shear Modulus (GPa) = -16.12696 67.22559 25.54932
#
# Velocity S-wave (km/s) = -2.45342 5.00915 3.08806
# Velocity P-wave (km/s) = 4.71944 8.57783 6.92287
#
# Compressibility (1/GPa) = 0.01231875
#
# Stress axis : x y z
#
# Youngs Moduli (GPa) = 178.51910 282.07520 84.83204
#
# Poissons Ratio (x) = 0.01341 0.28834
# Poissons Ratio (y) = 0.00849 0.07309
# Poissons Ratio (z) = 0.60677 0.24303
#
# Static dielectric constant tensor:
#      x y z
#    x 2.022640 0.000000 -0.200330 
#    y 0.000000 2.123290 0.000000 
#    z -0.200330 0.000000 2.278170 
# 
# From -- ./inp_files/1801.got.cif
#   From: 2010.05.17/outbox.cif.g08.bks.cpg/sg10_1_cif.got.tgz:1801.got - 2010.06.03 11:33:40.
