data_PCOD9154366
_publ_section_title
;
Structure prediction by ZEFSAII (Michael W. Deem and Ramdas Pophale) SiO2 
 PCOD9154366
Probable space group: P 2/M
;
_chemical_formula_sum "Si O2"
_cell_formula_units_Z 28
_cell_length_a 24.177133
_cell_length_b 7.924338
_cell_length_c 19.594988
_cell_angle_alpha 90.000000
_cell_angle_beta 156.700401
_cell_angle_gamma 90.000000
_cell_volume 1484.917023
_symmetry_space_group_name_H-M "P 2/M"
_symmetry_group_IT_number 10
_symmetry_cell_setting 'monoclinic'
loop_
_space_group_symop_operation_xyz
x,y,z
-x,y,-z
-x,-y,-z
x,-y,z
loop_
_atom_site_type_symbol
_atom_site_label
_atom_site_fract_x
_atom_site_fract_y
_atom_site_fract_z
Si Si1 0.437753 0.706056 0.500726
Si Si2 0.208546 0.807174 0.865281
Si Si3 0.165705 0.303461 0.670740
Si Si4 0.901619 0.301539 0.550291
Si Si5 0.211855 0.293549 0.434559
Si Si6 0.127060 0.293919 0.190715
Si Si7 0.523120 0.703720 0.744923
O O1 0.500000 0.766290 0.500000
O O2 0.440762 0.500000 0.503224
O O3 0.276589 0.755153 0.328760
O O4 0.520158 0.758732 0.662342
O O5 0.237327 0.777816 0.817486
O O6 0.068840 0.708852 0.729477
O O7 0.170074 0.000000 0.831504
O O8 0.343647 0.764115 0.062503
O O9 0.207235 0.500000 0.716744
O O10 0.172709 0.229821 0.602247
O O11 0.000000 0.296777 0.500000
O O12 0.866072 0.500000 0.509971
O O13 0.852163 0.231991 0.566847
O O14 0.208182 0.500000 0.430632
O O15 0.129230 0.240607 0.272495
O O16 0.374040 0.244263 0.608297
O O17 0.122974 0.500000 0.186255
O O18 0.000000 0.234104 0.000000
O O19 0.525008 0.500000 0.747655
#
# Coordination Sequence:
#
# PCOD9154366 Si02
#       7
#     4   4   4   4   4   4   4
#     4   8  14  24  40  65  93 119 148 183 225 269
#     4  11  21  31  46  69  95 123 156 191 229 275
#     4   8  15  29  48  68  90 117 151 191 234 276
#     4   9  17  31  51  72  92 117 153 195 235 276
#     4   8  15  28  46  68  93 122 154 187 228 275
#     4   8  13  21  35  60  94 122 142 175 225 273
#     4   9  17  31  49  68  95 127 156 189 228 272
#
# _framework density 18.856273999999999
#
# number of rings (size 3 to 8) (size 9 to 14) (size 15 to 20)
#    0.000    3.286    0.000    3.857    0.000    3.714 
#    0.000    5.714    0.000    4.714    0.000    0.000 
#    0.000    5.143    0.000    0.000    0.000    0.000 
#
# Total GULP energy -155927.406320 kJ/mol
# GULP energy per Si atom -5568.835940 kJ/mol
# Density = 1.881336 g / cm^3
# Si number density = 18.856274 Si / 1000 Ang^3
#
#
#
# Elastic Constant Matrix: (Units=GPa)
#
#
# Indices 1 2 3 4 5 6 
#
# 1 197.5294 7.3172 79.6315 0.0000 -22.6572 0.0000
# 2 7.3172 13.2320 -3.4816 0.0000 -3.9407 0.0000
# 3 79.6315 -3.4816 98.1423 0.0000 -36.3941 0.0000
# 4 0.0000 0.0000 0.0000 -22.1537 0.0000 10.8059
# 5 -22.6572 -3.9407 -36.3941 0.0000 22.3860 0.0000
# 6 0.0000 0.0000 0.0000 10.8059 0.0000 -15.5543
#
#
#
# Elastic Compliance Matrix: (Units=1/GPa)
#
#
# Indices 1 2 3 4 5 6 
#
# 1 0.009299 -0.013153 -0.013548 0.000000 -0.014930 0.000000
# 2 -0.013153 0.118311 0.044460 0.000000 0.079795 0.000000
# 3 -0.013548 0.044460 0.051814 0.000000 0.078352 0.000000
# 4 0.000000 0.000000 0.000000 -0.068275 0.000000 -0.047432
# 5 -0.014930 0.079795 0.078352 0.000000 0.170988 0.000000
# 6 0.000000 0.000000 0.000000 -0.047432 0.000000 -0.097243
#
#
# Mechanical properties :
#
#
# Convention : Reuss Voigt Hill
#
# Bulk Modulus (GPa) = 4.65243 52.87089 28.76166
# Shear Modulus (GPa) = 22.62195 11.96472 17.29333
#
# Velocity S-wave (km/s) = 3.46743 2.52170 3.03167
# Velocity P-wave (km/s) = 4.30156 6.04801 5.24795
#
# Compressibility (1/GPa) = 0.21494133
#
# Stress axis : x y z
#
# Youngs Moduli (GPa) = 107.53754 8.45231 19.29963
#
# Poissons Ratio (x) = 0.11118 0.26147
# Poissons Ratio (y) = 1.41449 -0.85806
# Poissons Ratio (z) = 1.45693 -0.37579
#
# Static dielectric constant tensor:
#      x y z
#    x 1.681030 0.000000 -0.019510 
#    y 0.000000 1.661930 0.000000 
#    z -0.019510 0.000000 1.622640 
# 
# From -- ./inp_files/86553.got.cif
#   From: 2010.05.17/outbox.cif.g08.bks.cpg/sg10_44_cif.got.tgz:86553.got - 2010.06.03 11:33:40.
