data_PCOD9154252
_publ_section_title
;
Structure prediction by ZEFSAII (Michael W. Deem and Ramdas Pophale) SiO2 
 PCOD9154252
Probable space group: P 2/M
;
_chemical_formula_sum "Si O2"
_cell_formula_units_Z 28
_cell_length_a 11.823604
_cell_length_b 8.653456
_cell_length_c 19.936222
_cell_angle_alpha 90.000000
_cell_angle_beta 52.817437
_cell_angle_gamma 90.000000
_cell_volume 1625.117288
_symmetry_space_group_name_H-M "P 2/M"
_symmetry_group_IT_number 10
_symmetry_cell_setting 'monoclinic'
loop_
_space_group_symop_operation_xyz
x,y,z
-x,y,-z
-x,-y,-z
x,-y,z
loop_
_atom_site_type_symbol
_atom_site_label
_atom_site_fract_x
_atom_site_fract_y
_atom_site_fract_z
Si Si1 0.111518 0.828851 0.901019
Si Si2 0.360717 0.181815 0.005116
Si Si3 0.815833 0.817182 0.316948
Si Si4 0.443665 0.688076 0.681357
Si Si5 0.386091 0.678938 0.848793
Si Si6 0.063392 0.683237 0.156098
Si Si7 0.357787 0.323366 0.505499
O O1 0.224547 0.702593 0.882616
O O2 0.023094 0.773744 0.869844
O O3 0.177190 0.000000 0.867346
O O4 0.000000 0.842109 0.000000
O O5 0.393933 0.235157 0.917041
O O6 0.325763 0.000000 0.015688
O O7 0.500000 0.205859 0.000000
O O8 0.226424 0.267716 0.086839
O O9 0.698388 0.754404 0.304353
O O10 0.751055 0.777245 0.412956
O O11 0.968986 0.735691 0.253438
O O12 0.829439 0.000000 0.303154
O O13 0.430219 0.500000 0.683703
O O14 0.462223 0.733602 0.752671
O O15 0.580102 0.732100 0.587746
O O16 0.420628 0.500000 0.847635
O O17 0.052491 0.500000 0.151854
O O18 0.500000 0.329033 0.500000
O O19 0.305298 0.500000 0.518259
#
# Coordination Sequence:
#
# PCOD9154252 Si02
#       7
#     4   4   4   4   4   4   4
#     4  11  21  32  49  74 106 137 169 210 259 308
#     4  11  25  43  58  74 101 135 172 218 268 312
#     4  11  20  29  46  73 106 140 174 212 254 306
#     4   9  18  31  47  71 105 142 175 210 253 301
#     4  11  21  33  54  79 105 138 176 213 254 308
#     4  12  23  35  54  76 102 136 176 216 257 310
#     4   8  15  29  45  64 100 143 176 207 247 299
#
# _framework density 17.229526
#
# number of rings (size 3 to 8) (size 9 to 14) (size 15 to 20)
#    0.000    1.571    2.857    4.714    0.000    4.857 
#    0.000    0.000    0.000    0.000    0.000    1.000 
#    0.000    8.000    0.000    0.000    0.000    0.000 
#
# Total GULP energy -156019.128409 kJ/mol
# GULP energy per Si atom -5572.111729 kJ/mol
# Density = 1.719031 g / cm^3
# Si number density = 17.229526 Si / 1000 Ang^3
#
#
#
# Elastic Constant Matrix: (Units=GPa)
#
#
# Indices 1 2 3 4 5 6 
#
# 1 29.0991 10.5830 26.0391 0.0000 2.6963 0.0000
# 2 10.5830 48.6860 31.6753 0.0000 -3.4357 0.0000
# 3 26.0391 31.6753 143.0015 0.0000 5.3458 0.0000
# 4 0.0000 0.0000 0.0000 35.6521 0.0000 10.1184
# 5 2.6963 -3.4357 5.3458 0.0000 4.8827 0.0000
# 6 0.0000 0.0000 0.0000 10.1184 0.0000 7.9855
#
#
#
# Elastic Compliance Matrix: (Units=1/GPa)
#
#
# Indices 1 2 3 4 5 6 
#
# 1 0.044287 -0.007774 -0.005446 0.000000 -0.023963 0.000000
# 2 -0.007774 0.028310 -0.006006 0.000000 0.030789 0.000000
# 3 -0.005446 -0.006006 0.009760 0.000000 -0.011904 0.000000
# 4 0.000000 0.000000 0.000000 0.043800 0.000000 -0.055498
# 5 -0.023963 0.030789 -0.011904 0.000000 0.252735 0.000000
# 6 0.000000 0.000000 0.000000 -0.055498 0.000000 0.195547
#
#
# Mechanical properties :
#
#
# Convention : Reuss Voigt Hill
#
# Bulk Modulus (GPa) = 22.77737 39.70905 31.24321
# Shear Modulus (GPa) = 7.96779 19.87001 13.91890
#
# Velocity S-wave (km/s) = 2.15280 3.39964 2.84536
# Velocity P-wave (km/s) = 4.40773 6.20542 5.38216
#
# Compressibility (1/GPa) = 0.04390323
#
# Stress axis : x y z
#
# Youngs Moduli (GPa) = 22.58012 35.32304 102.45843
#
# Poissons Ratio (x) = 0.27462 0.55802
# Poissons Ratio (y) = 0.17555 0.61538
# Poissons Ratio (z) = 0.12298 0.21216
#
# Static dielectric constant tensor:
#      x y z
#    x 1.537930 0.000000 0.008540 
#    y 0.000000 1.592730 0.000000 
#    z 0.008540 0.000000 1.672960 
# 
# From -- ./inp_files/83307.got.cif
#   From: 2010.05.17/outbox.cif.g08.bks.cpg/sg10_42_cif.got.tgz:83307.got - 2010.06.03 11:33:40.
