data_PCOD9154174
_publ_section_title
;
Structure prediction by ZEFSAII (Michael W. Deem and Ramdas Pophale) SiO2 
 PCOD9154174
Probable space group: P 2/M
;
_chemical_formula_sum "Si O2"
_cell_formula_units_Z 12
_cell_length_a 5.121495
_cell_length_b 18.286691
_cell_length_c 5.001654
_cell_angle_alpha 90.000000
_cell_angle_beta 88.984405
_cell_angle_gamma 90.000000
_cell_volume 468.357301
_symmetry_space_group_name_H-M "P 2/M"
_symmetry_group_IT_number 10
_symmetry_cell_setting 'monoclinic'
loop_
_space_group_symop_operation_xyz
x,y,z
-x,y,-z
-x,-y,-z
x,-y,z
loop_
_atom_site_type_symbol
_atom_site_label
_atom_site_fract_x
_atom_site_fract_y
_atom_site_fract_z
Si Si1 0.500000 0.371360 0.500000
Si Si2 0.739615 0.264254 0.177014
Si Si3 0.500000 0.125038 0.000000
Si Si4 0.801826 0.500000 0.251177
Si Si5 0.749185 0.000000 0.685918
O O1 0.727110 0.310213 0.448877
O O2 0.612073 0.430398 0.284282
O O3 0.649821 0.179798 0.200039
O O4 0.500000 0.295616 0.000000
O O5 0.000000 0.269587 0.000000
O O6 0.288350 0.072136 0.135994
O O7 0.000000 0.500000 0.500000
O O8 0.000000 0.500000 0.000000
O O9 0.500000 0.000000 0.500000
O O10 0.000000 0.000000 0.500000
#
# Coordination Sequence:
#
# PCOD9154174 Si02
#       5
#     2   4   2   2   2
#     4  11  26  42  72 103 142 186 242 297 366 436
#     4  10  25  42  70 100 141 178 236 295 363 421
#     4   9  26  42  68  99 140 176 244 287 358 426
#     4  11  28  47  76 104 151 192 247 301 370 444
#     4  11  26  41  68  96 138 185 234 289 358 426
#
# _framework density 25.621465000000001
#
# number of rings (size 3 to 8) (size 9 to 14) (size 15 to 20)
#    1.000    0.667    0.000    1.000   16.333    2.667 
#    0.000    0.000    0.000    0.000    0.000    0.000 
#    0.000    0.000    0.000    0.000    0.000    0.000 
#
# Total GULP energy -66870.222806 kJ/mol
# GULP energy per Si atom -5572.518567 kJ/mol
# Density = 2.556315 g / cm^3
# Si number density = 25.621465 Si / 1000 Ang^3
#
#
#
# Elastic Constant Matrix: (Units=GPa)
#
#
# Indices 1 2 3 4 5 6 
#
# 1 136.8827 35.9393 73.6136 0.0000 -38.3003 0.0000
# 2 35.9393 249.3204 108.6993 0.0000 -44.2646 0.0000
# 3 73.6136 108.6993 230.8012 0.0000 -70.5629 0.0000
# 4 0.0000 0.0000 0.0000 93.5477 0.0000 30.7938
# 5 -38.3003 -44.2646 -70.5629 0.0000 74.8810 0.0000
# 6 0.0000 0.0000 0.0000 30.7938 0.0000 -2.7084
#
#
#
# Elastic Compliance Matrix: (Units=1/GPa)
#
#
# Indices 1 2 3 4 5 6 
#
# 1 0.009199 0.000094 -0.002139 0.000000 0.002745 0.000000
# 2 0.000094 0.005107 -0.002104 0.000000 0.001085 0.000000
# 3 -0.002139 -0.002104 0.007432 0.000000 0.004666 0.000000
# 4 0.000000 0.000000 0.000000 0.002254 0.000000 0.025627
# 5 0.002745 0.001085 0.004666 0.000000 0.019797 0.000000
# 6 0.000000 0.000000 0.000000 0.025627 0.000000 -0.077851
#
#
# Mechanical properties :
#
#
# Convention : Reuss Voigt Hill
#
# Bulk Modulus (GPa) = 74.39848 117.05651 95.72750
# Shear Modulus (GPa) = -234.92409 59.72753 -87.59828
#
# Velocity S-wave (km/s) = -9.58590 4.83344 -5.85351
# Velocity P-wave (km/s) = 9.66533 8.77129 2.87080
#
# Compressibility (1/GPa) = 0.01344113
#
# Stress axis : x y z
#
# Youngs Moduli (GPa) = 108.70370 195.80704 134.54871
#
# Poissons Ratio (x) = -0.01838 0.28781
# Poissons Ratio (y) = -0.01021 0.28303
# Poissons Ratio (z) = 0.23253 0.41189
#
# Static dielectric constant tensor:
#      x y z
#    x 2.132480 0.000000 0.216150 
#    y 0.000000 2.021300 0.000000 
#    z 0.216150 0.000000 2.203510 
# 
# From -- ./inp_files/948.got.cif
#   From: 2010.05.17/outbox.cif.g08.bks.cpg/sg10_1_cif.got.tgz:948.got - 2010.06.03 11:33:40.
