data_PCOD9154936
_publ_section_title
;
Structure prediction by ZEFSAII (Michael W. Deem and Ramdas Pophale) SiO2 
 PCOD9154936
Probable space group: P 2/M
;
_chemical_formula_sum "Si O2"
_cell_formula_units_Z 28
_cell_length_a 19.155736
_cell_length_b 7.295729
_cell_length_c 7.553216
_cell_angle_alpha 90.000000
_cell_angle_beta 82.296613
_cell_angle_gamma 90.000000
_cell_volume 1046.073647
_symmetry_space_group_name_H-M "P 2/M"
_symmetry_group_IT_number 10
_symmetry_cell_setting 'monoclinic'
loop_
_space_group_symop_operation_xyz
x,y,z
-x,y,-z
-x,-y,-z
x,-y,z
loop_
_atom_site_type_symbol
_atom_site_label
_atom_site_fract_x
_atom_site_fract_y
_atom_site_fract_z
Si Si1 0.049294 0.777344 0.236330
Si Si2 0.681802 0.204416 0.499848
Si Si3 0.893426 0.222592 0.420031
Si Si4 0.385639 0.780203 0.844139
Si Si5 0.725990 0.224376 0.841766
Si Si6 0.535068 0.286100 0.672830
Si Si7 0.155358 0.777112 0.920778
O O1 0.101536 0.719694 0.378245
O O2 0.082387 0.721577 0.039514
O O3 0.970543 0.725868 0.315746
O O4 0.048153 0.000000 0.234772
O O5 0.654291 0.285865 0.322744
O O6 0.731228 0.287317 0.636094
O O7 0.609729 0.189180 0.641383
O O8 0.708752 0.000000 0.447942
O O9 0.889150 0.000000 0.428071
O O10 0.840000 0.283796 0.284398
O O11 0.468380 0.737030 0.822730
O O12 0.380740 0.000000 0.837940
O O13 0.344819 0.717376 0.031148
O O14 0.785095 0.280453 0.962508
O O15 0.728912 0.000000 0.831591
O O16 0.500000 0.225721 0.500000
O O17 0.551786 0.500000 0.658490
O O18 0.157027 0.000000 0.916416
#
# Coordination Sequence:
#
# PCOD9154936 Si02
#       7
#     4   4   4   4   4   4   4
#     4   8  13  20  30  45  65  91 125 165 207 244
#     4   9  17  30  46  62  84 112 138 169 212 256
#     4   8  13  20  30  45  65  91 125 165 207 244
#     4   9  17  30  46  62  84 112 138 169 212 256
#     4   9  18  28  38  56  78 105 143 176 204 247
#     4   9  17  30  49  70  87 105 136 177 215 250
#     4   9  15  22  32  46  67  95 129 170 206 234
#
# _framework density 26.766756000000001
#
# number of rings (size 3 to 8) (size 9 to 14) (size 15 to 20)
#    0.000    3.286    0.000    1.714    0.000    5.143 
#    0.000    9.286    0.000    0.000    0.000    0.000 
#    0.000    0.000    0.000    0.000    0.000   11.429 
#
# Total GULP energy -156333.346107 kJ/mol
# GULP energy per Si atom -5583.333790 kJ/mol
# Density = 2.670583 g / cm^3
# Si number density = 26.766756 Si / 1000 Ang^3
#
#
#
# Elastic Constant Matrix: (Units=GPa)
#
#
# Indices 1 2 3 4 5 6 
#
# 1 37.4450 -5.6402 17.4855 0.0000 1.7146 0.0000
# 2 -5.6402 108.2066 -1.2464 0.0000 3.9325 0.0000
# 3 17.4855 -1.2464 195.4914 0.0000 26.2725 0.0000
# 4 0.0000 0.0000 0.0000 -93.6506 0.0000 106.0173
# 5 1.7146 3.9325 26.2725 0.0000 51.9010 0.0000
# 6 0.0000 0.0000 0.0000 106.0173 0.0000 -181.5771
#
#
#
# Elastic Compliance Matrix: (Units=1/GPa)
#
#
# Indices 1 2 3 4 5 6 
#
# 1 0.028094 0.001426 -0.002537 0.000000 0.000248 0.000000
# 2 0.001426 0.009344 0.000036 0.000000 -0.000773 0.000000
# 3 -0.002537 0.000036 0.005721 0.000000 -0.002815 0.000000
# 4 0.000000 0.000000 0.000000 -0.031496 0.000000 -0.018389
# 5 0.000248 -0.000773 -0.002815 0.000000 0.020743 0.000000
# 6 0.000000 0.000000 0.000000 -0.018389 0.000000 -0.016244
#
#
# Mechanical properties :
#
#
# Convention : Reuss Voigt Hill
#
# Bulk Modulus (GPa) = 24.38478 40.26010 32.32244
# Shear Modulus (GPa) = 156.34000 -22.62906 66.85547
#
# Velocity S-wave (km/s) = 7.65082 -2.91076 5.00313
# Velocity P-wave (km/s) = 9.33684 1.94346 6.74365
#
# Compressibility (1/GPa) = 0.04100918
#
# Stress axis : x y z
#
# Youngs Moduli (GPa) = 35.59478 107.01557 174.80207
#
# Poissons Ratio (x) = -0.15262 0.44349
# Poissons Ratio (y) = -0.05076 -0.00628
# Poissons Ratio (z) = 0.09031 -0.00385
#
# Static dielectric constant tensor:
#      x y z
#    x 2.207620 0.000000 0.020340 
#    y 0.000000 2.126630 0.000000 
#    z 0.020340 0.000000 2.051860 
# 
# From -- ./inp_files/33475.got.cif
#   From: 2010.05.17/outbox.cif.g08.bks.cpg/sg10_17_cif.got.tgz:33475.got - 2010.06.03 11:33:40.
