data_PCOD9154328
_publ_section_title
;
Structure prediction by ZEFSAII (Michael W. Deem and Ramdas Pophale) SiO2 
 PCOD9154328
Probable space group: P 2/M
;
_chemical_formula_sum "Si O2"
_cell_formula_units_Z 28
_cell_length_a 9.573840
_cell_length_b 14.808029
_cell_length_c 10.870640
_cell_angle_alpha 90.000000
_cell_angle_beta 63.993111
_cell_angle_gamma 90.000000
_cell_volume 1385.074870
_symmetry_space_group_name_H-M "P 2/M"
_symmetry_group_IT_number 10
_symmetry_cell_setting 'monoclinic'
loop_
_space_group_symop_operation_xyz
x,y,z
-x,y,-z
-x,-y,-z
x,-y,z
loop_
_atom_site_type_symbol
_atom_site_label
_atom_site_fract_x
_atom_site_fract_y
_atom_site_fract_z
Si Si1 0.150341 0.901342 0.796767
Si Si2 0.410133 0.101581 0.200844
Si Si3 0.139190 0.802525 0.163417
Si Si4 0.667156 0.750827 0.126173
Si Si5 0.355901 0.604350 0.650458
Si Si6 0.098664 0.687621 0.579985
Si Si7 0.337144 0.844637 0.494358
O O1 0.235375 0.820605 0.830534
O O2 0.226103 0.897140 0.631377
O O3 0.971940 0.873267 0.862900
O O4 0.178332 0.000000 0.838484
O O5 0.255969 0.134309 0.192741
O O6 0.525716 0.185956 0.137568
O O7 0.381619 0.100593 0.357514
O O8 0.459294 0.000000 0.146120
O O9 0.027133 0.743707 0.292826
O O10 0.228955 0.735990 0.035011
O O11 0.631940 0.669113 0.233837
O O12 0.500000 0.617961 0.500000
O O13 0.358954 0.500000 0.688013
O O14 0.196852 0.623601 0.634493
O O15 0.235466 0.758469 0.489958
O O16 0.000000 0.652194 0.500000
O O17 0.500000 0.821635 0.500000
#
# Coordination Sequence:
#
# PCOD9154328 Si02
#       7
#     4   4   4   4   4   4   4
#     4  11  23  36  60  91 128 174 219 264 313 376
#     4  12  24  38  62  93 134 182 223 263 312 377
#     4  11  25  40  58  93 135 172 213 258 317 380
#     4  12  24  41  65  91 129 172 218 267 319 383
#     4  11  25  47  75 100 123 161 216 272 333 397
#     4  11  21  40  69  95 128 168 206 261 331 382
#     4  11  20  37  59  89 125 168 224 273 309 367
#
# _framework density 20.215513999999999
#
# number of rings (size 3 to 8) (size 9 to 14) (size 15 to 20)
#    0.000    0.714    5.714    3.429    0.000    4.286 
#    0.000    3.571    0.000    1.714    0.000    0.000 
#    0.000    0.000    0.000    0.000    0.000    0.000 
#
# Total GULP energy -156245.009267 kJ/mol
# GULP energy per Si atom -5580.178902 kJ/mol
# Density = 2.016950 g / cm^3
# Si number density = 20.215514 Si / 1000 Ang^3
#
#
#
# Elastic Constant Matrix: (Units=GPa)
#
#
# Indices 1 2 3 4 5 6 
#
# 1 125.7341 43.1250 16.2680 0.0000 -5.7455 0.0000
# 2 43.1250 126.2308 31.9020 0.0000 -3.5785 0.0000
# 3 16.2680 31.9020 104.2921 0.0000 -3.6459 0.0000
# 4 0.0000 0.0000 0.0000 2.1491 0.0000 -1.8582
# 5 -5.7455 -3.5785 -3.6459 0.0000 27.0238 0.0000
# 6 0.0000 0.0000 0.0000 -1.8582 0.0000 23.3055
#
#
#
# Elastic Compliance Matrix: (Units=1/GPa)
#
#
# Indices 1 2 3 4 5 6 
#
# 1 0.009092 -0.002947 -0.000465 0.000000 0.001480 0.000000
# 2 -0.002947 0.009557 -0.002453 0.000000 0.000308 0.000000
# 3 -0.000465 -0.002453 0.010446 0.000000 0.000986 0.000000
# 4 0.000000 0.000000 0.000000 0.499762 0.000000 0.039847
# 5 0.001480 0.000308 0.000986 0.000000 0.037493 0.000000
# 6 0.000000 0.000000 0.000000 0.039847 0.000000 0.046085
#
#
# Mechanical properties :
#
#
# Convention : Reuss Voigt Hill
#
# Bulk Modulus (GPa) = 57.58590 59.87190 58.72890
# Shear Modulus (GPa) = 7.93710 28.15982 18.04846
#
# Velocity S-wave (km/s) = 1.98362 3.73631 2.99122
# Velocity P-wave (km/s) = 5.81328 6.94942 6.40659
#
# Compressibility (1/GPa) = 0.01736536
#
# Stress axis : x y z
#
# Youngs Moduli (GPa) = 109.99004 104.63151 95.73185
#
# Poissons Ratio (x) = 0.30830 0.04453
# Poissons Ratio (y) = 0.32409 0.23484
# Poissons Ratio (z) = 0.05116 0.25667
#
# Static dielectric constant tensor:
#      x y z
#    x 1.795000 0.000000 0.004170 
#    y 0.000000 1.691870 0.000000 
#    z 0.004170 0.000000 1.769390 
# 
# From -- ./inp_files/42880.got.cif
#   From: 2010.05.17/outbox.cif.g08.bks.cpg/sg10_22_cif.got.tgz:42880.got - 2010.06.03 11:33:40.
