data_PCOD9154660
_publ_section_title
;
Structure prediction by ZEFSAII (Michael W. Deem and Ramdas Pophale) SiO2 
 PCOD9154660
Probable space group: P 2/M
;
_chemical_formula_sum "Si O2"
_cell_formula_units_Z 17
_cell_length_a 11.370319
_cell_length_b 7.937487
_cell_length_c 10.808694
_cell_angle_alpha 90.000000
_cell_angle_beta 130.979639
_cell_angle_gamma 90.000000
_cell_volume 736.449333
_symmetry_space_group_name_H-M "P 2/M"
_symmetry_group_IT_number 10
_symmetry_cell_setting 'monoclinic'
loop_
_space_group_symop_operation_xyz
x,y,z
-x,y,-z
-x,-y,-z
x,-y,z
loop_
_atom_site_type_symbol
_atom_site_label
_atom_site_fract_x
_atom_site_fract_y
_atom_site_fract_z
Si Si1 0.525707 0.697263 0.656948
Si Si2 0.848838 0.807566 0.979928
Si Si3 0.631519 0.810561 0.198970
Si Si4 0.062616 0.682310 0.694688
Si Si5 0.000000 0.000000 0.500000
O O1 0.500000 0.764841 0.500000
O O2 0.482670 0.500000 0.627365
O O3 0.706841 0.720736 0.812623
O O4 0.438365 0.780748 0.713833
O O5 0.800784 0.000000 0.979429
O O6 0.892791 0.709692 0.133086
O O7 0.000000 0.814277 0.000000
O O8 0.770608 0.688416 0.259673
O O9 0.704885 0.000000 0.244907
O O10 0.500000 0.801853 0.000000
O O11 0.985860 0.500000 0.625637
O O12 0.973460 0.847006 0.585788
#
# Coordination Sequence:
#
# PCOD9154660 Si02
#       5
#     4   4   4   4   1
#     4  11  25  43  67 105 143 181 241 298 351 420
#     4  11  24  45  71 100 140 189 238 289 357 435
#     4  11  22  41  72 102 136 178 234 288 346 420
#     4  12  25  45  74 103 138 186 236 291 354 421
#     4  12  26  48  64 102 144 180 232 294 344 424
#
# _framework density 23.083735000000001
#
# number of rings (size 3 to 8) (size 9 to 14) (size 15 to 20)
#    0.000    0.706    4.706    2.471    0.000    6.588 
#    0.000    2.353    0.000    0.000    0.000    0.000 
#    0.000    0.000    0.000    0.000    0.000    0.000 
#
# Total GULP energy -94909.301235 kJ/mol
# GULP energy per Si atom -5582.900073 kJ/mol
# Density = 2.303120 g / cm^3
# Si number density = 23.083735 Si / 1000 Ang^3
#
#
#
# Elastic Constant Matrix: (Units=GPa)
#
#
# Indices 1 2 3 4 5 6 
#
# 1 83.6577 13.2864 20.7263 0.0000 -30.7500 0.0000
# 2 13.2864 164.9960 39.6130 0.0000 -9.5210 0.0000
# 3 20.7263 39.6130 172.0259 0.0000 -42.0427 0.0000
# 4 0.0000 0.0000 0.0000 13.7408 0.0000 -3.2244
# 5 -30.7500 -9.5210 -42.0427 0.0000 34.3496 0.0000
# 6 0.0000 0.0000 0.0000 -3.2244 0.0000 44.9816
#
#
#
# Elastic Compliance Matrix: (Units=1/GPa)
#
#
# Indices 1 2 3 4 5 6 
#
# 1 0.018771 -0.001046 0.002875 0.000000 0.020033 0.000000
# 2 -0.001046 0.006474 -0.001648 0.000000 -0.001159 0.000000
# 3 0.002875 -0.001648 0.009080 0.000000 0.013230 0.000000
# 4 0.000000 0.000000 0.000000 0.074021 0.000000 0.005306
# 5 0.020033 -0.001159 0.013230 0.000000 0.062918 0.000000
# 6 0.000000 0.000000 0.000000 0.005306 0.000000 0.022612
#
#
# Mechanical properties :
#
#
# Convention : Reuss Voigt Hill
#
# Bulk Modulus (GPa) = 28.82913 63.10342 45.96627
# Shear Modulus (GPa) = 24.38139 41.75133 33.06636
#
# Velocity S-wave (km/s) = 3.25347 4.25748 3.78888
# Velocity P-wave (km/s) = 5.16038 7.18083 6.25275
#
# Compressibility (1/GPa) = 0.03468714
#
# Stress axis : x y z
#
# Youngs Moduli (GPa) = 53.27433 154.47007 110.13703
#
# Poissons Ratio (x) = 0.16155 -0.31668
# Poissons Ratio (y) = 0.05572 0.18150
# Poissons Ratio (z) = -0.15318 0.25456
#
# Static dielectric constant tensor:
#      x y z
#    x 0.837970 0.000000 -0.786220 
#    y 0.000000 1.866960 0.000000 
#    z -0.786220 0.000000 1.277390 
# 
# From -- ./inp_files/22475.got.cif
#   From: 2010.05.17/outbox.cif.g08.bks.cpg/sg10_12_cif.got.tgz:22475.got - 2010.06.03 11:33:40.
