data_PCOD9154467
_publ_section_title
;
Structure prediction by ZEFSAII (Michael W. Deem and Ramdas Pophale) SiO2 
 PCOD9154467
Probable space group: P 2/M
;
_chemical_formula_sum "Si O2"
_cell_formula_units_Z 32
_cell_length_a 31.732706
_cell_length_b 8.725571
_cell_length_c 12.254425
_cell_angle_alpha 90.000000
_cell_angle_beta 30.439382
_cell_angle_gamma 90.000000
_cell_volume 1719.023432
_symmetry_space_group_name_H-M "P 2/M"
_symmetry_group_IT_number 10
_symmetry_cell_setting 'monoclinic'
loop_
_space_group_symop_operation_xyz
x,y,z
-x,y,-z
-x,-y,-z
x,-y,z
loop_
_atom_site_type_symbol
_atom_site_label
_atom_site_fract_x
_atom_site_fract_y
_atom_site_fract_z
Si Si1 0.286244 0.182951 0.849371
Si Si2 0.625603 0.182892 0.968919
Si Si3 0.403330 0.316386 0.201491
Si Si4 0.469933 0.321019 0.441592
Si Si5 0.076158 0.314187 0.687650
Si Si6 0.228660 0.684299 0.203866
Si Si7 0.889577 0.685564 0.140969
Si Si8 0.261306 0.182959 0.660910
O O1 0.381139 0.240699 0.633592
O O2 0.247540 0.222473 0.818426
O O3 0.285270 0.000000 0.865351
O O4 0.242455 0.259352 0.050488
O O5 0.631159 0.246151 0.833865
O O6 0.698274 0.249899 0.882858
O O7 0.629233 0.000000 0.961121
O O8 0.538436 0.240171 0.213905
O O9 0.398596 0.500000 0.206124
O O10 0.346330 0.257060 0.426915
O O11 0.500000 0.272393 0.000000
O O12 0.500000 0.313806 0.500000
O O13 0.463289 0.500000 0.425321
O O14 0.074841 0.500000 0.690455
O O15 0.140621 0.265037 0.451573
O O16 0.109342 0.269903 0.733618
O O17 0.980093 0.266675 0.892576
O O18 0.233729 0.500000 0.195726
O O19 0.883448 0.500000 0.149573
O O20 0.813996 0.757657 0.244699
O O21 0.268638 0.000000 0.635864
#
# Coordination Sequence:
#
# PCOD9154467 Si02
#       8
#     4   4   4   4   4   4   4   4
#     4  11  24  40  57  80 115 157 197 240 290 347
#     4  12  24  37  58  86 119 153 188 234 292 350
#     4  11  24  41  61  85 114 150 195 241 285 337
#     4  11  22  37  58  83 111 148 196 246 285 331
#     4   8  17  34  60  91 117 142 183 238 290 341
#     4  11  21  36  58  86 117 149 192 243 288 338
#     4   9  17  36  64  89 114 149 188 231 288 349
#     4  11  24  40  58  84 118 154 194 237 289 349
#
# _framework density 18.615220999999998
#
# number of rings (size 3 to 8) (size 9 to 14) (size 15 to 20)
#    0.000    1.500    1.250    5.250    0.000    6.500 
#    0.000    3.750    0.000    3.750    0.000    0.000 
#    0.000    0.000    0.000    0.000    0.000    0.000 
#
# Total GULP energy -178883.065845 kJ/mol
# GULP energy per Si atom -5590.095808 kJ/mol
# Density = 1.857285 g / cm^3
# Si number density = 18.615221 Si / 1000 Ang^3
#
#
#
# Elastic Constant Matrix: (Units=GPa)
#
#
# Indices 1 2 3 4 5 6 
#
# 1 82.4870 29.2338 50.3694 0.0000 7.9351 0.0000
# 2 29.2338 57.3421 33.4721 0.0000 11.9171 0.0000
# 3 50.3694 33.4721 137.9225 0.0000 11.1543 0.0000
# 4 0.0000 0.0000 0.0000 12.6857 0.0000 16.3756
# 5 7.9351 11.9171 11.1543 0.0000 28.6096 0.0000
# 6 0.0000 0.0000 0.0000 16.3756 0.0000 16.7399
#
#
#
# Elastic Compliance Matrix: (Units=1/GPa)
#
#
# Indices 1 2 3 4 5 6 
#
# 1 0.017183 -0.005855 -0.004818 0.000000 -0.000449 0.000000
# 2 -0.005855 0.023660 -0.003034 0.000000 -0.007049 0.000000
# 3 -0.004818 -0.003034 0.009847 0.000000 -0.001239 0.000000
# 4 0.000000 0.000000 0.000000 -0.299974 0.000000 0.293447
# 5 -0.000449 -0.007049 -0.001239 0.000000 0.038497 0.000000
# 6 0.000000 0.000000 0.000000 0.293447 0.000000 -0.227325
#
#
# Mechanical properties :
#
#
# Convention : Reuss Voigt Hill
#
# Bulk Modulus (GPa) = 42.96193 55.98915 49.47554
# Shear Modulus (GPa) = -12.40878 22.58546 5.08834
#
# Velocity S-wave (km/s) = -2.58465 3.48699 1.65510
# Velocity P-wave (km/s) = 3.77118 6.80842 5.50347
#
# Compressibility (1/GPa) = 0.02327642
#
# Stress axis : x y z
#
# Youngs Moduli (GPa) = 58.19585 42.26602 101.55845
#
# Poissons Ratio (x) = 0.24745 0.48934
# Poissons Ratio (y) = 0.34071 0.30811
# Poissons Ratio (z) = 0.28040 0.12823
#
# Static dielectric constant tensor:
#      x y z
#    x 1.624990 0.000000 0.011490 
#    y 0.000000 1.624190 0.000000 
#    z 0.011490 0.000000 1.637620 
# 
# From -- ./inp_files/55338.got.cif
#   From: 2010.05.17/outbox.cif.g08.bks.cpg/sg10_28_cif.got.tgz:55338.got - 2010.06.03 11:33:40.
