data_PCOD9154792
_publ_section_title
;
Structure prediction by ZEFSAII (Michael W. Deem and Ramdas Pophale) SiO2 
 PCOD9154792
Probable space group: P 2/M
;
_chemical_formula_sum "Si O2"
_cell_formula_units_Z 16
_cell_length_a 8.130615
_cell_length_b 18.370631
_cell_length_c 5.286505
_cell_angle_alpha 90.000000
_cell_angle_beta 117.717900
_cell_angle_gamma 90.000000
_cell_volume 699.006555
_symmetry_space_group_name_H-M "P 2/M"
_symmetry_group_IT_number 10
_symmetry_cell_setting 'monoclinic'
loop_
_space_group_symop_operation_xyz
x,y,z
-x,y,-z
-x,-y,-z
x,-y,z
loop_
_atom_site_type_symbol
_atom_site_label
_atom_site_fract_x
_atom_site_fract_y
_atom_site_fract_z
Si Si1 0.623235 0.638514 0.845688
Si Si2 0.000000 0.165529 0.500000
Si Si3 0.871406 0.500000 0.154776
Si Si4 0.282155 0.775356 0.320870
Si Si5 0.689623 0.083817 0.975537
O O1 0.500000 0.618782 0.500000
O O2 0.762811 0.705813 0.883746
O O3 0.500000 0.662432 0.000000
O O4 0.738804 0.570072 0.030692
O O5 0.136868 0.217324 0.440012
O O6 0.135775 0.110262 0.739724
O O7 0.000000 0.500000 0.500000
O O8 0.000000 0.500000 0.000000
O O9 0.500000 0.758996 0.500000
O O10 0.294395 0.858087 0.233970
O O11 0.698364 0.000000 0.902461
O O12 0.500000 0.094263 0.000000
#
# Coordination Sequence:
#
# PCOD9154792 Si02
#       5
#     4   2   2   4   4
#     4  11  25  49  80 107 153 205 252 306 384 464
#     4  12  25  44  72  99 146 198 248 315 392 444
#     4  12  26  48  76 120 158 189 251 314 377 456
#     4  11  25  46  72 105 146 191 259 310 383 452
#     4  11  24  44  70 102 145 195 254 317 383 457
#
# _framework density 22.889627999999998
#
# number of rings (size 3 to 8) (size 9 to 14) (size 15 to 20)
#    0.000    0.750    2.500    4.125    3.500    5.500 
#    4.500    0.000    0.000    0.000    0.000    0.000 
#    0.000    0.000    0.000    0.000    0.000    0.000 
#
# Total GULP energy -89239.373937 kJ/mol
# GULP energy per Si atom -5577.460871 kJ/mol
# Density = 2.283753 g / cm^3
# Si number density = 22.889628 Si / 1000 Ang^3
#
#
#
# Elastic Constant Matrix: (Units=GPa)
#
#
# Indices 1 2 3 4 5 6 
#
# 1 119.7743 78.1745 37.0279 0.0000 -1.9481 0.0000
# 2 78.1745 159.3824 28.7367 0.0000 -17.8451 0.0000
# 3 37.0279 28.7367 118.9937 0.0000 7.7801 0.0000
# 4 0.0000 0.0000 0.0000 29.6066 0.0000 -5.3200
# 5 -1.9481 -17.8451 7.7801 0.0000 39.5694 0.0000
# 6 0.0000 0.0000 0.0000 -5.3200 0.0000 6.1071
#
#
#
# Elastic Compliance Matrix: (Units=1/GPa)
#
#
# Indices 1 2 3 4 5 6 
#
# 1 0.013118 -0.006171 -0.002484 0.000000 -0.001649 0.000000
# 2 -0.006171 0.009921 -0.000758 0.000000 0.004320 0.000000
# 3 -0.002484 -0.000758 0.009512 0.000000 -0.002335 0.000000
# 4 0.000000 0.000000 0.000000 0.040044 0.000000 0.034883
# 5 -0.001649 0.004320 -0.002335 0.000000 0.027598 0.000000
# 6 0.000000 0.000000 0.000000 0.034883 0.000000 0.194131
#
#
# Mechanical properties :
#
#
# Convention : Reuss Voigt Hill
#
# Bulk Modulus (GPa) = 72.85600 76.22541 74.54070
# Shear Modulus (GPa) = 15.73687 32.00403 23.87045
#
# Velocity S-wave (km/s) = 2.62489 3.74329 3.23282
# Velocity P-wave (km/s) = 6.40976 7.21502 6.82428
#
# Compressibility (1/GPa) = 0.01372571
#
# Stress axis : x y z
#
# Youngs Moduli (GPa) = 76.23327 100.79421 105.12523
#
# Poissons Ratio (x) = 0.62198 0.26112
# Poissons Ratio (y) = 0.47042 0.07970
# Poissons Ratio (z) = 0.18935 0.07642
#
# Static dielectric constant tensor:
#      x y z
#    x 1.728930 0.000000 -0.017110 
#    y 0.000000 1.864190 0.000000 
#    z -0.017110 0.000000 1.895360 
# 
# From -- ./inp_files/4259.got.cif
#   From: 2010.05.17/outbox.cif.g08.bks.cpg/sg10_3_cif.got.tgz:4259.got - 2010.06.03 11:33:40.
