data_PCOD9154438
_publ_section_title
;
Structure prediction by ZEFSAII (Michael W. Deem and Ramdas Pophale) SiO2 
 PCOD9154438
Probable space group: P 2/M
;
_chemical_formula_sum "Si O2"
_cell_formula_units_Z 20
_cell_length_a 11.630758
_cell_length_b 8.733332
_cell_length_c 18.834335
_cell_angle_alpha 90.000000
_cell_angle_beta 36.234674
_cell_angle_gamma 90.000000
_cell_volume 1130.823349
_symmetry_space_group_name_H-M "P 2/M"
_symmetry_group_IT_number 10
_symmetry_cell_setting 'monoclinic'
loop_
_space_group_symop_operation_xyz
x,y,z
-x,y,-z
-x,-y,-z
x,-y,z
loop_
_atom_site_type_symbol
_atom_site_label
_atom_site_fract_x
_atom_site_fract_y
_atom_site_fract_z
Si Si1 0.279894 0.181981 0.898904
Si Si2 0.899066 0.683951 0.439487
Si Si3 0.098489 0.317789 0.847838
Si Si4 0.696672 0.316217 0.688397
Si Si5 0.728595 0.817765 0.381162
O O1 0.225863 0.240715 0.846795
O O2 0.498669 0.232445 0.806321
O O3 0.257729 0.000000 0.912937
O O4 0.120825 0.260214 0.029009
O O5 0.887382 0.500000 0.435533
O O6 0.763850 0.722648 0.574615
O O7 0.830353 0.767270 0.403291
O O8 0.119795 0.720534 0.352904
O O9 0.107924 0.500000 0.851259
O O10 0.176748 0.266715 0.732847
O O11 0.667618 0.500000 0.705234
O O12 0.500000 0.779256 0.500000
O O13 0.746450 0.000000 0.362214
#
# Coordination Sequence:
#
# PCOD9154438 Si02
#       5
#     4   4   4   4   4
#     4  11  21  35  56  82 111 140 175 221 271 318
#     4   9  19  35  56  81 109 143 182 222 260 311
#     4  11  22  37  57  79 106 142 183 222 262 315
#     4   9  18  35  57  81 109 142 182 221 261 312
#     4  11  23  37  54  80 113 143 173 218 273 321
#
# _framework density 17.686228
#
# number of rings (size 3 to 8) (size 9 to 14) (size 15 to 20)
#    0.000    1.800    0.000    7.800    0.000    6.400 
#    0.000    3.000    0.000    6.000    0.000    0.000 
#    0.000    0.000    0.000    0.000    0.000    0.000 
#
# Total GULP energy -111748.229748 kJ/mol
# GULP energy per Si atom -5587.411487 kJ/mol
# Density = 1.764597 g / cm^3
# Si number density = 17.686228 Si / 1000 Ang^3
#
#
#
# Elastic Constant Matrix: (Units=GPa)
#
#
# Indices 1 2 3 4 5 6 
#
# 1 66.4977 28.2669 53.1253 0.0000 5.2169 0.0000
# 2 28.2669 64.9023 36.5608 0.0000 0.9224 0.0000
# 3 53.1253 36.5608 88.0255 0.0000 -5.1099 0.0000
# 4 0.0000 0.0000 0.0000 28.7481 0.0000 5.3498
# 5 5.2169 0.9224 -5.1099 0.0000 27.5866 0.0000
# 6 0.0000 0.0000 0.0000 5.3498 0.0000 46.2217
#
#
#
# Elastic Compliance Matrix: (Units=1/GPa)
#
#
# Indices 1 2 3 4 5 6 
#
# 1 0.031901 -0.003408 -0.018379 0.000000 -0.009323 0.000000
# 2 -0.003408 0.020616 -0.006579 0.000000 -0.001263 0.000000
# 3 -0.018379 -0.006579 0.025675 0.000000 0.008451 0.000000
# 4 0.000000 0.000000 0.000000 0.035551 0.000000 -0.004115
# 5 -0.009323 -0.001263 0.008451 0.000000 0.039620 0.000000
# 6 0.000000 0.000000 0.000000 -0.004115 0.000000 0.022111
#
#
# Mechanical properties :
#
#
# Convention : Reuss Voigt Hill
#
# Bulk Modulus (GPa) = 46.59691 50.59239 48.59465
# Shear Modulus (GPa) = 20.88900 27.27612 24.08256
#
# Velocity S-wave (km/s) = 3.44043 3.93138 3.69407
# Velocity P-wave (km/s) = 6.49505 7.01963 6.76243
#
# Compressibility (1/GPa) = 0.02146065
#
# Stress axis : x y z
#
# Youngs Moduli (GPa) = 31.34696 48.50512 38.94780
#
# Poissons Ratio (x) = 0.16532 0.71580
# Poissons Ratio (y) = 0.10684 0.25625
# Poissons Ratio (z) = 0.57611 0.31912
#
# Static dielectric constant tensor:
#      x y z
#    x 1.579280 0.000000 -0.012140 
#    y 0.000000 1.591720 0.000000 
#    z -0.012140 0.000000 1.586950 
# 
# From -- ./inp_files/40874.got.cif
#   From: 2010.05.17/outbox.cif.g08.bks.cpg/sg10_21_cif.got.tgz:40874.got - 2010.06.03 11:33:40.
