data_PCOD9154166
_publ_section_title
;
Structure prediction by ZEFSAII (Michael W. Deem and Ramdas Pophale) SiO2 
 PCOD9154166
Probable space group: P 2/M
;
_chemical_formula_sum "Si O2"
_cell_formula_units_Z 18
_cell_length_a 5.416223
_cell_length_b 18.035669
_cell_length_c 9.235553
_cell_angle_alpha 90.000000
_cell_angle_beta 107.841800
_cell_angle_gamma 90.000000
_cell_volume 858.787703
_symmetry_space_group_name_H-M "P 2/M"
_symmetry_group_IT_number 10
_symmetry_cell_setting 'monoclinic'
loop_
_space_group_symop_operation_xyz
x,y,z
-x,y,-z
-x,-y,-z
x,-y,z
loop_
_atom_site_type_symbol
_atom_site_label
_atom_site_fract_x
_atom_site_fract_y
_atom_site_fract_z
Si Si1 0.797394 0.911225 0.092689
Si Si2 0.739348 0.579579 0.360681
Si Si3 0.974110 0.206445 0.668209
Si Si4 0.200585 0.663508 0.903249
Si Si5 0.500000 0.288260 0.500000
O O1 0.918900 0.870915 0.253992
O O2 0.794487 0.000000 0.110950
O O3 0.500000 0.888668 0.000000
O O4 0.000000 0.893048 0.000000
O O5 0.599591 0.500000 0.349793
O O6 0.814224 0.594340 0.208571
O O7 0.601095 0.652050 0.399973
O O8 0.000000 0.576106 0.500000
O O9 0.677335 0.232847 0.626505
O O10 0.000000 0.213833 0.500000
O O11 0.123516 0.266031 0.792224
O O12 0.500000 0.670433 0.000000
O O13 0.000000 0.657999 0.000000
#
# Coordination Sequence:
#
# PCOD9154166 Si02
#       5
#     4   4   4   4   2
#     4  10  24  47  72 104 146 185 223 273 343 413
#     4  11  24  44  68  94 133 185 233 290 355 418
#     4  12  25  41  70 101 135 182 235 284 341 403
#     4  12  25  43  66  98 138 176 230 290 349 417
#     4  12  21  44  67 100 134 178 232 300 331 418
#
# _framework density 20.959778
#
# number of rings (size 3 to 8) (size 9 to 14) (size 15 to 20)
#    0.000    0.667    4.444    3.000    3.111    1.333 
#    0.000    0.556    0.000    0.000    0.000    0.000 
#    0.000    0.000    0.000    0.000    0.000    0.000 
#
# Total GULP energy -100398.553822 kJ/mol
# GULP energy per Si atom -5577.697435 kJ/mol
# Density = 2.091207 g / cm^3
# Si number density = 20.959778 Si / 1000 Ang^3
#
#
#
# Elastic Constant Matrix: (Units=GPa)
#
#
# Indices 1 2 3 4 5 6 
#
# 1 122.2260 34.9735 70.1715 0.0000 4.5102 0.0000
# 2 34.9735 60.3186 46.5229 0.0000 9.6844 0.0000
# 3 70.1715 46.5229 159.5634 0.0000 7.3293 0.0000
# 4 0.0000 0.0000 0.0000 68.2286 0.0000 2.9549
# 5 4.5102 9.6844 7.3293 0.0000 51.7076 0.0000
# 6 0.0000 0.0000 0.0000 2.9549 0.0000 15.3382
#
#
#
# Elastic Compliance Matrix: (Units=1/GPa)
#
#
# Indices 1 2 3 4 5 6 
#
# 1 0.011516 -0.003614 -0.004022 0.000000 0.000242 0.000000
# 2 -0.003614 0.023042 -0.004978 0.000000 -0.003295 0.000000
# 3 -0.004022 -0.004978 0.009490 0.000000 -0.000062 0.000000
# 4 0.000000 0.000000 0.000000 0.014780 0.000000 -0.002847
# 5 0.000242 -0.003295 -0.000062 0.000000 0.019944 0.000000
# 6 0.000000 0.000000 0.000000 -0.002847 0.000000 0.065745
#
#
# Mechanical properties :
#
#
# Convention : Reuss Voigt Hill
#
# Bulk Modulus (GPa) = 53.13164 71.71599 62.42381
# Shear Modulus (GPa) = 28.40629 39.75088 34.07859
#
# Velocity S-wave (km/s) = 3.68540 4.35964 4.03662
# Velocity P-wave (km/s) = 6.59651 7.72219 7.18144
#
# Compressibility (1/GPa) = 0.01882118
#
# Stress axis : x y z
#
# Youngs Moduli (GPa) = 86.83875 43.39864 105.37562
#
# Poissons Ratio (x) = 0.15684 0.42379
# Poissons Ratio (y) = 0.31383 0.52452
# Poissons Ratio (z) = 0.34924 0.21602
#
# Static dielectric constant tensor:
#      x y z
#    x 1.918260 0.000000 -0.018830 
#    y 0.000000 1.771570 0.000000 
#    z -0.018830 0.000000 1.740920 
# 
# From -- ./inp_files/4180.got.cif
#   From: 2010.05.17/outbox.cif.g08.bks.cpg/sg10_3_cif.got.tgz:4180.got - 2010.06.03 11:33:40.
