data_PCOD9154704
_publ_section_title
;
Structure prediction by ZEFSAII (Michael W. Deem and Ramdas Pophale) SiO2 
 PCOD9154704
Probable space group: P 2/M
;
_chemical_formula_sum "Si O2"
_cell_formula_units_Z 20
_cell_length_a 9.904926
_cell_length_b 11.427713
_cell_length_c 12.986285
_cell_angle_alpha 90.000000
_cell_angle_beta 42.091153
_cell_angle_gamma 90.000000
_cell_volume 985.309141
_symmetry_space_group_name_H-M "P 2/M"
_symmetry_group_IT_number 10
_symmetry_cell_setting 'monoclinic'
loop_
_space_group_symop_operation_xyz
x,y,z
-x,y,-z
-x,-y,-z
x,-y,z
loop_
_atom_site_type_symbol
_atom_site_label
_atom_site_fract_x
_atom_site_fract_y
_atom_site_fract_z
Si Si1 0.729032 0.740275 0.907042
Si Si2 0.048370 0.861753 0.589162
Si Si3 0.316816 0.500000 0.378156
Si Si4 0.233791 0.864795 0.898028
Si Si5 0.879053 0.500000 0.734114
Si Si6 0.545276 0.726921 0.591158
O O1 0.831739 0.615168 0.826745
O O2 0.856410 0.831478 0.766729
O O3 0.500000 0.734146 0.000000
O O4 0.735845 0.785112 0.019226
O O5 0.242322 0.794152 0.521084
O O6 0.000000 0.821845 0.500000
O O7 0.087391 0.000000 0.565832
O O8 0.260919 0.500000 0.289303
O O9 0.435855 0.615032 0.345415
O O10 0.106334 0.500000 0.561587
O O11 0.372277 0.813087 0.729702
O O12 0.289901 0.000000 0.887633
O O13 0.000000 0.861887 0.000000
O O14 0.500000 0.690832 0.500000
#
# Coordination Sequence:
#
# PCOD9154704 Si02
#       6
#     4   4   2   4   2   4
#     4  12  24  41  67  99 134 171 219 272 333 393
#     4  11  23  40  65  97 131 175 227 273 324 390
#     4  11  23  44  70 100 133 167 223 283 328 388
#     4  11  26  46  66  96 138 178 217 270 334 395
#     4  11  23  42  72  97 131 176 219 273 336 394
#     4  12  25  44  70  98 132 177 227 277 327 393
#
# _framework density 20.298199
#
# number of rings (size 3 to 8) (size 9 to 14) (size 15 to 20)
#    0.000    0.600    2.000    6.600    0.000    7.200 
#    0.000    1.000    0.000    0.000    0.000    0.000 
#    0.000    0.000    0.000    0.000    0.000    0.000 
#
# Total GULP energy -111982.134097 kJ/mol
# GULP energy per Si atom -5599.106705 kJ/mol
# Density = 2.025200 g / cm^3
# Si number density = 20.298199 Si / 1000 Ang^3
#
#
#
# Elastic Constant Matrix: (Units=GPa)
#
#
# Indices 1 2 3 4 5 6 
#
# 1 53.0955 29.2965 -0.7056 0.0000 3.8047 0.0000
# 2 29.2965 103.7307 9.9975 0.0000 4.2220 0.0000
# 3 -0.7056 9.9975 69.7289 0.0000 -3.1288 0.0000
# 4 0.0000 0.0000 0.0000 16.5056 0.0000 5.0455
# 5 3.8047 4.2220 -3.1288 0.0000 41.4166 0.0000
# 6 0.0000 0.0000 0.0000 5.0455 0.0000 -3.0043
#
#
#
# Elastic Compliance Matrix: (Units=1/GPa)
#
#
# Indices 1 2 3 4 5 6 
#
# 1 0.022474 -0.006398 0.001085 0.000000 -0.001330 0.000000
# 2 -0.006398 0.011647 -0.001768 0.000000 -0.000733 0.000000
# 3 0.001085 -0.001768 0.014659 0.000000 0.001188 0.000000
# 4 0.000000 0.000000 0.000000 0.040033 0.000000 0.067234
# 5 -0.001330 -0.000733 0.001188 0.000000 0.024432 0.000000
# 6 0.000000 0.000000 0.000000 0.067234 0.000000 -0.219946
#
#
# Mechanical properties :
#
#
# Convention : Reuss Voigt Hill
#
# Bulk Modulus (GPa) = 28.88535 33.74802 31.31668
# Shear Modulus (GPa) = -61.72826 23.51470 -19.10678
#
# Velocity S-wave (km/s) = -5.52057 3.40731 -3.07140
# Velocity P-wave (km/s) = 5.13559 5.66938 1.69818
#
# Compressibility (1/GPa) = 0.03461962
#
# Stress axis : x y z
#
# Youngs Moduli (GPa) = 44.49625 85.85584 68.21766
#
# Poissons Ratio (x) = 0.54928 -0.07402
# Poissons Ratio (y) = 0.28467 0.12058
# Poissons Ratio (z) = -0.04828 0.15176
#
# Static dielectric constant tensor:
#      x y z
#    x 1.683490 0.000000 0.004670 
#    y 0.000000 1.710390 0.000000 
#    z 0.004670 0.000000 1.688440 
# 
# From -- ./inp_files/41877.got.cif
#   From: 2010.05.17/outbox.cif.g08.bks.cpg/sg10_21_cif.got.tgz:41877.got - 2010.06.03 11:33:40.
