data_PCOD9154069
_publ_section_title
;
Structure prediction by ZEFSAII (Michael W. Deem and Ramdas Pophale) SiO2 
 PCOD9154069
Probable space group: P 2/M
;
_chemical_formula_sum "Si O2"
_cell_formula_units_Z 24
_cell_length_a 15.451151
_cell_length_b 13.820353
_cell_length_c 5.073907
_cell_angle_alpha 90.000000
_cell_angle_beta 105.083403
_cell_angle_gamma 90.000000
_cell_volume 1046.155800
_symmetry_space_group_name_H-M "P 2/M"
_symmetry_group_IT_number 10
_symmetry_cell_setting 'monoclinic'
loop_
_space_group_symop_operation_xyz
x,y,z
-x,y,-z
-x,-y,-z
x,-y,z
loop_
_atom_site_type_symbol
_atom_site_label
_atom_site_fract_x
_atom_site_fract_y
_atom_site_fract_z
Si Si1 0.414489 0.105927 0.233766
Si Si2 0.254893 0.392848 0.998406
Si Si3 0.915282 0.611315 0.743877
Si Si4 0.163226 0.233949 0.666220
Si Si5 0.205337 0.888979 0.200525
Si Si6 0.443102 0.319157 0.191284
O O1 0.500000 0.103510 0.500000
O O2 0.314259 0.113522 0.275386
O O3 0.421368 0.207711 0.090318
O O4 0.414627 0.000000 0.094567
O O5 0.246643 0.500000 0.878291
O O6 0.174745 0.381271 0.146665
O O7 0.352810 0.375727 0.187928
O O8 0.244295 0.309266 0.774338
O O9 0.920777 0.500000 0.651949
O O10 0.908189 0.690134 0.507798
O O11 0.000000 0.628313 0.000000
O O12 0.178508 0.154438 0.457849
O O13 0.159533 0.176631 0.938225
O O14 0.178182 0.000000 0.146268
O O15 0.500000 0.314214 0.500000
O O16 0.500000 0.364345 0.000000
#
# Coordination Sequence:
#
# PCOD9154069 Si02
#       6
#     4   4   4   4   4   4
#     4   9  19  35  58  91 128 170 225 289 346 392
#     4  11  25  44  69 102 140 183 233 286 342 413
#     4  10  23  45  76 111 141 175 226 291 361 420
#     4  12  22  44  68 100 138 177 224 274 355 405
#     4  11  24  41  68  99 135 182 233 281 342 416
#     4  11  25  41  63  92 136 187 231 277 330 401
#
# _framework density 22.941134999999999
#
# number of rings (size 3 to 8) (size 9 to 14) (size 15 to 20)
#    0.000    1.333    3.333    1.000    7.000    1.667 
#    0.000    2.500    0.000    3.000    0.000    0.000 
#    0.000    0.000    0.000    0.000    0.000    0.000 
#
# Total GULP energy -134024.526618 kJ/mol
# GULP energy per Si atom -5584.355276 kJ/mol
# Density = 2.288892 g / cm^3
# Si number density = 22.941135 Si / 1000 Ang^3
#
#
#
# Elastic Constant Matrix: (Units=GPa)
#
#
# Indices 1 2 3 4 5 6 
#
# 1 111.4034 16.1799 28.6354 0.0000 11.0479 0.0000
# 2 16.1799 142.6673 40.8080 0.0000 12.1342 0.0000
# 3 28.6354 40.8080 83.5805 0.0000 9.1903 0.0000
# 4 0.0000 0.0000 0.0000 -63.0534 0.0000 77.0118
# 5 11.0479 12.1342 9.1903 0.0000 31.9610 0.0000
# 6 0.0000 0.0000 0.0000 77.0118 0.0000 -37.7244
#
#
#
# Elastic Compliance Matrix: (Units=1/GPa)
#
#
# Indices 1 2 3 4 5 6 
#
# 1 0.010043 -0.000021 -0.003149 0.000000 -0.002558 0.000000
# 2 -0.000021 0.008275 -0.003809 0.000000 -0.002039 0.000000
# 3 -0.003149 -0.003809 0.015102 0.000000 -0.001808 0.000000
# 4 0.000000 0.000000 0.000000 0.010620 0.000000 0.021680
# 5 -0.002558 -0.002039 -0.001808 0.000000 0.033466 0.000000
# 6 0.000000 0.000000 0.000000 0.021680 0.000000 0.017751
#
#
# Mechanical properties :
#
#
# Convention : Reuss Voigt Hill
#
# Bulk Modulus (GPa) = 51.38298 56.54419 53.96358
# Shear Modulus (GPa) = 43.21490 3.03849 23.12669
#
# Velocity S-wave (km/s) = 4.34490 1.15211 3.17849
# Velocity P-wave (km/s) = 6.90053 5.14498 6.08638
#
# Compressibility (1/GPa) = 0.01946170
#
# Stress axis : x y z
#
# Youngs Moduli (GPa) = 99.57610 120.85283 66.21671
#
# Poissons Ratio (x) = 0.00248 0.20854
# Poissons Ratio (y) = 0.00204 0.25220
# Poissons Ratio (z) = 0.31360 0.46030
#
# Static dielectric constant tensor:
#      x y z
#    x 1.886300 0.000000 -0.005410 
#    y 0.000000 1.866050 0.000000 
#    z -0.005410 0.000000 1.851180 
# 
# From -- ./inp_files/9290.got.cif
#   From: 2010.05.17/outbox.cif.g08.bks.cpg/sg10_5_cif.got.tgz:9290.got - 2010.06.03 11:33:40.
