data_PCOD9154142
_publ_section_title
;
Structure prediction by ZEFSAII (Michael W. Deem and Ramdas Pophale) SiO2 
 PCOD9154142
Probable space group: P 2/M
;
_chemical_formula_sum "Si O2"
_cell_formula_units_Z 24
_cell_length_a 14.466541
_cell_length_b 11.627708
_cell_length_c 14.851603
_cell_angle_alpha 90.000000
_cell_angle_beta 150.443449
_cell_angle_gamma 90.000000
_cell_volume 1232.332034
_symmetry_space_group_name_H-M "P 2/M"
_symmetry_group_IT_number 10
_symmetry_cell_setting 'monoclinic'
loop_
_space_group_symop_operation_xyz
x,y,z
-x,y,-z
-x,-y,-z
x,-y,z
loop_
_atom_site_type_symbol
_atom_site_label
_atom_site_fract_x
_atom_site_fract_y
_atom_site_fract_z
Si Si1 0.869295 0.862455 0.801617
Si Si2 0.544261 0.500000 0.402398
Si Si3 0.487061 0.253387 0.093820
Si Si4 0.898566 0.271929 0.508617
Si Si5 0.628530 0.500000 0.943334
Si Si6 0.936429 0.500000 0.660491
Si Si7 0.115835 0.135881 0.838021
Si Si8 0.500000 0.704495 0.500000
O O1 0.682655 0.785578 0.647749
O O2 0.993228 0.827271 0.820076
O O3 0.824650 0.000000 0.756866
O O4 0.000000 0.847406 0.000000
O O5 0.468975 0.500000 0.236836
O O6 0.770624 0.500000 0.592320
O O7 0.482525 0.615879 0.401357
O O8 0.686219 0.236982 0.309382
O O9 0.434691 0.387634 0.056231
O O10 0.500000 0.218493 0.000000
O O11 0.321275 0.189711 0.005581
O O12 0.908758 0.387713 0.575602
O O13 0.000000 0.292571 0.500000
O O14 0.007539 0.176332 0.657327
O O15 0.853122 0.500000 0.124012
O O16 0.132951 0.000000 0.856554
#
# Coordination Sequence:
#
# PCOD9154142 Si02
#       8
#     4   2   4   4   2   2   4   2
#     4  10  24  45  71  97 125 170 224 274 324 381
#     4  11  26  40  60 103 126 172 210 259 338 407
#     4  12  24  43  67  99 133 175 221 268 323 382
#     4  12  23  41  65  97 133 177 218 268 324 384
#     4  12  24  40  70  93 133 171 223 265 323 392
#     4  12  22  40  66  94 131 169 220 271 321 383
#     4  11  26  44  66  99 132 174 225 267 326 393
#     4  11  25  42  66  94 139 159 214 270 332 399
#
# _framework density 19.475272
#
# number of rings (size 3 to 8) (size 9 to 14) (size 15 to 20)
#    0.000    0.667    5.000    1.750    2.333    1.333 
#    0.000    5.000    0.000    0.000    0.000    0.000 
#    0.000    0.000    0.000    0.000    0.000    0.000 
#
# Total GULP energy -134232.938101 kJ/mol
# GULP energy per Si atom -5593.039088 kJ/mol
# Density = 1.943095 g / cm^3
# Si number density = 19.475272 Si / 1000 Ang^3
#
#
#
# Elastic Constant Matrix: (Units=GPa)
#
#
# Indices 1 2 3 4 5 6 
#
# 1 82.8355 45.6177 2.9047 0.0000 28.4776 0.0000
# 2 45.6177 73.4652 27.1413 0.0000 20.2080 0.0000
# 3 2.9047 27.1413 97.6989 0.0000 39.0101 0.0000
# 4 0.0000 0.0000 0.0000 -302.9624 0.0000 -264.3673
# 5 28.4776 20.2080 39.0101 0.0000 38.6888 0.0000
# 6 0.0000 0.0000 0.0000 -264.3673 0.0000 -181.3606
#
#
#
# Elastic Compliance Matrix: (Units=1/GPa)
#
#
# Indices 1 2 3 4 5 6 
#
# 1 0.031112 -0.016894 0.015716 0.000000 -0.029923 0.000000
# 2 -0.016894 0.025270 -0.010400 0.000000 0.009722 0.000000
# 3 0.015716 -0.010400 0.025289 0.000000 -0.031635 0.000000
# 4 0.000000 0.000000 0.000000 0.012135 0.000000 -0.017690
# 5 -0.029923 0.009722 -0.031635 0.000000 0.074692 0.000000
# 6 0.000000 0.000000 0.000000 -0.017690 0.000000 0.020272
#
#
# Mechanical properties :
#
#
# Convention : Reuss Voigt Hill
#
# Bulk Modulus (GPa) = 17.08958 45.03634 31.06296
# Shear Modulus (GPa) = 21.60472 -77.23777 -27.81652
#
# Velocity S-wave (km/s) = 3.33429 -6.30440 -3.78338
# Velocity P-wave (km/s) = 4.85977 5.46067 1.76090
#
# Compressibility (1/GPa) = 0.05851520
#
# Stress axis : x y z
#
# Youngs Moduli (GPa) = 32.14237 39.57278 39.54293
#
# Poissons Ratio (x) = 0.66854 -0.62146
# Poissons Ratio (y) = 0.54301 0.41124
# Poissons Ratio (z) = -0.50515 0.41155
#
# Static dielectric constant tensor:
#      x y z
#    x 1.686970 0.000000 0.004290 
#    y 0.000000 1.670860 0.000000 
#    z 0.004290 0.000000 1.651490 
# 
# From -- ./inp_files/67447.got.cif
#   From: 2010.05.17/outbox.cif.g08.bks.cpg/sg10_34_cif.got.tgz:67447.got - 2010.06.03 11:33:40.
