data_PCOD9154896
_publ_section_title
;
Structure prediction by ZEFSAII (Michael W. Deem and Ramdas Pophale) SiO2 
 PCOD9154896
Probable space group: P 2/M
;
_chemical_formula_sum "Si O2"
_cell_formula_units_Z 28
_cell_length_a 10.185312
_cell_length_b 7.572155
_cell_length_c 31.630440
_cell_angle_alpha 90.000000
_cell_angle_beta 36.387381
_cell_angle_gamma 90.000000
_cell_volume 1447.207028
_symmetry_space_group_name_H-M "P 2/M"
_symmetry_group_IT_number 10
_symmetry_cell_setting 'monoclinic'
loop_
_space_group_symop_operation_xyz
x,y,z
-x,y,-z
-x,-y,-z
x,-y,z
loop_
_atom_site_type_symbol
_atom_site_label
_atom_site_fract_x
_atom_site_fract_y
_atom_site_fract_z
Si Si1 0.659866 0.703497 0.500000
Si Si2 0.154387 0.212062 0.778895
Si Si3 0.750878 0.215598 0.939265
Si Si4 0.052799 0.784402 0.939265
Si Si5 0.965486 0.288344 0.654314
Si Si6 0.548860 0.212062 0.221105
Si Si7 0.262941 0.288344 0.654314
O O1 0.500000 0.701215 0.500000
O O2 0.706783 0.500000 0.500000
O O3 0.503435 0.782141 0.576916
O O4 0.888016 0.782141 0.423084
O O5 0.342061 0.275907 0.763176
O O6 0.202096 0.255554 0.718274
O O7 0.917668 0.272783 0.858740
O O8 0.151987 0.000000 0.782360
O O9 0.867221 0.266816 0.953112
O O10 0.746089 0.000000 0.939882
O O11 0.500000 0.277605 0.000000
O O12 0.288634 0.727217 0.858740
O O13 0.054503 0.000000 0.939882
O O14 0.000000 0.722395 0.000000
O O15 0.995392 0.500000 0.645985
O O16 0.706537 0.255554 0.718274
O O17 0.078211 0.223604 0.668716
O O18 0.563786 0.000000 0.217640
O O19 0.274684 0.500000 0.645985
#
# Coordination Sequence:
#
# PCOD9154896 Si02
#       7
#     4   4   4   4   4   4   4
#     4   7  12  26  46  65  86 112 144 185 226 259
#     4   9  18  31  45  65  95 124 147 177 221 269
#     4   8  14  25  41  61  85 113 145 180 216 255
#     4   8  14  25  41  61  85 113 145 180 216 255
#     4   9  17  30  49  70  89 113 149 189 225 263
#     4   9  18  31  45  65  95 124 147 177 221 269
#     4   9  17  30  49  70  89 113 149 189 225 263
#
# _framework density 19.347612999999999
#
# number of rings (size 3 to 8) (size 9 to 14) (size 15 to 20)
#    0.000    3.571    0.000    3.429    0.000    2.286 
#    0.000    4.286    0.000    7.714    0.000    0.000 
#    0.000    0.000    0.000    0.000    0.000    0.000 
#
# Total GULP energy -155921.818688 kJ/mol
# GULP energy per Si atom -5568.636382 kJ/mol
# Density = 1.930358 g / cm^3
# Si number density = 19.347613 Si / 1000 Ang^3
#
#
#
# Elastic Constant Matrix: (Units=GPa)
#
#
# Indices 1 2 3 4 5 6 
#
# 1 112.9632 4.3263 140.1219 0.0000 1.3885 0.0000
# 2 4.3263 41.8646 7.6703 0.0000 0.0449 0.0000
# 3 140.1219 7.6703 234.2531 0.0000 0.2396 0.0000
# 4 0.0000 0.0000 0.0000 20.7394 0.0000 0.0514
# 5 1.3885 0.0449 0.2396 0.0000 38.1249 0.0000
# 6 0.0000 0.0000 0.0000 0.0514 0.0000 16.9101
#
#
#
# Elastic Compliance Matrix: (Units=1/GPa)
#
#
# Indices 1 2 3 4 5 6 
#
# 1 0.034358 0.000217 -0.020558 0.000000 -0.001122 0.000000
# 2 0.000217 0.024032 -0.000917 0.000000 -0.000030 0.000000
# 3 -0.020558 -0.000917 0.016595 0.000000 0.000646 0.000000
# 4 0.000000 0.000000 0.000000 0.048218 0.000000 -0.000147
# 5 -0.001122 -0.000030 0.000646 0.000000 0.026266 0.000000
# 6 0.000000 0.000000 0.000000 -0.000147 0.000000 0.059137
#
#
# Mechanical properties :
#
#
# Convention : Reuss Voigt Hill
#
# Bulk Modulus (GPa) = 30.79701 77.03532 53.91617
# Shear Modulus (GPa) = 19.08794 30.95236 25.02015
#
# Velocity S-wave (km/s) = 3.14439 4.00409 3.60000
# Velocity P-wave (km/s) = 5.39771 7.82815 6.72366
#
# Compressibility (1/GPa) = 0.03247068
#
# Stress axis : x y z
#
# Youngs Moduli (GPa) = 29.10497 41.61103 60.25812
#
# Poissons Ratio (x) = -0.00904 1.23878
# Poissons Ratio (y) = -0.00632 0.05524
# Poissons Ratio (z) = 0.59834 0.03815
#
# Static dielectric constant tensor:
#      x y z
#    x 1.648380 0.000000 0.000720 
#    y 0.000000 1.757060 0.000000 
#    z 0.000720 0.000000 1.701900 
# 
# From -- ./inp_files/78887.got.cif
#   From: 2010.05.17/outbox.cif.g08.bks.cpg/sg10_40_cif.got.tgz:78887.got - 2010.06.03 11:33:40.
