data_PCOD9154350
_publ_section_title
;
Structure prediction by ZEFSAII (Michael W. Deem and Ramdas Pophale) SiO2 
 PCOD9154350
Probable space group: P 2/M
;
_chemical_formula_sum "Si O2"
_cell_formula_units_Z 28
_cell_length_a 11.988219
_cell_length_b 17.326511
_cell_length_c 6.950636
_cell_angle_alpha 90.000000
_cell_angle_beta 51.080022
_cell_angle_gamma 90.000000
_cell_volume 1123.268048
_symmetry_space_group_name_H-M "P 2/M"
_symmetry_group_IT_number 10
_symmetry_cell_setting 'monoclinic'
loop_
_space_group_symop_operation_xyz
x,y,z
-x,y,-z
-x,-y,-z
x,-y,z
loop_
_atom_site_type_symbol
_atom_site_label
_atom_site_fract_x
_atom_site_fract_y
_atom_site_fract_z
Si Si1 0.610075 0.414416 0.154035
Si Si2 0.597535 0.000000 0.640317
Si Si3 0.281592 0.585898 0.410490
Si Si4 0.066898 0.861929 0.113154
Si Si5 0.826791 0.256496 0.498503
Si Si6 0.273067 0.743812 0.972065
Si Si7 0.259988 0.000000 0.937979
Si Si8 0.553375 0.167520 0.666349
O O1 0.648303 0.500000 0.185074
O O2 0.437641 0.407073 0.343197
O O3 0.666710 0.411234 0.870625
O O4 0.678013 0.337108 0.165385
O O5 0.421974 0.000000 0.837110
O O6 0.696713 0.000000 0.337543
O O7 0.615392 0.911910 0.687443
O O8 0.224194 0.500000 0.508328
O O9 0.168580 0.654072 0.574365
O O10 0.179791 0.795732 0.931455
O O11 0.939400 0.812227 0.341034
O O12 0.165781 0.926387 0.103645
O O13 0.000000 0.902205 0.000000
O O14 0.819830 0.265259 0.736394
O O15 0.675195 0.228912 0.576863
O O16 0.408878 0.793173 0.897024
O O17 0.500000 0.151682 0.500000
#
# Coordination Sequence:
#
# PCOD9154350 Si02
#       8
#     4   2   4   4   4   4   2   4
#     4   8  14  28  56  88 117 154 200 244 286 339
#     4  11  20  40  67  91 111 151 207 250 287 348
#     4   8  14  29  55  87 119 155 199 242 283 346
#     4  12  25  42  62  86 117 162 203 246 301 363
#     4  11  23  37  60  94 125 159 195 248 308 351
#     4  11  21  39  60  90 127 155 199 255 299 351
#     4  11  21  42  65  87 113 153 209 250 281 362
#     4  12  21  38  63  89 117 157 204 249 292 355
#
# _framework density 24.927267000000001
#
# number of rings (size 3 to 8) (size 9 to 14) (size 15 to 20)
#    0.000    1.571    4.286    3.643    0.000    0.571 
#    0.000    5.000    0.000    8.571    0.000    0.000 
#    0.000    0.000    0.000    0.000    0.000    0.000 
#
# Total GULP energy -156149.004084 kJ/mol
# GULP energy per Si atom -5576.750146 kJ/mol
# Density = 2.487053 g / cm^3
# Si number density = 24.927267 Si / 1000 Ang^3
#
#
#
# Elastic Constant Matrix: (Units=GPa)
#
#
# Indices 1 2 3 4 5 6 
#
# 1 59.8428 12.0067 8.7196 0.0000 -5.2094 0.0000
# 2 12.0067 199.8454 27.8274 0.0000 -15.4656 0.0000
# 3 8.7196 27.8274 69.0661 0.0000 -3.0456 0.0000
# 4 0.0000 0.0000 0.0000 23.1341 0.0000 -2.5453
# 5 -5.2094 -15.4656 -3.0456 0.0000 32.8393 0.0000
# 6 0.0000 0.0000 0.0000 -2.5453 0.0000 18.6201
#
#
#
# Elastic Compliance Matrix: (Units=1/GPa)
#
#
# Indices 1 2 3 4 5 6 
#
# 1 0.017299 -0.000606 -0.001839 0.000000 0.002288 0.000000
# 2 -0.000606 0.005503 -0.002039 0.000000 0.002306 0.000000
# 3 -0.001839 -0.002039 0.015541 0.000000 0.000189 0.000000
# 4 0.000000 0.000000 0.000000 0.043886 0.000000 0.005999
# 5 0.002288 0.002306 0.000189 0.000000 0.031918 0.000000
# 6 0.000000 0.000000 0.000000 0.005999 0.000000 0.054525
#
#
# Mechanical properties :
#
#
# Convention : Reuss Voigt Hill
#
# Bulk Modulus (GPa) = 34.04272 47.31796 40.68034
# Shear Modulus (GPa) = 26.67636 33.59874 30.13755
#
# Velocity S-wave (km/s) = 3.27489 3.67532 3.48087
# Velocity P-wave (km/s) = 5.29021 6.08558 5.70178
#
# Compressibility (1/GPa) = 0.02937486
#
# Stress axis : x y z
#
# Youngs Moduli (GPa) = 57.80614 181.73024 64.34647
#
# Poissons Ratio (x) = 0.11017 0.11833
# Poissons Ratio (y) = 0.03504 0.13119
# Poissons Ratio (z) = 0.10630 0.37052
#
# Static dielectric constant tensor:
#      x y z
#    x 2.056960 0.000000 0.121680 
#    y 0.000000 1.970960 0.000000 
#    z 0.121680 0.000000 2.048460 
# 
# From -- ./inp_files/30134.got.cif
#   From: 2010.05.17/outbox.cif.g08.bks.cpg/sg10_16_cif.got.tgz:30134.got - 2010.06.03 11:33:40.
