data_PCOD9154681
_publ_section_title
;
Structure prediction by ZEFSAII (Michael W. Deem and Ramdas Pophale) SiO2 
 PCOD9154681
Probable space group: P 2/M
;
_chemical_formula_sum "Si O2"
_cell_formula_units_Z 28
_cell_length_a 13.803088
_cell_length_b 13.140121
_cell_length_c 14.674410
_cell_angle_alpha 90.000000
_cell_angle_beta 32.638848
_cell_angle_gamma 90.000000
_cell_volume 1435.490766
_symmetry_space_group_name_H-M "P 2/M"
_symmetry_group_IT_number 10
_symmetry_cell_setting 'monoclinic'
loop_
_space_group_symop_operation_xyz
x,y,z
-x,y,-z
-x,-y,-z
x,-y,z
loop_
_atom_site_type_symbol
_atom_site_label
_atom_site_fract_x
_atom_site_fract_y
_atom_site_fract_z
Si Si1 0.019014 0.694241 0.141571
Si Si2 0.004415 0.379870 0.645362
Si Si3 0.500980 0.883811 0.651918
Si Si4 0.192152 0.500000 0.752237
Si Si5 0.703544 0.619331 0.747685
Si Si6 0.196612 0.115989 0.744030
Si Si7 0.447011 0.306417 0.815745
Si Si8 0.509391 0.500000 0.642825
O O1 0.953640 0.683105 0.298044
O O2 0.929296 0.600125 0.159572
O O3 0.952254 0.798761 0.150636
O O4 0.232651 0.686988 0.979166
O O5 0.990750 0.500000 0.681436
O O6 0.816567 0.349386 0.746642
O O7 0.154032 0.371840 0.448671
O O8 0.666399 0.875742 0.450149
O O9 0.322364 0.866555 0.732307
O O10 0.508876 0.799050 0.722439
O O11 0.496511 0.000000 0.689481
O O12 0.321374 0.500000 0.737182
O O13 0.330859 0.500000 0.556993
O O14 0.659126 0.500000 0.793173
O O15 0.529933 0.678266 0.850210
O O16 0.127780 0.000000 0.801574
O O17 0.517576 0.400457 0.698685
#
# Coordination Sequence:
#
# PCOD9154681 Si02
#       8
#     4   4   4   2   4   4   4   2
#     4  12  23  33  51  81 113 141 169 213 273 325
#     4   9  18  34  56  78 102 138 182 221 257 308
#     4   9  19  37  59  79 101 138 187 227 258 304
#     4  11  23  37  52  71 102 145 185 218 254 305
#     4   9  18  34  56  78 102 138 182 221 257 308
#     4   9  19  37  59  79 101 138 187 227 258 304
#     4  12  23  33  51  81 113 141 169 213 273 325
#     4  11  23  37  52  71 102 145 185 218 254 305
#
# _framework density 19.505524999999999
#
# number of rings (size 3 to 8) (size 9 to 14) (size 15 to 20)
#    0.000    1.857    1.429    5.571    0.000    6.286 
#    0.000    2.857    0.000    0.857    0.000    6.000 
#    0.000    0.000    0.000    0.000    0.000    0.000 
#
# Total GULP energy -156584.589054 kJ/mol
# GULP energy per Si atom -5592.306752 kJ/mol
# Density = 1.946113 g / cm^3
# Si number density = 19.505525 Si / 1000 Ang^3
#
#
#
# Elastic Constant Matrix: (Units=GPa)
#
#
# Indices 1 2 3 4 5 6 
#
# 1 92.5937 40.9729 15.5378 0.0000 -28.5198 0.0000
# 2 40.9729 91.9763 23.7133 0.0000 -20.3012 0.0000
# 3 15.5378 23.7133 69.3004 0.0000 -16.2312 0.0000
# 4 0.0000 0.0000 0.0000 -23.3230 0.0000 -14.0330
# 5 -28.5198 -20.3012 -16.2312 0.0000 37.3876 0.0000
# 6 0.0000 0.0000 0.0000 -14.0330 0.0000 7.3802
#
#
#
# Elastic Compliance Matrix: (Units=1/GPa)
#
#
# Indices 1 2 3 4 5 6 
#
# 1 0.015930 -0.005091 0.000411 0.000000 0.009566 0.000000
# 2 -0.005091 0.014549 -0.003224 0.000000 0.002617 0.000000
# 3 0.000411 -0.003224 0.016814 0.000000 0.005862 0.000000
# 4 0.000000 0.000000 0.000000 -0.019998 0.000000 -0.038024
# 5 0.009566 0.002617 0.005862 0.000000 0.038010 0.000000
# 6 0.000000 0.000000 0.000000 -0.038024 0.000000 0.063197
#
#
# Mechanical properties :
#
#
# Convention : Reuss Voigt Hill
#
# Bulk Modulus (GPa) = 31.76143 46.03540 38.89841
# Shear Modulus (GPa) = 32.29857 15.86537 24.08197
#
# Velocity S-wave (km/s) = 4.07365 2.85507 3.51753
# Velocity P-wave (km/s) = 6.20039 5.87546 6.04011
#
# Compressibility (1/GPa) = 0.03148472
#
# Stress axis : x y z
#
# Youngs Moduli (GPa) = 62.77457 68.73290 59.47404
#
# Poissons Ratio (x) = 0.34992 -0.02443
# Poissons Ratio (y) = 0.31958 0.19175
# Poissons Ratio (z) = -0.02579 0.22160
#
# Static dielectric constant tensor:
#      x y z
#    x 1.679740 0.000000 -0.004470 
#    y 0.000000 1.636920 0.000000 
#    z -0.004470 0.000000 1.742510 
# 
# From -- ./inp_files/78037.got.cif
#   From: 2010.05.17/outbox.cif.g08.bks.cpg/sg10_40_cif.got.tgz:78037.got - 2010.06.03 11:33:40.
