data_PCOD9154397
_publ_section_title
;
Structure prediction by ZEFSAII (Michael W. Deem and Ramdas Pophale) SiO2 
 PCOD9154397
Probable space group: P 2/M
;
_chemical_formula_sum "Si O2"
_cell_formula_units_Z 32
_cell_length_a 19.433212
_cell_length_b 15.072506
_cell_length_c 16.614014
_cell_angle_alpha 90.000000
_cell_angle_beta 21.288322
_cell_angle_gamma 90.000000
_cell_volume 1766.788711
_symmetry_space_group_name_H-M "P 2/M"
_symmetry_group_IT_number 10
_symmetry_cell_setting 'monoclinic'
loop_
_space_group_symop_operation_xyz
x,y,z
-x,y,-z
-x,-y,-z
x,-y,z
loop_
_atom_site_type_symbol
_atom_site_label
_atom_site_fract_x
_atom_site_fract_y
_atom_site_fract_z
Si Si1 0.844007 0.096094 0.739353
Si Si2 0.998752 0.398932 0.628387
Si Si3 0.677490 0.365685 0.856157
Si Si4 0.509089 0.811956 0.868695
Si Si5 0.317798 0.896612 0.741722
Si Si6 0.940902 0.893997 0.210722
Si Si7 0.481440 0.101596 0.312116
Si Si8 0.056679 0.215367 0.627348
O O1 0.000000 0.098240 0.500000
O O2 0.903754 0.173352 0.734293
O O3 0.858047 0.000000 0.764572
O O4 0.629370 0.112524 0.944906
O O5 0.043836 0.500000 0.604111
O O6 0.794726 0.401665 0.805645
O O7 0.154634 0.366281 0.392864
O O8 0.016196 0.320611 0.674794
O O9 0.500000 0.406698 0.000000
O O10 0.584818 0.276082 0.992451
O O11 0.497036 0.831543 0.785532
O O12 0.734106 0.806536 0.636967
O O13 0.500000 0.854732 0.500000
O O14 0.364675 0.893004 0.785989
O O15 0.311944 0.000000 0.721519
O O16 0.102979 0.863992 0.972315
O O17 0.722657 0.885185 0.423062
O O18 0.954548 0.836211 0.276660
O O19 0.970074 0.000000 0.194715
O O20 0.479498 0.000000 0.282094
#
# Coordination Sequence:
#
# PCOD9154397 Si02
#       8
#     4   4   4   4   4   4   4   4
#     4  11  23  34  47  67  95 129 168 212 254 293
#     4  11  24  38  54  76  98 127 171 216 266 318
#     4  11  21  37  54  73  93 127 165 213 265 312
#     4  11  21  33  53  70  96 132 171 210 253 303
#     4   9  17  29  47  72 100 132 167 200 235 281
#     4   9  18  31  49  72  99 135 168 197 239 292
#     4   9  18  31  46  68  98 133 170 202 238 288
#     4  11  21  36  53  72  99 131 168 210 256 301
#
# _framework density 18.111955999999999
#
# number of rings (size 3 to 8) (size 9 to 14) (size 15 to 20)
#    0.000    1.750    2.500    3.000    0.000    4.000 
#    0.000    3.750    0.000    0.000    0.000    0.000 
#    0.000    0.500    0.000    3.500    0.000    0.125 
#
# Total GULP energy -178144.582748 kJ/mol
# GULP energy per Si atom -5567.018211 kJ/mol
# Density = 1.807073 g / cm^3
# Si number density = 18.111956 Si / 1000 Ang^3
#
#
#
# Elastic Constant Matrix: (Units=GPa)
#
#
# Indices 1 2 3 4 5 6 
#
# 1 45.3367 17.4576 18.9666 0.0000 -14.1536 0.0000
# 2 17.4576 85.6330 25.6233 0.0000 0.7042 0.0000
# 3 18.9666 25.6233 141.3951 0.0000 -14.6112 0.0000
# 4 0.0000 0.0000 0.0000 2.1574 0.0000 7.3155
# 5 -14.1536 0.7042 -14.6112 0.0000 25.3331 0.0000
# 6 0.0000 0.0000 0.0000 7.3155 0.0000 7.9152
#
#
#
# Elastic Compliance Matrix: (Units=1/GPa)
#
#
# Indices 1 2 3 4 5 6 
#
# 1 0.029872 -0.005838 -0.001284 0.000000 0.016111 0.000000
# 2 -0.005838 0.013561 -0.002180 0.000000 -0.004896 0.000000
# 3 -0.001284 -0.002180 0.008052 0.000000 0.003987 0.000000
# 4 0.000000 0.000000 0.000000 -0.217214 0.000000 0.200755
# 5 0.016111 -0.004896 0.003987 0.000000 0.050911 0.000000
# 6 0.000000 0.000000 0.000000 0.200755 0.000000 -0.059205
#
#
# Mechanical properties :
#
#
# Convention : Reuss Voigt Hill
#
# Bulk Modulus (GPa) = 30.41421 44.05110 37.23265
# Shear Modulus (GPa) = -34.61215 21.10231 -6.75492
#
# Velocity S-wave (km/s) = -4.37625 3.41706 -1.93330
# Velocity P-wave (km/s) = 2.95071 6.32003 3.95197
#
# Compressibility (1/GPa) = 0.03287937
#
# Stress axis : x y z
#
# Youngs Moduli (GPa) = 33.47593 73.74318 124.19659
#
# Poissons Ratio (x) = 0.43052 0.15949
# Poissons Ratio (y) = 0.19544 0.27078
# Poissons Ratio (z) = 0.04299 0.16078
#
# Static dielectric constant tensor:
#      x y z
#    x 1.651220 0.000000 -0.011150 
#    y 0.000000 1.627400 0.000000 
#    z -0.011150 0.000000 1.693620 
# 
# From -- ./inp_files/79691.got.cif
#   From: 2010.05.17/outbox.cif.g08.bks.cpg/sg10_40_cif.got.tgz:79691.got - 2010.06.03 11:33:40.
