data_PCOD9154782
_publ_section_title
;
Structure prediction by ZEFSAII (Michael W. Deem and Ramdas Pophale) SiO2 
 PCOD9154782
Probable space group: P 2/M
;
_chemical_formula_sum "Si O2"
_cell_formula_units_Z 14
_cell_length_a 9.208705
_cell_length_b 16.515368
_cell_length_c 5.115068
_cell_angle_alpha 90.000000
_cell_angle_beta 58.910197
_cell_angle_gamma 90.000000
_cell_volume 666.183840
_symmetry_space_group_name_H-M "P 2/M"
_symmetry_group_IT_number 10
_symmetry_cell_setting 'monoclinic'
loop_
_space_group_symop_operation_xyz
x,y,z
-x,y,-z
-x,-y,-z
x,-y,z
loop_
_atom_site_type_symbol
_atom_site_label
_atom_site_fract_x
_atom_site_fract_y
_atom_site_fract_z
Si Si1 0.616301 0.354574 0.147287
Si Si2 0.192323 0.189391 0.892530
Si Si3 0.305064 0.905535 0.275661
Si Si4 0.120416 0.500000 0.139273
O O1 0.500000 0.379280 0.500000
O O2 0.702555 0.269112 0.133857
O O3 0.500000 0.346818 0.000000
O O4 0.759524 0.421615 0.970624
O O5 0.274522 0.144214 0.568175
O O6 0.195809 0.130859 0.140424
O O7 0.000000 0.211045 0.000000
O O8 0.267664 0.000000 0.355178
O O9 0.500000 0.898490 0.000000
O O10 0.000000 0.500000 0.500000
O O11 0.000000 0.500000 0.000000
#
# Coordination Sequence:
#
# PCOD9154782 Si02
#       4
#     4   4   4   2
#     4  12  25  45  70  97 133 176 221 262 319 392
#     4  12  25  41  65  97 132 171 218 274 330 381
#     4  11  24  43  66  93 129 174 222 271 327 392
#     4  12  26  46  72 104 138 168 212 270 328 382
#
# _framework density 21.015219999999999
#
# number of rings (size 3 to 8) (size 9 to 14) (size 15 to 20)
#    0.000    0.286    0.000   10.286    0.000    8.000 
#    0.000    0.000    0.000    0.000    0.000    0.000 
#    0.000    0.000    0.000    0.000    0.000    0.000 
#
# Total GULP energy -78511.235574 kJ/mol
# GULP energy per Si atom -5607.945398 kJ/mol
# Density = 2.096739 g / cm^3
# Si number density = 21.015220 Si / 1000 Ang^3
#
#
#
# Elastic Constant Matrix: (Units=GPa)
#
#
# Indices 1 2 3 4 5 6 
#
# 1 201.5234 90.0887 85.3818 0.0000 17.2918 0.0000
# 2 90.0887 171.0728 107.0235 0.0000 6.2393 0.0000
# 3 85.3818 107.0235 183.6710 0.0000 19.6897 0.0000
# 4 0.0000 0.0000 0.0000 339.6316 0.0000 -86.2088
# 5 17.2918 6.2393 19.6897 0.0000 42.8810 0.0000
# 6 0.0000 0.0000 0.0000 -86.2088 0.0000 71.5726
#
#
#
# Elastic Compliance Matrix: (Units=1/GPa)
#
#
# Indices 1 2 3 4 5 6 
#
# 1 0.006927 -0.002653 -0.001489 0.000000 -0.001723 0.000000
# 2 -0.002653 0.010272 -0.004950 0.000000 0.001848 0.000000
# 3 -0.001489 -0.004950 0.009339 0.000000 -0.002968 0.000000
# 4 0.000000 0.000000 0.000000 0.004241 0.000000 0.005108
# 5 -0.001723 0.001848 -0.002968 0.000000 0.025109 0.000000
# 6 0.000000 0.000000 0.000000 0.005108 0.000000 0.020125
#
#
# Mechanical properties :
#
#
# Convention : Reuss Voigt Hill
#
# Bulk Modulus (GPa) = 119.71742 124.58391 122.15067
# Shear Modulus (GPa) = 51.55498 109.06859 80.31178
#
# Velocity S-wave (km/s) = 4.95837 7.21197 6.18862
# Velocity P-wave (km/s) = 9.48005 11.34731 10.45545
#
# Compressibility (1/GPa) = 0.00835300
#
# Stress axis : x y z
#
# Youngs Moduli (GPa) = 144.35730 97.35012 107.07268
#
# Poissons Ratio (x) = 0.25830 0.15947
# Poissons Ratio (y) = 0.38303 0.53003
# Poissons Ratio (z) = 0.21500 0.48190
#
# Static dielectric constant tensor:
#      x y z
#    x 1.718980 0.000000 -0.015120 
#    y 0.000000 1.718280 0.000000 
#    z -0.015120 0.000000 1.721000 
# 
# From -- ./inp_files/3335.got.cif
#   From: 2010.05.17/outbox.cif.g08.bks.cpg/sg10_2_cif.got.tgz:3335.got - 2010.06.03 11:33:40.
