data_PCOD9154383
_publ_section_title
;
Structure prediction by ZEFSAII (Michael W. Deem and Ramdas Pophale) SiO2 
 PCOD9154383
Probable space group: P 2/M
;
_chemical_formula_sum "Si O2"
_cell_formula_units_Z 30
_cell_length_a 12.532908
_cell_length_b 7.516188
_cell_length_c 17.095862
_cell_angle_alpha 90.000000
_cell_angle_beta 112.459512
_cell_angle_gamma 90.000000
_cell_volume 1488.273771
_symmetry_space_group_name_H-M "P 2/M"
_symmetry_group_IT_number 10
_symmetry_cell_setting 'monoclinic'
loop_
_space_group_symop_operation_xyz
x,y,z
-x,y,-z
-x,-y,-z
x,-y,z
loop_
_atom_site_type_symbol
_atom_site_label
_atom_site_fract_x
_atom_site_fract_y
_atom_site_fract_z
Si Si1 0.214226 0.500000 0.871561
Si Si2 0.894013 0.799193 0.578859
Si Si3 0.839993 0.214166 0.029312
Si Si4 0.868688 0.795667 0.278225
Si Si5 0.259067 0.704929 0.322456
Si Si6 0.741356 0.704721 0.394115
Si Si7 0.510728 0.716387 0.412783
Si Si8 0.104193 0.212959 0.132435
O O1 0.241415 0.341928 0.944860
O O2 0.177020 0.658074 0.798110
O O3 0.798002 0.800206 0.619960
O O4 0.840706 0.708612 0.488081
O O5 0.009342 0.727912 0.651996
O O6 0.921976 0.000000 0.562725
O O7 0.970028 0.268078 0.094625
O O8 0.825614 0.000000 0.034497
O O9 0.842371 0.254594 0.937250
O O10 0.782991 0.800137 0.328002
O O11 0.885630 0.000000 0.253034
O O12 0.268421 0.500000 0.350646
O O13 0.388633 0.766503 0.340020
O O14 0.176435 0.715818 0.224816
O O15 0.720037 0.500000 0.366194
O O16 0.625336 0.780025 0.401452
O O17 0.500000 0.772948 0.500000
O O18 0.520530 0.500000 0.416106
O O19 0.102997 0.000000 0.138592
#
# Coordination Sequence:
#
# PCOD9154383 Si02
#       8
#     2   4   4   4   4   4   4   4
#     4  12  22  35  59  82 106 153 193 232 284 353
#     4  11  23  36  52  78 118 155 189 242 291 336
#     4   9  20  36  55  82 121 156 186 233 291 349
#     4  11  25  40  54  84 119 151 196 248 291 333
#     4  11  21  32  56  86 115 152 194 237 281 341
#     4  11  21  38  62  78 107 154 203 241 289 344
#     4   9  18  36  55  82 114 147 190 242 289 328
#     4   9  19  35  52  80 121 154 183 233 288 343
#
# _framework density 20.157582999999999
#
# number of rings (size 3 to 8) (size 9 to 14) (size 15 to 20)
#    0.000    1.733    2.000    3.600    5.600    4.267 
#    0.000    3.333    0.000    0.000    0.000    1.867 
#    0.000    3.200    0.000    0.000    0.000    0.000 
#
# Total GULP energy -167032.056986 kJ/mol
# GULP energy per Si atom -5567.735233 kJ/mol
# Density = 2.011170 g / cm^3
# Si number density = 20.157583 Si / 1000 Ang^3
#
#
#
# Elastic Constant Matrix: (Units=GPa)
#
#
# Indices 1 2 3 4 5 6 
#
# 1 49.7720 0.3715 -0.0115 0.0000 -13.3136 0.0000
# 2 0.3715 81.8132 13.1609 0.0000 -10.5978 0.0000
# 3 -0.0115 13.1609 61.8789 0.0000 -16.1903 0.0000
# 4 0.0000 0.0000 0.0000 160.7332 0.0000 -49.5074
# 5 -13.3136 -10.5978 -16.1903 0.0000 21.4698 0.0000
# 6 0.0000 0.0000 0.0000 -49.5074 0.0000 35.3643
#
#
#
# Elastic Compliance Matrix: (Units=1/GPa)
#
#
# Indices 1 2 3 4 5 6 
#
# 1 0.025554 0.001732 0.004991 0.000000 0.020465 0.000000
# 2 0.001732 0.013268 -0.001030 0.000000 0.006846 0.000000
# 3 0.004991 -0.001030 0.021250 0.000000 0.018611 0.000000
# 4 0.000000 0.000000 0.000000 0.010938 0.000000 0.015312
# 5 0.020465 0.006846 0.018611 0.000000 0.076682 0.000000
# 6 0.000000 0.000000 0.000000 0.015312 0.000000 0.049713
#
#
# Mechanical properties :
#
#
# Convention : Reuss Voigt Hill
#
# Bulk Modulus (GPa) = 13.99436 24.50065 19.24751
# Shear Modulus (GPa) = 23.82794 55.50967 39.66881
#
# Velocity S-wave (km/s) = 3.44187 5.25335 4.44095
# Velocity P-wave (km/s) = 4.77000 6.99841 5.98877
#
# Compressibility (1/GPa) = 0.07145737
#
# Stress axis : x y z
#
# Youngs Moduli (GPa) = 39.13273 75.37112 47.05853
#
# Poissons Ratio (x) = -0.13055 -0.23486
# Poissons Ratio (y) = -0.06778 0.04848
# Poissons Ratio (z) = -0.19531 0.07765
#
# Static dielectric constant tensor:
#      x y z
#    x 1.749950 0.000000 -0.000220 
#    y 0.000000 1.736600 0.000000 
#    z -0.000220 0.000000 1.693520 
# 
# From -- ./inp_files/76044.got.cif
#   From: 2010.05.17/outbox.cif.g08.bks.cpg/sg10_39_cif.got.tgz:76044.got - 2010.06.03 11:33:40.
