data_PCOD9154957
_publ_section_title
;
Structure prediction by ZEFSAII (Michael W. Deem and Ramdas Pophale) SiO2 
 PCOD9154957
Probable space group: P 2/M
;
_chemical_formula_sum "Si O2"
_cell_formula_units_Z 28
_cell_length_a 23.261275
_cell_length_b 7.569457
_cell_length_c 25.621018
_cell_angle_alpha 90.000000
_cell_angle_beta 17.003854
_cell_angle_gamma 90.000000
_cell_volume 1319.245139
_symmetry_space_group_name_H-M "P 2/M"
_symmetry_group_IT_number 10
_symmetry_cell_setting 'monoclinic'
loop_
_space_group_symop_operation_xyz
x,y,z
-x,y,-z
-x,-y,-z
x,-y,z
loop_
_atom_site_type_symbol
_atom_site_label
_atom_site_fract_x
_atom_site_fract_y
_atom_site_fract_z
Si Si1 0.132953 0.799160 0.929526
Si Si2 0.163245 0.282511 0.112247
Si Si3 0.445517 0.200841 0.492003
Si Si4 0.265836 0.291574 0.543456
Si Si5 0.203802 0.284513 0.296198
Si Si6 0.363725 0.284675 0.045425
Si Si7 0.662026 0.708430 0.147265
O O1 0.348923 0.800866 0.717026
O O2 0.167018 0.726313 0.957641
O O3 0.060327 0.000000 0.999227
O O4 0.000000 0.712633 0.000000
O O5 0.162799 0.500000 0.112394
O O6 0.263654 0.226570 0.078781
O O7 0.939034 0.221417 0.299908
O O8 0.277820 0.221418 0.961126
O O9 0.500000 0.287364 0.500000
O O10 0.293040 0.273700 0.582301
O O11 0.381665 0.000000 0.558779
O O12 0.264442 0.500000 0.534296
O O13 0.459563 0.216122 0.346817
O O14 0.198571 0.500000 0.301429
O O15 0.241425 0.231025 0.203244
O O16 0.000000 0.224772 0.500000
O O17 0.407415 0.231025 0.147916
O O18 0.364398 0.500000 0.045201
O O19 0.631770 0.500000 0.166974
#
# Coordination Sequence:
#
# PCOD9154957 Si02
#       7
#     4   4   4   4   4   4   4
#     4   9  18  31  46  64  84 107 139 180 224 269
#     4   9  17  28  42  59  83 116 150 184 222 262
#     4   9  18  31  46  64  84 107 139 180 224 269
#     4   9  18  31  44  61  85 112 144 180 218 264
#     4   8  13  21  34  53  79 110 145 181 213 246
#     4   8  14  23  34  53  79 108 146 184 212 248
#     4   9  18  31  44  61  85 112 144 180 218 264
#
# _framework density 21.224257999999999
#
# number of rings (size 3 to 8) (size 9 to 14) (size 15 to 20)
#    0.000    3.286    0.000    0.857    2.000    1.714 
#    0.000    5.714    0.000    0.000    0.000    0.000 
#    0.000    0.000    0.000   10.286    0.000   72.571 
#
# Total GULP energy -156023.466612 kJ/mol
# GULP energy per Si atom -5572.266665 kJ/mol
# Density = 2.117595 g / cm^3
# Si number density = 21.224258 Si / 1000 Ang^3
#
#
#
# Elastic Constant Matrix: (Units=GPa)
#
#
# Indices 1 2 3 4 5 6 
#
# 1 232.8232 4.4584 116.8310 0.0000 -13.8249 0.0000
# 2 4.4584 43.4431 7.3524 0.0000 0.5880 0.0000
# 3 116.8310 7.3524 155.8692 0.0000 -1.7988 0.0000
# 4 0.0000 0.0000 0.0000 -0.7660 0.0000 -12.0543
# 5 -13.8249 0.5880 -1.7988 0.0000 26.3934 0.0000
# 6 0.0000 0.0000 0.0000 -12.0543 0.0000 58.5982
#
#
#
# Elastic Compliance Matrix: (Units=1/GPa)
#
#
# Indices 1 2 3 4 5 6 
#
# 1 0.007177 0.000122 -0.005346 0.000000 0.003392 0.000000
# 2 0.000122 0.023215 -0.001193 0.000000 -0.000534 0.000000
# 3 -0.005346 -0.001193 0.010455 0.000000 -0.002061 0.000000
# 4 0.000000 0.000000 0.000000 -0.308100 0.000000 -0.063380
# 5 0.003392 -0.000534 -0.002061 0.000000 0.039536 0.000000
# 6 0.000000 0.000000 0.000000 -0.063380 0.000000 0.004027
#
#
# Mechanical properties :
#
#
# Convention : Reuss Voigt Hill
#
# Bulk Modulus (GPa) = 35.69641 76.60213 56.14927
# Shear Modulus (GPa) = -24.81170 37.07804 6.13317
#
# Velocity S-wave (km/s) = -3.42281 4.18421 1.70175
# Velocity P-wave (km/s) = 1.11101 7.71450 5.51126
#
# Compressibility (1/GPa) = 0.02801402
#
# Stress axis : x y z
#
# Youngs Moduli (GPa) = 139.33794 43.07526 95.64660
#
# Poissons Ratio (x) = -0.00527 0.51132
# Poissons Ratio (y) = -0.01705 0.11410
# Poissons Ratio (z) = 0.74489 0.05139
#
# Static dielectric constant tensor:
#      x y z
#    x 1.756110 0.000000 0.003080 
#    y 0.000000 1.810120 0.000000 
#    z 0.003080 0.000000 1.771250 
# 
# From -- ./inp_files/90366.got.cif
#   From: 2010.05.17/outbox.cif.g08.bks.cpg/sg10_46_cif.got.tgz:90366.got - 2010.06.03 11:33:40.
