data_PCOD9154852
_publ_section_title
;
Structure prediction by ZEFSAII (Michael W. Deem and Ramdas Pophale) SiO2 
 PCOD9154852
Probable space group: P 2/M
;
_chemical_formula_sum "Si O2"
_cell_formula_units_Z 28
_cell_length_a 12.580801
_cell_length_b 13.969467
_cell_length_c 10.462316
_cell_angle_alpha 90.000000
_cell_angle_beta 52.849899
_cell_angle_gamma 90.000000
_cell_volume 1465.564329
_symmetry_space_group_name_H-M "P 2/M"
_symmetry_group_IT_number 10
_symmetry_cell_setting 'monoclinic'
loop_
_space_group_symop_operation_xyz
x,y,z
-x,y,-z
-x,-y,-z
x,-y,z
loop_
_atom_site_type_symbol
_atom_site_label
_atom_site_fract_x
_atom_site_fract_y
_atom_site_fract_z
Si Si1 0.140069 0.115149 0.743501
Si Si2 0.158177 0.884593 0.028363
Si Si3 0.569873 0.796101 0.082565
Si Si4 0.005458 0.383965 0.141562
Si Si5 0.593359 0.802098 0.549778
Si Si6 0.301619 0.388218 0.923640
Si Si7 0.708811 0.387999 0.378965
O O1 0.260470 0.153622 0.572291
O O2 0.989545 0.147761 0.820196
O O3 0.139517 0.000000 0.739508
O O4 0.168326 0.142666 0.870838
O O5 0.160042 0.000000 0.032754
O O6 0.285336 0.844430 0.008729
O O7 0.477947 0.828043 0.267460
O O8 0.595731 0.683376 0.087149
O O9 0.500000 0.815443 0.000000
O O10 0.005902 0.500000 0.134369
O O11 0.862015 0.362237 0.305516
O O12 0.152970 0.360211 0.081951
O O13 0.000000 0.347868 0.000000
O O14 0.500000 0.834638 0.500000
O O15 0.614392 0.687707 0.516146
O O16 0.325113 0.500000 0.931896
O O17 0.300138 0.376856 0.769389
O O18 0.681898 0.500000 0.426579
#
# Coordination Sequence:
#
# PCOD9154852 Si02
#       7
#     4   4   4   4   4   4   4
#     4   9  19  37  66  96 117 140 187 248 294 341
#     4   9  19  39  65  92 117 149 188 236 296 345
#     4  12  26  40  54  83 124 162 195 233 286 348
#     4   7  12  24  46  78 105 133 178 234 287 326
#     4  12  22  36  56  91 117 152 196 235 296 340
#     4   9  17  32  54  80 112 152 196 236 282 339
#     4   9  17  30  53  85 116 142 186 248 295 334
#
# _framework density 19.105267999999999
#
# number of rings (size 3 to 8) (size 9 to 14) (size 15 to 20)
#    0.000    2.429    2.857    2.571    2.000    2.286 
#    0.000    0.714    0.000    1.714    0.000    3.000 
#    0.000    0.000    0.000    0.000    0.000    0.000 
#
# Total GULP energy -156217.004768 kJ/mol
# GULP energy per Si atom -5579.178742 kJ/mol
# Density = 1.906178 g / cm^3
# Si number density = 19.105268 Si / 1000 Ang^3
#
#
#
# Elastic Constant Matrix: (Units=GPa)
#
#
# Indices 1 2 3 4 5 6 
#
# 1 135.5237 35.1474 72.2649 0.0000 -14.6271 0.0000
# 2 35.1474 52.6116 18.2433 0.0000 -4.2798 0.0000
# 3 72.2649 18.2433 82.1577 0.0000 -11.6725 0.0000
# 4 0.0000 0.0000 0.0000 15.1506 0.0000 -11.5684
# 5 -14.6271 -4.2798 -11.6725 0.0000 27.6807 0.0000
# 6 0.0000 0.0000 0.0000 -11.5684 0.0000 25.8835
#
#
#
# Elastic Compliance Matrix: (Units=1/GPa)
#
#
# Indices 1 2 3 4 5 6 
#
# 1 0.015644 -0.006076 -0.012095 0.000000 0.002227 0.000000
# 2 -0.006076 0.022999 0.000305 0.000000 0.000474 0.000000
# 3 -0.012095 0.000305 0.023233 0.000000 0.003453 0.000000
# 4 0.000000 0.000000 0.000000 0.100198 0.000000 0.044782
# 5 0.002227 0.000474 0.003453 0.000000 0.038832 0.000000
# 6 0.000000 0.000000 0.000000 0.044782 0.000000 0.058650
#
#
# Mechanical properties :
#
#
# Convention : Reuss Voigt Hill
#
# Bulk Modulus (GPa) = 38.24941 57.95601 48.10271
# Shear Modulus (GPa) = 16.44715 23.38546 19.91630
#
# Velocity S-wave (km/s) = 2.93724 3.50241 3.23220
# Velocity P-wave (km/s) = 5.61845 6.83789 6.25795
#
# Compressibility (1/GPa) = 0.02614419
#
# Stress axis : x y z
#
# Youngs Moduli (GPa) = 63.92102 43.47964 43.04193
#
# Poissons Ratio (x) = 0.26419 0.52059
# Poissons Ratio (y) = 0.38839 -0.01312
# Poissons Ratio (z) = 0.77312 -0.01325
#
# Static dielectric constant tensor:
#      x y z
#    x 1.669550 0.000000 -0.051280 
#    y 0.000000 1.727230 0.000000 
#    z -0.051280 0.000000 1.647610 
# 
# From -- ./inp_files/25173.got.cif
#   From: 2010.05.17/outbox.cif.g08.bks.cpg/sg10_13_cif.got.tgz:25173.got - 2010.06.03 11:33:40.
