data_PCOD9154306
_publ_section_title
;
Structure prediction by ZEFSAII (Michael W. Deem and Ramdas Pophale) SiO2 
 PCOD9154306
Probable space group: P 2/M
;
_chemical_formula_sum "Si O2"
_cell_formula_units_Z 32
_cell_length_a 10.044835
_cell_length_b 14.222556
_cell_length_c 24.576330
_cell_angle_alpha 90.000000
_cell_angle_beta 34.310512
_cell_angle_gamma 90.000000
_cell_volume 1979.102414
_symmetry_space_group_name_H-M "P 2/M"
_symmetry_group_IT_number 10
_symmetry_cell_setting 'monoclinic'
loop_
_space_group_symop_operation_xyz
x,y,z
-x,y,-z
-x,-y,-z
x,-y,z
loop_
_atom_site_type_symbol
_atom_site_label
_atom_site_fract_x
_atom_site_fract_y
_atom_site_fract_z
Si Si1 0.426277 0.885926 0.584689
Si Si2 0.729824 0.885785 0.585921
Si Si3 0.463119 0.110150 0.787448
Si Si4 0.533921 0.203855 0.875949
Si Si5 0.060128 0.888438 0.194673
Si Si6 0.973946 0.602175 0.073591
Si Si7 0.007005 0.803874 0.901294
Si Si8 0.490505 0.604664 0.066584
O O1 0.500000 0.851909 0.500000
O O2 0.596780 0.853374 0.576193
O O3 0.157002 0.864266 0.691894
O O4 0.442918 0.000000 0.578052
O O5 0.585962 0.862581 0.689059
O O6 0.000000 0.853862 0.500000
O O7 0.732707 0.000000 0.582322
O O8 0.554901 0.170915 0.806928
O O9 0.184821 0.127167 0.872268
O O10 0.510145 0.000000 0.782137
O O11 0.694167 0.139158 0.860396
O O12 0.611285 0.310914 0.863162
O O13 0.256321 0.196365 0.984919
O O14 0.019669 0.834316 0.152003
O O15 0.051180 0.000000 0.186743
O O16 0.857157 0.500000 0.123452
O O17 0.880855 0.699476 0.129462
O O18 0.000000 0.613697 0.000000
O O19 0.238363 0.596269 0.007173
O O20 0.381849 0.500000 0.107749
O O21 0.500000 0.632731 0.000000
#
# Coordination Sequence:
#
# PCOD9154306 Si02
#       8
#     4   4   4   4   4   4   4   4
#     4   9  18  33  52  70  90 121 162 211 258 285
#     4   9  18  33  52  70  90 121 163 211 255 286
#     4  11  22  34  47  69 102 137 171 203 235 283
#     4  11  22  32  47  72 100 137 173 197 233 287
#     4  11  22  34  47  69 102 135 169 205 235 280
#     4   9  17  30  49  70  90 119 162 211 254 282
#     4  11  20  34  49  66 100 139 171 199 235 286
#     4   9  17  32  51  68  90 123 166 213 254 282
#
# _framework density 16.168945999999998
#
# number of rings (size 3 to 8) (size 9 to 14) (size 15 to 20)
#    0.000    2.000    1.250    4.500    1.750    3.000 
#    0.000    0.000    0.000    0.000    0.000    0.000 
#    0.000    6.000    0.000    0.000    0.000    0.000 
#
# Total GULP energy -178312.478173 kJ/mol
# GULP energy per Si atom -5572.264943 kJ/mol
# Density = 1.613215 g / cm^3
# Si number density = 16.168946 Si / 1000 Ang^3
#
#
#
# Elastic Constant Matrix: (Units=GPa)
#
#
# Indices 1 2 3 4 5 6 
#
# 1 107.6979 28.6769 28.5504 0.0000 23.0378 0.0000
# 2 28.6769 68.7866 35.9601 0.0000 16.7526 0.0000
# 3 28.5504 35.9601 59.1203 0.0000 13.5332 0.0000
# 4 0.0000 0.0000 0.0000 -0.8427 0.0000 6.6333
# 5 23.0378 16.7526 13.5332 0.0000 30.8575 0.0000
# 6 0.0000 0.0000 0.0000 6.6333 0.0000 23.2016
#
#
#
# Elastic Compliance Matrix: (Units=1/GPa)
#
#
# Indices 1 2 3 4 5 6 
#
# 1 0.012016 -0.001694 -0.003256 0.000000 -0.006623 0.000000
# 2 -0.001694 0.022813 -0.011686 0.000000 -0.005996 0.000000
# 3 -0.003256 -0.011686 0.026218 0.000000 -0.002723 0.000000
# 4 0.000000 0.000000 0.000000 -0.365079 0.000000 0.104375
# 5 -0.006623 -0.005996 -0.002723 0.000000 0.041801 0.000000
# 6 0.000000 0.000000 0.000000 0.104375 0.000000 0.013260
#
#
# Mechanical properties :
#
#
# Convention : Reuss Voigt Hill
#
# Bulk Modulus (GPa) = 36.00254 46.88662 41.44458
# Shear Modulus (GPa) = -24.22027 20.13776 -2.04126
#
# Velocity S-wave (km/s) = -3.87453 3.53294 -1.12481
# Velocity P-wave (km/s) = 1.51618 6.76040 4.89907
#
# Compressibility (1/GPa) = 0.02777581
#
# Stress axis : x y z
#
# Youngs Moduli (GPa) = 83.21954 43.83434 38.14116
#
# Poissons Ratio (x) = 0.07426 0.12420
# Poissons Ratio (y) = 0.14099 0.44570
# Poissons Ratio (z) = 0.27099 0.51223
#
# Static dielectric constant tensor:
#      x y z
#    x 1.543390 0.000000 -0.004410 
#    y 0.000000 1.592610 0.000000 
#    z -0.004410 0.000000 1.531620 
# 
# From -- ./inp_files/61527.got.cif
#   From: 2010.05.17/outbox.cif.g08.bks.cpg/sg10_31_cif.got.tgz:61527.got - 2010.06.03 11:33:40.
