data_PCOD9154794
_publ_section_title
;
Structure prediction by ZEFSAII (Michael W. Deem and Ramdas Pophale) SiO2 
 PCOD9154794
Probable space group: P 2/M
;
_chemical_formula_sum "Si O2"
_cell_formula_units_Z 15
_cell_length_a 5.599664
_cell_length_b 20.893192
_cell_length_c 5.398411
_cell_angle_alpha 90.000000
_cell_angle_beta 87.002313
_cell_angle_gamma 90.000000
_cell_volume 630.722079
_symmetry_space_group_name_H-M "P 2/M"
_symmetry_group_IT_number 10
_symmetry_cell_setting 'monoclinic'
loop_
_space_group_symop_operation_xyz
x,y,z
-x,y,-z
-x,-y,-z
x,-y,z
loop_
_atom_site_type_symbol
_atom_site_label
_atom_site_fract_x
_atom_site_fract_y
_atom_site_fract_z
Si Si1 0.862763 0.590444 0.256396
Si Si2 0.500000 0.500000 0.500000
Si Si3 0.348272 0.723472 0.765367
Si Si4 0.242690 0.142023 0.641675
Si Si5 0.255325 0.000000 0.858160
O O1 0.609582 0.556054 0.307444
O O2 0.840914 0.667028 0.254896
O O3 0.000000 0.570520 0.500000
O O4 0.000000 0.571291 0.000000
O O5 0.500000 0.722435 0.500000
O O6 0.246271 0.795150 0.814712
O O7 0.500000 0.706996 0.000000
O O8 0.500000 0.147740 0.500000
O O9 0.249632 0.068701 0.727592
O O10 0.000000 0.148997 0.500000
O O11 0.500000 0.000000 0.000000
O O12 0.000000 0.000000 0.000000
#
# Coordination Sequence:
#
# PCOD9154794 Si02
#       5
#     4   1   4   4   2
#     4  12  27  47  76 109 145 198 249 310 381 460
#     4  12  28  50  76 104 162 178 262 298 402 438
#     4  11  24  47  75 107 147 193 246 314 376 450
#     4  11  24  44  71 103 148 200 255 313 383 450
#     4  12  24  40  66 104 150 198 255 314 381 450
#
# _framework density 23.782267000000001
#
# number of rings (size 3 to 8) (size 9 to 14) (size 15 to 20)
#    0.000    0.533    1.333    6.400    0.000    6.400 
#    0.000    0.000    0.000    0.000    0.000    0.000 
#    0.000    0.000    0.000    0.000    0.000    0.000 
#
# Total GULP energy -83535.488094 kJ/mol
# GULP energy per Si atom -5569.032540 kJ/mol
# Density = 2.372814 g / cm^3
# Si number density = 23.782267 Si / 1000 Ang^3
#
#
#
# Elastic Constant Matrix: (Units=GPa)
#
#
# Indices 1 2 3 4 5 6 
#
# 1 121.9237 10.4061 56.1752 0.0000 -12.9392 0.0000
# 2 10.4061 196.2965 23.4741 0.0000 -17.1004 0.0000
# 3 56.1752 23.4741 150.9652 0.0000 -16.6540 0.0000
# 4 0.0000 0.0000 0.0000 -14.2432 0.0000 -40.6968
# 5 -12.9392 -17.1004 -16.6540 0.0000 67.0549 0.0000
# 6 0.0000 0.0000 0.0000 -40.6968 0.0000 25.7874
#
#
#
# Elastic Compliance Matrix: (Units=1/GPa)
#
#
# Indices 1 2 3 4 5 6 
#
# 1 0.009968 -0.000009 -0.003594 0.000000 0.001028 0.000000
# 2 -0.000009 0.005279 -0.000688 0.000000 0.001174 0.000000
# 3 -0.003594 -0.000688 0.008197 0.000000 0.001167 0.000000
# 4 0.000000 0.000000 0.000000 -0.012744 0.000000 -0.020112
# 5 0.001028 0.001174 0.001167 0.000000 0.015701 0.000000
# 6 0.000000 0.000000 0.000000 -0.020112 0.000000 0.007039
#
#
# Mechanical properties :
#
#
# Convention : Reuss Voigt Hill
#
# Bulk Modulus (GPa) = 67.28699 72.14401 69.71550
# Shear Modulus (GPa) = 106.43604 40.99514 73.71559
#
# Velocity S-wave (km/s) = 6.69713 4.15633 5.57345
# Velocity P-wave (km/s) = 9.38916 7.30989 8.41400
#
# Compressibility (1/GPa) = 0.01486171
#
# Stress axis : x y z
#
# Youngs Moduli (GPa) = 100.32331 189.41749 121.99293
#
# Poissons Ratio (x) = 0.00170 0.43847
# Poissons Ratio (y) = 0.00090 0.08394
# Poissons Ratio (z) = 0.36058 0.13033
#
# Static dielectric constant tensor:
#      x y z
#    x 1.931780 0.000000 0.060620 
#    y 0.000000 2.358810 0.000000 
#    z 0.060620 0.000000 1.995100 
# 
# From -- ./inp_files/1283.got.cif
#   From: 2010.05.17/outbox.cif.g08.bks.cpg/sg10_1_cif.got.tgz:1283.got - 2010.06.03 11:33:40.
