data_PCOD9154899
_publ_section_title
;
Structure prediction by ZEFSAII (Michael W. Deem and Ramdas Pophale) SiO2 
 PCOD9154899
Probable space group: P 2/M
;
_chemical_formula_sum "Si O2"
_cell_formula_units_Z 32
_cell_length_a 23.741101
_cell_length_b 7.378494
_cell_length_c 7.030348
_cell_angle_alpha 90.000000
_cell_angle_beta 106.600249
_cell_angle_gamma 90.000000
_cell_volume 1180.202589
_symmetry_space_group_name_H-M "P 2/M"
_symmetry_group_IT_number 10
_symmetry_cell_setting 'monoclinic'
loop_
_space_group_symop_operation_xyz
x,y,z
-x,y,-z
-x,-y,-z
x,-y,z
loop_
_atom_site_type_symbol
_atom_site_label
_atom_site_fract_x
_atom_site_fract_y
_atom_site_fract_z
Si Si1 0.181769 0.283182 0.190026
Si Si2 0.304225 0.783511 0.397413
Si Si3 0.574449 0.216439 0.386014
Si Si4 0.324171 0.217754 0.980735
Si Si5 0.550189 0.216384 0.818376
Si Si6 0.932461 0.292298 0.406142
Si Si7 0.061417 0.707007 0.038067
Si Si8 0.196033 0.282864 0.769933
O O1 0.176049 0.500000 0.169370
O O2 0.236509 0.250666 0.377518
O O3 0.118494 0.211608 0.188071
O O4 0.193422 0.213833 0.987623
O O5 0.359052 0.713710 0.572081
O O6 0.311028 0.716863 0.185084
O O7 0.310846 0.000000 0.398876
O O8 0.563553 0.236352 0.604108
O O9 0.516308 0.288410 0.225645
O O10 0.575541 0.000000 0.347435
O O11 0.391694 0.282104 0.014820
O O12 0.328567 0.000000 0.988424
O O13 0.266070 0.253385 0.799419
O O14 0.546618 0.000000 0.849837
O O15 0.935355 0.500000 0.482600
O O16 0.927605 0.301409 0.174162
O O17 0.865796 0.217985 0.386045
O O18 0.000000 0.216891 0.500000
O O19 0.055123 0.500000 0.102999
O O20 0.000000 0.801953 0.000000
O O21 0.189662 0.500000 0.758871
#
# Coordination Sequence:
#
# PCOD9154899 Si02
#       8
#     4   4   4   4   4   4   4   4
#     4   8  13  20  29  41  57  76  97 123 155 187
#     4   8  12  17  26  39  53  71  97 127 155 182
#     4   7   9  13  21  33  48  66  91 123 153 177
#     4   8  12  17  26  39  53  71  97 127 155 182
#     4   7   9  13  21  33  48  66  91 123 153 177
#     4   8  13  21  33  48  64  82 106 135 164 193
#     4   8  13  21  33  48  64  82 106 135 164 193
#     4   8  13  20  29  41  57  76  97 123 155 187
#
# _framework density 27.113987999999999
#
# number of rings (size 3 to 8) (size 9 to 14) (size 15 to 20)
#    0.000    4.250    0.000    3.750    0.000    0.000 
#    0.000    0.000    0.000    1.500    0.000    5.250 
#    0.000    0.000    0.000    0.000    0.000    1.250 
#
# Total GULP energy -178237.598879 kJ/mol
# GULP energy per Si atom -5569.924965 kJ/mol
# Density = 2.705228 g / cm^3
# Si number density = 27.113988 Si / 1000 Ang^3
#
#
#
# Elastic Constant Matrix: (Units=GPa)
#
#
# Indices 1 2 3 4 5 6 
#
# 1 165.1703 6.2120 118.1295 0.0000 97.9437 0.0000
# 2 6.2120 95.4085 6.5953 0.0000 11.2268 0.0000
# 3 118.1295 6.5953 247.4457 0.0000 70.3914 0.0000
# 4 0.0000 0.0000 0.0000 7.4357 0.0000 12.6413
# 5 97.9437 11.2268 70.3914 0.0000 103.7529 0.0000
# 6 0.0000 0.0000 0.0000 12.6413 0.0000 24.4049
#
#
#
# Elastic Compliance Matrix: (Units=1/GPa)
#
#
# Indices 1 2 3 4 5 6 
#
# 1 0.016905 0.000740 -0.004371 0.000000 -0.013073 0.000000
# 2 0.000740 0.010649 -0.000137 0.000000 -0.001758 0.000000
# 3 -0.004371 -0.000137 0.006138 0.000000 -0.000023 0.000000
# 4 0.000000 0.000000 0.000000 1.126471 0.000000 -0.583493
# 5 -0.013073 -0.001758 -0.000023 0.000000 0.022185 0.000000
# 6 0.000000 0.000000 0.000000 -0.583493 0.000000 0.343215
#
#
# Mechanical properties :
#
#
# Convention : Reuss Voigt Hill
#
# Bulk Modulus (GPa) = 38.23260 85.54423 61.88842
# Shear Modulus (GPa) = 3.24292 52.25790 27.75041
#
# Velocity S-wave (km/s) = 1.09482 4.39491 3.20265
# Velocity P-wave (km/s) = 3.96604 7.57443 6.04572
#
# Compressibility (1/GPa) = 0.02615569
#
# Stress axis : x y z
#
# Youngs Moduli (GPa) = 59.15557 93.90212 162.91045
#
# Poissons Ratio (x) = -0.06947 0.71210
# Poissons Ratio (y) = -0.04376 0.02231
# Poissons Ratio (z) = 0.25858 0.01286
#
# Static dielectric constant tensor:
#      x y z
#    x 2.591500 0.000000 -0.230470 
#    y 0.000000 2.090850 0.000000 
#    z -0.230470 0.000000 2.387730 
# 
# From -- ./inp_files/55547.got.cif
#   From: 2010.05.17/outbox.cif.g08.bks.cpg/sg10_28_cif.got.tgz:55547.got - 2010.06.03 11:33:40.
