data_PCOD9154340
_publ_section_title
;
Structure prediction by ZEFSAII (Michael W. Deem and Ramdas Pophale) SiO2 
 PCOD9154340
Probable space group: P 2/M
;
_chemical_formula_sum "Si O2"
_cell_formula_units_Z 18
_cell_length_a 24.987111
_cell_length_b 7.593738
_cell_length_c 5.159884
_cell_angle_alpha 90.000000
_cell_angle_beta 58.853380
_cell_angle_gamma 90.000000
_cell_volume 837.929496
_symmetry_space_group_name_H-M "P 2/M"
_symmetry_group_IT_number 10
_symmetry_cell_setting 'monoclinic'
loop_
_space_group_symop_operation_xyz
x,y,z
-x,y,-z
-x,-y,-z
x,-y,z
loop_
_atom_site_type_symbol
_atom_site_label
_atom_site_fract_x
_atom_site_fract_y
_atom_site_fract_z
Si Si1 0.141380 0.284957 0.732741
Si Si2 0.543693 0.500000 0.640123
Si Si3 0.278582 0.710712 0.215268
Si Si4 0.068686 0.715134 0.414578
Si Si5 0.643787 0.801772 0.470534
O O1 0.142753 0.500000 0.732537
O O2 0.210033 0.226729 0.473933
O O3 0.091151 0.230509 0.641882
O O4 0.118876 0.229716 0.072347
O O5 0.500000 0.500000 0.500000
O O6 0.589333 0.667491 0.533429
O O7 0.500000 0.500000 0.000000
O O8 0.275686 0.500000 0.187854
O O9 0.326064 0.752087 0.329356
O O10 0.303445 0.787287 0.884137
O O11 0.067447 0.500000 0.419698
O O12 0.000000 0.773502 0.500000
O O13 0.619996 0.000000 0.541384
#
# Coordination Sequence:
#
# PCOD9154340 Si02
#       5
#     4   2   4   4   4
#     4   9  17  26  45  73 104 155 205 249 312 376
#     4  12  26  46  72  98 134 172 209 250 307 366
#     4  11  20  39  63  89 128 168 213 265 323 379
#     4   9  15  24  37  64 109 154 199 255 314 369
#     4  12  25  43  68  99 131 168 213 261 312 369
#
# _framework density 21.481521000000001
#
# number of rings (size 3 to 8) (size 9 to 14) (size 15 to 20)
#    0.000    1.556    2.222    4.000    0.000    7.111 
#    0.000    0.000    0.000    0.000    0.000    0.000 
#    0.000   62.222    0.000    0.000    0.000    0.000 
#
# Total GULP energy -100716.645553 kJ/mol
# GULP energy per Si atom -5595.369197 kJ/mol
# Density = 2.143263 g / cm^3
# Si number density = 21.481521 Si / 1000 Ang^3
#
#
#
# Elastic Constant Matrix: (Units=GPa)
#
#
# Indices 1 2 3 4 5 6 
#
# 1 53.7198 -0.2630 -33.6129 0.0000 -0.5183 0.0000
# 2 -0.2630 74.7722 -17.9170 0.0000 -12.6275 0.0000
# 3 -33.6129 -17.9170 63.2913 0.0000 1.0711 0.0000
# 4 0.0000 0.0000 0.0000 28.8057 0.0000 27.0722
# 5 -0.5183 -12.6275 1.0711 0.0000 44.4851 0.0000
# 6 0.0000 0.0000 0.0000 27.0722 0.0000 -3.4224
#
#
#
# Elastic Compliance Matrix: (Units=1/GPa)
#
#
# Indices 1 2 3 4 5 6 
#
# 1 0.029044 0.004278 0.016617 0.000000 0.001153 0.000000
# 2 0.004278 0.015717 0.006648 0.000000 0.004351 0.000000
# 3 0.016617 0.006648 0.026482 0.000000 0.001443 0.000000
# 4 0.000000 0.000000 0.000000 0.004116 0.000000 0.032559
# 5 0.001153 0.004351 0.001443 0.000000 0.023693 0.000000
# 6 0.000000 0.000000 0.000000 0.032559 0.000000 -0.034643
#
#
# Mechanical properties :
#
#
# Convention : Reuss Voigt Hill
#
# Bulk Modulus (GPa) = 7.91584 9.79975 8.85780
# Shear Modulus (GPa) = 97.21394 30.21208 63.71301
#
# Velocity S-wave (km/s) = 6.73446 3.75430 5.45196
# Velocity P-wave (km/s) = 8.01021 4.83372 6.61545
#
# Compressibility (1/GPa) = 0.12632894
#
# Stress axis : x y z
#
# Youngs Moduli (GPa) = 34.43023 63.62625 37.76123
#
# Poissons Ratio (x) = -0.27222 -0.62746
# Poissons Ratio (y) = -0.14731 -0.25103
# Poissons Ratio (z) = -0.57211 -0.42298
#
# Static dielectric constant tensor:
#      x y z
#    x 1.724320 0.000000 -0.014560 
#    y 0.000000 1.786920 0.000000 
#    z -0.014560 0.000000 1.741890 
# 
# From -- ./inp_files/11960.got.cif
#   From: 2010.05.17/outbox.cif.g08.bks.cpg/sg10_6_cif.got.tgz:11960.got - 2010.06.03 11:33:40.
