data_PCOD9154905
_publ_section_title
;
Structure prediction by ZEFSAII (Michael W. Deem and Ramdas Pophale) SiO2 
 PCOD9154905
Probable space group: P 2/M
;
_chemical_formula_sum "Si O2"
_cell_formula_units_Z 32
_cell_length_a 17.794128
_cell_length_b 11.487061
_cell_length_c 7.110231
_cell_angle_alpha 90.000000
_cell_angle_beta 128.095953
_cell_angle_gamma 90.000000
_cell_volume 1143.753070
_symmetry_space_group_name_H-M "P 2/M"
_symmetry_group_IT_number 10
_symmetry_cell_setting 'monoclinic'
loop_
_space_group_symop_operation_xyz
x,y,z
-x,y,-z
-x,-y,-z
x,-y,z
loop_
_atom_site_type_symbol
_atom_site_label
_atom_site_fract_x
_atom_site_fract_y
_atom_site_fract_z
Si Si1 0.303007 0.373771 0.400523
Si Si2 0.806328 0.875768 0.327530
Si Si3 0.788308 0.626588 0.323211
Si Si4 0.478059 0.375846 0.186774
Si Si5 0.300817 0.873819 0.441834
Si Si6 0.979949 0.874246 0.194414
Si Si7 0.519340 0.874271 0.752024
Si Si8 0.990476 0.375796 0.210148
O O1 0.266382 0.500000 0.276897
O O2 0.272791 0.372192 0.575874
O O3 0.417725 0.374380 0.555075
O O4 0.274157 0.244285 0.292711
O O5 0.774921 0.750449 0.203234
O O6 0.763229 0.876793 0.472100
O O7 0.920239 0.877705 0.539071
O O8 0.778118 0.000000 0.197677
O O9 0.769902 0.500000 0.207972
O O10 0.900559 0.628135 0.551195
O O11 0.432247 0.500000 0.167114
O O12 0.431467 0.249965 0.142949
O O13 0.500000 0.380832 0.000000
O O14 0.412577 0.864427 0.674582
O O15 0.292372 0.000000 0.333282
O O16 0.940001 0.746085 0.179710
O O17 0.931486 0.000000 0.151376
O O18 0.000000 0.871373 0.000000
O O19 0.500000 0.880309 0.500000
O O20 0.560133 0.000000 0.873971
O O21 0.948666 0.500000 0.208495
O O22 0.000000 0.379181 0.000000
#
# Coordination Sequence:
#
# PCOD9154905 Si02
#       8
#     4   4   4   4   4   4   4   4
#     4   8  13  21  32  45  61  81 106 137 170 203
#     4   8  12  17  25  36  50  70  96 126 158 189
#     4   8  12  17  25  36  50  70  96 126 158 189
#     4   9  17  28  41  57  76  97 122 154 191 228
#     4   8  13  21  32  45  61  81 106 137 170 203
#     4   8  12  16  21  30  45  65  90 121 153 182
#     4   9  17  28  41  57  76  97 122 154 191 228
#     4   8  12  16  21  30  45  65  90 121 153 182
#
# _framework density 27.978065999999998
#
# number of rings (size 3 to 8) (size 9 to 14) (size 15 to 20)
#    0.000    3.750    0.000    0.000    0.000    0.500 
#    0.000    0.000    0.000    0.000    0.000    0.000 
#    0.000    0.000    0.000    0.000    0.000    0.000 
#
# Total GULP energy -178625.308447 kJ/mol
# GULP energy per Si atom -5582.040889 kJ/mol
# Density = 2.791439 g / cm^3
# Si number density = 27.978066 Si / 1000 Ang^3
#
#
#
# Elastic Constant Matrix: (Units=GPa)
#
#
# Indices 1 2 3 4 5 6 
#
# 1 91.2377 27.8923 47.9546 0.0000 13.8698 0.0000
# 2 27.8923 457.8002 27.9594 0.0000 -2.2098 0.0000
# 3 47.9546 27.9594 76.4824 0.0000 0.9781 0.0000
# 4 0.0000 0.0000 0.0000 29.7535 0.0000 -8.4666
# 5 13.8698 -2.2098 0.9781 0.0000 44.5170 0.0000
# 6 0.0000 0.0000 0.0000 -8.4666 0.0000 -7.3581
#
#
#
# Elastic Compliance Matrix: (Units=1/GPa)
#
#
# Indices 1 2 3 4 5 6 
#
# 1 0.017561 -0.000437 -0.010784 0.000000 -0.005256 0.000000
# 2 -0.000437 0.002246 -0.000551 0.000000 0.000260 0.000000
# 3 -0.010784 -0.000551 0.020001 0.000000 0.002893 0.000000
# 4 0.000000 0.000000 0.000000 0.025319 0.000000 -0.029134
# 5 -0.005256 0.000260 0.002893 0.000000 0.024050 0.000000
# 6 0.000000 0.000000 0.000000 -0.029134 0.000000 -0.102382
#
#
# Mechanical properties :
#
#
# Convention : Reuss Voigt Hill
#
# Bulk Modulus (GPa) = 61.48071 92.57032 77.02552
# Shear Modulus (GPa) = 317.27393 48.16340 182.71866
#
# Velocity S-wave (km/s) = 10.66054 4.15356 8.09009
# Velocity P-wave (km/s) = 13.17391 7.49409 10.71712
#
# Compressibility (1/GPa) = 0.01626526
#
# Stress axis : x y z
#
# Youngs Moduli (GPa) = 56.94471 445.26756 49.99836
#
# Poissons Ratio (x) = 0.19445 0.53917
# Poissons Ratio (y) = 0.02487 0.02752
# Poissons Ratio (z) = 0.61408 0.24513
#
# Static dielectric constant tensor:
#      x y z
#    x 2.132040 0.000000 -0.038410 
#    y 0.000000 2.246850 0.000000 
#    z -0.038410 0.000000 2.064530 
# 
# From -- ./inp_files/36043.got.cif
#   From: 2010.05.17/outbox.cif.g08.bks.cpg/sg10_19_cif.got.tgz:36043.got - 2010.06.03 11:33:40.
