data_PCOD9154868
_publ_section_title
;
Structure prediction by ZEFSAII (Michael W. Deem and Ramdas Pophale) SiO2 
 PCOD9154868
Probable space group: P 2/M
;
_chemical_formula_sum "Si O2"
_cell_formula_units_Z 13
_cell_length_a 5.354838
_cell_length_b 18.913238
_cell_length_c 5.238335
_cell_angle_alpha 90.000000
_cell_angle_beta 88.252142
_cell_angle_gamma 90.000000
_cell_volume 530.277723
_symmetry_space_group_name_H-M "P 2/M"
_symmetry_group_IT_number 10
_symmetry_cell_setting 'monoclinic'
loop_
_space_group_symop_operation_xyz
x,y,z
-x,y,-z
-x,-y,-z
x,-y,z
loop_
_atom_site_type_symbol
_atom_site_label
_atom_site_fract_x
_atom_site_fract_y
_atom_site_fract_z
Si Si1 0.248829 0.342226 0.854312
Si Si2 0.500000 0.242901 0.500000
Si Si3 0.826351 0.870080 0.760650
Si Si4 0.244391 0.500000 0.666338
Si Si5 0.500000 0.000000 0.000000
O O1 0.286536 0.296175 0.602277
O O2 0.239174 0.426490 0.815351
O O3 0.500000 0.327972 0.000000
O O4 0.000000 0.320034 0.000000
O O5 0.369748 0.191195 0.301890
O O6 0.000000 0.881235 0.500000
O O7 0.665856 0.938442 0.845240
O O8 0.000000 0.853642 0.000000
O O9 0.500000 0.500000 0.500000
O O10 0.000000 0.500000 0.500000
#
# Coordination Sequence:
#
# PCOD9154868 Si02
#       5
#     4   2   4   2   1
#     4  12  29  50  82 116 164 226 284 355 430 508
#     4  12  32  50  78 124 168 214 288 348 434 510
#     4  12  30  53  86 121 172 219 283 354 428 520
#     4  12  24  50  78 115 163 220 285 360 422 504
#     4  12  28  58  84 130 156 232 276 358 422 520
#
# _framework density 24.515454999999999
#
# number of rings (size 3 to 8) (size 9 to 14) (size 15 to 20)
#    0.000    0.000    1.538    5.538   10.769    4.308 
#    0.000    0.000    0.000    0.000    0.000    0.000 
#    0.000    0.000    0.000    0.000    0.000    0.000 
#
# Total GULP energy -72663.243108 kJ/mol
# GULP energy per Si atom -5589.480239 kJ/mol
# Density = 2.445966 g / cm^3
# Si number density = 24.515455 Si / 1000 Ang^3
#
#
#
# Elastic Constant Matrix: (Units=GPa)
#
#
# Indices 1 2 3 4 5 6 
#
# 1 175.3221 56.6251 80.6546 0.0000 -23.3184 0.0000
# 2 56.6251 224.8788 61.8058 0.0000 -12.8549 0.0000
# 3 80.6546 61.8058 136.4737 0.0000 -25.0260 0.0000
# 4 0.0000 0.0000 0.0000 60.6841 0.0000 -58.3694
# 5 -23.3184 -12.8549 -25.0260 0.0000 72.3985 0.0000
# 6 0.0000 0.0000 0.0000 -58.3694 0.0000 16.0257
#
#
#
# Elastic Compliance Matrix: (Units=1/GPa)
#
#
# Indices 1 2 3 4 5 6 
#
# 1 0.008028 -0.000812 -0.004195 0.000000 0.000991 0.000000
# 2 -0.000812 0.005162 -0.001855 0.000000 0.000014 0.000000
# 3 -0.004195 -0.001855 0.011038 0.000000 0.002135 0.000000
# 4 0.000000 0.000000 0.000000 -0.006583 0.000000 -0.023976
# 5 0.000991 0.000014 0.002135 0.000000 0.014872 0.000000
# 6 0.000000 0.000000 0.000000 -0.023976 0.000000 -0.024927
#
#
# Mechanical properties :
#
#
# Convention : Reuss Voigt Hill
#
# Bulk Modulus (GPa) = 95.20363 103.87174 99.53768
# Shear Modulus (GPa) = 201.48394 52.32759 126.90577
#
# Velocity S-wave (km/s) = 9.07551 4.62505 7.20264
# Velocity P-wave (km/s) = 12.19583 8.42516 10.48145
#
# Compressibility (1/GPa) = 0.01050380
#
# Stress axis : x y z
#
# Youngs Moduli (GPa) = 124.57030 193.72352 90.59349
#
# Poissons Ratio (x) = 0.15727 0.38002
# Poissons Ratio (y) = 0.10113 0.16809
# Poissons Ratio (z) = 0.52255 0.35945
#
# Static dielectric constant tensor:
#      x y z
#    x 1.725790 0.000000 -0.095780 
#    y 0.000000 1.988840 0.000000 
#    z -0.095780 0.000000 2.001610 
# 
# From -- ./inp_files/772.got.cif
#   From: 2010.05.17/outbox.cif.g08.bks.cpg/sg10_1_cif.got.tgz:772.got - 2010.06.03 11:33:40.
