data_PCOD9154080
_publ_section_title
;
Structure prediction by ZEFSAII (Michael W. Deem and Ramdas Pophale) SiO2 
 PCOD9154080
Probable space group: P 2/M
;
_chemical_formula_sum "Si O2"
_cell_formula_units_Z 18
_cell_length_a 27.043648
_cell_length_b 5.652908
_cell_length_c 4.850920
_cell_angle_alpha 90.000000
_cell_angle_beta 98.770372
_cell_angle_gamma 90.000000
_cell_volume 732.914533
_symmetry_space_group_name_H-M "P 2/M"
_symmetry_group_IT_number 10
_symmetry_cell_setting 'monoclinic'
loop_
_space_group_symop_operation_xyz
x,y,z
-x,y,-z
-x,-y,-z
x,-y,z
loop_
_atom_site_type_symbol
_atom_site_label
_atom_site_fract_x
_atom_site_fract_y
_atom_site_fract_z
Si Si1 0.256350 0.749740 0.845889
Si Si2 0.461923 0.000000 0.217896
Si Si3 0.951480 0.249907 0.656327
Si Si4 0.144331 0.249436 0.825186
Si Si5 0.597517 0.500000 0.881172
Si Si6 0.330300 0.500000 0.555595
O O1 0.260458 0.500000 0.010555
O O2 0.197839 0.753814 0.715351
O O3 0.294583 0.714829 0.625932
O O4 0.267153 0.000000 0.994474
O O5 0.500000 0.000000 0.500000
O O6 0.431245 0.750654 0.187724
O O7 0.500000 0.000000 0.000000
O O8 0.952003 0.500000 0.813485
O O9 0.902373 0.249512 0.421342
O O10 0.000000 0.249983 0.500000
O O11 0.952083 0.000000 0.813947
O O12 0.143422 0.500000 0.980971
O O13 0.143571 0.000000 0.984259
O O14 0.644720 0.500000 0.717176
O O15 0.621073 0.500000 0.204547
#
# Coordination Sequence:
#
# PCOD9154080 Si02
#       6
#     4   2   4   4   2   2
#     4   8  16  28  48  68 106 142 188 232 284 346
#     4  12  26  48  72 100 132 168 204 244 291 342
#     4   8  12  16  24  40  68 104 154 210 266 324
#     4   8  12  20  32  52  76 122 166 214 272 332
#     4  12  26  41  72  96 132 162 207 246 291 342
#     4  10  24  39  60  94 125 162 202 248 297 340
#
# _framework density 24.559477999999999
#
# number of rings (size 3 to 8) (size 9 to 14) (size 15 to 20)
#    0.667    2.222    0.000    2.000    3.111    0.000 
#    0.000    0.000    0.000    0.000    0.000    0.000 
#    0.000    0.000    0.000    4.000    0.000   34.667 
#
# Total GULP energy -100233.886142 kJ/mol
# GULP energy per Si atom -5568.549230 kJ/mol
# Density = 2.450358 g / cm^3
# Si number density = 24.559478 Si / 1000 Ang^3
#
#
#
# Elastic Constant Matrix: (Units=GPa)
#
#
# Indices 1 2 3 4 5 6 
#
# 1 197.5368 42.4487 33.0391 0.0000 3.6822 0.0000
# 2 42.4487 320.2085 4.4473 0.0000 1.8136 0.0000
# 3 33.0391 4.4473 43.1510 0.0000 10.6864 0.0000
# 4 0.0000 0.0000 0.0000 -104.4101 0.0000 -103.4109
# 5 3.6822 1.8136 10.6864 0.0000 20.3871 0.0000
# 6 0.0000 0.0000 0.0000 -103.4109 0.0000 -88.4791
#
#
#
# Elastic Compliance Matrix: (Units=1/GPa)
#
#
# Indices 1 2 3 4 5 6 
#
# 1 0.006014 -0.000738 -0.004914 0.000000 0.001555 0.000000
# 2 -0.000738 0.003218 0.000312 0.000000 -0.000316 0.000000
# 3 -0.004914 0.000312 0.030673 0.000000 -0.015218 0.000000
# 4 0.000000 0.000000 0.000000 0.060781 0.000000 -0.071038
# 5 0.001555 -0.000316 -0.015218 0.000000 0.056775 0.000000
# 6 0.000000 0.000000 0.000000 -0.071038 0.000000 0.071725
#
#
# Mechanical properties :
#
#
# Convention : Reuss Voigt Hill
#
# Bulk Modulus (GPa) = 34.21651 80.08516 57.15084
# Shear Modulus (GPa) = 20.03150 -2.43632 8.79759
#
# Velocity S-wave (km/s) = 2.85903 -0.99708 1.89471
# Velocity P-wave (km/s) = 4.98609 5.59946 5.30165
#
# Compressibility (1/GPa) = 0.02922566
#
# Stress axis : x y z
#
# Youngs Moduli (GPa) = 166.28653 310.72945 32.60172
#
# Poissons Ratio (x) = 0.22925 0.16019
# Poissons Ratio (y) = 0.12268 -0.01016
# Poissons Ratio (z) = 0.81705 -0.09681
#
# Static dielectric constant tensor:
#      x y z
#    x 1.936440 0.000000 0.023930 
#    y 0.000000 2.105540 0.000000 
#    z 0.023930 0.000000 1.835510 
# 
# From -- ./inp_files/13401.got.cif
#   From: 2010.05.17/outbox.cif.g08.bks.cpg/sg10_7_cif.got.tgz:13401.got - 2010.06.03 11:33:40.
