data_PCOD9154181
_publ_section_title
;
Structure prediction by ZEFSAII (Michael W. Deem and Ramdas Pophale) SiO2 
 PCOD9154181
Probable space group: P 2/M
;
_chemical_formula_sum "Si O2"
_cell_formula_units_Z 15
_cell_length_a 9.582053
_cell_length_b 12.127602
_cell_length_c 12.345487
_cell_angle_alpha 90.000000
_cell_angle_beta 152.385204
_cell_angle_gamma 90.000000
_cell_volume 664.989478
_symmetry_space_group_name_H-M "P 2/M"
_symmetry_group_IT_number 10
_symmetry_cell_setting 'monoclinic'
loop_
_space_group_symop_operation_xyz
x,y,z
-x,y,-z
-x,-y,-z
x,-y,z
loop_
_atom_site_type_symbol
_atom_site_label
_atom_site_fract_x
_atom_site_fract_y
_atom_site_fract_z
Si Si1 0.139275 0.500000 0.215630
Si Si2 0.500000 0.500000 0.000000
Si Si3 0.342111 0.685500 0.708209
Si Si4 0.231824 0.294951 0.397667
Si Si5 0.277202 0.125309 0.949674
O O1 0.500000 0.500000 0.500000
O O2 0.034471 0.388127 0.201189
O O3 0.000000 0.500000 0.000000
O O4 0.418343 0.596641 0.852651
O O5 0.343985 0.647058 0.584875
O O6 0.000000 0.718663 0.500000
O O7 0.550102 0.793515 0.850813
O O8 0.500000 0.265784 0.500000
O O9 0.032902 0.188758 0.287582
O O10 0.230967 0.000000 0.954085
O O11 0.500000 0.123764 0.000000
#
# Coordination Sequence:
#
# PCOD9154181 Si02
#       5
#     2   1   4   4   4
#     4  10  25  47  73 109 157 203 242 307 390 469
#     4  12  24  42  74 112 148 188 256 306 366 456
#     4  12  24  46  70 108 147 194 243 305 382 454
#     4  11  26  47  74 109 150 198 246 308 387 455
#     4  11  25  47  74 105 143 193 253 313 372 452
#
# _framework density 22.556750000000001
#
# number of rings (size 3 to 8) (size 9 to 14) (size 15 to 20)
#    0.000    0.800    4.000    1.200    7.467    5.333 
#    0.000    1.333    0.000    0.000    0.000    0.000 
#    0.000    0.000    0.000    0.000    0.000    0.000 
#
# Total GULP energy -83547.332783 kJ/mol
# GULP energy per Si atom -5569.822186 kJ/mol
# Density = 2.250541 g / cm^3
# Si number density = 22.556750 Si / 1000 Ang^3
#
#
#
# Elastic Constant Matrix: (Units=GPa)
#
#
# Indices 1 2 3 4 5 6 
#
# 1 129.5881 41.1108 67.1643 0.0000 -31.6389 0.0000
# 2 41.1108 200.5891 64.7339 0.0000 -17.5334 0.0000
# 3 67.1643 64.7339 115.9886 0.0000 -21.0093 0.0000
# 4 0.0000 0.0000 0.0000 21.0332 0.0000 1.5633
# 5 -31.6389 -17.5334 -21.0093 0.0000 67.8711 0.0000
# 6 0.0000 0.0000 0.0000 1.5633 0.0000 23.5907
#
#
#
# Elastic Compliance Matrix: (Units=1/GPa)
#
#
# Indices 1 2 3 4 5 6 
#
# 1 0.011799 -0.000134 -0.006110 0.000000 0.003574 0.000000
# 2 -0.000134 0.006102 -0.003235 0.000000 0.000512 0.000000
# 3 -0.006110 -0.003235 0.014088 0.000000 0.000677 0.000000
# 4 0.000000 0.000000 0.000000 0.047779 0.000000 -0.003166
# 5 0.003574 0.000512 0.000677 0.000000 0.016742 0.000000
# 6 0.000000 0.000000 0.000000 -0.003166 0.000000 0.042599
#
#
# Mechanical properties :
#
#
# Convention : Reuss Voigt Hill
#
# Bulk Modulus (GPa) = 76.74528 88.02042 82.38285
# Shear Modulus (GPa) = 30.78642 40.70944 35.74793
#
# Velocity S-wave (km/s) = 3.69839 4.25285 3.98527
# Velocity P-wave (km/s) = 7.23426 7.95123 7.60120
#
# Compressibility (1/GPa) = 0.01303012
#
# Stress axis : x y z
#
# Youngs Moduli (GPa) = 84.75582 163.89337 70.98437
#
# Poissons Ratio (x) = 0.02195 0.43371
# Poissons Ratio (y) = 0.01135 0.22963
# Poissons Ratio (z) = 0.51785 0.53018
#
# Static dielectric constant tensor:
#      x y z
#    x 1.919810 0.000000 0.032890 
#    y 0.000000 1.844960 0.000000 
#    z 0.032890 0.000000 1.935470 
# 
# From -- ./inp_files/64771.got.cif
#   From: 2010.05.17/outbox.cif.g08.bks.cpg/sg10_33_cif.got.tgz:64771.got - 2010.06.03 11:33:40.
