data_PCOD9154908
_publ_section_title
;
Structure prediction by ZEFSAII (Michael W. Deem and Ramdas Pophale) SiO2 
 PCOD9154908
Probable space group: P 2/M
;
_chemical_formula_sum "Si O2"
_cell_formula_units_Z 28
_cell_length_a 26.181713
_cell_length_b 7.452098
_cell_length_c 20.500013
_cell_angle_alpha 90.000000
_cell_angle_beta 159.492648
_cell_angle_gamma 90.000000
_cell_volume 1401.215934
_symmetry_space_group_name_H-M "P 2/M"
_symmetry_group_IT_number 10
_symmetry_cell_setting 'monoclinic'
loop_
_space_group_symop_operation_xyz
x,y,z
-x,y,-z
-x,-y,-z
x,-y,z
loop_
_atom_site_type_symbol
_atom_site_label
_atom_site_fract_x
_atom_site_fract_y
_atom_site_fract_z
Si Si1 0.037540 0.211923 0.472738
Si Si2 0.866534 0.718397 0.922913
Si Si3 0.715825 0.715650 0.072899
Si Si4 0.400890 0.718795 0.320384
Si Si5 0.642253 0.289553 0.131079
Si Si6 0.503316 0.280518 0.300548
Si Si7 0.190027 0.718557 0.291967
O O1 0.197935 0.276954 0.643131
O O2 0.000000 0.288866 0.500000
O O3 0.883208 0.243610 0.252781
O O4 0.055188 0.000000 0.499507
O O5 0.868127 0.500000 0.923848
O O6 0.761412 0.774306 0.854687
O O7 0.802639 0.771108 0.775656
O O8 0.032193 0.778940 0.126866
O O9 0.707075 0.500000 0.064979
O O10 0.674016 0.784034 0.095761
O O11 0.600174 0.780811 0.881315
O O12 0.500000 0.775950 0.500000
O O13 0.408869 0.500000 0.329088
O O14 0.447972 0.777552 0.305526
O O15 0.611556 0.500000 0.085457
O O16 0.500000 0.216951 0.000000
O O17 0.500456 0.500000 0.295964
O O18 0.671975 0.223832 0.501178
O O19 0.190455 0.500000 0.292547
#
# Coordination Sequence:
#
# PCOD9154908 Si02
#       7
#     4   4   4   4   4   4   4
#     4   9  17  30  49  70  90 115 149 185 219 261
#     4   8  12  17  26  40  60  91 132 172 205 240
#     4   9  17  29  44  64  91 121 150 181 223 270
#     4   9  13  18  28  44  66  96 135 174 207 246
#     4   9  17  30  48  69  92 120 151 182 218 262
#     4   9  15  22  33  50  75 108 141 174 213 257
#     4   8  12  18  27  40  61  94 132 166 203 246
#
# _framework density 19.982644000000001
#
# number of rings (size 3 to 8) (size 9 to 14) (size 15 to 20)
#    0.000    3.286    1.429    1.286    0.000    2.000 
#    0.000    1.429    0.000    6.857    0.000    0.000 
#    0.000    0.571    0.000    2.571    0.000    3.429 
#
# Total GULP energy -155911.318526 kJ/mol
# GULP energy per Si atom -5568.261376 kJ/mol
# Density = 1.993716 g / cm^3
# Si number density = 19.982644 Si / 1000 Ang^3
#
#
#
# Elastic Constant Matrix: (Units=GPa)
#
#
# Indices 1 2 3 4 5 6 
#
# 1 78.1286 4.3956 71.1327 0.0000 15.1396 0.0000
# 2 4.3956 60.0770 -1.9115 0.0000 0.0064 0.0000
# 3 71.1327 -1.9115 189.7574 0.0000 9.6153 0.0000
# 4 0.0000 0.0000 0.0000 -73.9515 0.0000 5.1999
# 5 15.1396 0.0064 9.6153 0.0000 33.4427 0.0000
# 6 0.0000 0.0000 0.0000 5.1999 0.0000 -8.3379
#
#
#
# Elastic Compliance Matrix: (Units=1/GPa)
#
#
# Indices 1 2 3 4 5 6 
#
# 1 0.021278 -0.001798 -0.007617 0.000000 -0.007442 0.000000
# 2 -0.001798 0.016803 0.000814 0.000000 0.000577 0.000000
# 3 -0.007617 0.000814 0.008076 0.000000 0.001126 0.000000
# 4 0.000000 0.000000 0.000000 -0.014143 0.000000 -0.008820
# 5 -0.007442 0.000577 0.001126 0.000000 0.032947 0.000000
# 6 0.000000 0.000000 0.000000 -0.008820 0.000000 -0.125435
#
#
# Mechanical properties :
#
#
# Convention : Reuss Voigt Hill
#
# Bulk Modulus (GPa) = 34.53740 52.79961 43.66851
# Shear Modulus (GPa) = -148.72388 7.18707 -70.76840
#
# Velocity S-wave (km/s) = -8.63644 1.89854 -5.95750
# Velocity P-wave (km/s) = 9.06254 5.59339 5.04200
#
# Compressibility (1/GPa) = 0.02895412
#
# Stress axis : x y z
#
# Youngs Moduli (GPa) = 46.99707 59.51409 123.81677
#
# Poissons Ratio (x) = 0.10703 0.94315
# Poissons Ratio (y) = 0.08452 -0.10081
# Poissons Ratio (z) = 0.35799 -0.04846
#
# Static dielectric constant tensor:
#      x y z
#    x 1.698980 0.000000 0.022120 
#    y 0.000000 1.755320 0.000000 
#    z 0.022120 0.000000 1.738660 
# 
# From -- ./inp_files/79310.got.cif
#   From: 2010.05.17/outbox.cif.g08.bks.cpg/sg10_40_cif.got.tgz:79310.got - 2010.06.03 11:33:40.
