data_PCOD9154286
_publ_section_title
;
Structure prediction by ZEFSAII (Michael W. Deem and Ramdas Pophale) SiO2 
 PCOD9154286
Probable space group: P 2/M
;
_chemical_formula_sum "Si O2"
_cell_formula_units_Z 28
_cell_length_a 11.279227
_cell_length_b 13.963890
_cell_length_c 14.946350
_cell_angle_alpha 90.000000
_cell_angle_beta 42.092217
_cell_angle_gamma 90.000000
_cell_volume 1577.999475
_symmetry_space_group_name_H-M "P 2/M"
_symmetry_group_IT_number 10
_symmetry_cell_setting 'monoclinic'
loop_
_space_group_symop_operation_xyz
x,y,z
-x,y,-z
-x,-y,-z
x,-y,z
loop_
_atom_site_type_symbol
_atom_site_label
_atom_site_fract_x
_atom_site_fract_y
_atom_site_fract_z
Si Si1 0.815552 0.388434 0.051395
Si Si2 0.952857 0.306708 0.789993
Si Si3 0.458720 0.704012 0.281346
Si Si4 0.328359 0.385728 0.533895
Si Si5 0.207612 0.110527 0.140292
Si Si6 0.349098 0.614212 0.154942
Si Si7 0.449381 0.110270 0.177941
O O1 0.760117 0.500000 0.079325
O O2 0.662522 0.326080 0.181704
O O3 0.851242 0.349270 0.932549
O O4 0.000000 0.382776 0.000000
O O5 0.935631 0.191995 0.797946
O O6 0.839025 0.344670 0.769957
O O7 0.149750 0.347106 0.678767
O O8 0.353590 0.669565 0.426512
O O9 0.399738 0.647231 0.225295
O O10 0.438936 0.814124 0.263440
O O11 0.500000 0.370395 0.500000
O O12 0.313332 0.500000 0.526886
O O13 0.299240 0.125912 0.186070
O O14 0.147662 0.000000 0.169545
O O15 0.365724 0.122509 0.979335
O O16 0.343905 0.500000 0.152968
O O17 0.500000 0.648679 0.000000
O O18 0.437839 0.000000 0.213585
#
# Coordination Sequence:
#
# PCOD9154286 Si02
#       7
#     4   4   4   4   4   4   4
#     4  11  22  35  56  83 110 153 207 246 286 348
#     4  12  21  37  60  85 120 154 194 246 298 347
#     4  12  21  37  60  85 120 154 194 246 298 347
#     4  11  26  45  60  79 116 167 213 244 280 344
#     4   9  17  33  59  91 122 152 188 234 295 361
#     4  11  20  31  54  90 123 146 179 242 311 363
#     4   9  17  33  59  91 122 152 188 234 295 361
#
# _framework density 17.743984999999999
#
# number of rings (size 3 to 8) (size 9 to 14) (size 15 to 20)
#    0.000    1.286    4.286    4.286    0.000    2.857 
#    0.000    2.143    0.000    6.857    0.000    0.000 
#    0.000    0.000    0.000    0.000    0.000    0.000 
#
# Total GULP energy -156408.800739 kJ/mol
# GULP energy per Si atom -5586.028598 kJ/mol
# Density = 1.770360 g / cm^3
# Si number density = 17.743985 Si / 1000 Ang^3
#
#
#
# Elastic Constant Matrix: (Units=GPa)
#
#
# Indices 1 2 3 4 5 6 
#
# 1 47.9397 24.9160 -5.5573 0.0000 -5.2745 0.0000
# 2 24.9160 115.9030 4.8433 0.0000 1.2741 0.0000
# 3 -5.5573 4.8433 30.5518 0.0000 -1.9436 0.0000
# 4 0.0000 0.0000 0.0000 21.8384 0.0000 -5.5394
# 5 -5.2745 1.2741 -1.9436 0.0000 28.8695 0.0000
# 6 0.0000 0.0000 0.0000 -5.5394 0.0000 14.8234
#
#
#
# Elastic Compliance Matrix: (Units=1/GPa)
#
#
# Indices 1 2 3 4 5 6 
#
# 1 0.025061 -0.005687 0.005792 0.000000 0.005220 0.000000
# 2 -0.005687 0.009982 -0.002723 0.000000 -0.001663 0.000000
# 3 0.005792 -0.002723 0.034439 0.000000 0.003497 0.000000
# 4 0.000000 0.000000 0.000000 0.050586 0.000000 0.018904
# 5 0.005220 -0.001663 0.003497 0.000000 0.035901 0.000000
# 6 0.000000 0.000000 0.000000 0.018904 0.000000 0.074525
#
#
# Mechanical properties :
#
#
# Convention : Reuss Voigt Hill
#
# Bulk Modulus (GPa) = 15.56482 26.97760 21.27121
# Shear Modulus (GPa) = 19.44427 24.45241 21.94834
#
# Velocity S-wave (km/s) = 3.31391 3.71626 3.52084
# Velocity P-wave (km/s) = 4.84083 5.80094 5.34250
#
# Compressibility (1/GPa) = 0.06424747
#
# Stress axis : x y z
#
# Youngs Moduli (GPa) = 39.90284 100.17559 29.03685
#
# Poissons Ratio (x) = 0.56968 -0.16818
# Poissons Ratio (y) = 0.22692 0.07906
# Poissons Ratio (z) = -0.23112 0.27275
#
# Static dielectric constant tensor:
#      x y z
#    x 1.617040 0.000000 -0.005240 
#    y 0.000000 1.613340 0.000000 
#    z -0.005240 0.000000 1.607830 
# 
# From -- ./inp_files/35247.got.cif
#   From: 2010.05.17/outbox.cif.g08.bks.cpg/sg10_18_cif.got.tgz:35247.got - 2010.06.03 11:33:40.
