data_PCOD9154402
_publ_section_title
;
Structure prediction by ZEFSAII (Michael W. Deem and Ramdas Pophale) SiO2 
 PCOD9154402
Probable space group: P 2/M
;
_chemical_formula_sum "Si O2"
_cell_formula_units_Z 24
_cell_length_a 14.984771
_cell_length_b 12.014506
_cell_length_c 14.984792
_cell_angle_alpha 90.000000
_cell_angle_beta 150.582883
_cell_angle_gamma 90.000000
_cell_volume 1325.053093
_symmetry_space_group_name_H-M "P 2/M"
_symmetry_group_IT_number 10
_symmetry_cell_setting 'monoclinic'
loop_
_space_group_symop_operation_xyz
x,y,z
-x,y,-z
-x,-y,-z
x,-y,z
loop_
_atom_site_type_symbol
_atom_site_label
_atom_site_fract_x
_atom_site_fract_y
_atom_site_fract_z
Si Si1 0.487811 0.626905 0.591511
Si Si2 0.733823 0.500000 0.341977
Si Si3 0.054078 0.132881 0.445920
Si Si4 0.191807 0.270676 0.900520
Si Si5 0.599481 0.729325 0.308195
Si Si6 0.158027 0.500000 0.766178
Si Si7 0.908489 0.373095 0.012189
O O1 0.500000 0.664915 0.500000
O O2 0.413304 0.500000 0.526684
O O3 0.386799 0.704510 0.573958
O O4 0.693365 0.620466 0.806635
O O5 0.638389 0.610332 0.295599
O O6 0.742966 0.500000 0.242967
O O7 0.941877 0.500000 0.558126
O O8 0.248400 0.185869 0.591883
O O9 0.000000 0.164303 0.500000
O O10 0.908115 0.185870 0.251599
O O11 0.057735 0.000000 0.442261
O O12 0.204406 0.389668 0.861614
O O13 0.073958 0.295492 0.886799
O O14 0.395091 0.235135 0.104910
O O15 0.973317 0.500000 0.086695
O O16 0.000000 0.335083 0.000000
#
# Coordination Sequence:
#
# PCOD9154402 Si02
#       7
#     4   2   4   4   4   2   4
#     4   9  18  31  51  85 122 154 188 227 282 354
#     4  11  21  33  54  86 122 157 191 232 294 365
#     4  11  26  45  63  85 113 154 211 261 301 348
#     4  11  22  38  60  88 121 156 196 241 300 360
#     4  11  22  38  60  88 121 156 196 241 300 360
#     4  11  21  33  54  86 122 157 191 232 294 365
#     4   9  18  31  51  85 122 154 188 227 282 354
#
# _framework density 18.112482
#
# number of rings (size 3 to 8) (size 9 to 14) (size 15 to 20)
#    0.000    1.667    3.333    1.500    2.333    4.000 
#    0.000    1.667    0.000    1.000    0.000    0.000 
#    0.000    0.000    0.000    0.000    0.000    0.000 
#
# Total GULP energy -134061.857033 kJ/mol
# GULP energy per Si atom -5585.910710 kJ/mol
# Density = 1.807126 g / cm^3
# Si number density = 18.112482 Si / 1000 Ang^3
#
#
#
# Elastic Constant Matrix: (Units=GPa)
#
#
# Indices 1 2 3 4 5 6 
#
# 1 167.4165 56.1780 53.6462 0.0000 -18.8801 0.0000
# 2 56.1780 62.1211 34.3311 0.0000 -6.3077 0.0000
# 3 53.6462 34.3311 91.9878 0.0000 -2.8978 0.0000
# 4 0.0000 0.0000 0.0000 4.7954 0.0000 2.7754
# 5 -18.8801 -6.3077 -2.8978 0.0000 28.8014 0.0000
# 6 0.0000 0.0000 0.0000 2.7754 0.0000 -4.8002
#
#
#
# Elastic Compliance Matrix: (Units=1/GPa)
#
#
# Indices 1 2 3 4 5 6 
#
# 1 0.009682 -0.006613 -0.003034 0.000000 0.004594 0.000000
# 2 -0.006613 0.025196 -0.005527 0.000000 0.000627 0.000000
# 3 -0.003034 -0.005527 0.014649 0.000000 -0.001725 0.000000
# 4 0.000000 0.000000 0.000000 0.156248 0.000000 0.090340
# 5 0.004594 0.000627 -0.001725 0.000000 0.037696 0.000000
# 6 0.000000 0.000000 0.000000 0.090340 0.000000 -0.156093
#
#
# Mechanical properties :
#
#
# Convention : Reuss Voigt Hill
#
# Bulk Modulus (GPa) = 52.13974 67.75955 59.94965
# Shear Modulus (GPa) = 40.28377 17.58399 28.93388
#
# Velocity S-wave (km/s) = 4.72114 3.11918 4.00115
# Velocity P-wave (km/s) = 7.65297 7.10380 7.38350
#
# Compressibility (1/GPa) = 0.01917923
#
# Stress axis : x y z
#
# Youngs Moduli (GPa) = 103.28076 39.68860 68.26492
#
# Poissons Ratio (x) = 0.26246 0.20711
# Poissons Ratio (y) = 0.68299 0.37731
# Poissons Ratio (z) = 0.31334 0.21937
#
# Static dielectric constant tensor:
#      x y z
#    x 1.645840 0.000000 0.005500 
#    y 0.000000 1.576830 0.000000 
#    z 0.005500 0.000000 1.664900 
# 
# From -- ./inp_files/67431.got.cif
#   From: 2010.05.17/outbox.cif.g08.bks.cpg/sg10_34_cif.got.tgz:67431.got - 2010.06.03 11:33:40.
