data_PCOD9154378
_publ_section_title
;
Structure prediction by ZEFSAII (Michael W. Deem and Ramdas Pophale) SiO2 
 PCOD9154378
Probable space group: P 2/M
;
_chemical_formula_sum "Si O2"
_cell_formula_units_Z 28
_cell_length_a 14.224759
_cell_length_b 8.095843
_cell_length_c 16.695644
_cell_angle_alpha 90.000000
_cell_angle_beta 49.494831
_cell_angle_gamma 90.000000
_cell_volume 1461.915328
_symmetry_space_group_name_H-M "P 2/M"
_symmetry_group_IT_number 10
_symmetry_cell_setting 'monoclinic'
loop_
_space_group_symop_operation_xyz
x,y,z
-x,y,-z
-x,-y,-z
x,-y,z
loop_
_atom_site_type_symbol
_atom_site_label
_atom_site_fract_x
_atom_site_fract_y
_atom_site_fract_z
Si Si1 0.935682 0.798334 0.616449
Si Si2 0.492714 0.702087 0.374684
Si Si3 0.450467 0.695895 0.833855
Si Si4 0.972874 0.198728 0.260759
Si Si5 0.697328 0.301517 0.389515
Si Si6 0.671657 0.198904 0.822452
Si Si7 0.234592 0.800887 0.056944
O O1 0.792566 0.748881 0.704987
O O2 0.000000 0.739106 0.500000
O O3 0.004303 0.745680 0.659991
O O4 0.937802 0.000000 0.614221
O O5 0.490783 0.500000 0.374330
O O6 0.507703 0.762983 0.275907
O O7 0.370351 0.755544 0.491009
O O8 0.609786 0.752054 0.364566
O O9 0.452023 0.500000 0.827292
O O10 0.547635 0.746932 0.848155
O O11 0.314287 0.748051 0.937149
O O12 0.838635 0.249461 0.305636
O O13 0.092387 0.255737 0.143779
O O14 0.977451 0.000000 0.259032
O O15 0.693672 0.500000 0.392169
O O16 0.695713 0.256198 0.900111
O O17 0.670534 0.000000 0.825835
O O18 0.233897 0.000000 0.059096
#
# Coordination Sequence:
#
# PCOD9154378 Si02
#       7
#     4   4   4   4   4   4   4
#     4   8  15  28  46  70 100 131 161 192 234 294
#     4   8  18  35  52  73 100 130 163 201 247 302
#     4  11  21  32  50  75 101 127 167 215 247 278
#     4   9  18  32  52  76 100 126 161 208 248 284
#     4   9  17  35  58  72  94 133 166 195 248 310
#     4   9  18  32  50  71  98 136 170 196 238 296
#     4   9  19  36  51  69 102 139 168 195 240 300
#
# _framework density 19.152956
#
# number of rings (size 3 to 8) (size 9 to 14) (size 15 to 20)
#    0.000    3.000    0.000    3.429    2.000    2.857 
#    0.000    6.429    0.000    5.143    0.000    0.000 
#    0.000    0.000    0.000    0.000    0.000    0.000 
#
# Total GULP energy -156095.327034 kJ/mol
# GULP energy per Si atom -5574.833108 kJ/mol
# Density = 1.910936 g / cm^3
# Si number density = 19.152956 Si / 1000 Ang^3
#
#
#
# Elastic Constant Matrix: (Units=GPa)
#
#
# Indices 1 2 3 4 5 6 
#
# 1 83.2615 4.8346 39.3900 0.0000 -26.5469 0.0000
# 2 4.8346 8.5877 7.0740 0.0000 -0.5892 0.0000
# 3 39.3900 7.0740 94.9458 0.0000 -11.0632 0.0000
# 4 0.0000 0.0000 0.0000 21.2700 0.0000 -6.6992
# 5 -26.5469 -0.5892 -11.0632 0.0000 20.6974 0.0000
# 6 0.0000 0.0000 0.0000 -6.6992 0.0000 24.2599
#
#
#
# Elastic Compliance Matrix: (Units=1/GPa)
#
#
# Indices 1 2 3 4 5 6 
#
# 1 0.024098 -0.006477 -0.006329 0.000000 0.027341 0.000000
# 2 -0.006477 0.125845 -0.007720 0.000000 -0.008852 0.000000
# 3 -0.006329 -0.007720 0.013609 0.000000 -0.001063 0.000000
# 4 0.000000 0.000000 0.000000 0.051493 0.000000 0.014219
# 5 0.027341 -0.008852 -0.001063 0.000000 0.082563 0.000000
# 6 0.000000 0.000000 0.000000 0.014219 0.000000 0.045147
#
#
# Mechanical properties :
#
#
# Convention : Reuss Voigt Hill
#
# Bulk Modulus (GPa) = 8.16335 32.15469 20.15902
# Shear Modulus (GPa) = 11.77463 22.27855 17.02659
#
# Velocity S-wave (km/s) = 2.48214 3.41426 2.98481
# Velocity P-wave (km/s) = 3.53357 5.68926 4.73571
#
# Compressibility (1/GPa) = 0.12249876
#
# Stress axis : x y z
#
# Youngs Moduli (GPa) = 41.49708 7.94631 73.47867
#
# Poissons Ratio (x) = 0.05147 0.46505
# Poissons Ratio (y) = 0.26879 0.56728
# Poissons Ratio (z) = 0.26264 0.06135
#
# Static dielectric constant tensor:
#      x y z
#    x 1.655040 0.000000 -0.001680 
#    y 0.000000 1.686170 0.000000 
#    z -0.001680 0.000000 1.687080 
# 
# From -- ./inp_files/63660.got.cif
#   From: 2010.05.17/outbox.cif.g08.bks.cpg/sg10_32_cif.got.tgz:63660.got - 2010.06.03 11:33:40.
