data_PCOD9154656
_publ_section_title
;
Structure prediction by ZEFSAII (Michael W. Deem and Ramdas Pophale) SiO2 
 PCOD9154656
Probable space group: P 2/M
;
_chemical_formula_sum "Si O2"
_cell_formula_units_Z 32
_cell_length_a 7.721528
_cell_length_b 27.792179
_cell_length_c 14.043005
_cell_angle_alpha 90.000000
_cell_angle_beta 34.131483
_cell_angle_gamma 90.000000
_cell_volume 1690.913757
_symmetry_space_group_name_H-M "P 2/M"
_symmetry_group_IT_number 10
_symmetry_cell_setting 'monoclinic'
loop_
_space_group_symop_operation_xyz
x,y,z
-x,y,-z
-x,-y,-z
x,-y,z
loop_
_atom_site_type_symbol
_atom_site_label
_atom_site_fract_x
_atom_site_fract_y
_atom_site_fract_z
Si Si1 0.666480 0.126536 0.015715
Si Si2 0.276216 0.554333 0.509587
Si Si3 0.621062 0.132036 0.338169
Si Si4 0.837610 0.372423 0.810156
Si Si5 0.346113 0.788775 0.826702
Si Si6 0.378688 0.944703 0.817817
Si Si7 0.701622 0.305875 0.701305
Si Si8 0.751370 0.618821 0.188576
O O1 0.652484 0.165881 0.103942
O O2 0.521405 0.078561 0.127178
O O3 0.500000 0.145324 0.000000
O O4 0.017480 0.120212 0.826070
O O5 0.500000 0.551903 0.500000
O O6 0.186468 0.500000 0.525058
O O7 0.486569 0.580604 0.335668
O O8 0.993275 0.587942 0.670392
O O9 0.500000 0.130830 0.500000
O O10 0.592282 0.185114 0.302713
O O11 0.500529 0.090159 0.321397
O O12 0.781742 0.325348 0.770229
O O13 0.065760 0.366629 0.797389
O O14 0.500000 0.387852 0.000000
O O15 0.591754 0.748982 0.743945
O O16 0.000000 0.768102 0.000000
O O17 0.462510 0.000000 0.766175
O O18 0.000000 0.941879 0.000000
O O19 0.423940 0.337252 0.782543
O O20 0.000000 0.313156 0.500000
O O21 0.000000 0.599448 0.000000
#
# Coordination Sequence:
#
# PCOD9154656 Si02
#       8
#     4   4   4   4   4   4   4   4
#     4   9  18  34  55  77 109 146 187 238 280 342
#     4   9  20  40  64  91 125 161 199 245 293 351
#     4   9  18  35  55  79 111 147 186 235 292 337
#     4  11  23  40  64  90 122 160 197 243 300 350
#     4   9  21  40  55  77 111 149 191 236 290 352
#     4   8  15  30  53  78 109 150 189 226 279 345
#     4  12  24  41  62  89 117 154 200 246 303 358
#     4  11  22  41  64  88 127 157 194 248 292 353
#
# _framework density 18.924679999999999
#
# number of rings (size 3 to 8) (size 9 to 14) (size 15 to 20)
#    0.000    2.250    2.500    1.875    0.000    2.500 
#    4.500    3.125    0.000    0.750    0.000    0.000 
#    0.000    0.000    0.000    0.000    0.000    0.000 
#
# Total GULP energy -178312.220789 kJ/mol
# GULP energy per Si atom -5572.256900 kJ/mol
# Density = 1.888161 g / cm^3
# Si number density = 18.924680 Si / 1000 Ang^3
#
#
#
# Elastic Constant Matrix: (Units=GPa)
#
#
# Indices 1 2 3 4 5 6 
#
# 1 65.5931 7.5960 26.4142 0.0000 15.0114 0.0000
# 2 7.5960 71.0058 56.9503 0.0000 9.3713 0.0000
# 3 26.4142 56.9503 130.2357 0.0000 27.2031 0.0000
# 4 0.0000 0.0000 0.0000 -77.8276 0.0000 -53.1787
# 5 15.0114 9.3713 27.2031 0.0000 28.0505 0.0000
# 6 0.0000 0.0000 0.0000 -53.1787 0.0000 -16.8890
#
#
#
# Elastic Compliance Matrix: (Units=1/GPa)
#
#
# Indices 1 2 3 4 5 6 
#
# 1 0.017849 0.001123 -0.002555 0.000000 -0.007449 0.000000
# 2 0.001123 0.021897 -0.010219 0.000000 0.001994 0.000000
# 3 -0.002555 -0.010219 0.014630 0.000000 -0.009407 0.000000
# 4 0.000000 0.000000 0.000000 0.011159 0.000000 -0.035135
# 5 -0.007449 0.001994 -0.009407 0.000000 0.048093 0.000000
# 6 0.000000 0.000000 0.000000 -0.035135 0.000000 0.051421
#
#
# Mechanical properties :
#
#
# Convention : Reuss Voigt Hill
#
# Bulk Modulus (GPa) = 32.18233 49.86173 41.02203
# Shear Modulus (GPa) = 25.16245 -1.60828 11.77708
#
# Velocity S-wave (km/s) = 3.65034 -0.92286 2.49733
# Velocity P-wave (km/s) = 5.89992 5.02684 5.48079
#
# Compressibility (1/GPa) = 0.03107295
#
# Stress axis : x y z
#
# Youngs Moduli (GPa) = 56.02466 45.66938 68.35141
#
# Poissons Ratio (x) = -0.05130 0.17466
# Poissons Ratio (y) = -0.06293 0.69851
# Poissons Ratio (z) = 0.14316 0.46671
#
# Static dielectric constant tensor:
#      x y z
#    x 1.685500 0.000000 -0.003170 
#    y 0.000000 1.653960 0.000000 
#    z -0.003170 0.000000 1.654900 
# 
# From -- ./inp_files/62737.got.cif
#   From: 2010.05.17/outbox.cif.g08.bks.cpg/sg10_32_cif.got.tgz:62737.got - 2010.06.03 11:33:40.
