data_PCOD9154468
_publ_section_title
;
Structure prediction by ZEFSAII (Michael W. Deem and Ramdas Pophale) SiO2 
 PCOD9154468
Probable space group: P 2/M
;
_chemical_formula_sum "Si O2"
_cell_formula_units_Z 32
_cell_length_a 20.519840
_cell_length_b 9.204521
_cell_length_c 14.088373
_cell_angle_alpha 90.000000
_cell_angle_beta 36.480312
_cell_angle_gamma 90.000000
_cell_volume 1582.056004
_symmetry_space_group_name_H-M "P 2/M"
_symmetry_group_IT_number 10
_symmetry_cell_setting 'monoclinic'
loop_
_space_group_symop_operation_xyz
x,y,z
-x,y,-z
-x,-y,-z
x,-y,z
loop_
_atom_site_type_symbol
_atom_site_label
_atom_site_fract_x
_atom_site_fract_y
_atom_site_fract_z
Si Si1 0.069154 0.666132 0.051822
Si Si2 0.395235 0.331128 0.497538
Si Si3 0.589773 0.170483 0.162985
Si Si4 0.725549 0.328289 0.847985
Si Si5 0.172116 0.827682 0.443105
Si Si6 0.047030 0.664213 0.306459
Si Si7 0.171541 0.330455 0.642879
Si Si8 0.711766 0.168437 0.214175
O O1 0.093042 0.500000 0.992920
O O2 0.066877 0.668148 0.169994
O O3 0.944422 0.705609 0.171120
O O4 0.167053 0.771046 0.909156
O O5 0.426637 0.500000 0.467513
O O6 0.482544 0.243534 0.333379
O O7 0.277063 0.320666 0.584796
O O8 0.374237 0.261028 0.624472
O O9 0.681053 0.182338 0.139466
O O10 0.572393 0.000000 0.164404
O O11 0.632688 0.253842 0.020529
O O12 0.706055 0.500000 0.859906
O O13 0.743993 0.250152 0.726273
O O14 0.840112 0.309846 0.771274
O O15 0.186254 0.768071 0.533157
O O16 0.049582 0.775676 0.557813
O O17 0.181900 0.000000 0.427202
O O18 0.008548 0.500000 0.374801
O O19 0.159599 0.500000 0.626661
O O20 0.702762 0.000000 0.251500
#
# Coordination Sequence:
#
# PCOD9154468 Si02
#       8
#     4   4   4   4   4   4   4   4
#     4   9  17  34  59  86 117 153 194 238 286 343
#     4  11  24  42  65  86 110 153 205 247 289 347
#     4  11  24  41  60  87 124 154 189 244 300 349
#     4  11  21  36  59  85 116 156 200 240 285 344
#     4  11  22  34  55  87 121 156 192 236 293 351
#     4   9  18  33  54  82 118 158 196 236 284 342
#     4   9  21  42  62  84 116 155 200 247 289 339
#     4  11  23  38  59  89 124 154 186 237 300 354
#
# _framework density 20.226842999999999
#
# number of rings (size 3 to 8) (size 9 to 14) (size 15 to 20)
#    0.000    1.750    1.250    4.125    0.000    9.000 
#    0.000    3.125    0.000    3.750    0.000    0.000 
#    0.000    0.000    0.000    0.000    0.000    0.000 
#
# Total GULP energy -178927.787319 kJ/mol
# GULP energy per Si atom -5591.493354 kJ/mol
# Density = 2.018081 g / cm^3
# Si number density = 20.226843 Si / 1000 Ang^3
#
#
#
# Elastic Constant Matrix: (Units=GPa)
#
#
# Indices 1 2 3 4 5 6 
#
# 1 29.3062 19.5019 5.1594 0.0000 -5.2188 0.0000
# 2 19.5019 140.4418 79.0778 0.0000 5.7265 0.0000
# 3 5.1594 79.0778 116.1239 0.0000 7.5144 0.0000
# 4 0.0000 0.0000 0.0000 -50.2191 0.0000 91.6324
# 5 -5.2188 5.7265 7.5144 0.0000 27.1448 0.0000
# 6 0.0000 0.0000 0.0000 91.6324 0.0000 -76.5817
#
#
#
# Elastic Compliance Matrix: (Units=1/GPa)
#
#
# Indices 1 2 3 4 5 6 
#
# 1 0.040127 -0.007469 0.002752 0.000000 0.008529 0.000000
# 2 -0.007469 0.012941 -0.008361 0.000000 -0.001852 0.000000
# 3 0.002752 -0.008361 0.014290 0.000000 -0.001663 0.000000
# 4 0.000000 0.000000 0.000000 0.016829 0.000000 0.020136
# 5 0.008529 -0.001852 -0.001663 0.000000 0.039330 0.000000
# 6 0.000000 0.000000 0.000000 0.020136 0.000000 0.011036
#
#
# Mechanical properties :
#
#
# Convention : Reuss Voigt Hill
#
# Bulk Modulus (GPa) = 24.27087 54.81668 39.54377
# Shear Modulus (GPa) = 28.66266 -7.78902 10.43682
#
# Velocity S-wave (km/s) = 3.76847 -1.96448 2.27400
# Velocity P-wave (km/s) = 5.56422 4.69193 5.14659
#
# Compressibility (1/GPa) = 0.04120165
#
# Stress axis : x y z
#
# Youngs Moduli (GPa) = 24.92077 77.27600 69.97780
#
# Poissons Ratio (x) = 0.57719 -0.19255
# Poissons Ratio (y) = 0.18614 0.58506
# Poissons Ratio (z) = -0.06857 0.64607
#
# Static dielectric constant tensor:
#      x y z
#    x 1.741930 0.000000 0.004580 
#    y 0.000000 1.677470 0.000000 
#    z 0.004580 0.000000 1.705140 
# 
# From -- ./inp_files/71533.got.cif
#   From: 2010.05.17/outbox.cif.g08.bks.cpg/sg10_36_cif.got.tgz:71533.got - 2010.06.03 11:33:40.
