data_PCOD9154389
_publ_section_title
;
Structure prediction by ZEFSAII (Michael W. Deem and Ramdas Pophale) SiO2 
 PCOD9154389
Probable space group: P 2/M
;
_chemical_formula_sum "Si O2"
_cell_formula_units_Z 32
_cell_length_a 18.657157
_cell_length_b 14.391310
_cell_length_c 10.222354
_cell_angle_alpha 90.000000
_cell_angle_beta 133.335912
_cell_angle_gamma 90.000000
_cell_volume 1996.346067
_symmetry_space_group_name_H-M "P 2/M"
_symmetry_group_IT_number 10
_symmetry_cell_setting 'monoclinic'
loop_
_space_group_symop_operation_xyz
x,y,z
-x,y,-z
-x,-y,-z
x,-y,z
loop_
_atom_site_type_symbol
_atom_site_label
_atom_site_fract_x
_atom_site_fract_y
_atom_site_fract_z
Si Si1 0.617353 0.699167 0.621500
Si Si2 0.595484 0.897654 0.524681
Si Si3 0.713743 0.390367 0.496009
Si Si4 0.707515 0.612186 0.992721
Si Si5 0.618358 0.298154 0.134540
Si Si6 0.403669 0.103062 0.786465
Si Si7 0.060980 0.613363 0.202597
Si Si8 0.938305 0.612695 0.298957
O O1 0.500000 0.697107 0.500000
O O2 0.650136 0.806686 0.646485
O O3 0.643458 0.652722 0.516906
O O4 0.671058 0.644952 0.805049
O O5 0.500000 0.901872 0.500000
O O6 0.572981 0.882809 0.340220
O O7 0.643102 0.000000 0.593586
O O8 0.715594 0.500000 0.517702
O O9 0.671978 0.366914 0.301778
O O10 0.825929 0.355251 0.652507
O O11 0.694440 0.500000 0.991128
O O12 0.648520 0.670250 0.027872
O O13 0.823169 0.635221 0.153874
O O14 0.648935 0.194406 0.221368
O O15 0.500000 0.303996 0.000000
O O16 0.356286 0.000000 0.736637
O O17 0.500000 0.098299 0.000000
O O18 0.063783 0.500000 0.207563
O O19 0.997785 0.644280 0.247029
O O20 0.000000 0.642106 0.000000
O O21 0.941358 0.500000 0.303390
O O22 0.000000 0.646058 0.500000
#
# Coordination Sequence:
#
# PCOD9154389 Si02
#       8
#     4   4   4   4   4   4   4   4
#     4  11  22  34  48  71 104 144 173 202 239 288
#     4   9  18  33  53  74  96 127 167 215 264 295
#     4  11  21  33  49  71 100 135 175 206 240 295
#     4  11  23  35  49  71 104 141 176 207 240 294
#     4  11  22  34  48  71 102 140 172 205 237 288
#     4   9  18  33  53  74  96 126 167 217 264 295
#     4   9  17  30  49  69  90 118 159 216 264 291
#     4   9  17  32  51  69  90 122 164 215 267 294
#
# _framework density 16.029285000000002
#
# number of rings (size 3 to 8) (size 9 to 14) (size 15 to 20)
#    0.000    2.000    1.250    3.000    5.250    7.000 
#    0.000    0.000    0.000    0.000    0.000    0.000 
#    0.000   20.000    0.000    0.000    0.000    0.000 
#
# Total GULP energy -178183.546176 kJ/mol
# GULP energy per Si atom -5568.235818 kJ/mol
# Density = 1.599280 g / cm^3
# Si number density = 16.029285 Si / 1000 Ang^3
#
#
#
# Elastic Constant Matrix: (Units=GPa)
#
#
# Indices 1 2 3 4 5 6 
#
# 1 44.4296 8.1855 6.1421 0.0000 0.0415 0.0000
# 2 8.1855 69.5846 -5.5734 0.0000 1.2170 0.0000
# 3 6.1421 -5.5734 56.5081 0.0000 0.3606 0.0000
# 4 0.0000 0.0000 0.0000 15.5173 0.0000 -13.4509
# 5 0.0415 1.2170 0.3606 0.0000 31.9385 0.0000
# 6 0.0000 0.0000 0.0000 -13.4509 0.0000 5.5158
#
#
#
# Elastic Compliance Matrix: (Units=1/GPa)
#
#
# Indices 1 2 3 4 5 6 
#
# 1 0.023451 -0.002989 -0.002845 0.000000 0.000116 0.000000
# 2 -0.002989 0.014877 0.001796 0.000000 -0.000583 0.000000
# 3 -0.002845 0.001796 0.018185 0.000000 -0.000270 0.000000
# 4 0.000000 0.000000 0.000000 -0.057857 0.000000 -0.141090
# 5 0.000116 -0.000583 -0.000270 0.000000 0.031335 0.000000
# 6 0.000000 0.000000 0.000000 -0.141090 0.000000 -0.162765
#
#
# Mechanical properties :
#
#
# Convention : Reuss Voigt Hill
#
# Bulk Modulus (GPa) = 20.64494 20.89231 20.76863
# Shear Modulus (GPa) = -46.06025 21.37886 -12.34069
#
# Velocity S-wave (km/s) = -5.36632 3.65600 -2.77769
# Velocity P-wave (km/s) = 5.04867 5.55733 1.64238
#
# Compressibility (1/GPa) = 0.04843802
#
# Stress axis : x y z
#
# Youngs Moduli (GPa) = 42.64168 67.21968 54.99158
#
# Poissons Ratio (x) = 0.20089 0.15642
# Poissons Ratio (y) = 0.12744 -0.09876
# Poissons Ratio (z) = 0.12130 -0.12072
#
# Static dielectric constant tensor:
#      x y z
#    x 1.522430 0.000000 -0.007330 
#    y 0.000000 1.563360 0.000000 
#    z -0.007330 0.000000 1.514500 
# 
# From -- ./inp_files/29549.got.cif
#   From: 2010.05.17/outbox.cif.g08.bks.cpg/sg10_15_cif.got.tgz:29549.got - 2010.06.03 11:33:40.
