data_PCOD9154688
_publ_section_title
;
Structure prediction by ZEFSAII (Michael W. Deem and Ramdas Pophale) SiO2 
 PCOD9154688
Probable space group: P 2/M
;
_chemical_formula_sum "Si O2"
_cell_formula_units_Z 28
_cell_length_a 9.982810
_cell_length_b 7.897898
_cell_length_c 28.730469
_cell_angle_alpha 90.000000
_cell_angle_beta 142.751208
_cell_angle_gamma 90.000000
_cell_volume 1371.075468
_symmetry_space_group_name_H-M "P 2/M"
_symmetry_group_IT_number 10
_symmetry_cell_setting 'monoclinic'
loop_
_space_group_symop_operation_xyz
x,y,z
-x,y,-z
-x,-y,-z
x,-y,z
loop_
_atom_site_type_symbol
_atom_site_label
_atom_site_fract_x
_atom_site_fract_y
_atom_site_fract_z
Si Si1 0.742327 0.000000 0.045923
Si Si2 0.092871 0.804472 0.673812
Si Si3 0.581294 0.197779 0.673330
Si Si4 0.113946 0.697044 0.578035
Si Si5 0.416057 0.307979 0.169846
Si Si6 0.627108 0.301252 0.581173
Si Si7 0.927883 0.695307 0.840184
Si Si8 0.738478 0.000000 0.935111
O O1 0.883632 0.834454 0.099631
O O2 0.500000 0.000000 0.000000
O O3 0.706484 0.000000 0.980917
O O4 0.046500 0.791532 0.605945
O O5 0.326633 0.712880 0.746028
O O6 0.887346 0.723755 0.643766
O O7 0.115113 0.000000 0.693825
O O8 0.374557 0.288036 0.640674
O O9 0.567337 0.219472 0.613970
O O10 0.804356 0.273428 0.757019
O O11 0.572103 0.000000 0.682885
O O12 0.050925 0.500000 0.566322
O O13 0.000000 0.764996 0.500000
O O14 0.374921 0.500000 0.142321
O O15 0.259262 0.278492 0.171441
O O16 0.358864 0.166303 0.116353
O O17 0.500000 0.234697 0.500000
O O18 0.573276 0.500000 0.570372
O O19 0.003186 0.500000 0.864054
O O20 0.000000 0.000000 0.000000
#
# Coordination Sequence:
#
# PCOD9154688 Si02
#       8
#     2   4   4   4   4   4   4   2
#     4  12  28  48  72 106 145 174 216 270 333 406
#     4  12  24  40  65  94 131 172 226 284 331 391
#     4  12  24  40  67  95 130 177 230 277 335 404
#     4  11  23  38  59  92 130 172 225 281 334 391
#     4  11  23  42  72 105 135 174 227 279 333 395
#     4  11  25  44  63  90 133 182 230 284 343 401
#     4  11  23  44  73 102 136 178 223 274 334 399
#     4  12  24  44  74 102 139 174 218 272 333 410
#
# _framework density 20.421925000000002
#
# number of rings (size 3 to 8) (size 9 to 14) (size 15 to 20)
#    0.000    0.571    4.286    4.286    0.000    8.000 
#    0.000    1.429    0.000    0.000    0.000    0.000 
#    0.000    0.000    0.000    0.000    0.000    0.000 
#
# Total GULP energy -156680.522275 kJ/mol
# GULP energy per Si atom -5595.732938 kJ/mol
# Density = 2.037544 g / cm^3
# Si number density = 20.421925 Si / 1000 Ang^3
#
#
#
# Elastic Constant Matrix: (Units=GPa)
#
#
# Indices 1 2 3 4 5 6 
#
# 1 69.8376 0.4530 12.4180 0.0000 -1.1809 0.0000
# 2 0.4530 102.3578 32.7500 0.0000 -5.1916 0.0000
# 3 12.4180 32.7500 83.3783 0.0000 -5.9529 0.0000
# 4 0.0000 0.0000 0.0000 154.1364 0.0000 -153.4658
# 5 -1.1809 -5.1916 -5.9529 0.0000 38.8042 0.0000
# 6 0.0000 0.0000 0.0000 -153.4658 0.0000 221.1415
#
#
#
# Elastic Compliance Matrix: (Units=1/GPa)
#
#
# Indices 1 2 3 4 5 6 
#
# 1 0.014757 0.000735 -0.002475 0.000000 0.000168 0.000000
# 2 0.000735 0.011237 -0.004463 0.000000 0.000841 0.000000
# 3 -0.002475 -0.004463 0.014223 0.000000 0.001509 0.000000
# 4 0.000000 0.000000 0.000000 0.020993 0.000000 0.014568
# 5 0.000168 0.000841 0.001509 0.000000 0.026120 0.000000
# 6 0.000000 0.000000 0.000000 0.014568 0.000000 0.014632
#
#
# Mechanical properties :
#
#
# Convention : Reuss Voigt Hill
#
# Bulk Modulus (GPa) = 35.95642 38.53508 37.24575
# Shear Modulus (GPa) = 40.44082 96.81325 68.62704
#
# Velocity S-wave (km/s) = 4.45484 6.89271 5.80324
# Velocity P-wave (km/s) = 6.64122 9.06953 7.94865
#
# Compressibility (1/GPa) = 0.02781144
#
# Stress axis : x y z
#
# Youngs Moduli (GPa) = 67.76437 88.99098 70.30893
#
# Poissons Ratio (x) = -0.06540 0.17398
# Poissons Ratio (y) = -0.04980 0.31380
# Poissons Ratio (z) = 0.16769 0.39719
#
# Static dielectric constant tensor:
#      x y z
#    x 1.681030 0.000000 -0.001830 
#    y 0.000000 1.821120 0.000000 
#    z -0.001830 0.000000 1.729120 
# 
# From -- ./inp_files/92119.got.cif
#   From: 2010.05.17/outbox.cif.g08.bks.cpg/sg10_47_cif.got.tgz:92119.got - 2010.06.03 11:33:40.
