data_PCOD9154320
_publ_section_title
;
Structure prediction by ZEFSAII (Michael W. Deem and Ramdas Pophale) SiO2 
 PCOD9154320
Probable space group: P 2/M
;
_chemical_formula_sum "Si O2"
_cell_formula_units_Z 20
_cell_length_a 11.398448
_cell_length_b 10.411586
_cell_length_c 27.684367
_cell_angle_alpha 90.000000
_cell_angle_beta 159.516452
_cell_angle_gamma 90.000000
_cell_volume 1149.711365
_symmetry_space_group_name_H-M "P 2/M"
_symmetry_group_IT_number 10
_symmetry_cell_setting 'monoclinic'
loop_
_space_group_symop_operation_xyz
x,y,z
-x,y,-z
-x,-y,-z
x,-y,z
loop_
_atom_site_type_symbol
_atom_site_label
_atom_site_fract_x
_atom_site_fract_y
_atom_site_fract_z
Si Si1 0.779584 0.753201 0.281714
Si Si2 0.622738 0.000000 0.835184
Si Si3 0.847162 0.149541 0.664606
Si Si4 0.609327 0.500000 0.838230
Si Si5 0.604863 0.000000 0.359527
Si Si6 0.402508 0.500000 0.647105
Si Si7 0.477321 0.254154 0.609742
O O1 0.565807 0.625609 0.206992
O O2 0.884784 0.785773 0.267488
O O3 0.122320 0.737354 0.444606
O O4 0.576226 0.874862 0.223360
O O5 0.603130 0.000000 0.769862
O O6 0.000000 0.000000 0.000000
O O7 0.500000 0.145245 0.500000
O O8 0.762499 0.231793 0.679402
O O9 0.931073 0.000000 0.707916
O O10 0.554995 0.500000 0.759439
O O11 0.000000 0.500000 0.000000
O O12 0.531484 0.874016 0.361969
O O13 0.000000 0.000000 0.500000
O O14 0.504172 0.375768 0.655070
O O15 0.000000 0.500000 0.500000
#
# Coordination Sequence:
#
# PCOD9154320 Si02
#       7
#     4   2   4   2   2   2   4
#     4  11  20  38  60  84 121 154 194 243 290 343
#     4  12  24  35  55  85 117 158 198 237 289 348
#     4   9  18  33  58  91 120 147 190 245 292 340
#     4  12  26  41  59  85 121 162 194 235 297 356
#     4  12  20  33  59  83 117 152 196 240 295 342
#     4  12  22  39  59  85 125 148 192 252 289 340
#     4  11  20  35  61  91 116 150 191 248 297 339
#
# _framework density 17.395672000000001
#
# number of rings (size 3 to 8) (size 9 to 14) (size 15 to 20)
#    0.000    1.000    6.000    2.400    0.000    0.800 
#    0.000    3.000    0.000    7.200    0.000    0.000 
#    0.000    0.000    0.000    0.000    0.000    0.000 
#
# Total GULP energy -111716.562317 kJ/mol
# GULP energy per Si atom -5585.828116 kJ/mol
# Density = 1.735608 g / cm^3
# Si number density = 17.395672 Si / 1000 Ang^3
#
#
#
# Elastic Constant Matrix: (Units=GPa)
#
#
# Indices 1 2 3 4 5 6 
#
# 1 152.7221 82.0599 45.6161 0.0000 10.0803 0.0000
# 2 82.0599 173.3341 31.1965 0.0000 16.3238 0.0000
# 3 45.6161 31.1965 83.0644 0.0000 -4.4291 0.0000
# 4 0.0000 0.0000 0.0000 -22.2870 0.0000 1.0017
# 5 10.0803 16.3238 -4.4291 0.0000 17.9587 0.0000
# 6 0.0000 0.0000 0.0000 1.0017 0.0000 40.4031
#
#
#
# Elastic Compliance Matrix: (Units=1/GPa)
#
#
# Indices 1 2 3 4 5 6 
#
# 1 0.010019 -0.003650 -0.004311 0.000000 -0.003369 0.000000
# 2 -0.003650 0.008305 -0.001427 0.000000 -0.005852 0.000000
# 3 -0.004311 -0.001427 0.015342 0.000000 0.007500 0.000000
# 4 0.000000 0.000000 0.000000 -0.044819 0.000000 0.001111
# 5 -0.003369 -0.005852 0.007500 0.000000 0.064744 0.000000
# 6 0.000000 0.000000 0.000000 0.001111 0.000000 0.024723
#
#
# Mechanical properties :
#
#
# Convention : Reuss Voigt Hill
#
# Bulk Modulus (GPa) = 67.15545 80.76284 73.95914
# Shear Modulus (GPa) = 48.99428 23.89816 36.44622
#
# Velocity S-wave (km/s) = 5.31279 3.71050 4.58223
# Velocity P-wave (km/s) = 8.73630 8.05511 8.40261
#
# Compressibility (1/GPa) = 0.01489082
#
# Stress axis : x y z
#
# Youngs Moduli (GPa) = 99.80971 120.40755 65.18050
#
# Poissons Ratio (x) = 0.43950 0.28099
# Poissons Ratio (y) = 0.36431 0.09299
# Poissons Ratio (z) = 0.43027 0.17179
#
# Static dielectric constant tensor:
#      x y z
#    x 1.594560 0.000000 -0.003270 
#    y 0.000000 1.572580 0.000000 
#    z -0.003270 0.000000 1.556410 
# 
# From -- ./inp_files/22246.got.cif
#   From: 2010.05.17/outbox.cif.g08.bks.cpg/sg10_12_cif.got.tgz:22246.got - 2010.06.03 11:33:40.
