data_PCOD9154243
_publ_section_title
;
Structure prediction by ZEFSAII (Michael W. Deem and Ramdas Pophale) SiO2 
 PCOD9154243
Probable space group: P 2/M
;
_chemical_formula_sum "Si O2"
_cell_formula_units_Z 24
_cell_length_a 18.874563
_cell_length_b 7.737548
_cell_length_c 26.033308
_cell_angle_alpha 90.000000
_cell_angle_beta 161.338034
_cell_angle_gamma 90.000000
_cell_volume 1216.572729
_symmetry_space_group_name_H-M "P 2/M"
_symmetry_group_IT_number 10
_symmetry_cell_setting 'monoclinic'
loop_
_space_group_symop_operation_xyz
x,y,z
-x,y,-z
-x,-y,-z
x,-y,z
loop_
_atom_site_type_symbol
_atom_site_label
_atom_site_fract_x
_atom_site_fract_y
_atom_site_fract_z
Si Si1 0.803859 0.289232 0.826738
Si Si2 0.906082 0.194705 0.190636
Si Si3 0.950358 0.291533 0.104031
Si Si4 0.333464 0.709030 0.549584
Si Si5 0.261863 0.500000 0.683964
Si Si6 0.449575 0.803624 0.743311
Si Si7 0.428977 0.500000 0.010171
O O1 0.804293 0.500000 0.828229
O O2 0.563044 0.234043 0.680441
O O3 0.867484 0.237434 0.812607
O O4 0.000000 0.233059 0.000000
O O5 0.973198 0.222725 0.177251
O O6 0.721519 0.334603 0.078930
O O7 0.121356 0.224040 0.373505
O O8 0.822329 0.000000 0.139336
O O9 0.948775 0.500000 0.105698
O O10 0.711826 0.232345 0.919171
O O11 0.327493 0.500000 0.545428
O O12 0.341446 0.771221 0.613665
O O13 0.356847 0.666988 0.719983
O O14 0.000000 0.500000 0.500000
O O15 0.356316 0.500000 0.806147
O O16 0.414292 0.000000 0.735658
O O17 0.500000 0.500000 0.000000
#
# Coordination Sequence:
#
# PCOD9154243 Si02
#       7
#     4   4   4   4   2   4   2
#     4   9  18  32  61  97 132 176 227 273 319 369
#     4  12  25  45  69  96 133 176 220 267 327 398
#     4  11  19  40  67  95 132 182 226 266 322 382
#     4  11  21  40  66  98 137 180 225 273 319 379
#     4  12  28  48  74 103 131 165 211 271 332 400
#     4  12  23  41  69  99 134 176 218 265 324 391
#     4  12  28  50  74  99 130 170 210 268 341 399
#
# _framework density 19.727550000000001
#
# number of rings (size 3 to 8) (size 9 to 14) (size 15 to 20)
#    0.000    0.833    6.667    1.000    2.333    1.333 
#    0.000    7.500    0.000    0.000    0.000    0.000 
#    0.000    0.000    0.000    0.000    0.000    0.000 
#
# Total GULP energy -134251.105229 kJ/mol
# GULP energy per Si atom -5593.796051 kJ/mol
# Density = 1.968265 g / cm^3
# Si number density = 19.727550 Si / 1000 Ang^3
#
#
#
# Elastic Constant Matrix: (Units=GPa)
#
#
# Indices 1 2 3 4 5 6 
#
# 1 122.8180 33.1988 36.8158 0.0000 -17.2457 0.0000
# 2 33.1988 132.7844 16.3991 0.0000 4.2618 0.0000
# 3 36.8158 16.3991 109.5498 0.0000 -21.5743 0.0000
# 4 0.0000 0.0000 0.0000 94.9082 0.0000 -72.4045
# 5 -17.2457 4.2618 -21.5743 0.0000 37.0513 0.0000
# 6 0.0000 0.0000 0.0000 -72.4045 0.0000 40.0883
#
#
#
# Elastic Compliance Matrix: (Units=1/GPa)
#
#
# Indices 1 2 3 4 5 6 
#
# 1 0.009959 -0.002321 -0.002297 0.000000 0.003564 0.000000
# 2 -0.002321 0.008316 -0.000978 0.000000 -0.002606 0.000000
# 3 -0.002297 -0.000978 0.011135 0.000000 0.005527 0.000000
# 4 0.000000 0.000000 0.000000 -0.027884 0.000000 -0.050361
# 5 0.003564 -0.002606 0.005527 0.000000 0.032167 0.000000
# 6 0.000000 0.000000 0.000000 -0.050361 0.000000 -0.066014
#
#
# Mechanical properties :
#
#
# Convention : Reuss Voigt Hill
#
# Bulk Modulus (GPa) = 54.89315 59.77551 57.33433
# Shear Modulus (GPa) = -332.08697 52.99213 -139.54742
#
# Velocity S-wave (km/s) = -12.98854 5.18848 -8.41967
# Velocity P-wave (km/s) = 14.03745 8.14003 8.08672
#
# Compressibility (1/GPa) = 0.01821721
#
# Stress axis : x y z
#
# Youngs Moduli (GPa) = 100.41617 120.25527 89.80498
#
# Poissons Ratio (x) = 0.27905 0.20632
# Poissons Ratio (y) = 0.23302 0.08785
# Poissons Ratio (z) = 0.23069 0.11764
#
# Static dielectric constant tensor:
#      x y z
#    x 1.675280 0.000000 -0.000640 
#    y 0.000000 1.707480 0.000000 
#    z -0.000640 0.000000 1.663850 
# 
# From -- ./inp_files/90069.got.cif
#   From: 2010.05.17/outbox.cif.g08.bks.cpg/sg10_46_cif.got.tgz:90069.got - 2010.06.03 11:33:40.
