data_PCOD9154582
_publ_section_title
;
Structure prediction by ZEFSAII (Michael W. Deem and Ramdas Pophale) SiO2 
 PCOD9154582
Probable space group: P 2/M
;
_chemical_formula_sum "Si O2"
_cell_formula_units_Z 30
_cell_length_a 21.464233
_cell_length_b 14.649961
_cell_length_c 22.506767
_cell_angle_alpha 90.000000
_cell_angle_beta 166.759724
_cell_angle_gamma 90.000000
_cell_volume 1620.940866
_symmetry_space_group_name_H-M "P 2/M"
_symmetry_group_IT_number 10
_symmetry_cell_setting 'monoclinic'
loop_
_space_group_symop_operation_xyz
x,y,z
-x,y,-z
-x,-y,-z
x,-y,z
loop_
_atom_site_type_symbol
_atom_site_label
_atom_site_fract_x
_atom_site_fract_y
_atom_site_fract_z
Si Si1 0.306962 0.000000 0.264433
Si Si2 0.007222 0.697336 0.748445
Si Si3 0.698009 0.610872 0.235676
Si Si4 0.162513 0.327237 0.091490
Si Si5 0.698625 0.858353 0.843761
Si Si6 0.586312 0.389840 0.268291
Si Si7 0.910814 0.104210 0.686691
Si Si8 0.255996 0.398389 0.385483
O O1 0.500000 0.000000 0.500000
O O2 0.343439 0.914118 0.255706
O O3 0.000000 0.000000 0.000000
O O4 0.838187 0.653633 0.537488
O O5 0.035493 0.806859 0.770009
O O6 0.833111 0.670960 0.645371
O O7 0.301571 0.650406 0.027249
O O8 0.697379 0.500000 0.233460
O O9 0.610664 0.634369 0.221213
O O10 0.000000 0.641664 0.500000
O O11 0.500000 0.643397 0.000000
O O12 0.224960 0.242113 0.106494
O O13 0.454535 0.371978 0.373488
O O14 0.000000 0.299898 0.000000
O O15 0.968908 0.393096 0.874279
O O16 0.410556 0.872613 0.608824
O O17 0.942017 0.893187 0.111921
O O18 0.590180 0.500000 0.278107
O O19 0.945027 0.000000 0.695874
O O20 0.269547 0.500000 0.424175
#
# Coordination Sequence:
#
# PCOD9154582 Si02
#       8
#     2   4   4   4   4   4   4   4
#     4  12  24  36  58  88 108 128 168 224 288 372
#     4  12  23  40  60  86 119 151 200 247 288 346
#     4   9  17  31  52  82 125 169 201 230 270 323
#     4  12  25  42  60  80 108 142 188 241 293 359
#     4  12  22  42  60  81 110 138 177 230 299 366
#     4  11  22  36  59  92 127 165 201 237 280 329
#     4  12  23  42  65  82 110 150 188 235 299 359
#     4  12  25  41  61  81 110 151 191 240 296 346
#
# _framework density 18.507770000000001
#
# number of rings (size 3 to 8) (size 9 to 14) (size 15 to 20)
#    0.000    0.533    4.000    5.600    0.000    4.800 
#    0.000    0.000    0.000    0.000    0.000    0.000 
#    0.000   10.667    0.000    0.000    0.000    0.000 
#
# Total GULP energy -167605.889598 kJ/mol
# GULP energy per Si atom -5586.862987 kJ/mol
# Density = 1.846565 g / cm^3
# Si number density = 18.507770 Si / 1000 Ang^3
#
#
#
# Elastic Constant Matrix: (Units=GPa)
#
#
# Indices 1 2 3 4 5 6 
#
# 1 45.9525 7.8528 14.4055 0.0000 -2.6937 0.0000
# 2 7.8528 120.8055 18.8979 0.0000 -2.7350 0.0000
# 3 14.4055 18.8979 101.1750 0.0000 -3.9402 0.0000
# 4 0.0000 0.0000 0.0000 18.2940 0.0000 -2.5633
# 5 -2.6937 -2.7350 -3.9402 0.0000 28.2317 0.0000
# 6 0.0000 0.0000 0.0000 -2.5633 0.0000 5.4079
#
#
#
# Elastic Compliance Matrix: (Units=1/GPa)
#
#
# Indices 1 2 3 4 5 6 
#
# 1 0.022975 -0.000983 -0.003022 0.000000 0.001675 0.000000
# 2 -0.000983 0.008579 -0.001442 0.000000 0.000536 0.000000
# 3 -0.003022 -0.001442 0.010625 0.000000 0.001055 0.000000
# 4 0.000000 0.000000 0.000000 0.058552 0.000000 0.027753
# 5 0.001675 0.000536 0.001055 0.000000 0.035780 0.000000
# 6 0.000000 0.000000 0.000000 0.027753 0.000000 0.198071
#
#
# Mechanical properties :
#
#
# Convention : Reuss Voigt Hill
#
# Bulk Modulus (GPa) = 31.96383 38.91616 35.44000
# Shear Modulus (GPa) = 14.04871 25.50516 19.77694
#
# Velocity S-wave (km/s) = 2.75811 3.71628 3.27245
# Velocity P-wave (km/s) = 5.23936 6.28386 5.78523
#
# Compressibility (1/GPa) = 0.03128536
#
# Stress axis : x y z
#
# Youngs Moduli (GPa) = 43.52510 116.55943 94.12143
#
# Poissons Ratio (x) = 0.11455 0.28448
# Poissons Ratio (y) = 0.04277 0.13569
# Poissons Ratio (z) = 0.13155 0.16804
#
# Static dielectric constant tensor:
#      x y z
#    x 1.623280 0.000000 0.002320 
#    y 0.000000 1.699920 0.000000 
#    z 0.002320 0.000000 1.630820 
# 
# From -- ./inp_files/91050.got.cif
#   From: 2010.05.17/outbox.cif.g08.bks.cpg/sg10_46_cif.got.tgz:91050.got - 2010.06.03 11:33:40.
