data_PCOD9154543
_publ_section_title
;
Structure prediction by ZEFSAII (Michael W. Deem and Ramdas Pophale) SiO2 
 PCOD9154543
Probable space group: P 2/M
;
_chemical_formula_sum "Si O2"
_cell_formula_units_Z 32
_cell_length_a 8.903677
_cell_length_b 20.967715
_cell_length_c 15.196673
_cell_angle_alpha 90.000000
_cell_angle_beta 147.387726
_cell_angle_gamma 90.000000
_cell_volume 1529.038775
_symmetry_space_group_name_H-M "P 2/M"
_symmetry_group_IT_number 10
_symmetry_cell_setting 'monoclinic'
loop_
_space_group_symop_operation_xyz
x,y,z
-x,y,-z
-x,-y,-z
x,-y,z
loop_
_atom_site_type_symbol
_atom_site_label
_atom_site_fract_x
_atom_site_fract_y
_atom_site_fract_z
Si Si1 0.758297 0.146119 0.062229
Si Si2 0.604966 0.570241 0.450822
Si Si3 0.491406 0.571899 0.101706
Si Si4 0.079031 0.370138 0.131917
Si Si5 0.666392 0.072962 0.847852
Si Si6 0.302423 0.075844 0.327618
Si Si7 0.834746 0.258457 0.684085
Si Si8 0.058458 0.325216 0.629092
O O1 0.979807 0.089297 0.189745
O O2 0.980914 0.204012 0.176499
O O3 0.500000 0.154661 0.000000
O O4 0.625711 0.124415 0.903881
O O5 0.500000 0.573333 0.500000
O O6 0.717393 0.500000 0.491303
O O7 0.350916 0.586201 0.261548
O O8 0.831171 0.622490 0.543859
O O9 0.582725 0.500000 0.173541
O O10 0.659928 0.633216 0.221897
O O11 0.500000 0.574803 0.000000
O O12 0.172476 0.583834 0.967800
O O13 0.136854 0.319145 0.237074
O O14 0.000000 0.338792 0.000000
O O15 0.586112 0.098544 0.712149
O O16 0.562921 0.000000 0.814635
O O17 0.000000 0.066903 0.000000
O O18 0.500000 0.102392 0.500000
O O19 0.333625 0.000000 0.338096
O O20 0.500000 0.248890 0.500000
O O21 0.000526 0.271716 0.674295
O O22 0.000000 0.304464 0.500000
#
# Coordination Sequence:
#
# PCOD9154543 Si02
#       8
#     4   4   4   4   4   4   4   4
#     4  11  24  39  63  93 127 169 215 271 313 354
#     4  11  21  41  67  91 122 159 200 246 310 391
#     4  11  23  39  63  94 127 154 186 250 322 385
#     4  12  24  40  64  91 119 157 201 253 309 376
#     4   8  16  35  64  99 136 171 210 250 299 365
#     4   9  18  38  69 103 139 178 212 248 300 363
#     4  12  26  49  63  83 120 165 219 261 308 374
#     4  12  24  42  65  88 120 161 202 254 321 380
#
# _framework density 20.928180999999999
#
# number of rings (size 3 to 8) (size 9 to 14) (size 15 to 20)
#    0.000    1.250    3.750    3.000    1.750    7.500 
#    0.000    5.625    0.000    2.250    0.000    0.000 
#    0.000    0.000    0.000    0.000    0.000    0.000 
#
# Total GULP energy -178438.743609 kJ/mol
# GULP energy per Si atom -5576.210738 kJ/mol
# Density = 2.088055 g / cm^3
# Si number density = 20.928181 Si / 1000 Ang^3
#
#
#
# Elastic Constant Matrix: (Units=GPa)
#
#
# Indices 1 2 3 4 5 6 
#
# 1 60.1694 30.6490 25.6496 0.0000 -14.9034 0.0000
# 2 30.6490 61.5388 19.3909 0.0000 -14.4536 0.0000
# 3 25.6496 19.3909 92.0552 0.0000 -14.3268 0.0000
# 4 0.0000 0.0000 0.0000 7.1111 0.0000 3.2099
# 5 -14.9034 -14.4536 -14.3268 0.0000 43.7866 0.0000
# 6 0.0000 0.0000 0.0000 3.2099 0.0000 15.8086
#
#
#
# Elastic Compliance Matrix: (Units=1/GPa)
#
#
# Indices 1 2 3 4 5 6 
#
# 1 0.024362 -0.009978 -0.004118 0.000000 0.003651 0.000000
# 2 -0.009978 0.022501 -0.001403 0.000000 0.003572 0.000000
# 3 -0.004118 -0.001403 0.012661 0.000000 0.002278 0.000000
# 4 0.000000 0.000000 0.000000 0.154815 0.000000 -0.031435
# 5 0.003651 0.003572 0.002278 0.000000 0.026005 0.000000
# 6 0.000000 0.000000 0.000000 -0.031435 0.000000 0.069639
#
#
# Mechanical properties :
#
#
# Convention : Reuss Voigt Hill
#
# Bulk Modulus (GPa) = 35.05846 40.57139 37.81492
# Shear Modulus (GPa) = 14.26571 22.54619 18.40595
#
# Velocity S-wave (km/s) = 2.61368 3.28580 2.96882
# Velocity P-wave (km/s) = 5.08887 5.81579 5.46443
#
# Compressibility (1/GPa) = 0.02852379
#
# Stress axis : x y z
#
# Youngs Moduli (GPa) = 41.04698 44.44299 78.98542
#
# Poissons Ratio (x) = 0.44347 0.32527
# Poissons Ratio (y) = 0.40958 0.11085
# Poissons Ratio (z) = 0.16903 0.06237
#
# Static dielectric constant tensor:
#      x y z
#    x 1.675740 0.000000 -0.022620 
#    y 0.000000 1.786280 0.000000 
#    z -0.022620 0.000000 1.803850 
# 
# From -- ./inp_files/62707.got.cif
#   From: 2010.05.17/outbox.cif.g08.bks.cpg/sg10_32_cif.got.tgz:62707.got - 2010.06.03 11:33:40.
