data_PCOD9154347
_publ_section_title
;
Structure prediction by ZEFSAII (Michael W. Deem and Ramdas Pophale) SiO2 
 PCOD9154347
Probable space group: P 2/M
;
_chemical_formula_sum "Si O2"
_cell_formula_units_Z 20
_cell_length_a 12.904137
_cell_length_b 11.507313
_cell_length_c 6.790312
_cell_angle_alpha 90.000000
_cell_angle_beta 96.089529
_cell_angle_gamma 90.000000
_cell_volume 1002.617102
_symmetry_space_group_name_H-M "P 2/M"
_symmetry_group_IT_number 10
_symmetry_cell_setting 'monoclinic'
loop_
_space_group_symop_operation_xyz
x,y,z
-x,y,-z
-x,-y,-z
x,-y,z
loop_
_atom_site_type_symbol
_atom_site_label
_atom_site_fract_x
_atom_site_fract_y
_atom_site_fract_z
Si Si1 0.878170 0.137314 0.509149
Si Si2 0.906422 0.500000 0.627469
Si Si3 0.500000 0.294863 0.000000
Si Si4 0.114012 0.271950 0.112052
Si Si5 0.285620 0.733381 0.809528
Si Si6 0.700402 0.500000 0.410531
Si Si7 0.434962 0.500000 0.280027
O O1 0.855259 0.170948 0.729565
O O2 0.788637 0.196539 0.357012
O O3 0.000000 0.176364 0.500000
O O4 0.875817 0.000000 0.473096
O O5 0.900188 0.387563 0.762241
O O6 0.821714 0.500000 0.440275
O O7 0.000000 0.500000 0.500000
O O8 0.398475 0.221562 0.909568
O O9 0.544682 0.385203 0.843252
O O10 0.205260 0.289558 0.971546
O O11 0.000000 0.244496 0.000000
O O12 0.326383 0.616024 0.710507
O O13 0.676266 0.500000 0.638668
O O14 0.500000 0.500000 0.500000
#
# Coordination Sequence:
#
# PCOD9154347 Si02
#       7
#     4   2   2   4   4   2   2
#     4  11  25  47  69  92 124 169 225 277 326 380
#     4  12  22  35  58  93 138 167 198 252 331 399
#     4  11  24  38  63 100 132 176 219 257 314 388
#     4  12  23  40  64  96 130 169 211 263 330 393
#     4  12  24  41  65  98 132 169 216 264 323 384
#     4  12  21  38  65  90 135 176 206 257 312 382
#     4  11  20  40  61  92 137 180 222 252 300 377
#
# _framework density 19.947794999999999
#
# number of rings (size 3 to 8) (size 9 to 14) (size 15 to 20)
#    0.000    0.400    6.000    4.500    0.000    1.200 
#    0.000    0.500    0.000    1.200    0.000    0.000 
#    0.000    0.000    0.000    0.000    0.000    0.000 
#
# Total GULP energy -111480.302132 kJ/mol
# GULP energy per Si atom -5574.015107 kJ/mol
# Density = 1.990239 g / cm^3
# Si number density = 19.947795 Si / 1000 Ang^3
#
#
#
# Elastic Constant Matrix: (Units=GPa)
#
#
# Indices 1 2 3 4 5 6 
#
# 1 130.9951 19.6926 25.4682 0.0000 22.8832 0.0000
# 2 19.6926 58.1479 20.6171 0.0000 10.4036 0.0000
# 3 25.4682 20.6171 78.8933 0.0000 10.1422 0.0000
# 4 0.0000 0.0000 0.0000 -2.2406 0.0000 -10.0361
# 5 22.8832 10.4036 10.1422 0.0000 55.4685 0.0000
# 6 0.0000 0.0000 0.0000 -10.0361 0.0000 16.9719
#
#
#
# Elastic Compliance Matrix: (Units=1/GPa)
#
#
# Indices 1 2 3 4 5 6 
#
# 1 0.008799 -0.001743 -0.002008 0.000000 -0.002936 0.000000
# 2 -0.001743 0.019706 -0.004306 0.000000 -0.002190 0.000000
# 3 -0.002008 -0.004306 0.014581 0.000000 -0.001030 0.000000
# 4 0.000000 0.000000 0.000000 -0.122319 0.000000 -0.072332
# 5 -0.002936 -0.002190 -0.001030 0.000000 0.019839 0.000000
# 6 0.000000 0.000000 0.000000 -0.072332 0.000000 0.016148
#
#
# Mechanical properties :
#
#
# Convention : Reuss Voigt Hill
#
# Bulk Modulus (GPa) = 37.07250 44.39913 40.73581
# Shear Modulus (GPa) = -275.59565 27.52386 -124.03590
#
# Velocity S-wave (km/s) = -11.76683 3.71859 -7.89400
# Velocity P-wave (km/s) = 12.88356 6.38304 7.91337
#
# Compressibility (1/GPa) = 0.02697417
#
# Stress axis : x y z
#
# Youngs Moduli (GPa) = 113.64817 50.74554 68.58203
#
# Poissons Ratio (x) = 0.08844 0.13769
# Poissons Ratio (y) = 0.19807 0.29529
# Poissons Ratio (z) = 0.22816 0.21849
#
# Static dielectric constant tensor:
#      x y z
#    x 2.569940 0.000000 -0.119470 
#    y 0.000000 1.720240 0.000000 
#    z -0.119470 0.000000 1.773270 
# 
# From -- ./inp_files/9000.got.cif
#   From: 2010.05.17/outbox.cif.g08.bks.cpg/sg10_5_cif.got.tgz:9000.got - 2010.06.03 11:33:40.
