data_PCOD9154592
_publ_section_title
;
Structure prediction by ZEFSAII (Michael W. Deem and Ramdas Pophale) SiO2 
 PCOD9154592
Probable space group: P 2/M
;
_chemical_formula_sum "Si O2"
_cell_formula_units_Z 28
_cell_length_a 20.746399
_cell_length_b 7.956803
_cell_length_c 18.564824
_cell_angle_alpha 90.000000
_cell_angle_beta 152.133185
_cell_angle_gamma 90.000000
_cell_volume 1432.443430
_symmetry_space_group_name_H-M "P 2/M"
_symmetry_group_IT_number 10
_symmetry_cell_setting 'monoclinic'
loop_
_space_group_symop_operation_xyz
x,y,z
-x,y,-z
-x,-y,-z
x,-y,z
loop_
_atom_site_type_symbol
_atom_site_label
_atom_site_fract_x
_atom_site_fract_y
_atom_site_fract_z
Si Si1 0.836129 0.194342 0.653174
Si Si2 0.831417 0.500000 0.915359
Si Si3 0.169591 0.804165 0.982209
Si Si4 0.821847 0.806653 0.478993
Si Si5 0.566520 0.306912 0.139307
Si Si6 0.683086 0.806740 0.022632
Si Si7 0.166973 0.500000 0.247861
Si Si8 0.928863 0.307524 0.358160
O O1 0.775833 0.234152 0.514658
O O2 0.793103 0.332298 0.668946
O O3 0.003143 0.204923 0.809292
O O4 0.804012 0.000000 0.640455
O O5 0.783737 0.500000 0.785705
O O6 0.790360 0.667920 0.918174
O O7 0.999213 0.500000 0.080000
O O8 0.244148 0.760850 0.980650
O O9 0.201146 0.000000 0.030974
O O10 0.699669 0.784999 0.301531
O O11 0.951340 0.697498 0.582922
O O12 0.869605 0.000000 0.527685
O O13 0.606144 0.500000 0.164317
O O14 0.500000 0.237238 0.000000
O O15 0.448017 0.298519 0.082521
O O16 0.798173 0.787559 0.198205
O O17 0.638604 0.000000 0.973605
O O18 0.887698 0.500000 0.332481
O O19 0.000000 0.235651 0.500000
#
# Coordination Sequence:
#
# PCOD9154592 Si02
#       8
#     4   2   4   4   4   4   2   4
#     4   9  18  32  52  81 112 144 185 230 273 328
#     4   9  18  30  50  81 114 151 181 213 275 337
#     4   9  18  32  52  81 112 144 185 230 273 328
#     4  11  22  37  57  80 107 147 191 233 284 335
#     4  11  25  41  55  77 111 148 189 240 292 338
#     4  11  22  37  57  80 107 147 191 233 284 335
#     4   9  18  30  50  81 114 151 181 213 275 337
#     4  11  23  35  53  81 109 142 185 234 286 336
#
# _framework density 19.547021000000001
#
# number of rings (size 3 to 8) (size 9 to 14) (size 15 to 20)
#    0.000    1.857    1.429    2.571    4.000    6.286 
#    0.000    2.857    0.000    0.000    0.000    2.000 
#    0.000    4.571    0.000    0.000    0.000    0.000 
#
# Total GULP energy -156345.062216 kJ/mol
# GULP energy per Si atom -5583.752222 kJ/mol
# Density = 1.950253 g / cm^3
# Si number density = 19.547021 Si / 1000 Ang^3
#
#
#
# Elastic Constant Matrix: (Units=GPa)
#
#
# Indices 1 2 3 4 5 6 
#
# 1 71.7727 39.2475 14.3484 0.0000 -19.1163 0.0000
# 2 39.2475 69.0026 17.4814 0.0000 -18.3686 0.0000
# 3 14.3484 17.4814 38.8936 0.0000 -7.8954 0.0000
# 4 0.0000 0.0000 0.0000 10.0692 0.0000 -36.3894
# 5 -19.1163 -18.3686 -7.8954 0.0000 31.9540 0.0000
# 6 0.0000 0.0000 0.0000 -36.3894 0.0000 -46.5139
#
#
#
# Elastic Compliance Matrix: (Units=1/GPa)
#
#
# Indices 1 2 3 4 5 6 
#
# 1 0.021580 -0.009962 -0.002132 0.000000 0.006656 0.000000
# 2 -0.009962 0.023149 -0.005515 0.000000 0.005985 0.000000
# 3 -0.002132 -0.005515 0.029556 0.000000 0.002857 0.000000
# 4 0.000000 0.000000 0.000000 0.025948 0.000000 -0.020300
# 5 0.006656 0.005985 0.002857 0.000000 0.039423 0.000000
# 6 0.000000 0.000000 0.000000 -0.020300 0.000000 -0.005617
#
#
# Mechanical properties :
#
#
# Convention : Reuss Voigt Hill
#
# Bulk Modulus (GPa) = 25.59694 35.75817 30.67755
# Shear Modulus (GPa) = 27.43050 6.34130 16.88590
#
# Velocity S-wave (km/s) = 3.75014 1.80310 2.94234
# Velocity P-wave (km/s) = 5.64578 4.76109 5.22221
#
# Compressibility (1/GPa) = 0.03906718
#
# Stress axis : x y z
#
# Youngs Moduli (GPa) = 46.34025 43.19920 33.83356
#
# Poissons Ratio (x) = 0.43035 0.07214
# Poissons Ratio (y) = 0.46164 0.18658
# Poissons Ratio (z) = 0.09880 0.23823
#
# Static dielectric constant tensor:
#      x y z
#    x 1.690580 0.000000 -0.012290 
#    y 0.000000 1.668410 0.000000 
#    z -0.012290 0.000000 1.667520 
# 
# From -- ./inp_files/79331.got.cif
#   From: 2010.05.17/outbox.cif.g08.bks.cpg/sg10_40_cif.got.tgz:79331.got - 2010.06.03 11:33:40.
