data_PCOD9154431
_publ_section_title
;
Structure prediction by ZEFSAII (Michael W. Deem and Ramdas Pophale) SiO2 
 PCOD9154431
Probable space group: P 2/M
;
_chemical_formula_sum "Si O2"
_cell_formula_units_Z 28
_cell_length_a 25.841253
_cell_length_b 13.833367
_cell_length_c 20.489008
_cell_angle_alpha 90.000000
_cell_angle_beta 12.418731
_cell_angle_gamma 90.000000
_cell_volume 1575.110947
_symmetry_space_group_name_H-M "P 2/M"
_symmetry_group_IT_number 10
_symmetry_cell_setting 'monoclinic'
loop_
_space_group_symop_operation_xyz
x,y,z
-x,y,-z
-x,-y,-z
x,-y,z
loop_
_atom_site_type_symbol
_atom_site_label
_atom_site_fract_x
_atom_site_fract_y
_atom_site_fract_z
Si Si1 0.979351 0.227676 0.185721
Si Si2 0.395870 0.111674 0.270911
Si Si3 0.558534 0.251976 0.299989
Si Si4 0.230277 0.110436 0.067814
Si Si5 0.810602 0.388485 0.293128
Si Si6 0.268598 0.106572 0.736911
Si Si7 0.180232 0.882898 0.335328
O O1 0.809699 0.183022 0.450498
O O2 0.872559 0.314856 0.275181
O O3 0.232329 0.261263 0.904477
O O4 0.044012 0.140347 0.056547
O O5 0.312588 0.000000 0.364203
O O6 0.592381 0.108758 0.087946
O O7 0.550656 0.144863 0.017133
O O8 0.447810 0.352768 0.414415
O O9 0.338416 0.188589 0.599806
O O10 0.668392 0.187234 0.107219
O O11 0.963048 0.138294 0.421945
O O12 0.226699 0.000000 0.046010
O O13 0.811358 0.500000 0.312754
O O14 0.000000 0.378934 0.000000
O O15 0.500000 0.102107 0.500000
O O16 0.238685 0.000000 0.745297
O O17 0.000000 0.848306 0.500000
O O18 0.184142 0.000000 0.327451
#
# Coordination Sequence:
#
# PCOD9154431 Si02
#       7
#     4   4   4   4   4   4   4
#     4  11  21  35  54  79 107 137 174 214 261 311
#     4   9  16  28  49  77 112 150 183 213 249 299
#     4  11  21  35  54  79 107 137 174 214 261 311
#     4   9  16  28  49  77 112 150 183 213 249 299
#     4  11  24  42  60  77  98 129 175 226 275 321
#     4   9  18  31  47  72 109 143 168 198 240 298
#     4   7  12  24  43  71 107 147 185 216 245 286
#
# _framework density 17.776526
#
# number of rings (size 3 to 8) (size 9 to 14) (size 15 to 20)
#    0.000    2.429    2.857    2.571    0.000    2.286 
#    0.000    2.857    0.000    2.571    0.000    2.000 
#    0.000    2.286    0.000    0.000    0.000    0.000 
#
# Total GULP energy -156172.092437 kJ/mol
# GULP energy per Si atom -5577.574730 kJ/mol
# Density = 1.773607 g / cm^3
# Si number density = 17.776526 Si / 1000 Ang^3
#
#
#
# Elastic Constant Matrix: (Units=GPa)
#
#
# Indices 1 2 3 4 5 6 
#
# 1 30.1677 8.9623 15.1034 0.0000 3.7686 0.0000
# 2 8.9623 77.1908 29.5700 0.0000 5.1332 0.0000
# 3 15.1034 29.5700 90.1351 0.0000 14.3054 0.0000
# 4 0.0000 0.0000 0.0000 8.8023 0.0000 -0.2291
# 5 3.7686 5.1332 14.3054 0.0000 40.1640 0.0000
# 6 0.0000 0.0000 0.0000 -0.2291 0.0000 3.5958
#
#
#
# Elastic Compliance Matrix: (Units=1/GPa)
#
#
# Indices 1 2 3 4 5 6 
#
# 1 0.036562 -0.002163 -0.005211 0.000000 -0.001298 0.000000
# 2 -0.002163 0.014946 -0.004526 0.000000 -0.000095 0.000000
# 3 -0.005211 -0.004526 0.014079 0.000000 -0.003947 0.000000
# 4 0.000000 0.000000 0.000000 0.113796 0.000000 0.007251
# 5 -0.001298 -0.000095 -0.003947 0.000000 0.026438 0.000000
# 6 0.000000 0.000000 0.000000 0.007251 0.000000 0.278566
#
#
# Mechanical properties :
#
#
# Convention : Reuss Voigt Hill
#
# Bulk Modulus (GPa) = 23.93031 33.86277 28.89654
# Shear Modulus (GPa) = 9.57645 20.10292 14.83968
#
# Velocity S-wave (km/s) = 2.32354 3.36649 2.89241
# Velocity P-wave (km/s) = 4.54856 5.84820 5.23884
#
# Compressibility (1/GPa) = 0.04178800
#
# Stress axis : x y z
#
# Youngs Moduli (GPa) = 27.35116 66.90735 71.02874
#
# Poissons Ratio (x) = 0.14469 0.37013
# Poissons Ratio (y) = 0.05915 0.32146
# Poissons Ratio (z) = 0.14252 0.30281
#
# Static dielectric constant tensor:
#      x y z
#    x 1.667020 0.000000 -0.020710 
#    y 0.000000 1.547970 0.000000 
#    z -0.020710 0.000000 1.662300 
# 
# From -- ./inp_files/91443.got.cif
#   From: 2010.05.17/outbox.cif.g08.bks.cpg/sg10_46_cif.got.tgz:91443.got - 2010.06.03 11:33:40.
