data_PCOD9154840
_publ_section_title
;
Structure prediction by ZEFSAII (Michael W. Deem and Ramdas Pophale) SiO2 
 PCOD9154840
Probable space group: P 2/M
;
_chemical_formula_sum "Si O2"
_cell_formula_units_Z 16
_cell_length_a 5.107584
_cell_length_b 22.605609
_cell_length_c 5.555377
_cell_angle_alpha 90.000000
_cell_angle_beta 90.425562
_cell_angle_gamma 90.000000
_cell_volume 641.406396
_symmetry_space_group_name_H-M "P 2/M"
_symmetry_group_IT_number 10
_symmetry_cell_setting 'monoclinic'
loop_
_space_group_symop_operation_xyz
x,y,z
-x,y,-z
-x,-y,-z
x,-y,z
loop_
_atom_site_type_symbol
_atom_site_label
_atom_site_fract_x
_atom_site_fract_y
_atom_site_fract_z
Si Si1 0.170055 0.000000 0.250854
Si Si2 0.250997 0.500000 0.325885
Si Si3 0.765578 0.179955 0.155058
Si Si4 0.242982 0.309343 0.656072
Si Si5 0.500000 0.596767 0.000000
Si Si6 0.500000 0.095895 0.500000
O O1 0.364020 0.055705 0.294282
O O2 0.000000 0.000000 0.500000
O O3 0.000000 0.000000 0.000000
O O4 0.500000 0.500000 0.500000
O O5 0.303017 0.556187 0.154128
O O6 0.000000 0.500000 0.500000
O O7 0.834680 0.246761 0.230037
O O8 0.710677 0.138483 0.379913
O O9 0.500000 0.183247 0.000000
O O10 0.000000 0.155018 0.000000
O O11 0.500000 0.296632 0.500000
O O12 0.327165 0.360035 0.837420
O O13 0.000000 0.330852 0.500000
#
# Coordination Sequence:
#
# PCOD9154840 Si02
#       6
#     2   2   4   4   2   2
#     4  11  30  55  85 124 170 228 296 358 432 502
#     4  11  28  55  81 114 153 211 278 335 407 492
#     4  12  28  50  82 121 169 218 274 339 421 506
#     4  12  27  49  77 122 167 212 269 332 413 502
#     4  11  28  52  82 116 162 213 264 346 414 485
#     4  11  30  52  82 120 170 219 284 350 422 505
#
# _framework density 24.945183
#
# number of rings (size 3 to 8) (size 9 to 14) (size 15 to 20)
#    0.000    0.500    2.500    2.250    7.000    9.000 
#    0.000    3.750    0.000    0.000    0.000    0.000 
#    0.000    0.000    0.000    0.000    0.000    0.000 
#
# Total GULP energy -89836.403217 kJ/mol
# GULP energy per Si atom -5614.775201 kJ/mol
# Density = 2.488841 g / cm^3
# Si number density = 24.945183 Si / 1000 Ang^3
#
#
#
# Elastic Constant Matrix: (Units=GPa)
#
#
# Indices 1 2 3 4 5 6 
#
# 1 166.1404 44.6532 85.9811 0.0000 6.6074 0.0000
# 2 44.6532 182.6335 83.7781 0.0000 3.3353 0.0000
# 3 85.9811 83.7781 158.9541 0.0000 -7.3378 0.0000
# 4 0.0000 0.0000 0.0000 35.8454 0.0000 -2.4664
# 5 6.6074 3.3353 -7.3378 0.0000 80.1098 0.0000
# 6 0.0000 0.0000 0.0000 -2.4664 0.0000 29.5555
#
#
#
# Elastic Compliance Matrix: (Units=1/GPa)
#
#
# Indices 1 2 3 4 5 6 
#
# 1 0.008459 0.000099 -0.004680 0.000000 -0.001131 0.000000
# 2 0.000099 0.007257 -0.003909 0.000000 -0.000668 0.000000
# 3 -0.004680 -0.003909 0.010955 0.000000 0.001552 0.000000
# 4 0.000000 0.000000 0.000000 0.028059 0.000000 0.002342
# 5 -0.001131 -0.000668 0.001552 0.000000 0.012746 0.000000
# 6 0.000000 0.000000 0.000000 0.002342 0.000000 0.034030
#
#
# Mechanical properties :
#
#
# Convention : Reuss Voigt Hill
#
# Bulk Modulus (GPa) = 103.19558 104.06143 103.62850
# Shear Modulus (GPa) = 41.07895 48.65651 44.86773
#
# Velocity S-wave (km/s) = 4.06244 4.42128 4.24565
# Velocity P-wave (km/s) = 7.96639 8.23834 8.10350
#
# Compressibility (1/GPa) = 0.00969034
#
# Stress axis : x y z
#
# Youngs Moduli (GPa) = 118.21036 137.80504 91.28308
#
# Poissons Ratio (x) = -0.01369 0.42725
# Poissons Ratio (y) = -0.01175 0.35685
# Poissons Ratio (z) = 0.55328 0.53872
#
# Static dielectric constant tensor:
#      x y z
#    x 1.946850 0.000000 -0.031990 
#    y 0.000000 2.010800 0.000000 
#    z -0.031990 0.000000 1.947730 
# 
# From -- ./inp_files/1248.got.cif
#   From: 2010.05.17/outbox.cif.g08.bks.cpg/sg10_1_cif.got.tgz:1248.got - 2010.06.03 11:33:40.
