data_PCOD9154837
_publ_section_title
;
Structure prediction by ZEFSAII (Michael W. Deem and Ramdas Pophale) SiO2 
 PCOD9154837
Probable space group: P 2/M
;
_chemical_formula_sum "Si O2"
_cell_formula_units_Z 10
_cell_length_a 5.285847
_cell_length_b 14.020716
_cell_length_c 5.006900
_cell_angle_alpha 90.000000
_cell_angle_beta 89.269584
_cell_angle_gamma 90.000000
_cell_volume 371.038015
_symmetry_space_group_name_H-M "P 2/M"
_symmetry_group_IT_number 10
_symmetry_cell_setting 'monoclinic'
loop_
_space_group_symop_operation_xyz
x,y,z
-x,y,-z
-x,-y,-z
x,-y,z
loop_
_atom_site_type_symbol
_atom_site_label
_atom_site_fract_x
_atom_site_fract_y
_atom_site_fract_z
Si Si1 0.307086 0.500000 0.250915
Si Si2 0.255221 0.787416 0.153993
Si Si3 0.253116 0.000000 0.320844
Si Si4 0.000000 0.665568 0.500000
O O1 0.500000 0.500000 0.500000
O O2 0.117800 0.589661 0.286581
O O3 0.500000 0.500000 0.000000
O O4 0.222066 0.744525 0.451205
O O5 0.259018 0.901627 0.160828
O O6 0.500000 0.750046 0.000000
O O7 0.000000 0.759707 0.000000
O O8 0.500000 0.000000 0.500000
O O9 0.000000 0.000000 0.500000
#
# Coordination Sequence:
#
# PCOD9154837 Si02
#       4
#     2   4   2   2
#     4  11  28  51  80 112 157 200 261 329 406 474
#     4  12  27  46  76 109 154 204 262 318 389 463
#     4  12  24  46  72 107 157 206 256 319 385 459
#     4  11  28  45  78 110 152 197 262 329 390 474
#
# _framework density 26.951421
#
# number of rings (size 3 to 8) (size 9 to 14) (size 15 to 20)
#    0.000    0.400    2.000    4.800   11.200    1.600 
#    0.000    0.000    0.000    0.000    0.000    0.000 
#    0.000    0.000    0.000    0.000    0.000    0.000 
#
# Total GULP energy -55838.626462 kJ/mol
# GULP energy per Si atom -5583.862646 kJ/mol
# Density = 2.689008 g / cm^3
# Si number density = 26.951421 Si / 1000 Ang^3
#
#
#
# Elastic Constant Matrix: (Units=GPa)
#
#
# Indices 1 2 3 4 5 6 
#
# 1 231.7288 32.0237 109.1560 0.0000 -40.3192 0.0000
# 2 32.0237 195.8780 36.3581 0.0000 -26.7213 0.0000
# 3 109.1560 36.3581 196.2275 0.0000 -64.9315 0.0000
# 4 0.0000 0.0000 0.0000 44.3948 0.0000 -18.4761
# 5 -40.3192 -26.7213 -64.9315 0.0000 96.4569 0.0000
# 6 0.0000 0.0000 0.0000 -18.4761 0.0000 -35.2730
#
#
#
# Elastic Compliance Matrix: (Units=1/GPa)
#
#
# Indices 1 2 3 4 5 6 
#
# 1 0.005878 -0.000346 -0.003119 0.000000 0.000261 0.000000
# 2 -0.000346 0.005389 -0.000463 0.000000 0.001037 0.000000
# 3 -0.003119 -0.000463 0.008290 0.000000 0.004148 0.000000
# 4 0.000000 0.000000 0.000000 0.018494 0.000000 -0.009687
# 5 0.000261 0.001037 0.004148 0.000000 0.013556 0.000000
# 6 0.000000 0.000000 0.000000 -0.009687 0.000000 -0.023276
#
#
# Mechanical properties :
#
#
# Convention : Reuss Voigt Hill
#
# Bulk Modulus (GPa) = 85.46909 108.76778 97.11843
# Shear Modulus (GPa) = 124.72838 50.86884 87.79861
#
# Velocity S-wave (km/s) = 6.81024 4.34917 5.71378
# Velocity P-wave (km/s) = 9.67576 8.10339 8.92427
#
# Compressibility (1/GPa) = 0.01170014
#
# Stress axis : x y z
#
# Youngs Moduli (GPa) = 170.12623 185.55736 120.63291
#
# Poissons Ratio (x) = 0.06427 0.37627
# Poissons Ratio (y) = 0.05893 0.05584
# Poissons Ratio (z) = 0.53064 0.08589
#
# Static dielectric constant tensor:
#      x y z
#    x 2.121250 0.000000 0.335730 
#    y 0.000000 2.090550 0.000000 
#    z 0.335730 0.000000 2.885730 
# 
# From -- ./inp_files/284.got.cif
#   From: 2010.05.17/outbox.cif.g08.bks.cpg/sg10_1_cif.got.tgz:284.got - 2010.06.03 11:33:40.
