data_PCOD9155265
_publ_section_title
;
Structure prediction by ZEFSAII (Michael W. Deem and Ramdas Pophale) SiO2 
 PCOD9155265
Probable space group: P 2/M
;
_chemical_formula_sum "Si O2"
_cell_formula_units_Z 32
_cell_length_a 21.000000
_cell_length_b 9.000000
_cell_length_c 27.000000
_cell_angle_alpha 90.000000
_cell_angle_beta 160.000000
_cell_angle_gamma 90.000000
_cell_volume 1745.328791
_symmetry_space_group_name_H-M "P 2/M"
_symmetry_group_IT_number 10
_symmetry_cell_setting 'monoclinic'
loop_
_space_group_symop_operation_xyz
x,y,z
-x,y,-z
-x,-y,-z
x,-y,z
loop_
_atom_site_type_symbol
_atom_site_label
_atom_site_fract_x
_atom_site_fract_y
_atom_site_fract_z
Si Si1 0.705464 0.821794 0.537476
Si Si2 0.348122 0.322228 0.041052
Si Si3 0.462993 0.668046 0.290846
Si Si4 0.369944 0.175861 0.679714
Si Si5 0.357439 0.179716 0.939753
Si Si6 0.055002 0.179267 0.384380
Si Si7 0.024047 0.330339 0.962352
Si Si8 0.984734 0.178720 0.829039
O O1 0.522201 0.730550 0.387898
O O2 0.845596 0.778180 0.594703
O O3 0.808330 0.789400 0.664231
O O4 0.673131 0.000000 0.511647
O O5 0.329185 0.500000 0.027274
O O6 0.524639 0.269885 0.202375
O O7 0.377223 0.258631 0.007141
O O8 0.165926 0.250259 0.934538
O O9 0.540542 0.500000 0.340562
O O10 0.531788 0.787431 0.300855
O O11 0.246137 0.657922 0.122154
O O12 0.161848 0.224358 0.512379
O O13 0.379564 0.000000 0.697851
O O14 0.155883 0.225298 0.772340
O O15 0.361271 0.000000 0.950680
O O16 0.500000 0.214393 0.000000
O O17 0.062438 0.000000 0.390029
O O18 0.945872 0.500000 0.905173
O O19 0.961486 0.242776 0.867546
O O20 0.000000 0.263825 0.000000
O O21 0.009837 0.000000 0.849022
#
# Coordination Sequence:
#
# PCOD9155265 Si02
#       8
#     4   4   4   4   4   4   4   4
#     4   9  18  33  54  79 110 141 178 228 276 324
#     4  12  23  35  54  83 115 145 183 230 281 333
#     4  10  19  32  53  82 111 142 183 224 273 330
#     4  10  19  33  55  80 109 143 182 231 276 320
#     4  10  20  37  60  83 110 146 186 229 276 329
#     4   8  15  31  53  80 108 138 178 222 272 322
#     4  10  22  39  56  79 115 151 181 223 280 336
#     4  11  21  36  59  84 109 142 190 235 273 322
#
# _framework density 18.334654
#
# number of rings (size 3 to 8) (size 9 to 14) (size 15 to 20)
#    0.000    2.000    2.500    3.000    0.000    2.000 
#    0.000    1.875    0.000    7.500    0.000    0.000 
#    0.000    0.000    0.000    0.000    0.000    0.000 
#
# Total GULP energy -178253.469370 kJ/mol
# GULP energy per Si atom -5570.420918 kJ/mol
# Density = 1.829292 g / cm^3
# Si number density = 18.334654 Si / 1000 Ang^3
#
#
#
# Elastic Constant Matrix: (Units=GPa)
#
#
# Indices 1 2 3 4 5 6 
#
# 1 46.9253 12.8738 -3.3286 0.0000 -22.9350 0.0000
# 2 12.8738 62.8375 9.8636 0.0000 -17.9169 0.0000
# 3 -3.3286 9.8636 59.9108 0.0000 -37.0628 0.0000
# 4 0.0000 0.0000 0.0000 -1.8390 0.0000 -0.8063
# 5 -22.9350 -17.9169 -37.0628 0.0000 26.1285 0.0000
# 6 0.0000 0.0000 0.0000 -0.8063 0.0000 23.8861
#
#
#
# Elastic Compliance Matrix: (Units=1/GPa)
#
#
# Indices 1 2 3 4 5 6 
#
# 1 -0.001993 -0.008930 -0.028663 0.000000 -0.048531 0.000000
# 2 -0.008930 0.016814 -0.008010 0.000000 -0.007671 0.000000
# 3 -0.028663 -0.008010 -0.020778 0.000000 -0.060126 0.000000
# 4 0.000000 0.000000 0.000000 -0.535849 0.000000 -0.018088
# 5 -0.048531 -0.007671 -0.060126 0.000000 -0.094874 0.000000
# 6 0.000000 0.000000 0.000000 -0.018088 0.000000 0.041255
#
#
# Mechanical properties :
#
#
# Convention : Reuss Voigt Hill
#
# Bulk Modulus (GPa) = -10.29193 23.16569 6.43688
# Shear Modulus (GPa) = -9.31780 19.65279 5.16749
#
# Velocity S-wave (km/s) = -2.25679 3.27753 1.68064
# Velocity P-wave (km/s) = 3.52369 5.19474 2.69897
#
# Compressibility (1/GPa) = -0.09716349
#
# Stress axis : x y z
#
# Youngs Moduli (GPa) = -501.87274 59.47534 -48.12740
#
# Poissons Ratio (x) = 0.53112 -1.37949
# Poissons Ratio (y) = -4.48180 -0.38549
# Poissons Ratio (z) = -14.38532 0.47639
#
# Static dielectric constant tensor:
#      x y z
#    x 1.632280 0.000000 0.018270 
#    y 0.000000 1.642350 0.000000 
#    z 0.018270 0.000000 1.702360 
# 
# From -- ./inp_files/93759.got.cif
#   From: 2010.05.17/outbox.ucp.g08.bks.cvg/sg10_47_cif.got.tgz:93759.got - 2010.06.11 11:31:16.
