data_PCOD9155327
_publ_section_title
;
Structure prediction by ZEFSAII (Michael W. Deem and Ramdas Pophale) SiO2 
 PCOD9155327
Probable space group: P 2/M
;
_chemical_formula_sum "Si O2"
_cell_formula_units_Z 28
_cell_length_a 15.000000
_cell_length_b 9.000000
_cell_length_c 21.000000
_cell_angle_alpha 90.000000
_cell_angle_beta 30.000000
_cell_angle_gamma 90.000000
_cell_volume 1417.500000
_symmetry_space_group_name_H-M "P 2/M"
_symmetry_group_IT_number 10
_symmetry_cell_setting 'monoclinic'
loop_
_space_group_symop_operation_xyz
x,y,z
-x,y,-z
-x,-y,-z
x,-y,z
loop_
_atom_site_type_symbol
_atom_site_label
_atom_site_fract_x
_atom_site_fract_y
_atom_site_fract_z
Si Si1 0.601884 0.173616 0.252962
Si Si2 0.704875 0.174707 0.049763
Si Si3 0.560242 0.818244 0.892060
Si Si4 0.757008 0.673146 0.486362
Si Si5 0.286293 0.667967 0.632595
Si Si6 0.045791 0.820491 0.399067
Si Si7 0.079587 0.825972 0.863359
O O1 0.587837 0.179323 0.185843
O O2 0.442975 0.266914 0.380210
O O3 0.799962 0.225665 0.151672
O O4 0.586782 0.000000 0.281540
O O5 0.591321 0.237993 0.062543
O O6 0.737446 0.000000 0.014013
O O7 0.894498 0.241634 0.952991
O O8 0.757524 0.772375 0.746782
O O9 0.561766 0.000000 0.888883
O O10 0.500000 0.775134 0.000000
O O11 0.763911 0.500000 0.498863
O O12 0.791463 0.687237 0.389811
O O13 0.895864 0.761004 0.443840
O O14 0.500000 0.674351 0.500000
O O15 0.239492 0.500000 0.684424
O O16 0.213246 0.795115 0.722940
O O17 0.000000 0.774160 0.500000
O O18 0.042285 0.000000 0.400165
O O19 0.043656 0.000000 0.897728
#
# Coordination Sequence:
#
# PCOD9155327 Si02
#       7
#     4   4   4   4   4   4   4
#     4  10  19  34  55  82 114 145 179 225 278 333
#     4   9  18  33  53  79 113 144 174 222 282 332
#     4   9  18  32  52  80 111 143 181 225 276 335
#     4  11  23  37  57  82 111 150 190 230 277 328
#     4  10  21  38  54  73 111 154 187 226 278 331
#     4  10  21  38  61  87 113 145 186 236 291 340
#     4  10  20  32  55  85 109 139 184 230 273 327
#
# _framework density 19.753086
#
# number of rings (size 3 to 8) (size 9 to 14) (size 15 to 20)
#    0.000    2.143    1.429    1.714    2.000    5.714 
#    0.000    0.714    0.000    3.000    0.000    0.000 
#    0.000    0.000    0.000    0.000    0.000    0.000 
#
# Total GULP energy -156065.427209 kJ/mol
# GULP energy per Si atom -5573.765257 kJ/mol
# Density = 1.970813 g / cm^3
# Si number density = 19.753086 Si / 1000 Ang^3
#
#
#
# Elastic Constant Matrix: (Units=GPa)
#
#
# Indices 1 2 3 4 5 6 
#
# 1 159.8892 19.5545 50.8265 0.0000 -9.6225 0.0000
# 2 19.5545 5.0759 11.8606 0.0000 4.6569 0.0000
# 3 50.8265 11.8606 81.0883 0.0000 -5.9617 0.0000
# 4 0.0000 0.0000 0.0000 -35.8048 0.0000 2.0325
# 5 -9.6225 4.6569 -5.9617 0.0000 21.6732 0.0000
# 6 0.0000 0.0000 0.0000 2.0325 0.0000 12.8842
#
#
#
# Elastic Compliance Matrix: (Units=1/GPa)
#
#
# Indices 1 2 3 4 5 6 
#
# 1 0.035244 -0.253051 0.020484 0.000000 0.075655 0.000000
# 2 -0.253051 2.342798 -0.234065 0.000000 -0.680132 0.000000
# 3 0.020484 -0.234065 0.038881 0.000000 0.070083 0.000000
# 4 0.000000 0.000000 0.000000 -0.027681 0.000000 0.004367
# 5 0.075655 -0.680132 0.070083 0.000000 0.245148 0.000000
# 6 0.000000 0.000000 0.000000 0.004367 0.000000 0.076925
#
#
# Mechanical properties :
#
#
# Convention : Reuss Voigt Hill
#
# Bulk Modulus (GPa) = 0.67401 45.61518 23.14459
# Shear Modulus (GPa) = 1.20798 10.67131 5.93965
#
# Velocity S-wave (km/s) = 0.78286 2.32682 1.73594
# Velocity P-wave (km/s) = 1.07662 5.51014 3.96993
#
# Compressibility (1/GPa) = 1.48365944
#
# Stress axis : x y z
#
# Youngs Moduli (GPa) = 28.37360 0.42684 25.71927
#
# Poissons Ratio (x) = 0.10801 -0.52684
# Poissons Ratio (y) = 7.17997 6.01999
# Poissons Ratio (z) = -0.58121 0.09991
#
# Static dielectric constant tensor:
#      x y z
#    x 1.719790 0.000000 0.011920 
#    y 0.000000 1.667350 0.000000 
#    z 0.011920 0.000000 1.715010 
# 
# From -- ./inp_files/49182.got.cif
#   From: 2010.05.17/outbox.ucp.g08.bks.cvg/sg10_25_cif.got.tgz:49182.got - 2010.06.11 11:31:16.
