data_PCOD9155487
_publ_section_title
;
Structure prediction by ZEFSAII (Michael W. Deem and Ramdas Pophale) SiO2 
 PCOD9155487
Probable space group: P 2/M
;
_chemical_formula_sum "Si O2"
_cell_formula_units_Z 32
_cell_length_a 27.000000
_cell_length_b 9.000000
_cell_length_c 21.000000
_cell_angle_alpha 90.000000
_cell_angle_beta 20.000000
_cell_angle_gamma 90.000000
_cell_volume 1745.328791
_symmetry_space_group_name_H-M "P 2/M"
_symmetry_group_IT_number 10
_symmetry_cell_setting 'monoclinic'
loop_
_space_group_symop_operation_xyz
x,y,z
-x,y,-z
-x,-y,-z
x,-y,z
loop_
_atom_site_type_symbol
_atom_site_label
_atom_site_fract_x
_atom_site_fract_y
_atom_site_fract_z
Si Si1 0.829136 0.676615 0.701792
Si Si2 0.351121 0.822295 0.967471
Si Si3 0.121124 0.821739 0.738631
Si Si4 0.672522 0.821450 0.627258
Si Si5 0.659631 0.678549 0.780805
Si Si6 0.681754 0.678239 0.392391
Si Si7 0.807992 0.320984 0.104469
Si Si8 0.645082 0.321265 0.172402
O O1 0.798347 0.500000 0.745873
O O2 0.769641 0.721670 0.704228
O O3 0.000000 0.699117 0.500000
O O4 0.749122 0.761471 0.855071
O O5 0.515754 0.780302 0.787762
O O6 0.314277 0.753374 0.943392
O O7 0.342575 0.000000 0.974269
O O8 0.207921 0.777818 0.569451
O O9 0.205168 0.758730 0.698262
O O10 0.118070 0.000000 0.745404
O O11 0.961531 0.755423 0.929032
O O12 0.689298 0.750640 0.676602
O O13 0.676217 0.000000 0.629388
O O14 0.664028 0.500000 0.767925
O O15 0.500000 0.718673 0.000000
O O16 0.699723 0.500000 0.377209
O O17 0.708365 0.714708 0.286088
O O18 0.520750 0.716575 0.609933
O O19 0.824738 0.500000 0.083450
O O20 0.740015 0.276823 0.118859
O O21 0.654877 0.500000 0.153802
#
# Coordination Sequence:
#
# PCOD9155487 Si02
#       8
#     4   4   4   4   4   4   4   4
#     4  10  22  40  60  86 119 149 183 232 288 341
#     4  11  22  38  60  85 116 152 192 236 282 343
#     4  11  23  39  57  84 120 156 195 238 290 347
#     4  10  22  38  57  82 114 151 190 235 280 334
#     4  10  20  35  59  87 110 140 186 233 274 328
#     4  10  20  37  62  87 113 151 197 244 291 345
#     4  10  22  39  58  86 119 150 193 244 295 348
#     4  10  21  38  62  87 115 153 195 242 294 345
#
# _framework density 18.334654
#
# number of rings (size 3 to 8) (size 9 to 14) (size 15 to 20)
#    0.000    1.750    2.500    1.500    0.000    7.500 
#    0.000    3.750    0.000    2.250    0.000    0.000 
#    0.000    0.000    0.000    0.000    0.000    0.000 
#
# Total GULP energy -178752.097319 kJ/mol
# GULP energy per Si atom -5586.003041 kJ/mol
# Density = 1.829292 g / cm^3
# Si number density = 18.334654 Si / 1000 Ang^3
#
#
#
# Elastic Constant Matrix: (Units=GPa)
#
#
# Indices 1 2 3 4 5 6 
#
# 1 135.6095 27.1117 8.3726 0.0000 4.2229 0.0000
# 2 27.1117 13.4762 13.4561 0.0000 0.9808 0.0000
# 3 8.3726 13.4561 22.1912 0.0000 3.7042 0.0000
# 4 0.0000 0.0000 0.0000 20.7257 0.0000 8.7341
# 5 4.2229 0.9808 3.7042 0.0000 38.6626 0.0000
# 6 0.0000 0.0000 0.0000 8.7341 0.0000 5.4359
#
#
#
# Elastic Compliance Matrix: (Units=1/GPa)
#
#
# Indices 1 2 3 4 5 6 
#
# 1 0.025377 -0.106461 0.055886 0.000000 -0.005425 0.000000
# 2 -0.106461 0.636209 -0.350463 0.000000 0.029065 0.000000
# 3 0.055886 -0.350463 0.239859 0.000000 -0.020194 0.000000
# 4 0.000000 0.000000 0.000000 0.149426 0.000000 -0.240089
# 5 -0.005425 0.029065 -0.020194 0.000000 0.027655 0.000000
# 6 0.000000 0.000000 0.000000 -0.240089 0.000000 0.569725
#
#
# Mechanical properties :
#
#
# Convention : Reuss Voigt Hill
#
# Bulk Modulus (GPa) = 10.06358 29.90642 19.98500
# Shear Modulus (GPa) = 2.01333 21.12061 11.56697
#
# Velocity S-wave (km/s) = 1.04904 3.39772 2.51446
# Velocity P-wave (km/s) = 2.63971 5.63378 4.39929
#
# Compressibility (1/GPa) = 0.09936820
#
# Stress axis : x y z
#
# Youngs Moduli (GPa) = 39.40596 1.57181 4.16912
#
# Poissons Ratio (x) = 0.16734 -0.23300
# Poissons Ratio (y) = 4.19521 1.46112
# Poissons Ratio (z) = -2.20224 0.55086
#
# Static dielectric constant tensor:
#      x y z
#    x 1.607020 0.000000 -0.006870 
#    y 0.000000 1.613880 0.000000 
#    z -0.006870 0.000000 1.613640 
# 
# From -- ./inp_files/86874.got.cif
#   From: 2010.05.17/outbox.ucp.g08.bks.cvg/sg10_44_cif.got.tgz:86874.got - 2010.06.11 11:31:16.
