data_PCOD9155194
_publ_section_title
;
Structure prediction by ZEFSAII (Michael W. Deem and Ramdas Pophale) SiO2 
 PCOD9155194
Probable space group: P 2/M
;
_chemical_formula_sum "Si O2"
_cell_formula_units_Z 32
_cell_length_a 21.000000
_cell_length_b 9.000000
_cell_length_c 12.000000
_cell_angle_alpha 90.000000
_cell_angle_beta 60.000000
_cell_angle_gamma 90.000000
_cell_volume 1964.145616
_symmetry_space_group_name_H-M "P 2/M"
_symmetry_group_IT_number 10
_symmetry_cell_setting 'monoclinic'
loop_
_space_group_symop_operation_xyz
x,y,z
-x,y,-z
-x,-y,-z
x,-y,z
loop_
_atom_site_type_symbol
_atom_site_label
_atom_site_fract_x
_atom_site_fract_y
_atom_site_fract_z
Si Si1 0.408416 0.326229 0.470070
Si Si2 0.846930 0.178150 0.861936
Si Si3 0.016001 0.821397 0.111637
Si Si4 0.287410 0.822062 0.875712
Si Si5 0.114492 0.678626 0.639501
Si Si6 0.436579 0.325524 0.712444
Si Si7 0.745806 0.680748 0.334107
Si Si8 0.913827 0.321374 0.583531
O O1 0.406857 0.500000 0.440307
O O2 0.422799 0.320632 0.590733
O O3 0.480555 0.264153 0.346204
O O4 0.326103 0.267093 0.533294
O O5 0.874549 0.251166 0.724253
O O6 0.903811 0.216338 0.911619
O O7 0.848917 0.000000 0.846383
O O8 0.766853 0.221212 0.976713
O O9 0.957804 0.751911 0.246743
O O10 0.008674 0.000000 0.118977
O O11 0.000000 0.769246 0.000000
O O12 0.369911 0.764474 0.822815
O O13 0.258782 0.750763 0.784648
O O14 0.286239 0.000000 0.864799
O O15 0.106553 0.500000 0.649885
O O16 0.182042 0.719891 0.660004
O O17 0.122698 0.720002 0.502758
O O18 0.433044 0.500000 0.746794
O O19 0.741854 0.500000 0.326584
O O20 0.911844 0.500000 0.596847
O O21 0.000000 0.277737 0.500000
#
# Coordination Sequence:
#
# PCOD9155194 Si02
#       8
#     4   4   4   4   4   4   4   4
#     4   7  11  22  41  63  88 120 153 182 211 262
#     4  10  21  34  48  66  89 122 157 186 224 273
#     4  10  20  33  48  66  91 122 152 181 219 270
#     4  10  19  30  44  67  98 123 151 190 227 263
#     4  10  20  33  49  70  91 116 150 190 233 270
#     4   8  13  24  42  63  89 122 155 180 217 268
#     4   9  17  30  47  67  94 125 154 181 222 277
#     4  10  20  35  52  69  90 113 147 199 242 268
#
# _framework density 16.292071
#
# number of rings (size 3 to 8) (size 9 to 14) (size 15 to 20)
#    0.000    2.750    1.250    2.625    0.000    3.500 
#    0.000    5.000    0.000    0.000    0.000    0.875 
#    0.000    7.000    0.000    0.000    0.000    0.000 
#
# Total GULP energy -178149.185297 kJ/mol
# GULP energy per Si atom -5567.162041 kJ/mol
# Density = 1.625499 g / cm^3
# Si number density = 16.292071 Si / 1000 Ang^3
#
#
#
# Elastic Constant Matrix: (Units=GPa)
#
#
# Indices 1 2 3 4 5 6 
#
# 1 22.6214 10.7718 34.1999 0.0000 -22.7003 0.0000
# 2 10.7718 13.1886 26.9008 0.0000 -7.8156 0.0000
# 3 34.1999 26.9008 120.7947 0.0000 -20.0016 0.0000
# 4 0.0000 0.0000 0.0000 26.3935 0.0000 -2.0558
# 5 -22.7003 -7.8156 -20.0016 0.0000 32.2392 0.0000
# 6 0.0000 0.0000 0.0000 -2.0558 0.0000 17.3375
#
#
#
# Elastic Compliance Matrix: (Units=1/GPa)
#
#
# Indices 1 2 3 4 5 6 
#
# 1 0.370242 -0.063953 -0.055705 0.000000 0.210631 0.000000
# 2 -0.063953 0.157948 -0.020266 0.000000 -0.019313 0.000000
# 3 -0.055705 -0.020266 0.023688 0.000000 -0.029440 0.000000
# 4 0.000000 0.000000 0.000000 0.038241 0.000000 0.004534
# 5 0.210631 -0.019313 -0.029440 0.000000 0.156381 0.000000
# 6 0.000000 0.000000 0.000000 0.004534 0.000000 0.058216
#
#
# Mechanical properties :
#
#
# Convention : Reuss Voigt Hill
#
# Bulk Modulus (GPa) = 3.67607 33.37220 18.52414
# Shear Modulus (GPa) = 4.25444 20.84287 12.54865
#
# Velocity S-wave (km/s) = 1.61772 3.58065 2.77831
# Velocity P-wave (km/s) = 2.39805 6.13375 4.65690
#
# Compressibility (1/GPa) = 0.27202956
#
# Stress axis : x y z
#
# Youngs Moduli (GPa) = 2.70093 6.33121 42.21458
#
# Poissons Ratio (x) = 0.40490 2.35157
# Poissons Ratio (y) = 0.17273 0.85552
# Poissons Ratio (z) = 0.15046 0.12831
#
# Static dielectric constant tensor:
#      x y z
#    x 1.574420 0.000000 -0.033370 
#    y 0.000000 1.542750 0.000000 
#    z -0.033370 0.000000 1.535920 
# 
# From -- ./inp_files/54836.got.cif
#   From: 2010.05.17/outbox.ucp.g08.bks.cvg/sg10_28_cif.got.tgz:54836.got - 2010.06.11 11:31:16.
