data_PCOD9155553
_publ_section_title
;
Structure prediction by ZEFSAII (Michael W. Deem and Ramdas Pophale) SiO2 
 PCOD9155553
Probable space group: P 2/M
;
_chemical_formula_sum "Si O2"
_cell_formula_units_Z 32
_cell_length_a 24.000000
_cell_length_b 9.000000
_cell_length_c 15.000000
_cell_angle_alpha 90.000000
_cell_angle_beta 30.000000
_cell_angle_gamma 90.000000
_cell_volume 1620.000000
_symmetry_space_group_name_H-M "P 2/M"
_symmetry_group_IT_number 10
_symmetry_cell_setting 'monoclinic'
loop_
_space_group_symop_operation_xyz
x,y,z
-x,y,-z
-x,-y,-z
x,-y,z
loop_
_atom_site_type_symbol
_atom_site_label
_atom_site_fract_x
_atom_site_fract_y
_atom_site_fract_z
Si Si1 0.876483 0.324275 0.208021
Si Si2 0.534311 0.677545 0.232159
Si Si3 0.677529 0.822842 0.380062
Si Si4 0.530477 0.822190 0.855107
Si Si5 0.856881 0.323134 0.608689
Si Si6 0.877519 0.322785 0.777375
Si Si7 0.706929 0.822760 0.130133
Si Si8 0.767288 0.679067 0.542829
O O1 0.849728 0.500000 0.232045
O O2 0.791551 0.225463 0.269152
O O3 0.858318 0.294568 0.338874
O O4 0.000000 0.299648 0.000000
O O5 0.538979 0.500000 0.220364
O O6 0.418891 0.733537 0.435680
O O7 0.542370 0.745475 0.121355
O O8 0.625359 0.740048 0.174523
O O9 0.682155 0.787442 0.267858
O O10 0.658162 0.000000 0.415850
O O11 0.654917 0.760257 0.669280
O O12 0.525760 0.000000 0.851271
O O13 0.500000 0.785268 0.000000
O O14 0.834957 0.500000 0.642482
O O15 0.831116 0.268778 0.744806
O O16 0.798975 0.267295 0.598653
O O17 0.989481 0.305666 0.411468
O O18 0.854317 0.500000 0.818404
O O19 0.826473 0.234012 0.930335
O O20 0.696309 0.000000 0.134810
O O21 0.749727 0.500000 0.570760
#
# Coordination Sequence:
#
# PCOD9155553 Si02
#       8
#     4   4   4   4   4   4   4   4
#     4  10  22  38  61  94 127 163 207 254 305 360
#     4  12  25  43  67  92 117 154 203 254 304 358
#     4  11  24  43  64  87 122 162 198 247 309 368
#     4  11  25  43  63  91 128 167 203 248 307 368
#     4   8  17  34  58  87 122 157 199 248 299 350
#     4   9  18  36  60  88 118 158 203 248 296 351
#     4  11  25  41  60  89 123 157 196 246 308 367
#     4  10  20  37  61  91 125 164 205 254 304 355
#
# _framework density 19.753086
#
# number of rings (size 3 to 8) (size 9 to 14) (size 15 to 20)
#    0.000    1.750    1.250    3.375    3.500    4.750 
#    0.000    1.875    0.000    0.000    0.000    0.000 
#    0.000    0.000    0.000    0.000    0.000    0.000 
#
# Total GULP energy -178734.830562 kJ/mol
# GULP energy per Si atom -5585.463455 kJ/mol
# Density = 1.970813 g / cm^3
# Si number density = 19.753086 Si / 1000 Ang^3
#
#
#
# Elastic Constant Matrix: (Units=GPa)
#
#
# Indices 1 2 3 4 5 6 
#
# 1 94.9829 26.9920 -5.1771 0.0000 21.6307 0.0000
# 2 26.9920 64.2454 18.2534 0.0000 15.9400 0.0000
# 3 -5.1771 18.2534 54.5974 0.0000 21.4504 0.0000
# 4 0.0000 0.0000 0.0000 44.4564 0.0000 -5.0514
# 5 21.6307 15.9400 21.4504 0.0000 34.4637 0.0000
# 6 0.0000 0.0000 0.0000 -5.0514 0.0000 34.4805
#
#
#
# Elastic Compliance Matrix: (Units=1/GPa)
#
#
# Indices 1 2 3 4 5 6 
#
# 1 0.015342 -0.005769 0.008099 0.000000 -0.012002 0.000000
# 2 -0.005769 0.020289 -0.006706 0.000000 -0.001589 0.000000
# 3 0.008099 -0.006706 0.029259 0.000000 -0.020193 0.000000
# 4 0.000000 0.000000 0.000000 0.022875 0.000000 0.003351
# 5 -0.012002 -0.001589 -0.020193 0.000000 0.049852 0.000000
# 6 0.000000 0.000000 0.000000 0.003351 0.000000 0.029493
#
#
# Mechanical properties :
#
#
# Convention : Reuss Voigt Hill
#
# Bulk Modulus (GPa) = 17.81312 32.66249 25.23780
# Shear Modulus (GPa) = 25.69706 34.26395 29.98050
#
# Velocity S-wave (km/s) = 3.61073 4.16939 3.90007
# Velocity P-wave (km/s) = 5.14010 6.30473 5.75197
#
# Compressibility (1/GPa) = 0.05613840
#
# Stress axis : x y z
#
# Youngs Moduli (GPa) = 65.17898 49.28848 34.17718
#
# Poissons Ratio (x) = 0.28436 -0.27680
# Poissons Ratio (y) = 0.37603 0.22919
# Poissons Ratio (z) = -0.52789 0.33052
#
# Static dielectric constant tensor:
#      x y z
#    x 1.711410 0.000000 -0.011710 
#    y 0.000000 1.658570 0.000000 
#    z -0.011710 0.000000 1.724860 
# 
# From -- ./inp_files/71411.got.cif
#   From: 2010.05.17/outbox.ucp.g08.bks.cvg/sg10_36_cif.got.tgz:71411.got - 2010.06.11 11:31:16.
