data_PCOD9155333
_publ_section_title
;
Structure prediction by ZEFSAII (Michael W. Deem and Ramdas Pophale) SiO2 
 PCOD9155333
Probable space group: P 2/M
;
_chemical_formula_sum "Si O2"
_cell_formula_units_Z 32
_cell_length_a 27.000000
_cell_length_b 9.000000
_cell_length_c 21.000000
_cell_angle_alpha 90.000000
_cell_angle_beta 20.000000
_cell_angle_gamma 90.000000
_cell_volume 1745.328791
_symmetry_space_group_name_H-M "P 2/M"
_symmetry_group_IT_number 10
_symmetry_cell_setting 'monoclinic'
loop_
_space_group_symop_operation_xyz
x,y,z
-x,y,-z
-x,-y,-z
x,-y,z
loop_
_atom_site_type_symbol
_atom_site_label
_atom_site_fract_x
_atom_site_fract_y
_atom_site_fract_z
Si Si1 0.186588 0.676809 0.399913
Si Si2 0.309317 0.822200 0.480920
Si Si3 0.542429 0.673239 0.521435
Si Si4 0.594117 0.677285 0.758592
Si Si5 0.891012 0.821993 0.770402
Si Si6 0.742779 0.679179 0.829780
Si Si7 0.153621 0.679061 0.784565
Si Si8 0.389782 0.177566 0.816081
O O1 0.160086 0.500000 0.435107
O O2 0.333601 0.706535 0.260644
O O3 0.206949 0.717292 0.301834
O O4 0.048591 0.759515 0.595247
O O5 0.308554 0.759220 0.411129
O O6 0.192794 0.752241 0.669613
O O7 0.469814 0.776006 0.312309
O O8 0.299068 0.000000 0.494596
O O9 0.500000 0.688424 0.500000
O O10 0.530200 0.500000 0.554556
O O11 0.707798 0.717503 0.338269
O O12 0.429286 0.765155 0.699237
O O13 0.599124 0.500000 0.741150
O O14 0.426046 0.722316 0.958540
O O15 0.840985 0.759606 0.762677
O O16 0.893722 0.000000 0.766436
O O17 0.762776 0.769438 0.972392
O O18 0.753309 0.500000 0.824732
O O19 0.149574 0.500000 0.782509
O O20 0.000000 0.725891 0.000000
O O21 0.386946 0.000000 0.820743
#
# Coordination Sequence:
#
# PCOD9155333 Si02
#       8
#     4   4   4   4   4   4   4   4
#     4  10  22  38  54  80 112 141 178 228 278 325
#     4  10  19  34  56  80 108 141 182 224 261 314
#     4   9  18  33  54  80 105 132 171 217 261 308
#     4  10  20  36  58  81 107 141 182 226 276 325
#     4  11  22  37  55  79 112 146 183 223 269 323
#     4  10  20  36  60  82 104 139 184 228 273 326
#     4   9  18  34  55  78 107 139 174 216 263 314
#     4   9  19  35  54  76 105 142 180 217 255 310
#
# _framework density 18.334654
#
# number of rings (size 3 to 8) (size 9 to 14) (size 15 to 20)
#    0.000    2.250    1.250    1.500    0.000    6.000 
#    2.250    0.000    0.000    2.250    0.000    0.000 
#    0.000    0.000    0.000    0.000    0.000    0.000 
#
# Total GULP energy -178475.491663 kJ/mol
# GULP energy per Si atom -5577.359114 kJ/mol
# Density = 1.829292 g / cm^3
# Si number density = 18.334654 Si / 1000 Ang^3
#
#
#
# Elastic Constant Matrix: (Units=GPa)
#
#
# Indices 1 2 3 4 5 6 
#
# 1 -33.0900 8.2874 16.1767 0.0000 -20.0694 0.0000
# 2 8.2874 -2.3669 16.7029 0.0000 1.9021 0.0000
# 3 16.1767 16.7029 88.8380 0.0000 16.0561 0.0000
# 4 0.0000 0.0000 0.0000 30.9175 0.0000 7.6481
# 5 -20.0694 1.9021 16.0561 0.0000 12.8220 0.0000
# 6 0.0000 0.0000 0.0000 7.6481 0.0000 25.2840
#
#
#
# Elastic Compliance Matrix: (Units=1/GPa)
#
#
# Indices 1 2 3 4 5 6 
#
# 1 -0.011354 -0.005356 0.007940 0.000000 -0.026919 0.000000
# 2 -0.005356 -0.180050 0.040735 0.000000 -0.032684 0.000000
# 3 0.007940 0.040735 0.001290 0.000000 0.004770 0.000000
# 4 0.000000 0.000000 0.000000 0.034960 0.000000 -0.010575
# 5 -0.026919 -0.032684 0.004770 0.000000 0.034732 0.000000
# 6 0.000000 0.000000 0.000000 -0.010575 0.000000 0.042750
#
#
# Mechanical properties :
#
#
# Convention : Reuss Voigt Hill
#
# Bulk Modulus (GPa) = -9.66389 15.07946 2.70779
# Shear Modulus (GPa) = -25.15070 14.61899 -5.26585
#
# Velocity S-wave (km/s) = -3.70774 2.82679 -1.69656
# Velocity P-wave (km/s) = 4.85923 4.34704 1.53547
#
# Compressibility (1/GPa) = -0.10347803
#
# Stress axis : x y z
#
# Youngs Moduli (GPa) = -88.07569 -5.55401 775.27728
#
# Poissons Ratio (x) = -0.02975 -6.15554
# Poissons Ratio (y) = -0.47177 -31.58074
# Poissons Ratio (z) = 0.69930 0.22624
#
# Static dielectric constant tensor:
#      x y z
#    x 1.645240 0.000000 0.001780 
#    y 0.000000 1.613730 0.000000 
#    z 0.001780 0.000000 1.619390 
# 
# From -- ./inp_files/86759.got.cif
#   From: 2010.05.17/outbox.ucp.g08.bks.cvg/sg10_44_cif.got.tgz:86759.got - 2010.06.11 11:31:16.
