data_PCOD9155832
_publ_section_title
;
Structure prediction by ZEFSAII (Michael W. Deem and Ramdas Pophale) SiO2 
 PCOD9155832
Probable space group: P 21/M
;
_chemical_formula_sum "Si O2"
_cell_formula_units_Z 30
_cell_length_a 11.287026
_cell_length_b 14.670602
_cell_length_c 16.311485
_cell_angle_alpha 90.000000
_cell_angle_beta 32.658311
_cell_angle_gamma 90.000000
_cell_volume 1457.522762
_symmetry_space_group_name_H-M "P 21/M"
_symmetry_group_IT_number 11
_symmetry_cell_setting 'monoclinic'
loop_
_space_group_symop_operation_xyz
x,y,z
-x,1/2+y,-z
-x,-y,-z
x,1/2-y,z
loop_
_atom_site_type_symbol
_atom_site_label
_atom_site_fract_x
_atom_site_fract_y
_atom_site_fract_z
Si Si1 0.301856 0.148845 0.199154
Si Si2 0.954561 0.090558 0.267147
Si Si3 0.927761 0.596157 0.503207
Si Si4 0.077439 0.750000 0.851731
Si Si5 0.615864 0.485639 0.577106
Si Si6 0.804723 0.427977 0.119411
Si Si7 0.404478 0.853951 0.252642
Si Si8 0.666995 0.483614 0.024077
O O1 0.381020 0.250000 0.133997
O O2 0.092625 0.125918 0.265229
O O3 0.217818 0.143107 0.341990
O O4 0.492115 0.074989 0.075504
O O5 0.945282 0.169442 0.205705
O O6 0.719035 0.058890 0.437030
O O7 0.098775 0.005631 0.150775
O O8 0.781772 0.565555 0.511645
O O9 0.000000 0.500000 0.500000
O O10 0.159553 0.645876 0.357151
O O11 0.113573 0.830700 0.899750
O O12 0.378480 0.531264 0.712478
O O13 0.606994 0.406808 0.653220
O O14 0.695481 0.430388 0.093171
O O15 0.000000 0.500000 0.000000
O O16 0.486052 0.750000 0.212838
O O17 0.560442 0.917953 0.107569
#
# Coordination Sequence:
#
# PCOD9155832 Si02
#       8
#     4   4   4   2   4   4   4   4
#     4  12  22  37  68 103 136 174 212 269 335 400
#     4  12  24  42  67 101 140 168 214 286 344 396
#     4  10  16  34  58  97 133 167 215 254 325 400
#     4  12  28  44  70  98 130 172 238 274 336 400
#     4  10  22  40  68  91 135 175 218 273 335 383
#     4  11  24  49  71  94 128 182 231 280 320 398
#     4  10  19  33  60  95 132 170 217 260 313 397
#     4  11  24  42  65  97 132 176 223 267 333 387
#
# _framework density 20.582868999999999
#
# number of rings (size 3 to 8) (size 9 to 14) (size 15 to 20)
#    0.000    1.067    8.667    0.800    2.800    0.533 
#    1.200    0.000    1.467    0.000    0.000    0.000 
#    0.000    0.000    0.000    0.000    0.000    0.000 
#
# Total GULP energy -167086.630882 kJ/mol
# GULP energy per Si atom -5569.554363 kJ/mol
# Density = 2.053602 g / cm^3
# Si number density = 20.582869 Si / 1000 Ang^3
#
#
#
# Elastic Constant Matrix: (Units=GPa)
#
#
# Indices 1 2 3 4 5 6 
#
# 1 51.5226 31.2229 5.4507 0.0000 -0.6609 0.0000
# 2 31.2229 137.2309 32.3952 0.0000 6.3190 0.0000
# 3 5.4507 32.3952 87.8082 0.0000 -4.8008 0.0000
# 4 0.0000 0.0000 0.0000 3.9355 0.0000 2.6082
# 5 -0.6609 6.3190 -4.8008 0.0000 17.5850 0.0000
# 6 0.0000 0.0000 0.0000 2.6082 0.0000 35.5668
#
#
#
# Elastic Compliance Matrix: (Units=1/GPa)
#
#
# Indices 1 2 3 4 5 6 
#
# 1 0.022690 -0.005487 0.000782 0.000000 0.003038 0.000000
# 2 -0.005487 0.009557 -0.003436 0.000000 -0.004579 0.000000
# 3 0.000782 -0.003436 0.012869 0.000000 0.004777 0.000000
# 4 0.000000 0.000000 0.000000 0.267079 0.000000 -0.019586
# 5 0.003038 -0.004579 0.004777 0.000000 0.059930 0.000000
# 6 0.000000 0.000000 0.000000 -0.019586 0.000000 0.029552
#
#
# Mechanical properties :
#
#
# Convention : Reuss Voigt Hill
#
# Bulk Modulus (GPa) = 34.68042 46.07769 40.37905
# Shear Modulus (GPa) = 11.69397 25.25033 18.47215
#
# Velocity S-wave (km/s) = 2.38616 3.50632 2.99900
# Velocity P-wave (km/s) = 4.94746 6.23116 5.62605
#
# Compressibility (1/GPa) = 0.02883471
#
# Stress axis : x y z
#
# Youngs Moduli (GPa) = 44.07163 104.63250 77.70830
#
# Poissons Ratio (x) = 0.57412 -0.06076
# Poissons Ratio (y) = 0.24182 0.26698
# Poissons Ratio (z) = -0.03446 0.35949
#
# Static dielectric constant tensor:
#      x y z
#    x 1.797650 0.000000 -0.018670 
#    y 0.000000 1.712020 0.000000 
#    z -0.018670 0.000000 1.791660 
# 
# From -- ./inp_files/59378.got.cif
#   From: 2010.05.17/outbox.cif.g08.bks.cpg/sg11_30_cif.got.tgz:59378.got - 2010.06.03 12:22:45.
