data_PCOD9155157
_publ_section_title
;
Structure prediction by ZEFSAII (Michael W. Deem and Ramdas Pophale) SiO2 
 PCOD9155157
Probable space group: P 2/M
;
_chemical_formula_sum "Si O2"
_cell_formula_units_Z 32
_cell_length_a 24.000000
_cell_length_b 9.000000
_cell_length_c 18.000000
_cell_angle_alpha 90.000000
_cell_angle_beta 30.000000
_cell_angle_gamma 90.000000
_cell_volume 1944.000000
_symmetry_space_group_name_H-M "P 2/M"
_symmetry_group_IT_number 10
_symmetry_cell_setting 'monoclinic'
loop_
_space_group_symop_operation_xyz
x,y,z
-x,y,-z
-x,-y,-z
x,-y,z
loop_
_atom_site_type_symbol
_atom_site_label
_atom_site_fract_x
_atom_site_fract_y
_atom_site_fract_z
Si Si1 0.374997 0.179360 0.995961
Si Si2 0.833605 0.819249 0.864445
Si Si3 0.915057 0.818123 0.927961
Si Si4 0.172764 0.181282 0.649237
Si Si5 0.369205 0.179192 0.308020
Si Si6 0.050659 0.828873 0.523868
Si Si7 0.709726 0.677669 0.753845
Si Si8 0.865920 0.170349 0.143554
O O1 0.276944 0.227115 0.052264
O O2 0.348877 0.254320 0.105345
O O3 0.366460 0.000000 0.015185
O O4 0.500978 0.211349 0.823129
O O5 0.845731 0.773670 0.935826
O O6 0.949016 0.773070 0.691801
O O7 0.833864 0.000000 0.861575
O O8 0.046561 0.775599 0.770107
O O9 0.915924 0.000000 0.930730
O O10 0.859115 0.762176 0.069121
O O11 0.274033 0.225068 0.477925
O O12 0.183634 0.234009 0.722692
O O13 0.172736 0.000000 0.651068
O O14 0.344357 0.256856 0.258384
O O15 0.359696 0.000000 0.310559
O O16 0.161816 0.732503 0.395931
O O17 0.000000 0.833913 0.500000
O O18 0.079100 0.000000 0.513170
O O19 0.703016 0.500000 0.763083
O O20 0.824819 0.000000 0.186519
O O21 0.000000 0.163912 0.000000
#
# Coordination Sequence:
#
# PCOD9155157 Si02
#       8
#     4   4   4   4   4   4   4   4
#     4  10  20  35  50  65  87 122 166 201 232 273
#     4   9  16  27  45  67  91 121 157 192 225 270
#     4   8  12  19  36  63  93 120 145 179 228 283
#     4   8  13  23  40  64  90 116 150 189 230 274
#     4  10  20  33  51  68  87 120 163 204 233 271
#     4  10  18  32  53  71  92 122 155 190 227 273
#     4  12  24  35  49  69  95 120 151 197 245 287
#     4   7  10  17  32  58  92 121 141 173 226 281
#
# _framework density 16.460905
#
# number of rings (size 3 to 8) (size 9 to 14) (size 15 to 20)
#    0.000    2.750    1.250    3.750    0.000    4.250 
#    0.000    0.000    0.000    0.750    0.000    5.250 
#    0.000   13.500    0.000    2.250    0.000    2.625 
#
# Total GULP energy -178180.235746 kJ/mol
# GULP energy per Si atom -5568.132367 kJ/mol
# Density = 1.642344 g / cm^3
# Si number density = 16.460905 Si / 1000 Ang^3
#
#
#
# Elastic Constant Matrix: (Units=GPa)
#
#
# Indices 1 2 3 4 5 6 
#
# 1 103.9747 14.7299 73.4091 0.0000 21.3240 0.0000
# 2 14.7299 18.6364 20.1793 0.0000 -1.1506 0.0000
# 3 73.4091 20.1793 116.7507 0.0000 8.6961 0.0000
# 4 0.0000 0.0000 0.0000 5.0565 0.0000 -2.0214
# 5 21.3240 -1.1506 8.6961 0.0000 27.7083 0.0000
# 6 0.0000 0.0000 0.0000 -2.0214 0.0000 1.6410
#
#
#
# Elastic Compliance Matrix: (Units=1/GPa)
#
#
# Indices 1 2 3 4 5 6 
#
# 1 0.020983 -0.005069 -0.011364 0.000000 -0.012792 0.000000
# 2 -0.005069 0.068391 -0.009354 0.000000 0.009677 0.000000
# 3 -0.011364 -0.009354 0.017105 0.000000 0.002989 0.000000
# 4 0.000000 0.000000 0.000000 0.389606 0.000000 0.479901
# 5 -0.012792 0.009677 0.002989 0.000000 0.045399 0.000000
# 6 0.000000 0.000000 0.000000 0.479901 0.000000 1.200496
#
#
# Mechanical properties :
#
#
# Convention : Reuss Voigt Hill
#
# Bulk Modulus (GPa) = 18.21382 50.66650 34.44016
# Shear Modulus (GPa) = 2.75960 15.61740 9.18850
#
# Velocity S-wave (km/s) = 1.29619 3.08353 2.36519
# Velocity P-wave (km/s) = 3.65090 6.59729 5.33167
#
# Compressibility (1/GPa) = 0.05490336
#
# Stress axis : x y z
#
# Youngs Moduli (GPa) = 47.65774 14.62184 58.46235
#
# Poissons Ratio (x) = 0.07412 0.66439
# Poissons Ratio (y) = 0.24157 0.54688
# Poissons Ratio (z) = 0.54160 0.13678
#
# Static dielectric constant tensor:
#      x y z
#    x 1.584140 0.000000 0.022580 
#    y 0.000000 1.538260 0.000000 
#    z 0.022580 0.000000 1.560090 
# 
# From -- ./inp_files/79915.got.cif
#   From: 2010.05.17/outbox.ucp.g08.bks.cvg/sg10_40_cif.got.tgz:79915.got - 2010.06.11 11:31:16.
