data_PCOD9155619
_publ_section_title
;
Structure prediction by ZEFSAII (Michael W. Deem and Ramdas Pophale) SiO2 
 PCOD9155619
Probable space group: P 2/M
;
_chemical_formula_sum "Si O2"
_cell_formula_units_Z 32
_cell_length_a 27.000000
_cell_length_b 9.000000
_cell_length_c 21.000000
_cell_angle_alpha 90.000000
_cell_angle_beta 160.000000
_cell_angle_gamma 90.000000
_cell_volume 1745.328791
_symmetry_space_group_name_H-M "P 2/M"
_symmetry_group_IT_number 10
_symmetry_cell_setting 'monoclinic'
loop_
_space_group_symop_operation_xyz
x,y,z
-x,y,-z
-x,-y,-z
x,-y,z
loop_
_atom_site_type_symbol
_atom_site_label
_atom_site_fract_x
_atom_site_fract_y
_atom_site_fract_z
Si Si1 0.150605 0.822399 0.347189
Si Si2 0.666046 0.821755 0.681150
Si Si3 0.836401 0.180135 0.012863
Si Si4 0.161765 0.328048 0.224155
Si Si5 0.558054 0.826701 0.000215
Si Si6 0.440125 0.325508 0.734750
Si Si7 0.699407 0.180514 0.980563
Si Si8 0.144827 0.176206 0.702732
O O1 0.153481 0.768723 0.277818
O O2 0.282088 0.740523 0.538594
O O3 0.002747 0.779764 0.203982
O O4 0.165640 0.000000 0.367846
O O5 0.500000 0.796814 0.500000
O O6 0.726017 0.738932 0.691497
O O7 0.685946 0.000000 0.695778
O O8 0.755891 0.771707 0.851542
O O9 0.827763 0.000000 0.003374
O O10 0.764186 0.229936 0.991438
O O11 0.198475 0.500000 0.282929
O O12 0.000000 0.324567 0.000000
O O13 0.495456 0.720171 0.871131
O O14 0.521964 0.000000 0.941124
O O15 0.500000 0.795377 0.000000
O O16 0.729962 0.812748 0.198692
O O17 0.444767 0.500000 0.730566
O O18 0.542295 0.245253 0.806310
O O19 0.691211 0.000000 0.971512
O O20 0.797235 0.230626 0.159072
O O21 0.000000 0.245334 0.500000
O O22 0.119530 0.000000 0.683043
#
# Coordination Sequence:
#
# PCOD9155619 Si02
#       8
#     4   4   4   4   4   4   4   4
#     4  11  22  38  61  84 110 147 192 238 282 332
#     4  10  21  37  58  85 111 142 188 235 281 333
#     4   9  19  35  56  83 109 138 184 238 284 327
#     4  11  23  39  58  83 116 151 185 228 285 342
#     4   9  18  34  57  83 110 144 189 234 275 324
#     4  11  23  38  55  82 118 154 190 227 280 340
#     4   9  18  35  57  81 110 145 187 232 278 330
#     4   8  14  26  48  78 107 136 172 221 273 318
#
# _framework density 18.334654
#
# number of rings (size 3 to 8) (size 9 to 14) (size 15 to 20)
#    0.000    2.250    1.250    2.625    1.750    2.000 
#    0.000    5.625    0.000    6.000    0.000    0.000 
#    0.000    0.000    0.000    0.000    0.000    0.000 
#
# Total GULP energy -178425.410593 kJ/mol
# GULP energy per Si atom -5575.794081 kJ/mol
# Density = 1.829292 g / cm^3
# Si number density = 18.334654 Si / 1000 Ang^3
#
#
#
# Elastic Constant Matrix: (Units=GPa)
#
#
# Indices 1 2 3 4 5 6 
#
# 1 81.6307 39.6643 1.9143 0.0000 23.1219 0.0000
# 2 39.6643 44.6275 24.4831 0.0000 6.0694 0.0000
# 3 1.9143 24.4831 57.7684 0.0000 7.7207 0.0000
# 4 0.0000 0.0000 0.0000 14.3275 0.0000 -25.6173
# 5 23.1219 6.0694 7.7207 0.0000 8.2460 0.0000
# 6 0.0000 0.0000 0.0000 -25.6173 0.0000 40.0467
#
#
#
# Elastic Compliance Matrix: (Units=1/GPa)
#
#
# Indices 1 2 3 4 5 6 
#
# 1 -0.055491 0.050171 -0.040331 0.000000 0.156431 0.000000
# 2 0.050171 -0.015209 0.025248 0.000000 -0.153124 0.000000
# 3 -0.040331 0.025248 -0.005354 0.000000 0.099518 0.000000
# 4 0.000000 0.000000 0.000000 -0.485540 0.000000 -0.310593
# 5 0.156431 -0.153124 0.099518 0.000000 -0.297837 0.000000
# 6 0.000000 0.000000 0.000000 -0.310593 0.000000 -0.173711
#
#
# Mechanical properties :
#
#
# Convention : Reuss Voigt Hill
#
# Bulk Modulus (GPa) = -170.09749 35.12776 -67.48487
# Shear Modulus (GPa) = -4.52375 20.38838 7.93232
#
# Velocity S-wave (km/s) = -1.57248 3.33830 2.08226
# Velocity P-wave (km/s) = 9.81183 5.83608 5.57729
#
# Compressibility (1/GPa) = -0.00587898
#
# Stress axis : x y z
#
# Youngs Moduli (GPa) = -18.02092 -65.74879 -186.77328
#
# Poissons Ratio (x) = 3.29865 -7.53277
# Poissons Ratio (y) = 0.90412 4.71571
# Poissons Ratio (z) = -0.72680 1.66004
#
# Static dielectric constant tensor:
#      x y z
#    x 1.595990 0.000000 -0.005980 
#    y 0.000000 1.613740 0.000000 
#    z -0.005980 0.000000 1.656000 
# 
# From -- ./inp_files/87062.got.cif
#   From: 2010.05.17/outbox.ucp.g08.bks.cvg/sg10_44_cif.got.tgz:87062.got - 2010.06.11 11:31:16.
