data_PCOD9155504
_publ_section_title
;
Structure prediction by ZEFSAII (Michael W. Deem and Ramdas Pophale) SiO2 
 PCOD9155504
Probable space group: P 2/M
;
_chemical_formula_sum "Si O2"
_cell_formula_units_Z 28
_cell_length_a 15.000000
_cell_length_b 9.000000
_cell_length_c 15.000000
_cell_angle_alpha 90.000000
_cell_angle_beta 50.000000
_cell_angle_gamma 90.000000
_cell_volume 1551.239997
_symmetry_space_group_name_H-M "P 2/M"
_symmetry_group_IT_number 10
_symmetry_cell_setting 'monoclinic'
loop_
_space_group_symop_operation_xyz
x,y,z
-x,y,-z
-x,-y,-z
x,-y,z
loop_
_atom_site_type_symbol
_atom_site_label
_atom_site_fract_x
_atom_site_fract_y
_atom_site_fract_z
Si Si1 0.434379 0.673456 0.284319
Si Si2 0.311144 0.322900 0.845183
Si Si3 0.107630 0.821677 0.868101
Si Si4 0.177888 0.674160 0.469810
Si Si5 0.293329 0.176246 0.234984
Si Si6 0.226306 0.321760 0.099548
Si Si7 0.028218 0.821036 0.721091
O O1 0.444651 0.500000 0.249029
O O2 0.553283 0.714290 0.255422
O O3 0.313105 0.683316 0.416185
O O4 0.408088 0.776299 0.216238
O O5 0.296692 0.500000 0.844034
O O6 0.224592 0.242274 0.834417
O O7 0.277946 0.286311 0.969020
O O8 0.089154 0.782811 0.776431
O O9 0.109577 0.000000 0.872304
O O10 0.000000 0.769588 0.000000
O O11 0.147719 0.500000 0.479433
O O12 0.191248 0.751827 0.363808
O O13 0.095725 0.755492 0.592553
O O14 0.295200 0.251282 0.137728
O O15 0.279225 0.000000 0.238868
O O16 0.221801 0.500000 0.111337
O O17 0.098737 0.250884 0.190266
O O18 0.020130 0.000000 0.719213
#
# Coordination Sequence:
#
# PCOD9155504 Si02
#       7
#     4   4   4   4   4   4   4
#     4   8  18  38  58  80 112 148 186 232 278 321
#     4  10  21  37  60  85 112 147 191 234 274 329
#     4  10  21  38  57  82 116 150 180 225 285 335
#     4   9  19  38  60  80 112 149 186 231 278 327
#     4  10  20  36  57  83 114 149 188 227 276 334
#     4  11  22  35  55  85 115 149 189 230 280 331
#     4  11  22  37  58  83 115 147 186 232 279 334
#
# _framework density 18.050076000000001
#
# number of rings (size 3 to 8) (size 9 to 14) (size 15 to 20)
#    0.857    1.286    1.429    2.143    0.000    3.714 
#    0.000    6.429    0.000    4.286    0.000    0.000 
#    0.000    0.000    0.000    0.000    0.000    0.000 
#
# Total GULP energy -156047.530058 kJ/mol
# GULP energy per Si atom -5573.126074 kJ/mol
# Density = 1.800899 g / cm^3
# Si number density = 18.050076 Si / 1000 Ang^3
#
#
#
# Elastic Constant Matrix: (Units=GPa)
#
#
# Indices 1 2 3 4 5 6 
#
# 1 37.8407 7.5449 -18.7885 0.0000 0.0243 0.0000
# 2 7.5449 56.0875 -4.3308 0.0000 -1.8775 0.0000
# 3 -18.7885 -4.3308 -0.3698 0.0000 -11.3770 0.0000
# 4 0.0000 0.0000 0.0000 10.2867 0.0000 14.3198
# 5 0.0243 -1.8775 -11.3770 0.0000 21.1504 0.0000
# 6 0.0000 0.0000 0.0000 14.3198 0.0000 12.6675
#
#
#
# Elastic Compliance Matrix: (Units=1/GPa)
#
#
# Indices 1 2 3 4 5 6 
#
# 1 0.011992 -0.004572 -0.030931 0.000000 -0.017058 0.000000
# 2 -0.004572 0.018323 -0.001850 0.000000 0.000636 0.000000
# 3 -0.030931 -0.001850 -0.063083 0.000000 -0.034061 0.000000
# 4 0.000000 0.000000 0.000000 -0.169465 0.000000 0.191570
# 5 -0.017058 0.000636 -0.034061 0.000000 0.029035 0.000000
# 6 0.000000 0.000000 0.000000 0.191570 0.000000 -0.137615
#
#
# Mechanical properties :
#
#
# Convention : Reuss Voigt Hill
#
# Bulk Modulus (GPa) = -9.30445 6.93439 -1.18503
# Shear Modulus (GPa) = -18.38694 16.09643 -1.14526
#
# Velocity S-wave (km/s) = -3.19511 2.98948 -0.79741
# Velocity P-wave (km/s) = 4.33332 3.97066 1.22710
#
# Compressibility (1/GPa) = -0.10747549
#
# Stress axis : x y z
#
# Youngs Moduli (GPa) = 83.39193 54.57684 -15.85222
#
# Poissons Ratio (x) = 0.24955 -0.49032
# Poissons Ratio (y) = 0.38131 -0.02933
# Poissons Ratio (z) = 2.57938 0.10099
#
# Static dielectric constant tensor:
#      x y z
#    x 1.633840 0.000000 -0.019900 
#    y 0.000000 1.602590 0.000000 
#    z -0.019900 0.000000 1.600800 
# 
# From -- ./inp_files/66404.got.cif
#   From: 2010.05.17/outbox.ucp.g08.bks.cvg/sg10_34_cif.got.tgz:66404.got - 2010.06.11 11:31:16.
