data_PCOD9155449
_publ_section_title
;
Structure prediction by ZEFSAII (Michael W. Deem and Ramdas Pophale) SiO2 
 PCOD9155449
Probable space group: P 2/M
;
_chemical_formula_sum "Si O2"
_cell_formula_units_Z 28
_cell_length_a 15.000000
_cell_length_b 9.000000
_cell_length_c 12.000000
_cell_angle_alpha 90.000000
_cell_angle_beta 60.000000
_cell_angle_gamma 90.000000
_cell_volume 1402.961154
_symmetry_space_group_name_H-M "P 2/M"
_symmetry_group_IT_number 10
_symmetry_cell_setting 'monoclinic'
loop_
_space_group_symop_operation_xyz
x,y,z
-x,y,-z
-x,-y,-z
x,-y,z
loop_
_atom_site_type_symbol
_atom_site_label
_atom_site_fract_x
_atom_site_fract_y
_atom_site_fract_z
Si Si1 0.828075 0.321117 0.294765
Si Si2 0.763535 0.172174 0.764706
Si Si3 0.606628 0.177407 0.496348
Si Si4 0.584863 0.676225 0.745551
Si Si5 0.054151 0.320875 0.225858
Si Si6 0.380626 0.169678 0.925799
Si Si7 0.826250 0.179562 0.058610
O O1 0.819483 0.500000 0.291865
O O2 0.716190 0.255101 0.398189
O O3 0.854159 0.247663 0.159580
O O4 0.930943 0.289782 0.305023
O O5 0.693078 0.275143 0.731692
O O6 0.874168 0.242793 0.725441
O O7 0.772993 0.000000 0.720839
O O8 0.692810 0.168782 0.920394
O O9 0.500000 0.218428 0.500000
O O10 0.581380 0.228263 0.636184
O O11 0.620656 0.000000 0.475472
O O12 0.582707 0.500000 0.728946
O O13 0.480063 0.726653 0.874226
O O14 0.067498 0.500000 0.220418
O O15 0.104566 0.255765 0.080226
O O16 0.296317 0.211129 0.884477
O O17 0.416725 0.000000 0.884828
O O18 0.838329 0.000000 0.046161
#
# Coordination Sequence:
#
# PCOD9155449 Si02
#       7
#     4   4   4   4   4   4   4
#     4  11  23  38  58  85 117 152 190 237 290 339
#     4  10  21  38  60  85 116 153 192 235 282 337
#     4  11  25  44  64  85 112 148 191 237 282 334
#     4  12  24  37  58  86 116 151 190 235 287 341
#     4  10  21  37  57  85 120 152 187 236 289 338
#     4   9  19  35  55  83 118 153 190 234 282 333
#     4  10  20  34  56  86 119 156 195 234 280 338
#
# _framework density 19.957787
#
# number of rings (size 3 to 8) (size 9 to 14) (size 15 to 20)
#    0.000    1.571    0.000    6.000    0.000   13.714 
#    0.000    0.714    0.000    4.286    0.000    0.000 
#    0.000    0.000    0.000    0.000    0.000    0.000 
#
# Total GULP energy -156291.033668 kJ/mol
# GULP energy per Si atom -5581.822631 kJ/mol
# Density = 1.991236 g / cm^3
# Si number density = 19.957787 Si / 1000 Ang^3
#
#
#
# Elastic Constant Matrix: (Units=GPa)
#
#
# Indices 1 2 3 4 5 6 
#
# 1 140.3814 24.1042 15.6347 0.0000 -20.7117 0.0000
# 2 24.1042 46.6277 -2.4908 0.0000 -22.6631 0.0000
# 3 15.6347 -2.4908 22.1253 0.0000 -14.1760 0.0000
# 4 0.0000 0.0000 0.0000 26.0757 0.0000 -7.5491
# 5 -20.7117 -22.6631 -14.1760 0.0000 33.9346 0.0000
# 6 0.0000 0.0000 0.0000 -7.5491 0.0000 39.1215
#
#
#
# Elastic Compliance Matrix: (Units=1/GPa)
#
#
# Indices 1 2 3 4 5 6 
#
# 1 0.008754 -0.005957 -0.008169 0.000000 -0.002048 0.000000
# 2 -0.005957 0.048171 0.038118 0.000000 0.044458 0.000000
# 3 -0.008169 0.038118 0.093367 0.000000 0.059475 0.000000
# 4 0.000000 0.000000 0.000000 0.040619 0.000000 0.007838
# 5 -0.002048 0.044458 0.059475 0.000000 0.082755 0.000000
# 6 0.000000 0.000000 0.000000 0.007838 0.000000 0.027074
#
#
# Mechanical properties :
#
#
# Convention : Reuss Voigt Hill
#
# Bulk Modulus (GPa) = 5.04349 31.51449 18.27899
# Shear Modulus (GPa) = 15.68145 31.28544 23.48345
#
# Velocity S-wave (km/s) = 2.80613 3.96356 3.43396
# Velocity P-wave (km/s) = 3.60995 6.06393 4.99014
#
# Compressibility (1/GPa) = 0.19827542
#
# Stress axis : x y z
#
# Youngs Moduli (GPa) = 114.23431 20.75940 10.71042
#
# Poissons Ratio (x) = 0.12367 0.08749
# Poissons Ratio (y) = 0.68051 -0.40826
# Poissons Ratio (z) = 0.93315 -0.79130
#
# Static dielectric constant tensor:
#      x y z
#    x 1.795540 0.000000 0.055440 
#    y 0.000000 1.662630 0.000000 
#    z 0.055440 0.000000 1.739460 
# 
# From -- ./inp_files/49540.got.cif
#   From: 2010.05.17/outbox.ucp.g08.bks.cvg/sg10_25_cif.got.tgz:49540.got - 2010.06.11 11:31:16.
