data_PCOD9155601
_publ_section_title
;
Structure prediction by ZEFSAII (Michael W. Deem and Ramdas Pophale) SiO2 
 PCOD9155601
Probable space group: P 2/M
;
_chemical_formula_sum "Si O2"
_cell_formula_units_Z 32
_cell_length_a 12.000000
_cell_length_b 9.000000
_cell_length_c 15.000000
_cell_angle_alpha 90.000000
_cell_angle_beta 90.000000
_cell_angle_gamma 90.000000
_cell_volume 1620.000000
_symmetry_space_group_name_H-M "P 2/M"
_symmetry_group_IT_number 10
_symmetry_cell_setting 'monoclinic'
loop_
_space_group_symop_operation_xyz
x,y,z
-x,y,-z
-x,-y,-z
x,-y,z
loop_
_atom_site_type_symbol
_atom_site_label
_atom_site_fract_x
_atom_site_fract_y
_atom_site_fract_z
Si Si1 0.930021 0.325890 0.261802
Si Si2 0.540097 0.174898 0.668943
Si Si3 0.668816 0.180500 0.042089
Si Si4 0.079985 0.825439 0.915728
Si Si5 0.931460 0.823440 0.586091
Si Si6 0.295205 0.671066 0.453690
Si Si7 0.447477 0.180963 0.137962
Si Si8 0.312011 0.328536 0.665742
O O1 0.946397 0.500000 0.278147
O O2 0.961407 0.276631 0.163556
O O3 0.799540 0.293652 0.280292
O O4 0.001845 0.231295 0.329392
O O5 0.592658 0.261066 0.586602
O O6 0.590827 0.225754 0.763892
O O7 0.410934 0.214144 0.680665
O O8 0.556576 0.000000 0.656478
O O9 0.794103 0.223662 0.062538
O O10 0.572754 0.230095 0.110868
O O11 0.666214 0.000000 0.042579
O O12 0.630443 0.227701 0.943507
O O13 0.083191 0.000000 0.888262
O O14 0.000000 0.815036 0.000000
O O15 0.808036 0.760115 0.585395
O O16 0.000000 0.768003 0.500000
O O17 0.926582 0.000000 0.582358
O O18 0.288323 0.500000 0.427864
O O19 0.287469 0.679703 0.560252
O O20 0.449582 0.000000 0.139154
O O21 0.345883 0.500000 0.685109
#
# Coordination Sequence:
#
# PCOD9155601 Si02
#       8
#     4   4   4   4   4   4   4   4
#     4  11  23  40  63  88 117 159 203 244 298 365
#     4  11  22  34  54  87 121 150 192 247 298 348
#     4   8  14  29  52  75 104 143 185 228 284 342
#     4  10  21  36  56  85 118 152 192 244 302 354
#     4  11  23  40  64  91 117 146 193 254 303 350
#     4  11  23  40  59  80 115 159 198 237 291 362
#     4   8  15  28  49  77 106 140 182 232 284 338
#     4  10  22  39  58  80 112 156 200 240 292 359
#
# _framework density 19.753086
#
# number of rings (size 3 to 8) (size 9 to 14) (size 15 to 20)
#    0.000    2.000    1.250    3.375    0.000    6.250 
#    0.000    2.500    0.000    1.500    0.000    6.125 
#    0.000    0.000    0.000    0.000    0.000    0.000 
#
# Total GULP energy -178585.430315 kJ/mol
# GULP energy per Si atom -5580.794697 kJ/mol
# Density = 1.970813 g / cm^3
# Si number density = 19.753086 Si / 1000 Ang^3
#
#
#
# Elastic Constant Matrix: (Units=GPa)
#
#
# Indices 1 2 3 4 5 6 
#
# 1 7.2379 14.3338 20.3774 0.0000 16.9594 0.0000
# 2 14.3338 32.8503 23.5457 0.0000 -2.4460 0.0000
# 3 20.3774 23.5457 50.4869 0.0000 -10.4037 0.0000
# 4 0.0000 0.0000 0.0000 58.1891 0.0000 -10.7238
# 5 16.9594 -2.4460 -10.4037 0.0000 12.5806 0.0000
# 6 0.0000 0.0000 0.0000 -10.7238 0.0000 15.7461
#
#
#
# Elastic Compliance Matrix: (Units=1/GPa)
#
#
# Indices 1 2 3 4 5 6 
#
# 1 -0.022788 -0.000051 0.018744 0.000000 0.046211 0.000000
# 2 -0.000051 0.046916 -0.024068 0.000000 -0.010713 0.000000
# 3 0.018744 -0.024068 0.020848 0.000000 -0.012707 0.000000
# 4 0.000000 0.000000 0.000000 0.019652 0.000000 0.013384
# 5 0.046211 -0.010713 -0.012707 0.000000 0.004601 0.000000
# 6 0.000000 0.000000 0.000000 0.013384 0.000000 0.072623
#
#
# Mechanical properties :
#
#
# Convention : Reuss Voigt Hill
#
# Bulk Modulus (GPa) = 29.21675 23.00988 26.11332
# Shear Modulus (GPa) = 30.48625 19.45770 24.97197
#
# Velocity S-wave (km/s) = 3.93283 3.14195 3.55942
# Velocity P-wave (km/s) = 5.95365 4.98362 5.49010
#
# Compressibility (1/GPa) = 0.03422694
#
# Stress axis : x y z
#
# Youngs Moduli (GPa) = -43.88192 21.31453 47.96714
#
# Poissons Ratio (x) = 0.00108 -0.89910
# Poissons Ratio (y) = -0.00223 1.15446
# Poissons Ratio (z) = 0.82253 0.51299
#
# Static dielectric constant tensor:
#      x y z
#    x 1.686430 0.000000 0.014070 
#    y 0.000000 1.660120 0.000000 
#    z 0.014070 0.000000 1.710390 
# 
# From -- ./inp_files/63839.got.cif
#   From: 2010.05.17/outbox.ucp.g08.bks.cvg/sg10_32_cif.got.tgz:63839.got - 2010.06.11 11:31:16.
