data_PCOD9155828
_publ_section_title
;
Structure prediction by ZEFSAII (Michael W. Deem and Ramdas Pophale) SiO2 
 PCOD9155828
Probable space group: P 21/M
;
_chemical_formula_sum "Si O2"
_cell_formula_units_Z 32
_cell_length_a 14.776720
_cell_length_b 20.431095
_cell_length_c 8.697779
_cell_angle_alpha 90.000000
_cell_angle_beta 140.713768
_cell_angle_gamma 90.000000
_cell_volume 1662.706008
_symmetry_space_group_name_H-M "P 21/M"
_symmetry_group_IT_number 11
_symmetry_cell_setting 'monoclinic'
loop_
_space_group_symop_operation_xyz
x,y,z
-x,1/2+y,-z
-x,-y,-z
x,1/2-y,z
loop_
_atom_site_type_symbol
_atom_site_label
_atom_site_fract_x
_atom_site_fract_y
_atom_site_fract_z
Si Si1 0.203225 0.942012 0.948044
Si Si2 0.073235 0.087579 0.243623
Si Si3 0.199766 0.414192 0.089656
Si Si4 0.250506 0.514562 0.682365
Si Si5 0.477364 0.416692 0.654629
Si Si6 0.666724 0.824124 0.952194
Si Si7 0.321509 0.323142 0.665314
Si Si8 0.491746 0.941054 0.804155
O O1 0.174603 0.951063 0.727304
O O2 0.080979 0.907222 0.884066
O O3 0.357986 0.909083 0.171726
O O4 0.209239 0.016057 0.020177
O O5 0.083144 0.080137 0.072147
O O6 0.170777 0.150083 0.407752
O O7 0.151145 0.027145 0.437251
O O8 0.349397 0.399804 0.372885
O O9 0.200093 0.357650 0.961510
O O10 0.350059 0.564814 0.720031
O O11 0.369247 0.465659 0.915174
O O12 0.439297 0.373418 0.754216
O O13 0.461091 0.494559 0.662411
O O14 0.640367 0.750000 0.862951
O O15 0.536122 0.876220 0.773153
O O16 0.688383 0.821613 0.164079
O O17 0.352323 0.250000 0.649924
#
# Coordination Sequence:
#
# PCOD9155828 Si02
#       8
#     4   4   4   4   4   4   4   4
#     4  11  21  32  54  85 113 141 180 232 280 327
#     4  11  21  35  52  82 112 145 185 222 284 327
#     4  11  21  34  51  78 119 148 186 224 273 334
#     4  10  17  31  57  81 110 138 178 232 285 319
#     4  10  20  35  60  83 111 146 186 235 281 323
#     4  11  21  33  55  84 110 143 185 233 283 330
#     4  10  20  38  60  81 108 144 189 232 280 343
#     4  10  16  33  57  84 109 136 185 240 276 318
#
# _framework density 19.245736000000001
#
# number of rings (size 3 to 8) (size 9 to 14) (size 15 to 20)
#    0.000    1.500    6.250    2.625    0.000    2.000 
#    0.000    0.625    0.000    0.750    0.000    6.125 
#    0.000    0.000    0.000    0.000    0.000    0.000 
#
# Total GULP energy -178384.032454 kJ/mol
# GULP energy per Si atom -5574.501014 kJ/mol
# Density = 1.920193 g / cm^3
# Si number density = 19.245736 Si / 1000 Ang^3
#
#
#
# Elastic Constant Matrix: (Units=GPa)
#
#
# Indices 1 2 3 4 5 6 
#
# 1 161.8906 31.8118 13.5045 0.0000 11.8246 0.0000
# 2 31.8118 75.7705 -2.2885 0.0000 5.3844 0.0000
# 3 13.5045 -2.2885 15.4217 0.0000 5.3574 0.0000
# 4 0.0000 0.0000 0.0000 14.6920 0.0000 1.0519
# 5 11.8246 5.3844 5.3574 0.0000 27.5952 0.0000
# 6 0.0000 0.0000 0.0000 1.0519 0.0000 12.1262
#
#
#
# Elastic Compliance Matrix: (Units=1/GPa)
#
#
# Indices 1 2 3 4 5 6 
#
# 1 0.007454 -0.003236 -0.006560 0.000000 -0.001289 0.000000
# 2 -0.003236 0.014928 0.005983 0.000000 -0.002688 0.000000
# 3 -0.006560 0.005983 0.076033 0.000000 -0.013118 0.000000
# 4 0.000000 0.000000 0.000000 0.068490 0.000000 -0.005941
# 5 -0.001289 -0.002688 -0.013118 0.000000 0.039862 0.000000
# 6 0.000000 0.000000 0.000000 -0.005941 0.000000 0.082982
#
#
# Mechanical properties :
#
#
# Convention : Reuss Voigt Hill
#
# Bulk Modulus (GPa) = 11.01460 37.68206 24.34833
# Shear Modulus (GPa) = 15.26075 24.88634 20.07354
#
# Velocity S-wave (km/s) = 2.81898 3.59985 3.23307
# Velocity P-wave (km/s) = 4.04117 6.07458 5.15905
#
# Compressibility (1/GPa) = 0.09078856
#
# Stress axis : x y z
#
# Youngs Moduli (GPa) = 134.15067 66.98763 13.15221
#
# Poissons Ratio (x) = 0.21678 0.08628
# Poissons Ratio (y) = 0.43414 -0.07869
# Poissons Ratio (z) = 0.88003 -0.40077
#
# Static dielectric constant tensor:
#      x y z
#    x 1.766830 0.000000 -0.057400 
#    y 0.000000 1.685480 0.000000 
#    z -0.057400 0.000000 1.732950 
# 
# From -- ./inp_files/23099.got.cif
#   From: 2010.05.17/outbox.cif.g08.bks.cpg/sg11_12_cif.got.tgz:23099.got - 2010.06.03 12:22:45.
