data_PCOD9155679
_publ_section_title
;
Structure prediction by ZEFSAII (Michael W. Deem and Ramdas Pophale) SiO2 
 PCOD9155679
Probable space group: P 2/M
;
_chemical_formula_sum "Si O2"
_cell_formula_units_Z 28
_cell_length_a 15.000000
_cell_length_b 9.000000
_cell_length_c 21.000000
_cell_angle_alpha 90.000000
_cell_angle_beta 150.000000
_cell_angle_gamma 90.000000
_cell_volume 1417.500000
_symmetry_space_group_name_H-M "P 2/M"
_symmetry_group_IT_number 10
_symmetry_cell_setting 'monoclinic'
loop_
_space_group_symop_operation_xyz
x,y,z
-x,y,-z
-x,-y,-z
x,-y,z
loop_
_atom_site_type_symbol
_atom_site_label
_atom_site_fract_x
_atom_site_fract_y
_atom_site_fract_z
Si Si1 0.298661 0.675593 0.896123
Si Si2 0.683144 0.678714 0.573817
Si Si3 0.489726 0.326850 0.664958
Si Si4 0.866968 0.831537 0.320517
Si Si5 0.821398 0.831011 0.930180
Si Si6 0.057340 0.179594 0.853929
Si Si7 0.264411 0.831345 0.622840
O O1 0.299411 0.500000 0.910628
O O2 0.176274 0.713180 0.759575
O O3 0.207379 0.763767 0.897397
O O4 0.500000 0.719950 0.000000
O O5 0.500000 0.705941 0.500000
O O6 0.715267 0.500000 0.593643
O O7 0.627348 0.728771 0.467711
O O8 0.862318 0.755057 0.712596
O O9 0.518650 0.500000 0.671277
O O10 0.676999 0.252013 0.797478
O O11 0.378421 0.292209 0.659217
O O12 0.744876 0.812576 0.307275
O O13 0.066406 0.822574 0.471083
O O14 0.840889 0.000000 0.279199
O O15 0.756976 0.000000 0.900051
O O16 0.875957 0.772701 0.034126
O O17 0.000000 0.834196 0.000000
O O18 0.044087 0.000000 0.844902
O O19 0.328523 0.000000 0.649162
#
# Coordination Sequence:
#
# PCOD9155679 Si02
#       7
#     4   4   4   4   4   4   4
#     4  11  25  41  58  84 122 164 205 252 305 362
#     4  10  22  41  64  92 127 164 203 252 311 373
#     4  11  23  36  58  90 120 155 200 243 297 363
#     4   9  19  37  60  84 113 151 197 244 293 348
#     4  10  23  43  64  89 122 159 202 253 308 364
#     4  11  24  41  65  94 123 164 212 258 311 368
#     4   9  19  36  58  85 116 150 189 242 299 349
#
# _framework density 19.753086
#
# number of rings (size 3 to 8) (size 9 to 14) (size 15 to 20)
#    0.000    1.857    0.000    3.857    2.000    7.429 
#    0.000    1.429    0.000    0.000    0.000    0.000 
#    0.000    0.000    0.000    0.000    0.000    0.000 
#
# Total GULP energy -156249.301793 kJ/mol
# GULP energy per Si atom -5580.332207 kJ/mol
# Density = 1.970813 g / cm^3
# Si number density = 19.753086 Si / 1000 Ang^3
#
#
#
# Elastic Constant Matrix: (Units=GPa)
#
#
# Indices 1 2 3 4 5 6 
#
# 1 68.3485 7.0157 9.5913 0.0000 0.0482 0.0000
# 2 7.0157 36.3780 10.8830 0.0000 -1.5152 0.0000
# 3 9.5913 10.8830 41.6744 0.0000 -6.4537 0.0000
# 4 0.0000 0.0000 0.0000 39.7168 0.0000 -0.2806
# 5 0.0482 -1.5152 -6.4537 0.0000 33.8590 0.0000
# 6 0.0000 0.0000 0.0000 -0.2806 0.0000 31.4107
#
#
#
# Elastic Compliance Matrix: (Units=1/GPa)
#
#
# Indices 1 2 3 4 5 6 
#
# 1 0.015275 -0.002051 -0.003089 0.000000 -0.000702 0.000000
# 2 -0.002051 0.030095 -0.007396 0.000000 -0.000060 0.000000
# 3 -0.003089 -0.007396 0.027396 0.000000 0.004895 0.000000
# 4 0.000000 0.000000 0.000000 0.025180 0.000000 0.000225
# 5 -0.000702 -0.000060 0.004895 0.000000 0.030466 0.000000
# 6 0.000000 0.000000 0.000000 0.000225 0.000000 0.031838
#
#
# Mechanical properties :
#
#
# Convention : Reuss Voigt Hill
#
# Bulk Modulus (GPa) = 20.96706 22.37567 21.67137
# Shear Modulus (GPa) = 24.84836 28.92469 26.88652
#
# Velocity S-wave (km/s) = 3.55060 3.83078 3.69335
# Velocity P-wave (km/s) = 5.23896 5.56047 5.40211
#
# Compressibility (1/GPa) = 0.04769386
#
# Stress axis : x y z
#
# Youngs Moduli (GPa) = 65.46482 33.22812 36.50170
#
# Poissons Ratio (x) = 0.06816 0.11274
# Poissons Ratio (y) = 0.13428 0.26998
# Poissons Ratio (z) = 0.20220 0.24577
#
# Static dielectric constant tensor:
#      x y z
#    x 1.723490 0.000000 0.024320 
#    y 0.000000 1.696570 0.000000 
#    z 0.024320 0.000000 1.713370 
# 
# From -- ./inp_files/84978.got.cif
#   From: 2010.05.17/outbox.ucp.g08.bks.cvg/sg10_43_cif.got.tgz:84978.got - 2010.06.11 11:31:16.
