data_PCOD9155720
_publ_section_title
;
Structure prediction by ZEFSAII (Michael W. Deem and Ramdas Pophale) SiO2 
 PCOD9155720
Probable space group: P 2/M
;
_chemical_formula_sum "Si O2"
_cell_formula_units_Z 32
_cell_length_a 15.000000
_cell_length_b 9.000000
_cell_length_c 12.000000
_cell_angle_alpha 90.000000
_cell_angle_beta 90.000000
_cell_angle_gamma 90.000000
_cell_volume 1620.000000
_symmetry_space_group_name_H-M "P 2/M"
_symmetry_group_IT_number 10
_symmetry_cell_setting 'monoclinic'
loop_
_space_group_symop_operation_xyz
x,y,z
-x,y,-z
-x,-y,-z
x,-y,z
loop_
_atom_site_type_symbol
_atom_site_label
_atom_site_fract_x
_atom_site_fract_y
_atom_site_fract_z
Si Si1 0.497206 0.820292 0.365995
Si Si2 0.343060 0.321362 0.208409
Si Si3 0.172630 0.675367 0.565459
Si Si4 0.328837 0.677750 0.747773
Si Si5 0.181601 0.175969 0.330993
Si Si6 0.971855 0.176724 0.293543
Si Si7 0.721984 0.180132 0.014526
Si Si8 0.093165 0.325336 0.933680
O O1 0.500000 0.787320 0.500000
O O2 0.415733 0.748266 0.294522
O O3 0.586250 0.751940 0.311557
O O4 0.493861 0.000000 0.354572
O O5 0.353828 0.500000 0.201699
O O6 0.247086 0.275185 0.257698
O O7 0.339096 0.247132 0.085040
O O8 0.169299 0.500000 0.538424
O O9 0.244773 0.695758 0.664243
O O10 0.196611 0.771692 0.457665
O O11 0.078271 0.735511 0.609084
O O12 0.341994 0.500000 0.764429
O O13 0.310709 0.758421 0.865471
O O14 0.078071 0.199569 0.299226
O O15 0.201398 0.000000 0.317647
O O16 0.928975 0.240951 0.180841
O O17 0.955091 0.000000 0.302934
O O18 0.722411 0.000000 0.010637
O O19 0.823571 0.244464 0.006597
O O20 0.116194 0.500000 0.914276
O O21 0.000000 0.320714 0.000000
#
# Coordination Sequence:
#
# PCOD9155720 Si02
#       8
#     4   4   4   4   4   4   4   4
#     4  11  25  46  73 104 136 171 215 268 326 392
#     4  12  26  45  69  97 132 171 216 269 327 390
#     4  11  23  39  63  93 130 172 218 271 328 391
#     4  11  24  43  68  99 134 173 220 272 329 393
#     4  11  24  41  62  92 131 172 220 273 328 391
#     4  11  23  38  59  89 126 170 219 271 327 389
#     4  12  25  43  68  96 131 173 220 271 329 392
#     4  11  23  39  61  90 127 172 222 275 328 389
#
# _framework density 19.753086
#
# number of rings (size 3 to 8) (size 9 to 14) (size 15 to 20)
#    0.000    0.750    1.250    6.375    0.000   11.500 
#    0.000    2.500    0.000    0.000    0.000    0.000 
#    0.000    0.000    0.000    0.000    0.000    0.000 
#
# Total GULP energy -179042.184514 kJ/mol
# GULP energy per Si atom -5595.068266 kJ/mol
# Density = 1.970813 g / cm^3
# Si number density = 19.753086 Si / 1000 Ang^3
#
#
#
# Elastic Constant Matrix: (Units=GPa)
#
#
# Indices 1 2 3 4 5 6 
#
# 1 106.1497 58.4286 40.6268 0.0000 7.2505 0.0000
# 2 58.4286 158.2519 46.3095 0.0000 17.5054 0.0000
# 3 40.6268 46.3095 110.0102 0.0000 19.6532 0.0000
# 4 0.0000 0.0000 0.0000 31.2340 0.0000 -0.3915
# 5 7.2505 17.5054 19.6532 0.0000 38.3913 0.0000
# 6 0.0000 0.0000 0.0000 -0.3915 0.0000 38.3468
#
#
#
# Elastic Compliance Matrix: (Units=1/GPa)
#
#
# Indices 1 2 3 4 5 6 
#
# 1 0.012720 -0.003857 -0.003257 0.000000 0.001023 0.000000
# 2 -0.003857 0.008505 -0.001754 0.000000 -0.002252 0.000000
# 3 -0.003257 -0.001754 0.011863 0.000000 -0.004658 0.000000
# 4 0.000000 0.000000 0.000000 0.032021 0.000000 0.000327
# 5 0.001023 -0.002252 -0.004658 0.000000 0.029266 0.000000
# 6 0.000000 0.000000 0.000000 0.000327 0.000000 0.026081
#
#
# Mechanical properties :
#
#
# Convention : Reuss Voigt Hill
#
# Bulk Modulus (GPa) = 65.12921 73.90463 69.51692
# Shear Modulus (GPa) = 34.88971 36.86419 35.87695
#
# Velocity S-wave (km/s) = 4.20729 4.32470 4.26640
# Velocity P-wave (km/s) = 7.52628 7.90144 7.71614
#
# Compressibility (1/GPa) = 0.01535409
#
# Stress axis : x y z
#
# Youngs Moduli (GPa) = 78.61599 117.57443 84.29342
#
# Poissons Ratio (x) = 0.45343 0.27454
# Poissons Ratio (y) = 0.30319 0.14783
# Poissons Ratio (z) = 0.25605 0.20620
#
# Static dielectric constant tensor:
#      x y z
#    x 1.692130 0.000000 -0.023060 
#    y 0.000000 1.656360 0.000000 
#    z -0.023060 0.000000 1.715170 
# 
# From -- ./inp_files/49941.got.cif
#   From: 2010.05.17/outbox.ucp.g08.bks.cvg/sg10_25_cif.got.tgz:49941.got - 2010.06.11 11:31:16.
