data_PCOD9155229
_publ_section_title
;
Structure prediction by ZEFSAII (Michael W. Deem and Ramdas Pophale) SiO2 
 PCOD9155229
Probable space group: P 2/M
;
_chemical_formula_sum "Si O2"
_cell_formula_units_Z 28
_cell_length_a 30.000000
_cell_length_b 9.000000
_cell_length_c 30.000000
_cell_angle_alpha 90.000000
_cell_angle_beta 170.000000
_cell_angle_gamma 90.000000
_cell_volume 1406.550239
_symmetry_space_group_name_H-M "P 2/M"
_symmetry_group_IT_number 10
_symmetry_cell_setting 'monoclinic'
loop_
_space_group_symop_operation_xyz
x,y,z
-x,y,-z
-x,-y,-z
x,-y,z
loop_
_atom_site_type_symbol
_atom_site_label
_atom_site_fract_x
_atom_site_fract_y
_atom_site_fract_z
Si Si1 0.235193 0.500000 0.765358
Si Si2 0.287719 0.319963 0.534837
Si Si3 0.461159 0.180760 0.511704
Si Si4 0.189856 0.320527 0.991049
Si Si5 0.766157 0.000000 0.235602
Si Si6 0.063895 0.179505 0.959768
Si Si7 0.740783 0.750545 0.139028
Si Si8 0.260853 0.320105 0.608586
O O1 0.228356 0.625619 0.794398
O O2 0.000000 0.500000 0.500000
O O3 0.500000 0.500000 0.000000
O O4 0.289798 0.500000 0.535990
O O5 0.521549 0.268309 0.734428
O O6 0.339668 0.276858 0.636521
O O7 0.008762 0.274513 0.243086
O O8 0.500000 0.235181 0.500000
O O9 0.192666 0.226893 0.267866
O O10 0.460709 0.000000 0.509731
O O11 0.693027 0.225047 0.771587
O O12 0.191092 0.500000 0.994647
O O13 0.084872 0.252933 0.932740
O O14 0.777851 0.124719 0.210853
O O15 0.000000 0.000000 0.500000
O O16 0.500000 0.000000 0.000000
O O17 0.063076 0.000000 0.954818
O O18 0.972596 0.734407 0.332834
O O19 0.466089 0.745046 0.844987
O O20 0.267188 0.500000 0.619061
#
# Coordination Sequence:
#
# PCOD9155229 Si02
#       8
#     2   4   4   4   2   4   4   4
#     4  12  22  36  56  88 114 136 178 226 274 308
#     4   9  19  33  57  81 108 139 178 221 264 322
#     4   9  17  30  49  75 101 136 181 222 266 319
#     4  10  19  34  53  79 105 142 181 215 263 325
#     4  12  26  46  62  82 118 160 192 216 264 336
#     4  10  19  31  52  75 105 137 172 226 272 311
#     4  12  23  39  63  86 115 150 184 228 273 327
#     4  11  20  38  62  92 113 140 184 238 284 318
#
# _framework density 19.906860999999999
#
# number of rings (size 3 to 8) (size 9 to 14) (size 15 to 20)
#    0.000    1.571    1.429    4.714    0.000    4.000 
#    0.000    0.000    9.429    2.571    0.000    0.000 
#    0.000    0.000    0.000    0.000    0.000    0.000 
#
# Total GULP energy -155931.251403 kJ/mol
# GULP energy per Si atom -5568.973264 kJ/mol
# Density = 1.986155 g / cm^3
# Si number density = 19.906861 Si / 1000 Ang^3
#
#
#
# Elastic Constant Matrix: (Units=GPa)
#
#
# Indices 1 2 3 4 5 6 
#
# 1 81.1733 13.7870 13.8451 0.0000 6.1181 0.0000
# 2 13.7870 48.0611 5.6842 0.0000 -2.5915 0.0000
# 3 13.8451 5.6842 99.7504 0.0000 6.1777 0.0000
# 4 0.0000 0.0000 0.0000 61.2424 0.0000 32.9269
# 5 6.1181 -2.5915 6.1777 0.0000 42.1041 0.0000
# 6 0.0000 0.0000 0.0000 32.9269 0.0000 36.3918
#
#
#
# Elastic Compliance Matrix: (Units=1/GPa)
#
#
# Indices 1 2 3 4 5 6 
#
# 1 0.013364 -0.003759 -0.001520 0.000000 -0.001950 0.000000
# 2 -0.003759 0.022097 -0.000863 0.000000 0.002033 0.000000
# 3 -0.001520 -0.000863 0.010369 0.000000 -0.001354 0.000000
# 4 0.000000 0.000000 0.000000 0.031796 0.000000 -0.028769
# 5 -0.001950 0.002033 -0.001354 0.000000 0.024358 0.000000
# 6 0.000000 0.000000 0.000000 -0.028769 0.000000 0.053508
#
#
# Mechanical properties :
#
#
# Convention : Reuss Voigt Hill
#
# Bulk Modulus (GPa) = 29.81038 32.84638 31.32838
# Shear Modulus (GPa) = 27.93946 40.99222 34.46584
#
# Velocity S-wave (km/s) = 3.75041 4.54276 4.16547
# Velocity P-wave (km/s) = 5.81047 6.63713 6.23751
#
# Compressibility (1/GPa) = 0.03354536
#
# Stress axis : x y z
#
# Youngs Moduli (GPa) = 74.82779 45.25518 96.44122
#
# Poissons Ratio (x) = 0.17012 0.14658
# Poissons Ratio (y) = 0.28128 0.08326
# Poissons Ratio (z) = 0.11373 0.03907
#
# Static dielectric constant tensor:
#      x y z
#    x 1.668480 0.000000 0.016820 
#    y 0.000000 1.676350 0.000000 
#    z 0.016820 0.000000 1.701570 
# 
# From -- ./inp_files/96032.got.cif
#   From: 2010.05.17/outbox.ucp.g08.bks.cvg/sg10_49_cif.got.tgz:96032.got - 2010.06.11 11:31:16.
