data_PCOD9155942
_publ_section_title
;
Structure prediction by ZEFSAII (Michael W. Deem and Ramdas Pophale) SiO2 
 PCOD9155942
Probable space group: P 21/M
;
_chemical_formula_sum "Si O2"
_cell_formula_units_Z 32
_cell_length_a 11.790847
_cell_length_b 16.990945
_cell_length_c 10.290481
_cell_angle_alpha 90.000000
_cell_angle_beta 60.901430
_cell_angle_gamma 90.000000
_cell_volume 1801.368153
_symmetry_space_group_name_H-M "P 21/M"
_symmetry_group_IT_number 11
_symmetry_cell_setting 'monoclinic'
loop_
_space_group_symop_operation_xyz
x,y,z
-x,1/2+y,-z
-x,-y,-z
x,1/2-y,z
loop_
_atom_site_type_symbol
_atom_site_label
_atom_site_fract_x
_atom_site_fract_y
_atom_site_fract_z
Si Si1 0.217667 0.662346 0.877561
Si Si2 0.425743 0.552745 0.892821
Si Si3 0.927748 0.655428 0.742352
Si Si4 0.464308 0.553825 0.395717
Si Si5 0.216660 0.659187 0.563433
Si Si6 0.340594 0.401994 0.082802
Si Si7 0.688998 0.841100 0.190571
Si Si8 0.955474 0.910307 0.018328
O O1 0.253972 0.750000 0.897088
O O2 0.319916 0.600491 0.872635
O O3 0.213423 0.659481 0.723068
O O4 0.073600 0.641213 0.006572
O O5 0.505875 0.498166 0.748247
O O6 0.527900 0.608250 0.909554
O O7 0.351607 0.493390 0.032049
O O8 0.915900 0.750000 0.761874
O O9 0.791320 0.620533 0.768087
O O10 0.938327 0.616426 0.878747
O O11 0.068881 0.641116 0.599871
O O12 0.500000 0.500000 0.500000
O O13 0.322945 0.593819 0.469284
O O14 0.566239 0.625765 0.335057
O O15 0.248849 0.750000 0.506114
O O16 0.338675 0.354046 0.948182
O O17 0.715365 0.750000 0.199322
O O18 0.815366 0.892700 0.156303
O O19 0.000000 0.000000 0.000000
#
# Coordination Sequence:
#
# PCOD9155942 Si02
#       8
#     4   4   4   4   4   4   4   4
#     4  10  18  29  46  71 101 127 157 201 253 300
#     4  10  20  33  48  76 100 134 162 206 251 306
#     4   9  17  30  50  72  95 128 168 210 250 292
#     4  11  20  33  50  72 107 134 171 204 252 301
#     4   9  18  31  49  72  99 129 168 209 244 294
#     4   9  18  33  52  71 103 122 167 213 250 298
#     4  10  20  33  52  75 100 136 170 208 252 302
#     4  10  17  27  47  73 101 123 160 204 257 302
#
# _framework density 17.764275000000001
#
# number of rings (size 3 to 8) (size 9 to 14) (size 15 to 20)
#    0.000    2.250    1.250    5.625    1.750    1.000 
#    0.000    0.625    0.000    0.000    0.000    0.000 
#    0.000    0.000    0.000    0.000    0.000    0.000 
#
# Total GULP energy -178228.005566 kJ/mol
# GULP energy per Si atom -5569.625174 kJ/mol
# Density = 1.772384 g / cm^3
# Si number density = 17.764275 Si / 1000 Ang^3
#
#
#
# Elastic Constant Matrix: (Units=GPa)
#
#
# Indices 1 2 3 4 5 6 
#
# 1 61.5343 23.9571 15.1609 0.0000 -20.7028 0.0000
# 2 23.9571 63.0455 16.7468 0.0000 -17.1543 0.0000
# 3 15.1609 16.7468 41.8259 0.0000 -22.6143 0.0000
# 4 0.0000 0.0000 0.0000 25.1892 0.0000 -10.9237
# 5 -20.7028 -17.1543 -22.6143 0.0000 27.7033 0.0000
# 6 0.0000 0.0000 0.0000 -10.9237 0.0000 24.0764
#
#
#
# Elastic Compliance Matrix: (Units=1/GPa)
#
#
# Indices 1 2 3 4 5 6 
#
# 1 0.023007 -0.005008 0.002300 0.000000 0.015970 0.000000
# 2 -0.005008 0.020284 -0.002755 0.000000 0.006569 0.000000
# 3 0.002300 -0.002755 0.043292 0.000000 0.035353 0.000000
# 4 0.000000 0.000000 0.000000 0.049424 0.000000 0.022424
# 5 0.015970 0.006569 0.035353 0.000000 0.080957 0.000000
# 6 0.000000 0.000000 0.000000 0.022424 0.000000 0.051709
#
#
# Mechanical properties :
#
#
# Convention : Reuss Voigt Hill
#
# Bulk Modulus (GPa) = 13.21741 30.90392 22.06067
# Shear Modulus (GPa) = 16.40325 22.76316 19.58321
#
# Velocity S-wave (km/s) = 3.04202 3.58355 3.32383
# Velocity P-wave (km/s) = 4.44917 5.87851 5.21306
#
# Compressibility (1/GPa) = 0.07565778
#
# Stress axis : x y z
#
# Youngs Moduli (GPa) = 43.46463 49.30068 23.09884
#
# Poissons Ratio (x) = 0.24692 -0.05313
# Poissons Ratio (y) = 0.21769 0.06363
# Poissons Ratio (z) = -0.09998 0.13580
#
# Static dielectric constant tensor:
#      x y z
#    x 1.647900 0.000000 -0.022040 
#    y 0.000000 1.608980 0.000000 
#    z -0.022040 0.000000 1.645250 
# 
# From -- ./inp_files/36010.got.cif
#   From: 2010.05.17/outbox.cif.g08.bks.cpg/sg11_19_cif.got.tgz:36010.got - 2010.06.03 12:22:45.
