data_PCOD9155617
_publ_section_title
;
Structure prediction by ZEFSAII (Michael W. Deem and Ramdas Pophale) SiO2 
 PCOD9155617
Probable space group: P 2/M
;
_chemical_formula_sum "Si O2"
_cell_formula_units_Z 32
_cell_length_a 12.000000
_cell_length_b 9.000000
_cell_length_c 15.000000
_cell_angle_alpha 90.000000
_cell_angle_beta 90.000000
_cell_angle_gamma 90.000000
_cell_volume 1620.000000
_symmetry_space_group_name_H-M "P 2/M"
_symmetry_group_IT_number 10
_symmetry_cell_setting 'monoclinic'
loop_
_space_group_symop_operation_xyz
x,y,z
-x,y,-z
-x,-y,-z
x,-y,z
loop_
_atom_site_type_symbol
_atom_site_label
_atom_site_fract_x
_atom_site_fract_y
_atom_site_fract_z
Si Si1 0.295541 0.822381 0.159585
Si Si2 0.231713 0.678446 0.824215
Si Si3 0.512638 0.322573 0.218883
Si Si4 0.213392 0.825596 0.518588
Si Si5 0.808997 0.326155 0.669009
Si Si6 0.072815 0.673805 0.657847
Si Si7 0.129720 0.179318 0.999552
Si Si8 0.548909 0.176204 0.403688
O O1 0.418387 0.750053 0.156614
O O2 0.247000 0.768779 0.253776
O O3 0.206757 0.775124 0.083624
O O4 0.305753 0.000000 0.156532
O O5 0.226735 0.500000 0.835305
O O6 0.360609 0.718592 0.807160
O O7 0.150453 0.715288 0.741528
O O8 0.186380 0.758300 0.911247
O O9 0.501947 0.500000 0.216289
O O10 0.500519 0.264957 0.320531
O O11 0.224128 0.733971 0.427958
O O12 0.107165 0.771863 0.573767
O O13 0.319254 0.799559 0.583162
O O14 0.209900 0.000000 0.497508
O O15 0.779820 0.500000 0.678139
O O16 0.942674 0.311409 0.678123
O O17 0.094938 0.500000 0.636472
O O18 0.129107 0.000000 0.998178
O O19 0.000000 0.228621 0.000000
O O20 0.500000 0.217373 0.500000
O O21 0.528072 0.000000 0.389861
#
# Coordination Sequence:
#
# PCOD9155617 Si02
#       8
#     4   4   4   4   4   4   4   4
#     4  11  24  42  63  89 124 158 197 253 308 364
#     4  10  22  40  64  92 123 161 204 255 306 360
#     4  11  23  40  63  90 122 161 206 251 301 365
#     4  11  22  35  56  87 122 162 206 252 304 364
#     4  11  23  38  60  87 119 162 207 254 307 364
#     4  10  21  39  59  85 123 162 204 253 305 362
#     4  10  23  43  67  95 124 158 201 249 306 370
#     4  10  21  37  57  83 118 162 209 256 303 354
#
# _framework density 19.753086
#
# number of rings (size 3 to 8) (size 9 to 14) (size 15 to 20)
#    0.000    1.500    1.250    3.375    0.000    7.500 
#    0.000    2.500    0.000    0.000    0.000    0.000 
#    0.000    0.000    0.000    0.000    0.000    0.000 
#
# Total GULP energy -178876.382537 kJ/mol
# GULP energy per Si atom -5589.886954 kJ/mol
# Density = 1.970813 g / cm^3
# Si number density = 19.753086 Si / 1000 Ang^3
#
#
#
# Elastic Constant Matrix: (Units=GPa)
#
#
# Indices 1 2 3 4 5 6 
#
# 1 96.7868 38.4803 41.4389 0.0000 17.3049 0.0000
# 2 38.4803 37.6040 30.2766 0.0000 12.8244 0.0000
# 3 41.4389 30.2766 98.1327 0.0000 14.1511 0.0000
# 4 0.0000 0.0000 0.0000 34.4205 0.0000 0.1484
# 5 17.3049 12.8244 14.1511 0.0000 32.6086 0.0000
# 6 0.0000 0.0000 0.0000 0.1484 0.0000 33.2686
#
#
#
# Elastic Compliance Matrix: (Units=1/GPa)
#
#
# Indices 1 2 3 4 5 6 
#
# 1 0.018033 -0.015694 -0.002435 0.000000 -0.002341 0.000000
# 2 -0.015694 0.052235 -0.008243 0.000000 -0.008637 0.000000
# 3 -0.002435 -0.008243 0.013983 0.000000 -0.001534 0.000000
# 4 0.000000 0.000000 0.000000 0.029053 0.000000 -0.000130
# 5 -0.002341 -0.008637 -0.001534 0.000000 0.035972 0.000000
# 6 0.000000 0.000000 0.000000 -0.000130 0.000000 0.030059
#
#
# Mechanical properties :
#
#
# Convention : Reuss Voigt Hill
#
# Bulk Modulus (GPa) = 31.73988 50.32390 41.03189
# Shear Modulus (GPa) = 20.61166 28.21471 24.41319
#
# Velocity S-wave (km/s) = 3.23378 3.78348 3.51938
# Velocity P-wave (km/s) = 5.48145 6.67968 6.11001
#
# Compressibility (1/GPa) = 0.03150610
#
# Stress axis : x y z
#
# Youngs Moduli (GPa) = 55.45499 19.14421 71.51499
#
# Poissons Ratio (x) = 0.30045 0.17415
# Poissons Ratio (y) = 0.87030 0.58952
# Poissons Ratio (z) = 0.13504 0.15781
#
# Static dielectric constant tensor:
#      x y z
#    x 1.728440 0.000000 -0.004740 
#    y 0.000000 1.660650 0.000000 
#    z -0.004740 0.000000 1.658920 
# 
# From -- ./inp_files/63808.got.cif
#   From: 2010.05.17/outbox.ucp.g08.bks.cvg/sg10_32_cif.got.tgz:63808.got - 2010.06.11 11:31:16.
