data_PCOD9155088
_publ_section_title
;
Structure prediction by ZEFSAII (Michael W. Deem and Ramdas Pophale) SiO2 
 PCOD9155088
Probable space group: P 2/M
;
_chemical_formula_sum "Si O2"
_cell_formula_units_Z 32
_cell_length_a 16.421491
_cell_length_b 7.377804
_cell_length_c 12.879932
_cell_angle_alpha 90.000000
_cell_angle_beta 130.588344
_cell_angle_gamma 90.000000
_cell_volume 1185.020788
_symmetry_space_group_name_H-M "P 2/M"
_symmetry_group_IT_number 10
_symmetry_cell_setting 'monoclinic'
loop_
_space_group_symop_operation_xyz
x,y,z
-x,y,-z
-x,-y,-z
x,-y,z
loop_
_atom_site_type_symbol
_atom_site_label
_atom_site_fract_x
_atom_site_fract_y
_atom_site_fract_z
Si Si1 0.829005 0.212597 0.214491
Si Si2 0.619545 0.279115 0.294729
Si Si3 0.632903 0.708387 0.534932
Si Si4 0.880455 0.779115 0.705271
Si Si5 0.897670 0.780962 0.043878
Si Si6 0.397671 0.280962 0.043878
Si Si7 0.867098 0.208387 0.465068
Si Si8 0.670994 0.287404 0.785509
O O1 0.862472 0.284824 0.130020
O O2 0.882836 0.289074 0.363347
O O3 0.855087 0.000000 0.233685
O O4 0.699632 0.227145 0.110763
O O5 0.626054 0.500000 0.299596
O O6 0.593096 0.219439 0.391484
O O7 0.521668 0.225568 0.138975
O O8 0.737521 0.209854 0.368966
O O9 0.597452 0.500000 0.508564
O O10 0.762479 0.709855 0.631035
O O11 0.617163 0.789074 0.636653
O O12 0.906905 0.719438 0.608517
O O13 0.978333 0.725568 0.861026
O O14 0.873947 0.000000 0.700405
O O15 0.897776 0.000000 0.041407
O O16 0.800368 0.727145 0.889236
O O17 0.397776 0.500000 0.041408
O O18 0.362473 0.215176 0.130020
O O19 0.902549 0.000000 0.491438
O O20 0.644913 0.500000 0.766315
#
# Coordination Sequence:
#
# PCOD9155088 Si02
#       8
#     4   4   4   4   4   4   4   4
#     4   9  18  32  49  69  93 121 153 189 228 270
#     4   9  18  32  49  69  93 121 153 189 228 270
#     4   9  18  32  49  69  93 121 153 189 228 270
#     4   9  18  32  49  69  93 121 153 189 228 270
#     4   9  18  32  49  69  93 121 153 189 228 270
#     4   9  18  32  49  69  93 121 153 189 228 270
#     4   9  18  32  49  69  93 121 153 189 228 270
#     4   9  18  32  49  69  93 121 153 189 228 270
#
# _framework density 27.003744999999999
#
# number of rings (size 3 to 8) (size 9 to 14) (size 15 to 20)
#    0.000    3.000    0.000    0.000    0.000    4.000 
#    0.000   10.000    0.000    0.000    0.000   14.000 
#    0.000    0.000    0.000    0.000    0.000    0.000 
#
# Total GULP energy -178875.122374 kJ/mol
# GULP energy per Si atom -5589.847574 kJ/mol
# Density = 2.694228 g / cm^3
# Si number density = 27.003745 Si / 1000 Ang^3
#
#
#
# Elastic Constant Matrix: (Units=GPa)
#
#
# Indices 1 2 3 4 5 6 
#
# 1 69.9047 -3.5746 20.7850 0.0000 11.1463 0.0000
# 2 -3.5746 102.9078 2.2383 0.0000 0.9982 0.0000
# 3 20.7850 2.2383 196.6880 0.0000 12.5076 0.0000
# 4 0.0000 0.0000 0.0000 5.6929 0.0000 1.3955
# 5 11.1463 0.9982 12.5076 0.0000 59.8175 0.0000
# 6 0.0000 0.0000 0.0000 1.3955 0.0000 1.7407
#
#
#
# Elastic Compliance Matrix: (Units=1/GPa)
#
#
# Indices 1 2 3 4 5 6 
#
# 1 0.015170 0.000583 -0.001449 0.000000 -0.002534 0.000000
# 2 0.000583 0.009743 -0.000157 0.000000 -0.000238 0.000000
# 3 -0.001449 -0.000157 0.005292 0.000000 -0.000834 0.000000
# 4 0.000000 0.000000 0.000000 0.218618 0.000000 -0.175259
# 5 -0.002534 -0.000238 -0.000834 0.000000 0.017368 0.000000
# 6 0.000000 0.000000 0.000000 -0.175259 0.000000 0.714967
#
#
# Mechanical properties :
#
#
# Convention : Reuss Voigt Hill
#
# Bulk Modulus (GPa) = 35.51210 45.37754 40.44482
# Shear Modulus (GPa) = 5.03732 36.78702 20.91217
#
# Velocity S-wave (km/s) = 1.36728 3.69493 2.78585
# Velocity P-wave (km/s) = 3.95878 5.91980 5.03567
#
# Compressibility (1/GPa) = 0.02815942
#
# Stress axis : x y z
#
# Youngs Moduli (GPa) = 65.92093 102.63331 188.96100
#
# Poissons Ratio (x) = -0.05984 0.27372
# Poissons Ratio (y) = -0.03843 0.02973
# Poissons Ratio (z) = 0.09549 0.01615
#
# Static dielectric constant tensor:
#      x y z
#    x 2.191050 0.000000 -0.024280 
#    y 0.000000 2.044990 0.000000 
#    z -0.024280 0.000000 2.068620 
# 
# From -- ./inp_files/66161.got.cif
#   From: 2010.05.17/outbox.cif.g08.bks.cpg/sg10_34_cif.got.tgz:66161.got - 2010.06.03 11:33:40.
