data_PCOD9155641
_publ_section_title
;
Structure prediction by ZEFSAII (Michael W. Deem and Ramdas Pophale) SiO2 
 PCOD9155641
Probable space group: P 2/M
;
_chemical_formula_sum "Si O2"
_cell_formula_units_Z 24
_cell_length_a 15.000000
_cell_length_b 9.000000
_cell_length_c 9.000000
_cell_angle_alpha 90.000000
_cell_angle_beta 90.000000
_cell_angle_gamma 90.000000
_cell_volume 1215.000000
_symmetry_space_group_name_H-M "P 2/M"
_symmetry_group_IT_number 10
_symmetry_cell_setting 'monoclinic'
loop_
_space_group_symop_operation_xyz
x,y,z
-x,y,-z
-x,-y,-z
x,-y,z
loop_
_atom_site_type_symbol
_atom_site_label
_atom_site_fract_x
_atom_site_fract_y
_atom_site_fract_z
Si Si1 0.420993 0.336338 0.118735
Si Si2 0.928189 0.170470 0.875385
Si Si3 0.741234 0.830808 0.038601
Si Si4 0.904758 0.323482 0.566690
Si Si5 0.747566 0.179113 0.374683
Si Si6 0.544870 0.164411 0.342965
O O1 0.394405 0.500000 0.171363
O O2 0.471711 0.248504 0.246696
O O3 0.500000 0.348459 0.000000
O O4 0.336635 0.261801 0.039166
O O5 0.917225 0.276868 0.736473
O O6 0.951905 0.000000 0.829653
O O7 0.830609 0.168128 0.945341
O O8 0.000000 0.215728 0.000000
O O9 0.770697 0.784477 0.203955
O O10 0.708021 0.000000 0.049197
O O11 0.895693 0.500000 0.549669
O O12 0.818898 0.249148 0.487266
O O13 0.000000 0.275173 0.500000
O O14 0.643502 0.228711 0.375039
O O15 0.749128 0.000000 0.397955
O O16 0.500000 0.149444 0.500000
O O17 0.558261 0.000000 0.275598
#
# Coordination Sequence:
#
# PCOD9155641 Si02
#       6
#     4   4   4   4   4   4
#     4  11  23  38  58  87 122 162 202 241 293 354
#     4  10  22  41  66  93 118 149 197 251 297 349
#     4  10  21  38  63  90 117 154 200 249 300 349
#     4  11  25  42  61  88 124 162 194 234 295 361
#     4  10  21  39  63  89 118 157 201 249 297 343
#     4  10  22  39  61  88 119 157 203 251 296 345
#
# _framework density 19.753086
#
# number of rings (size 3 to 8) (size 9 to 14) (size 15 to 20)
#    0.000    1.667    1.667    2.000    2.333    6.000 
#    0.000    0.000    0.000    0.000    0.000    0.000 
#    0.000    0.000    0.000    0.000    0.000    0.000 
#
# Total GULP energy -133728.581934 kJ/mol
# GULP energy per Si atom -5572.024247 kJ/mol
# Density = 1.970813 g / cm^3
# Si number density = 19.753086 Si / 1000 Ang^3
#
#
#
# Elastic Constant Matrix: (Units=GPa)
#
#
# Indices 1 2 3 4 5 6 
#
# 1 79.3878 33.7109 31.2826 0.0000 38.5315 0.0000
# 2 33.7109 47.2518 27.8217 0.0000 27.3789 0.0000
# 3 31.2826 27.8217 79.2590 0.0000 21.8727 0.0000
# 4 0.0000 0.0000 0.0000 53.1168 0.0000 24.2382
# 5 38.5315 27.3789 21.8727 0.0000 56.2747 0.0000
# 6 0.0000 0.0000 0.0000 24.2382 0.0000 31.8177
#
#
#
# Elastic Compliance Matrix: (Units=1/GPa)
#
#
# Indices 1 2 3 4 5 6 
#
# 1 0.022135 -0.008185 -0.003114 0.000000 -0.009963 0.000000
# 2 -0.008185 0.036629 -0.007007 0.000000 -0.009493 0.000000
# 3 -0.003114 -0.007007 0.016552 0.000000 -0.000892 0.000000
# 4 0.000000 0.000000 0.000000 0.028858 0.000000 -0.021983
# 5 -0.009963 -0.009493 -0.000892 0.000000 0.029557 0.000000
# 6 0.000000 0.000000 0.000000 -0.021983 0.000000 0.048176
#
#
# Mechanical properties :
#
#
# Convention : Reuss Voigt Hill
#
# Bulk Modulus (GPa) = 25.83779 43.50322 34.67051
# Shear Modulus (GPa) = 21.60573 35.78074 28.69324
#
# Velocity S-wave (km/s) = 3.31084 4.26067 3.81543
# Velocity P-wave (km/s) = 5.26539 6.80263 6.08276
#
# Compressibility (1/GPa) = 0.03870299
#
# Stress axis : x y z
#
# Youngs Moduli (GPa) = 45.17756 27.30062 60.41678
#
# Poissons Ratio (x) = 0.22347 0.18811
# Poissons Ratio (y) = 0.36980 0.42336
# Poissons Ratio (z) = 0.14066 0.19130
#
# Static dielectric constant tensor:
#      x y z
#    x 1.621960 0.000000 -0.048800 
#    y 0.000000 1.774750 0.000000 
#    z -0.048800 0.000000 1.607920 
# 
# From -- ./inp_files/27203.got.cif
#   From: 2010.05.17/outbox.ucp.g08.bks.cvg/sg10_14_cif.got.tgz:27203.got - 2010.06.11 11:31:16.
