data_PCOD9155788
_publ_section_title
;
Structure prediction by ZEFSAII (Michael W. Deem and Ramdas Pophale) SiO2 
 PCOD9155788
Probable space group: P 21/M
;
_chemical_formula_sum "Si O2"
_cell_formula_units_Z 28
_cell_length_a 7.429925
_cell_length_b 21.058034
_cell_length_c 10.530200
_cell_angle_alpha 90.000000
_cell_angle_beta 123.566432
_cell_angle_gamma 90.000000
_cell_volume 1372.814167
_symmetry_space_group_name_H-M "P 21/M"
_symmetry_group_IT_number 11
_symmetry_cell_setting 'monoclinic'
loop_
_space_group_symop_operation_xyz
x,y,z
-x,1/2+y,-z
-x,-y,-z
x,1/2-y,z
loop_
_atom_site_type_symbol
_atom_site_label
_atom_site_fract_x
_atom_site_fract_y
_atom_site_fract_z
Si Si1 0.061018 0.600531 0.625617
Si Si2 0.882768 0.548493 0.320338
Si Si3 0.036285 0.178452 0.167271
Si Si4 0.739290 0.956265 0.001754
Si Si5 0.788281 0.413291 0.911884
Si Si6 0.510841 0.867176 0.718409
Si Si7 0.622394 0.434797 0.578077
O O1 0.141065 0.526902 0.664485
O O2 0.265693 0.645121 0.669316
O O3 0.882326 0.592287 0.444886
O O4 0.967962 0.627715 0.719456
O O5 0.730596 0.566568 0.143509
O O6 0.129563 0.555471 0.367794
O O7 0.995432 0.250000 0.194068
O O8 0.274486 0.175936 0.195364
O O9 0.847784 0.153075 0.000094
O O10 0.978095 0.936948 0.047707
O O11 0.583421 0.924836 0.838683
O O12 0.722470 0.032155 0.985699
O O13 0.632413 0.415844 0.729491
O O14 0.478088 0.885033 0.558600
O O15 0.500000 0.500000 0.500000
#
# Coordination Sequence:
#
# PCOD9155788 Si02
#       7
#     4   4   4   4   4   4   4
#     4  10  20  35  54  85 115 146 185 232 287 344
#     4   9  18  31  51  82 125 145 172 230 299 351
#     4  11  23  41  58  74 110 158 198 235 271 327
#     4   9  15  30  53  82 119 141 175 226 289 342
#     4   9  17  30  53  82 113 150 183 225 281 344
#     4  10  21  34  57  86 109 146 190 229 284 333
#     4  10  16  28  54  87 119 148 174 228 289 349
#
# _framework density 20.396061
#
# number of rings (size 3 to 8) (size 9 to 14) (size 15 to 20)
#    0.000    2.286    2.857    0.857    0.000    1.143 
#    0.000    0.714    0.000   11.143    0.000    0.000 
#    0.000    0.000    0.000    0.000    0.000    0.000 
#
# Total GULP energy -155991.164620 kJ/mol
# GULP energy per Si atom -5571.113022 kJ/mol
# Density = 2.034964 g / cm^3
# Si number density = 20.396061 Si / 1000 Ang^3
#
#
#
# Elastic Constant Matrix: (Units=GPa)
#
#
# Indices 1 2 3 4 5 6 
#
# 1 50.1719 5.4658 28.4111 0.0000 12.7477 0.0000
# 2 5.4658 57.1715 23.4700 0.0000 0.2541 0.0000
# 3 28.4111 23.4700 151.2606 0.0000 -7.0799 0.0000
# 4 0.0000 0.0000 0.0000 9.2877 0.0000 -0.7821
# 5 12.7477 0.2541 -7.0799 0.0000 30.3128 0.0000
# 6 0.0000 0.0000 0.0000 -0.7821 0.0000 12.0241
#
#
#
# Elastic Compliance Matrix: (Units=1/GPa)
#
#
# Indices 1 2 3 4 5 6 
#
# 1 0.026163 -0.000207 -0.005457 0.000000 -0.012275 0.000000
# 2 -0.000207 0.018704 -0.002898 0.000000 -0.000747 0.000000
# 3 -0.005457 -0.002898 0.008285 0.000000 0.004254 0.000000
# 4 0.000000 0.000000 0.000000 0.108262 0.000000 0.007042
# 5 -0.012275 -0.000747 0.004254 0.000000 0.039151 0.000000
# 6 0.000000 0.000000 0.000000 0.007042 0.000000 0.083624
#
#
# Mechanical properties :
#
#
# Convention : Reuss Voigt Hill
#
# Bulk Modulus (GPa) = 27.75570 41.47752 34.61661
# Shear Modulus (GPa) = 15.95800 23.74205 19.85003
#
# Velocity S-wave (km/s) = 2.80019 3.41552 3.12305
# Velocity P-wave (km/s) = 4.90842 5.99454 5.47847
#
# Compressibility (1/GPa) = 0.03602864
#
# Stress axis : x y z
#
# Youngs Moduli (GPa) = 38.22213 53.46411 120.70230
#
# Poissons Ratio (x) = 0.01105 0.65863
# Poissons Ratio (y) = 0.00790 0.34983
# Poissons Ratio (z) = 0.20856 0.15496
#
# Static dielectric constant tensor:
#      x y z
#    x 1.834350 0.000000 0.008190 
#    y 0.000000 1.669800 0.000000 
#    z 0.008190 0.000000 1.797210 
# 
# From -- ./inp_files/32704.got.cif
#   From: 2010.05.17/outbox.cif.g08.bks.cpg/sg11_17_cif.got.tgz:32704.got - 2010.06.03 12:22:45.
