data_PCOD9155762
_publ_section_title
;
Structure prediction by ZEFSAII (Michael W. Deem and Ramdas Pophale) SiO2 
 PCOD9155762
Probable space group: P 21/M
;
_chemical_formula_sum "Si O2"
_cell_formula_units_Z 18
_cell_length_a 10.331098
_cell_length_b 10.722420
_cell_length_c 11.203437
_cell_angle_alpha 90.000000
_cell_angle_beta 142.574138
_cell_angle_gamma 90.000000
_cell_volume 754.230972
_symmetry_space_group_name_H-M "P 21/M"
_symmetry_group_IT_number 11
_symmetry_cell_setting 'monoclinic'
loop_
_space_group_symop_operation_xyz
x,y,z
-x,1/2+y,-z
-x,-y,-z
x,1/2-y,z
loop_
_atom_site_type_symbol
_atom_site_label
_atom_site_fract_x
_atom_site_fract_y
_atom_site_fract_z
Si Si1 0.576178 0.250000 0.369173
Si Si2 0.616039 0.750000 0.170658
Si Si3 0.157104 0.250000 0.913544
Si Si4 0.146803 0.750000 0.915901
Si Si5 0.446621 0.750000 0.365608
Si Si6 0.582929 0.972865 0.313589
Si Si7 0.076177 0.501232 0.920182
O O1 0.323914 0.250000 0.145955
O O2 0.582888 0.250000 0.516362
O O3 0.661511 0.384573 0.383444
O O4 0.680007 0.877841 0.286420
O O5 0.704916 0.750000 0.104366
O O6 0.356941 0.750000 0.987817
O O7 0.015796 0.372232 0.817952
O O8 0.010841 0.626155 0.805407
O O9 0.242457 0.750000 0.123556
O O10 0.559712 0.880407 0.410670
O O11 0.332983 0.992943 0.096963
O O12 0.000000 0.500000 0.000000
#
# Coordination Sequence:
#
# PCOD9155762 Si02
#       7
#     2   2   2   2   2   4   4
#     4  10  16  23  39  65  83 106 141 170 204 244
#     4   8  16  32  38  54  90 114 134 160 216 252
#     4  10  19  26  43  63  84 112 135 169 202 253
#     4   8  17  28  43  59  86 116 131 171 208 245
#     4   8  14  27  39  55  87 114 135 164 212 254
#     4   8  17  27  42  60  85 113 134 173 205 247
#     4   9  16  27  40  60  85 108 136 164 201 244
#
# _framework density 23.865366999999999
#
# number of rings (size 3 to 8) (size 9 to 14) (size 15 to 20)
#    0.000    4.000    0.000    1.333    0.000    8.000 
#    0.000    0.000    0.000    0.000    0.000    0.000 
#    0.000  433.778    0.000    0.000    0.000    0.000 
#
# Total GULP energy -100310.445658 kJ/mol
# GULP energy per Si atom -5572.802537 kJ/mol
# Density = 2.381105 g / cm^3
# Si number density = 23.865367 Si / 1000 Ang^3
#
#
#
# Elastic Constant Matrix: (Units=GPa)
#
#
# Indices 1 2 3 4 5 6 
#
# 1 74.5035 41.6661 9.3263 0.0000 -17.6619 0.0000
# 2 41.6661 291.9651 3.0324 0.0000 -4.0244 0.0000
# 3 9.3263 3.0324 89.8184 0.0000 6.7654 0.0000
# 4 0.0000 0.0000 0.0000 -16.9322 0.0000 -7.3327
# 5 -17.6619 -4.0244 6.7654 0.0000 12.7208 0.0000
# 6 0.0000 0.0000 0.0000 -7.3327 0.0000 13.6784
#
#
#
# Elastic Compliance Matrix: (Units=1/GPa)
#
#
# Indices 1 2 3 4 5 6 
#
# 1 0.023975 -0.002886 -0.005032 0.000000 0.035051 0.000000
# 2 -0.002886 0.003791 0.000399 0.000000 -0.003020 0.000000
# 3 -0.005032 0.000399 0.012667 0.000000 -0.013597 0.000000
# 4 0.000000 0.000000 0.000000 -0.047931 0.000000 -0.025695
# 5 0.035051 -0.003020 -0.013597 0.000000 0.133554 0.000000
# 6 0.000000 0.000000 0.000000 -0.025695 0.000000 0.059333
#
#
# Mechanical properties :
#
#
# Convention : Reuss Voigt Hill
#
# Bulk Modulus (GPa) = 39.37770 62.70406 51.04088
# Shear Modulus (GPa) = 23.93573 28.71087 26.32330
#
# Velocity S-wave (km/s) = 3.17037 3.47224 3.32473
# Velocity P-wave (km/s) = 5.47151 6.51202 6.01431
#
# Compressibility (1/GPa) = 0.02539508
#
# Stress axis : x y z
#
# Youngs Moduli (GPa) = 41.70927 263.77097 78.94638
#
# Poissons Ratio (x) = 0.76127 0.39728
# Poissons Ratio (y) = 0.12038 -0.03151
# Poissons Ratio (z) = 0.20989 -0.10529
#
# Static dielectric constant tensor:
#      x y z
#    x 1.839820 0.000000 0.028880 
#    y 0.000000 2.175230 0.000000 
#    z 0.028880 0.000000 1.928350 
# 
# From -- ./inp_files/31041.got.cif
#   From: 2010.05.17/outbox.cif.g08.bks.cpg/sg11_16_cif.got.tgz:31041.got - 2010.06.03 12:22:45.
