data_PCOD9155489
_publ_section_title
;
Structure prediction by ZEFSAII (Michael W. Deem and Ramdas Pophale) SiO2 
 PCOD9155489
Probable space group: P 2/M
;
_chemical_formula_sum "Si O2"
_cell_formula_units_Z 32
_cell_length_a 24.000000
_cell_length_b 9.000000
_cell_length_c 15.000000
_cell_angle_alpha 90.000000
_cell_angle_beta 30.000000
_cell_angle_gamma 90.000000
_cell_volume 1620.000000
_symmetry_space_group_name_H-M "P 2/M"
_symmetry_group_IT_number 10
_symmetry_cell_setting 'monoclinic'
loop_
_space_group_symop_operation_xyz
x,y,z
-x,y,-z
-x,-y,-z
x,-y,z
loop_
_atom_site_type_symbol
_atom_site_label
_atom_site_fract_x
_atom_site_fract_y
_atom_site_fract_z
Si Si1 0.235474 0.178485 0.953479
Si Si2 0.003843 0.322681 0.722214
Si Si3 0.918036 0.681176 0.189917
Si Si4 0.095819 0.171481 0.434196
Si Si5 0.610657 0.679260 0.401455
Si Si6 0.493035 0.321242 0.110697
Si Si7 0.332513 0.680780 0.482302
Si Si8 0.330173 0.828819 0.009215
O O1 0.287554 0.245538 0.791695
O O2 0.230977 0.000000 0.957117
O O3 0.112973 0.244346 0.137385
O O4 0.311782 0.221278 0.932929
O O5 0.989972 0.500000 0.739588
O O6 0.042622 0.276069 0.766612
O O7 0.092786 0.271032 0.525848
O O8 0.918027 0.500000 0.188469
O O9 0.794142 0.730523 0.339499
O O10 0.000000 0.734301 0.000000
O O11 0.209923 0.172719 0.222564
O O12 0.000000 0.224542 0.500000
O O13 0.070140 0.000000 0.494414
O O14 0.500000 0.717982 0.500000
O O15 0.624509 0.500000 0.379313
O O16 0.606604 0.725615 0.510621
O O17 0.491366 0.500000 0.108231
O O18 0.386531 0.269801 0.314926
O O19 0.500000 0.263894 0.000000
O O20 0.592703 0.271070 0.036296
O O21 0.334760 0.500000 0.478344
O O22 0.370696 0.000000 0.952480
#
# Coordination Sequence:
#
# PCOD9155489 Si02
#       8
#     4   4   4   4   4   4   4   4
#     4  11  22  38  58  82 116 154 188 231 288 351
#     4  11  22  34  57  89 113 143 193 242 286 338
#     4   9  18  33  55  82 114 151 187 228 284 348
#     4  10  20  39  59  79 115 157 189 227 292 354
#     4  10  20  35  59  87 113 144 188 239 290 340
#     4  10  22  38  60  87 115 150 192 242 292 336
#     4   9  18  35  56  81 118 153 183 231 295 349
#     4  10  22  39  59  80 111 156 194 229 282 349
#
# _framework density 19.753086
#
# number of rings (size 3 to 8) (size 9 to 14) (size 15 to 20)
#    0.000    2.000    1.250    2.250    1.750    5.250 
#    0.000    0.625    0.000    6.750    0.000    0.000 
#    0.000    0.000    0.000    0.000    0.000    0.000 
#
# Total GULP energy -178586.289171 kJ/mol
# GULP energy per Si atom -5580.821537 kJ/mol
# Density = 1.970813 g / cm^3
# Si number density = 19.753086 Si / 1000 Ang^3
#
#
#
# Elastic Constant Matrix: (Units=GPa)
#
#
# Indices 1 2 3 4 5 6 
#
# 1 125.3745 12.4794 47.1127 0.0000 20.4345 0.0000
# 2 12.4794 4.2477 7.0360 0.0000 5.1339 0.0000
# 3 47.1127 7.0360 89.6007 0.0000 16.4326 0.0000
# 4 0.0000 0.0000 0.0000 13.8038 0.0000 8.9823
# 5 20.4345 5.1339 16.4326 0.0000 33.9974 0.0000
# 6 0.0000 0.0000 0.0000 8.9823 0.0000 71.4566
#
#
#
# Elastic Compliance Matrix: (Units=1/GPa)
#
#
# Indices 1 2 3 4 5 6 
#
# 1 0.012582 -0.028605 -0.004142 0.000000 -0.001241 0.000000
# 2 -0.028605 0.375749 -0.007914 0.000000 -0.035723 0.000000
# 3 -0.004142 -0.007914 0.014576 0.000000 -0.003361 0.000000
# 4 0.000000 0.000000 0.000000 0.078897 0.000000 -0.009918
# 5 -0.001241 -0.035723 -0.003361 0.000000 0.037179 0.000000
# 6 0.000000 0.000000 0.000000 -0.009918 0.000000 0.015241
#
#
# Mechanical properties :
#
#
# Convention : Reuss Voigt Hill
#
# Bulk Modulus (GPa) = 3.10959 39.16435 21.13697
# Shear Modulus (GPa) = 6.91810 34.02453 20.47131
#
# Velocity S-wave (km/s) = 1.87347 4.15479 3.22275
# Velocity P-wave (km/s) = 2.50150 6.54877 4.95701
#
# Compressibility (1/GPa) = 0.32158622
#
# Stress axis : x y z
#
# Youngs Moduli (GPa) = 79.47846 2.66135 68.60450
#
# Poissons Ratio (x) = 0.07613 0.28415
# Poissons Ratio (y) = 2.27345 0.54295
# Poissons Ratio (z) = 0.32919 0.02106
#
# Static dielectric constant tensor:
#      x y z
#    x 1.596150 0.000000 0.026210 
#    y 0.000000 1.662760 0.000000 
#    z 0.026210 0.000000 1.708320 
# 
# From -- ./inp_files/71517.got.cif
#   From: 2010.05.17/outbox.ucp.g08.bks.cvg/sg10_36_cif.got.tgz:71517.got - 2010.06.11 11:31:16.
