data_PCOD9155797
_publ_section_title
;
Structure prediction by ZEFSAII (Michael W. Deem and Ramdas Pophale) SiO2 
 PCOD9155797
Probable space group: P 21/M
;
_chemical_formula_sum "Si O2"
_cell_formula_units_Z 24
_cell_length_a 7.951141
_cell_length_b 18.721017
_cell_length_c 8.912789
_cell_angle_alpha 90.000000
_cell_angle_beta 48.555594
_cell_angle_gamma 90.000000
_cell_volume 994.491590
_symmetry_space_group_name_H-M "P 21/M"
_symmetry_group_IT_number 11
_symmetry_cell_setting 'monoclinic'
loop_
_space_group_symop_operation_xyz
x,y,z
-x,1/2+y,-z
-x,-y,-z
x,1/2-y,z
loop_
_atom_site_type_symbol
_atom_site_label
_atom_site_fract_x
_atom_site_fract_y
_atom_site_fract_z
Si Si1 0.379482 0.900622 0.584642
Si Si2 0.161530 0.029702 0.575820
Si Si3 0.281104 0.250000 0.042516
Si Si4 0.271598 0.380712 0.236344
Si Si5 0.468549 0.250000 0.603982
Si Si6 0.788455 0.750000 0.532662
Si Si7 0.790809 0.250000 0.854749
Si Si8 0.238944 0.905024 0.010592
O O1 0.635736 0.927639 0.457804
O O2 0.389592 0.820414 0.517852
O O3 0.250566 0.949556 0.541232
O O4 0.267353 0.913015 0.814890
O O5 0.147538 0.061237 0.414576
O O6 0.938198 0.044123 0.803444
O O7 0.339495 0.250000 0.835740
O O8 0.532309 0.250000 0.962597
O O9 0.180044 0.326699 0.160277
O O10 0.316143 0.319243 0.334175
O O11 0.515263 0.413103 0.057443
O O12 0.267496 0.250000 0.605036
O O13 0.055791 0.750000 0.385466
O O14 0.834071 0.323559 0.914595
#
# Coordination Sequence:
#
# PCOD9155797 Si02
#       8
#     4   4   2   4   2   2   2   4
#     4  10  21  31  52  82 118 145 180 239 293 323
#     4  10  18  32  54  85 109 142 194 238 270 335
#     4   9  22  33  56  80 118 149 185 228 292 331
#     4   9  18  34  54  82 103 148 191 229 265 339
#     4  12  19  38  54  82 121 147 171 245 294 321
#     4  11  16  33  61  80 105 139 197 230 274 321
#     4  10  17  30  57  80  98 151 189 223 270 343
#     4  10  16  29  53  80 104 137 187 227 277 323
#
# _framework density 24.132933999999999
#
# number of rings (size 3 to 8) (size 9 to 14) (size 15 to 20)
#    0.000    2.000    5.000    1.500    0.000    0.000 
#    0.000    0.833   14.667    4.000    0.000    0.000 
#    0.000    0.000    0.000    0.000    0.000    0.000 
#
# Total GULP energy -133979.935852 kJ/mol
# GULP energy per Si atom -5582.497327 kJ/mol
# Density = 2.407801 g / cm^3
# Si number density = 24.132934 Si / 1000 Ang^3
#
#
#
# Elastic Constant Matrix: (Units=GPa)
#
#
# Indices 1 2 3 4 5 6 
#
# 1 46.4320 13.1265 29.0008 0.0000 -6.8825 0.0000
# 2 13.1265 130.6975 23.6762 0.0000 -1.3792 0.0000
# 3 29.0008 23.6762 141.9539 0.0000 2.8516 0.0000
# 4 0.0000 0.0000 0.0000 33.9098 0.0000 -11.7229
# 5 -6.8825 -1.3792 2.8516 0.0000 39.5823 0.0000
# 6 0.0000 0.0000 0.0000 -11.7229 0.0000 15.6791
#
#
#
# Elastic Compliance Matrix: (Units=1/GPa)
#
#
# Indices 1 2 3 4 5 6 
#
# 1 0.025907 -0.001624 -0.005119 0.000000 0.004817 0.000000
# 2 -0.001624 0.007997 -0.001003 0.000000 0.000069 0.000000
# 3 -0.005119 -0.001003 0.008288 0.000000 -0.001522 0.000000
# 4 0.000000 0.000000 0.000000 0.039769 0.000000 0.029735
# 5 0.004817 0.000069 -0.001522 0.000000 0.026213 0.000000
# 6 0.000000 0.000000 0.000000 0.029735 0.000000 0.086011
#
#
# Mechanical properties :
#
#
# Convention : Reuss Voigt Hill
#
# Bulk Modulus (GPa) = 37.45294 50.07671 43.76483
# Shear Modulus (GPa) = 22.87516 34.71958 28.79737
#
# Velocity S-wave (km/s) = 3.08211 3.79711 3.45814
# Velocity P-wave (km/s) = 5.31215 6.32609 5.84117
#
# Compressibility (1/GPa) = 0.02670018
#
# Stress axis : x y z
#
# Youngs Moduli (GPa) = 38.59968 125.04935 120.65347
#
# Poissons Ratio (x) = 0.20306 0.61758
# Poissons Ratio (y) = 0.06268 0.12106
# Poissons Ratio (z) = 0.19758 0.12548
#
# Static dielectric constant tensor:
#      x y z
#    x 1.981460 0.000000 -0.035960 
#    y 0.000000 1.976580 0.000000 
#    z -0.035960 0.000000 1.992040 
# 
# From -- ./inp_files/19099.got.cif
#   From: 2010.05.17/outbox.cif.g08.bks.cpg/sg11_10_cif.got.tgz:19099.got - 2010.06.03 12:22:45.
