data_PCOD9155793
_publ_section_title
;
Structure prediction by ZEFSAII (Michael W. Deem and Ramdas Pophale) SiO2 
 PCOD9155793
Probable space group: P 21/M
;
_chemical_formula_sum "Si O2"
_cell_formula_units_Z 16
_cell_length_a 9.358402
_cell_length_b 9.194042
_cell_length_c 20.490116
_cell_angle_alpha 90.000000
_cell_angle_beta 160.233713
_cell_angle_gamma 90.000000
_cell_volume 596.219215
_symmetry_space_group_name_H-M "P 21/M"
_symmetry_group_IT_number 11
_symmetry_cell_setting 'monoclinic'
loop_
_space_group_symop_operation_xyz
x,y,z
-x,1/2+y,-z
-x,-y,-z
x,1/2-y,z
loop_
_atom_site_type_symbol
_atom_site_label
_atom_site_fract_x
_atom_site_fract_y
_atom_site_fract_z
Si Si1 0.506950 0.750000 0.571518
Si Si2 0.047239 0.518887 0.443780
Si Si3 0.937403 0.750000 0.076297
Si Si4 0.818820 0.083052 0.005214
Si Si5 0.981504 0.750000 0.650766
Si Si6 0.291106 0.250000 0.871224
O O1 0.429480 0.622232 0.588188
O O2 0.897681 0.750000 0.691338
O O3 0.119531 0.750000 0.352842
O O4 0.185866 0.384454 0.460043
O O5 0.000000 0.500000 0.500000
O O6 0.590977 0.568543 0.219342
O O7 0.052184 0.577156 0.106468
O O8 0.471690 0.750000 0.847175
O O9 0.875073 0.750000 0.127404
O O10 0.995523 0.250000 0.064757
O O11 0.579956 0.113520 0.971825
#
# Coordination Sequence:
#
# PCOD9155793 Si02
#       6
#     2   4   2   4   2   2
#     4  10  19  35  48  77 112 129 165 228 270 306
#     4  10  18  32  51  71 101 141 175 206 258 323
#     4  10  16  29  48  77  98 137 178 204 262 320
#     4   8  17  28  44  72 100 123 170 225 246 290
#     4  10  21  29  50  81 104 131 169 222 272 302
#     4   8  16  29  48  67 104 139 164 214 262 306
#
# _framework density 26.835767000000001
#
# number of rings (size 3 to 8) (size 9 to 14) (size 15 to 20)
#    0.750    2.000    1.250    2.250    0.000    0.000 
#    0.000    0.000    0.000    0.000    0.000   42.000 
#    0.000    0.000    0.000    0.000    0.000    0.000 
#
# Total GULP energy -89129.329157 kJ/mol
# GULP energy per Si atom -5570.583072 kJ/mol
# Density = 2.677469 g / cm^3
# Si number density = 26.835767 Si / 1000 Ang^3
#
#
#
# Elastic Constant Matrix: (Units=GPa)
#
#
# Indices 1 2 3 4 5 6 
#
# 1 179.0278 72.5629 26.0482 0.0000 -4.4791 0.0000
# 2 72.5629 229.9291 40.7770 0.0000 -2.0940 0.0000
# 3 26.0482 40.7770 69.8641 0.0000 -10.1259 0.0000
# 4 0.0000 0.0000 0.0000 39.7425 0.0000 -16.4718
# 5 -4.4791 -2.0940 -10.1259 0.0000 40.6948 0.0000
# 6 0.0000 0.0000 0.0000 -16.4718 0.0000 24.0223
#
#
#
# Elastic Compliance Matrix: (Units=1/GPa)
#
#
# Indices 1 2 3 4 5 6 
#
# 1 0.006524 -0.001821 -0.001327 0.000000 0.000294 0.000000
# 2 -0.001821 0.005368 -0.002535 0.000000 -0.000555 0.000000
# 3 -0.001327 -0.002535 0.016856 0.000000 0.003918 0.000000
# 4 0.000000 0.000000 0.000000 0.035152 0.000000 0.024103
# 5 0.000294 -0.000555 0.003918 0.000000 0.025552 0.000000
# 6 0.000000 0.000000 0.000000 0.024103 0.000000 0.058155
#
#
# Mechanical properties :
#
#
# Convention : Reuss Voigt Hill
#
# Bulk Modulus (GPa) = 57.52901 84.17748 70.85325
# Shear Modulus (GPa) = 30.34588 43.52075 36.93332
#
# Velocity S-wave (km/s) = 3.36638 4.03146 3.71384
# Velocity P-wave (km/s) = 6.04930 7.28738 6.69701
#
# Compressibility (1/GPa) = 0.01738253
#
# Stress axis : x y z
#
# Youngs Moduli (GPa) = 153.27486 186.27816 59.32766
#
# Poissons Ratio (x) = 0.33920 0.07873
# Poissons Ratio (y) = 0.27910 0.15038
# Poissons Ratio (z) = 0.20340 0.47218
#
# Static dielectric constant tensor:
#      x y z
#    x 1.983010 0.000000 -0.026080 
#    y 0.000000 2.139260 0.000000 
#    z -0.026080 0.000000 2.181590 
# 
# From -- ./inp_files/44888.got.cif
#   From: 2010.05.17/outbox.cif.g08.bks.cpg/sg11_23_cif.got.tgz:44888.got - 2010.06.03 12:22:45.
