data_PCOD9155974
_publ_section_title
;
Structure prediction by ZEFSAII (Michael W. Deem and Ramdas Pophale) SiO2 
 PCOD9155974
Probable space group: P 21/M
;
_chemical_formula_sum "Si O2"
_cell_formula_units_Z 32
_cell_length_a 22.320334
_cell_length_b 13.920659
_cell_length_c 23.412867
_cell_angle_alpha 90.000000
_cell_angle_beta 17.572799
_cell_angle_gamma 90.000000
_cell_volume 2196.357987
_symmetry_space_group_name_H-M "P 21/M"
_symmetry_group_IT_number 11
_symmetry_cell_setting 'monoclinic'
loop_
_space_group_symop_operation_xyz
x,y,z
-x,1/2+y,-z
-x,-y,-z
x,1/2-y,z
loop_
_atom_site_type_symbol
_atom_site_label
_atom_site_fract_x
_atom_site_fract_y
_atom_site_fract_z
Si Si1 0.837803 0.862114 0.571890
Si Si2 0.481586 0.362114 0.428108
Si Si3 0.248014 0.545987 0.169194
Si Si4 0.379164 0.138799 0.109645
Si Si5 0.584975 0.364450 0.094646
Si Si6 0.274262 0.864450 0.905359
Si Si7 0.086403 0.045987 0.830805
Si Si8 0.098454 0.861201 0.890354
O O1 0.892615 0.750000 0.513419
O O2 0.757453 0.872429 0.709573
O O3 0.647796 0.883836 0.704812
O O4 0.025366 0.927533 0.388515
O O5 0.419457 0.250000 0.486578
O O6 0.557428 0.383837 0.295182
O O7 0.302400 0.427533 0.611483
O O8 0.676599 0.372429 0.290429
O O9 0.301922 0.435758 0.133019
O O10 0.401586 0.606870 0.069065
O O11 0.293523 0.577626 0.063271
O O12 0.377883 0.250000 0.093817
O O13 0.612582 0.250000 0.058543
O O14 0.652644 0.384673 0.097356
O O15 0.229665 0.750000 0.941460
O O16 0.079929 0.922374 0.063278
O O17 0.067959 0.935758 0.866981
O O18 0.039713 0.106871 0.930937
O O19 0.065518 0.750000 0.906182
#
# Coordination Sequence:
#
# PCOD9155974 Si02
#       8
#     4   4   4   4   4   4   4   4
#     4   9  16  27  43  63  88 115 141 171 210 255
#     4   9  16  27  43  63  88 115 141 171 210 255
#     4  10  17  28  47  65  86 117 144 169 211 259
#     4   9  18  29  42  66  93 112 139 177 210 249
#     4   9  18  30  43  64  90 111 140 181 215 249
#     4   9  18  30  43  64  90 111 140 181 215 249
#     4  10  17  28  47  65  86 117 144 169 211 259
#     4   9  18  29  42  66  93 112 139 177 210 249
#
# _framework density 14.569573999999999
#
# number of rings (size 3 to 8) (size 9 to 14) (size 15 to 20)
#    0.000    2.750    0.000    4.500    0.000    1.000 
#    0.000    2.500    0.000    0.750    0.000    0.000 
#    0.000    0.000    0.000    0.000    0.000    0.000 
#
# Total GULP energy -178338.965140 kJ/mol
# GULP energy per Si atom -5573.092661 kJ/mol
# Density = 1.453641 g / cm^3
# Si number density = 14.569574 Si / 1000 Ang^3
#
#
#
# Elastic Constant Matrix: (Units=GPa)
#
#
# Indices 1 2 3 4 5 6 
#
# 1 82.2649 50.4999 32.0734 0.0000 3.7473 0.0000
# 2 50.4999 97.5481 44.7603 0.0000 0.5288 0.0000
# 3 32.0734 44.7603 64.4879 0.0000 -2.1088 0.0000
# 4 0.0000 0.0000 0.0000 16.8317 0.0000 0.6106
# 5 3.7473 0.5288 -2.1088 0.0000 5.3342 0.0000
# 6 0.0000 0.0000 0.0000 0.6106 0.0000 23.4494
#
#
#
# Elastic Compliance Matrix: (Units=1/GPa)
#
#
# Indices 1 2 3 4 5 6 
#
# 1 0.019485 -0.007833 -0.004737 0.000000 -0.014784 0.000000
# 2 -0.007833 0.018364 -0.008844 0.000000 0.000186 0.000000
# 3 -0.004737 -0.008844 0.024455 0.000000 0.013873 0.000000
# 4 0.000000 0.000000 0.000000 0.059468 0.000000 -0.001549
# 5 -0.014784 0.000186 0.013873 0.000000 0.203320 0.000000
# 6 0.000000 0.000000 0.000000 -0.001549 0.000000 0.042685
#
#
# Mechanical properties :
#
#
# Convention : Reuss Voigt Hill
#
# Bulk Modulus (GPa) = 51.34962 55.44092 53.39527
# Shear Modulus (GPa) = 11.98758 16.92088 14.45423
#
# Velocity S-wave (km/s) = 2.87153 3.41161 3.15315
# Velocity P-wave (km/s) = 6.80553 7.32488 7.06997
#
# Compressibility (1/GPa) = 0.01947434
#
# Stress axis : x y z
#
# Youngs Moduli (GPa) = 51.32173 54.45530 40.89114
#
# Poissons Ratio (x) = 0.42656 0.19372
# Poissons Ratio (y) = 0.40202 0.36164
# Poissons Ratio (z) = 0.24313 0.48160
#
# Static dielectric constant tensor:
#      x y z
#    x 1.465850 0.000000 -0.000920 
#    y 0.000000 1.475730 0.000000 
#    z -0.000920 0.000000 1.475770 
# 
# From -- ./inp_files/7057.got.cif
#   From: 2010.05.17/outbox.cif.g08.bks.cpg/sg11_4_cif.got.tgz:7057.got - 2010.06.03 12:22:45.
