data_PCOD9155647
_publ_section_title
;
Structure prediction by ZEFSAII (Michael W. Deem and Ramdas Pophale) SiO2 
 PCOD9155647
Probable space group: P 2/M
;
_chemical_formula_sum "Si O2"
_cell_formula_units_Z 28
_cell_length_a 9.000000
_cell_length_b 9.000000
_cell_length_c 27.000000
_cell_angle_alpha 90.000000
_cell_angle_beta 40.000000
_cell_angle_gamma 90.000000
_cell_volume 1405.776502
_symmetry_space_group_name_H-M "P 2/M"
_symmetry_group_IT_number 10
_symmetry_cell_setting 'monoclinic'
loop_
_space_group_symop_operation_xyz
x,y,z
-x,y,-z
-x,-y,-z
x,-y,z
loop_
_atom_site_type_symbol
_atom_site_label
_atom_site_fract_x
_atom_site_fract_y
_atom_site_fract_z
Si Si1 0.977409 0.320696 0.690188
Si Si2 0.349827 0.823113 0.393561
Si Si3 0.108726 0.823413 0.555650
Si Si4 0.825555 0.677208 0.252598
Si Si5 0.572377 0.326763 0.037155
Si Si6 0.897522 0.673783 0.122456
Si Si7 0.494279 0.822120 0.162442
O O1 0.970540 0.500000 0.690585
O O2 0.722645 0.250266 0.753904
O O3 0.111389 0.261465 0.607206
O O4 0.072784 0.271554 0.720192
O O5 0.290269 0.782250 0.465870
O O6 0.562027 0.728713 0.320405
O O7 0.133016 0.800588 0.412212
O O8 0.399760 0.000000 0.380288
O O9 0.131803 0.000000 0.559353
O O10 0.850106 0.500000 0.247126
O O11 0.920593 0.725030 0.174235
O O12 0.494180 0.500000 0.061838
O O13 0.490867 0.238133 0.106464
O O14 0.500000 0.276875 0.000000
O O15 0.849726 0.322173 0.966063
O O16 0.821345 0.500000 0.142474
O O17 0.720205 0.767005 0.134620
O O18 0.481021 0.000000 0.165989
#
# Coordination Sequence:
#
# PCOD9155647 Si02
#       7
#     4   4   4   4   4   4   4
#     4  11  23  39  58  82 113 149 190 236 285 336
#     4   9  19  36  58  82 113 150 186 228 280 339
#     4   9  19  37  58  83 113 147 188 231 279 336
#     4  10  22  38  57  83 113 145 188 237 281 331
#     4  10  21  40  65  89 116 151 190 231 277 331
#     4  10  21  39  62  85 112 150 191 231 278 331
#     4  12  25  39  58  86 118 150 188 234 281 334
#
# _framework density 19.917818
#
# number of rings (size 3 to 8) (size 9 to 14) (size 15 to 20)
#    0.000    1.857    0.000    4.714    0.000   10.571 
#    0.000    5.714    0.000    0.000    0.000    0.000 
#    0.000    0.000    0.000    0.000    0.000    0.000 
#
# Total GULP energy -156346.798466 kJ/mol
# GULP energy per Si atom -5583.814231 kJ/mol
# Density = 1.987248 g / cm^3
# Si number density = 19.917818 Si / 1000 Ang^3
#
#
#
# Elastic Constant Matrix: (Units=GPa)
#
#
# Indices 1 2 3 4 5 6 
#
# 1 45.5193 11.3809 -11.0977 0.0000 25.5482 0.0000
# 2 11.3809 42.3457 10.4113 0.0000 17.6232 0.0000
# 3 -11.0977 10.4113 66.1172 0.0000 24.4811 0.0000
# 4 0.0000 0.0000 0.0000 102.4112 0.0000 32.8264
# 5 25.5482 17.6232 24.4811 0.0000 40.5902 0.0000
# 6 0.0000 0.0000 0.0000 32.8264 0.0000 31.0004
#
#
#
# Elastic Compliance Matrix: (Units=1/GPa)
#
#
# Indices 1 2 3 4 5 6 
#
# 1 0.063468 -0.000322 0.032759 0.000000 -0.059565 0.000000
# 2 -0.000322 0.028826 -0.000044 0.000000 -0.012286 0.000000
# 3 0.032759 -0.000044 0.036382 0.000000 -0.042543 0.000000
# 4 0.000000 0.000000 0.000000 0.014782 0.000000 -0.015652
# 5 -0.059565 -0.012286 -0.042543 0.000000 0.093121 0.000000
# 6 0.000000 0.000000 0.000000 -0.015652 0.000000 0.048832
#
#
# Mechanical properties :
#
#
# Convention : Reuss Voigt Hill
#
# Bulk Modulus (GPa) = 5.16901 19.48569 12.32735
# Shear Modulus (GPa) = 17.53692 44.35287 30.94489
#
# Velocity S-wave (km/s) = 2.97048 4.72401 3.94589
# Velocity P-wave (km/s) = 3.79023 6.28962 5.19255
#
# Compressibility (1/GPa) = 0.19346070
#
# Stress axis : x y z
#
# Youngs Moduli (GPa) = 15.75605 34.69127 27.48575
#
# Poissons Ratio (x) = 0.01118 -0.90040
# Poissons Ratio (y) = 0.00508 0.00121
# Poissons Ratio (z) = -0.51615 0.00153
#
# Static dielectric constant tensor:
#      x y z
#    x 1.713550 0.000000 -0.011600 
#    y 0.000000 1.668350 0.000000 
#    z -0.011600 0.000000 1.713170 
# 
# From -- ./inp_files/36995.got.cif
#   From: 2010.05.17/outbox.ucp.g08.bks.cvg/sg10_19_cif.got.tgz:36995.got - 2010.06.11 11:31:16.
