data_PCOD9155819
_publ_section_title
;
Structure prediction by ZEFSAII (Michael W. Deem and Ramdas Pophale) SiO2 
 PCOD9155819
Probable space group: P 21/M
;
_chemical_formula_sum "Si O2"
_cell_formula_units_Z 32
_cell_length_a 9.565765
_cell_length_b 28.871936
_cell_length_c 12.801776
_cell_angle_alpha 90.000000
_cell_angle_beta 151.482153
_cell_angle_gamma 90.000000
_cell_volume 1688.020815
_symmetry_space_group_name_H-M "P 21/M"
_symmetry_group_IT_number 11
_symmetry_cell_setting 'monoclinic'
loop_
_space_group_symop_operation_xyz
x,y,z
-x,1/2+y,-z
-x,-y,-z
x,1/2-y,z
loop_
_atom_site_type_symbol
_atom_site_label
_atom_site_fract_x
_atom_site_fract_y
_atom_site_fract_z
Si Si1 0.140946 0.299108 0.435478
Si Si2 0.632203 0.554493 0.765147
Si Si3 0.141037 0.331578 0.215960
Si Si4 0.477422 0.363021 0.806259
Si Si5 0.605504 0.407493 0.581862
Si Si6 0.561237 0.696758 0.021474
Si Si7 0.806359 0.647759 0.979839
Si Si8 0.687411 0.046185 0.854131
O O1 0.244268 0.250000 0.550364
O O2 0.212021 0.298603 0.359010
O O3 0.280844 0.342894 0.584040
O O4 0.791608 0.302136 0.216751
O O5 0.384950 0.559638 0.513644
O O6 0.631776 0.600540 0.835888
O O7 0.608830 0.507375 0.815142
O O8 0.957724 0.550925 0.924154
O O9 0.327808 0.376349 0.371020
O O10 0.196896 0.323069 0.130483
O O11 0.798142 0.341671 0.998116
O O12 0.539835 0.417784 0.837589
O O13 0.361072 0.339917 0.836218
O O14 0.577156 0.437344 0.667470
O O15 0.875203 0.372655 0.779740
O O16 0.657030 0.750000 0.105516
O O17 0.684743 0.677571 0.994325
#
# Coordination Sequence:
#
# PCOD9155819 Si02
#       8
#     4   4   4   4   4   4   4   4
#     4  10  21  37  58  81 104 140 190 238 289 334
#     4   9  19  31  54  86 119 147 185 223 277 334
#     4  10  18  34  56  83 111 139 182 232 283 325
#     4  11  19  36  59  84 112 144 184 236 281 329
#     4  10  16  32  54  84 115 146 177 224 281 329
#     4  10  24  41  57  78 108 152 193 231 279 337
#     4  10  20  36  56  81 117 150 187 230 275 335
#     4  10  17  31  55  88 114 146 186 228 276 333
#
# _framework density 18.957111999999999
#
# number of rings (size 3 to 8) (size 9 to 14) (size 15 to 20)
#    0.000    2.000    5.000    0.750    0.000    3.000 
#    0.000    2.500    0.000    1.500    0.000    0.000 
#    0.000    0.000    0.000    0.000    0.000    0.000 
#
# Total GULP energy -178151.151608 kJ/mol
# GULP energy per Si atom -5567.223488 kJ/mol
# Density = 1.891396 g / cm^3
# Si number density = 18.957112 Si / 1000 Ang^3
#
#
#
# Elastic Constant Matrix: (Units=GPa)
#
#
# Indices 1 2 3 4 5 6 
#
# 1 96.3213 22.7098 11.2814 0.0000 -25.6431 0.0000
# 2 22.7098 52.1739 -0.0040 0.0000 1.9192 0.0000
# 3 11.2814 -0.0040 54.0174 0.0000 -19.4042 0.0000
# 4 0.0000 0.0000 0.0000 13.1906 0.0000 -4.0573
# 5 -25.6431 1.9192 -19.4042 0.0000 15.1823 0.0000
# 6 0.0000 0.0000 0.0000 -4.0573 0.0000 21.3585
#
#
#
# Elastic Compliance Matrix: (Units=1/GPa)
#
#
# Indices 1 2 3 4 5 6 
#
# 1 0.044825 -0.024050 0.034989 0.000000 0.123468 0.000000
# 2 -0.024050 0.032236 -0.020393 0.000000 -0.070760 0.000000
# 3 0.034989 -0.020393 0.061674 0.000000 0.140499 0.000000
# 4 0.000000 0.000000 0.000000 0.080516 0.000000 0.015295
# 5 0.123468 -0.070760 0.140499 0.000000 0.462918 0.000000
# 6 0.000000 0.000000 0.000000 0.015295 0.000000 0.049725
#
#
# Mechanical properties :
#
#
# Convention : Reuss Voigt Hill
#
# Bulk Modulus (GPa) = 8.34544 30.05413 19.19978
# Shear Modulus (GPa) = 6.32315 21.18130 13.75222
#
# Velocity S-wave (km/s) = 1.82832 3.34627 2.69632
# Velocity P-wave (km/s) = 2.97806 5.55141 4.45461
#
# Compressibility (1/GPa) = 0.11982598
#
# Stress axis : x y z
#
# Youngs Moduli (GPa) = 22.30921 31.02080 16.21433
#
# Poissons Ratio (x) = 0.74605 -0.56732
# Poissons Ratio (y) = 0.53654 0.33067
# Poissons Ratio (z) = -0.78058 0.63262
#
# Static dielectric constant tensor:
#      x y z
#    x 1.667670 0.000000 -0.020830 
#    y 0.000000 1.725720 0.000000 
#    z -0.020830 0.000000 1.665150 
# 
# From -- ./inp_files/33213.got.cif
#   From: 2010.05.17/outbox.cif.g08.bks.cpg/sg11_17_cif.got.tgz:33213.got - 2010.06.03 12:22:45.
