data_PCOD9155492
_publ_section_title
;
Structure prediction by ZEFSAII (Michael W. Deem and Ramdas Pophale) SiO2 
 PCOD9155492
Probable space group: P 2/M
;
_chemical_formula_sum "Si O2"
_cell_formula_units_Z 32
_cell_length_a 30.000000
_cell_length_b 9.000000
_cell_length_c 12.000000
_cell_angle_alpha 90.000000
_cell_angle_beta 150.000000
_cell_angle_gamma 90.000000
_cell_volume 1620.000000
_symmetry_space_group_name_H-M "P 2/M"
_symmetry_group_IT_number 10
_symmetry_cell_setting 'monoclinic'
loop_
_space_group_symop_operation_xyz
x,y,z
-x,y,-z
-x,-y,-z
x,-y,z
loop_
_atom_site_type_symbol
_atom_site_label
_atom_site_fract_x
_atom_site_fract_y
_atom_site_fract_z
Si Si1 0.922378 0.326662 0.107674
Si Si2 0.287878 0.679428 0.981299
Si Si3 0.590725 0.677931 0.951166
Si Si4 0.113395 0.327794 0.474885
Si Si5 0.308196 0.831419 0.633850
Si Si6 0.387944 0.322284 0.591285
Si Si7 0.758714 0.177305 0.882723
Si Si8 0.899250 0.762967 0.804116
O O1 0.918852 0.500000 0.132718
O O2 0.849321 0.240834 0.022192
O O3 0.905991 0.318695 0.938060
O O4 0.023076 0.261924 0.332760
O O5 0.286473 0.500000 0.994287
O O6 0.379099 0.713000 0.110698
O O7 0.266404 0.756738 0.051218
O O8 0.205855 0.727837 0.723999
O O9 0.605133 0.500000 0.996210
O O10 0.489702 0.708806 0.772985
O O11 0.657154 0.766626 0.174987
O O12 0.109198 0.500000 0.496517
O O13 0.111322 0.320350 0.336552
O O14 0.356756 0.729622 0.646267
O O15 0.199628 0.834785 0.396204
O O16 0.338948 0.000000 0.683729
O O17 0.374804 0.500000 0.553193
O O18 0.321000 0.233452 0.367876
O O19 0.763897 0.000000 0.897370
O O20 0.000000 0.832930 0.000000
#
# Coordination Sequence:
#
# PCOD9155492 Si02
#       8
#     4   4   4   4   4   4   4   4
#     4  10  20  36  63  94 124 162 204 250 301 361
#     4  10  21  41  66  89 119 158 207 260 304 360
#     4  10  23  43  68  94 120 156 206 258 307 362
#     4   9  18  35  62  95 124 157 204 254 301 354
#     4  12  24  38  62  96 134 169 198 240 304 370
#     4  11  24  43  67  92 119 158 207 258 308 361
#     4  12  26  42  60  87 124 163 205 254 311 371
#     4  10  20  35  60  96 133 164 198 244 298 361
#
# _framework density 19.753086
#
# number of rings (size 3 to 8) (size 9 to 14) (size 15 to 20)
#    0.000    1.500    2.500    2.625    0.000    6.750 
#    0.000    7.500    0.000    0.000    0.000    0.000 
#    0.000    0.000    0.000    0.000    0.000    0.000 
#
# Total GULP energy -178282.484042 kJ/mol
# GULP energy per Si atom -5571.327626 kJ/mol
# Density = 1.970813 g / cm^3
# Si number density = 19.753086 Si / 1000 Ang^3
#
#
#
# Elastic Constant Matrix: (Units=GPa)
#
#
# Indices 1 2 3 4 5 6 
#
# 1 171.2739 57.2388 38.8444 0.0000 17.9339 0.0000
# 2 57.2388 71.9736 21.2468 0.0000 15.7539 0.0000
# 3 38.8444 21.2468 32.1263 0.0000 20.5347 0.0000
# 4 0.0000 0.0000 0.0000 19.9430 0.0000 -24.2213
# 5 17.9339 15.7539 20.5347 0.0000 39.8849 0.0000
# 6 0.0000 0.0000 0.0000 -24.2213 0.0000 28.9426
#
#
#
# Elastic Compliance Matrix: (Units=1/GPa)
#
#
# Indices 1 2 3 4 5 6 
#
# 1 0.009553 -0.005312 -0.009887 0.000000 0.002893 0.000000
# 2 -0.005312 0.020271 -0.005056 0.000000 -0.003015 0.000000
# 3 -0.009887 -0.005056 0.063059 0.000000 -0.026023 0.000000
# 4 0.000000 0.000000 0.000000 -3.056633 0.000000 -2.558013
# 5 0.002893 -0.003015 -0.026023 0.000000 0.038360 0.000000
# 6 0.000000 0.000000 0.000000 -2.558013 0.000000 -2.106181
#
#
# Mechanical properties :
#
#
# Convention : Reuss Voigt Hill
#
# Bulk Modulus (GPa) = 19.09377 56.67043 37.88210
# Shear Modulus (GPa) = -1.00531 28.29036 13.64252
#
# Velocity S-wave (km/s) = -0.71417 3.78855 2.63088
# Velocity P-wave (km/s) = 3.00119 6.92020 5.33368
#
# Compressibility (1/GPa) = 0.05237310
#
# Stress axis : x y z
#
# Youngs Moduli (GPa) = 104.67589 49.33133 15.85804
#
# Poissons Ratio (x) = 0.26205 0.15679
# Poissons Ratio (y) = 0.55604 0.08018
# Poissons Ratio (z) = 1.03494 0.24943
#
# Static dielectric constant tensor:
#      x y z
#    x 1.702640 0.000000 0.005750 
#    y 0.000000 1.681330 0.000000 
#    z 0.005750 0.000000 1.736990 
# 
# From -- ./inp_files/58294.got.cif
#   From: 2010.05.17/outbox.ucp.g08.bks.cvg/sg10_30_cif.got.tgz:58294.got - 2010.06.11 11:31:16.
