data_PCOD9155463
_publ_section_title
;
Structure prediction by ZEFSAII (Michael W. Deem and Ramdas Pophale) SiO2 
 PCOD9155463
Probable space group: P 2/M
;
_chemical_formula_sum "Si O2"
_cell_formula_units_Z 32
_cell_length_a 12.000000
_cell_length_b 21.000000
_cell_length_c 9.000000
_cell_angle_alpha 90.000000
_cell_angle_beta 50.000000
_cell_angle_gamma 90.000000
_cell_volume 1737.388797
_symmetry_space_group_name_H-M "P 2/M"
_symmetry_group_IT_number 10
_symmetry_cell_setting 'monoclinic'
loop_
_space_group_symop_operation_xyz
x,y,z
-x,y,-z
-x,-y,-z
x,-y,z
loop_
_atom_site_type_symbol
_atom_site_label
_atom_site_fract_x
_atom_site_fract_y
_atom_site_fract_z
Si Si1 0.214308 0.676541 0.630055
Si Si2 0.657568 0.925839 0.919568
Si Si3 0.855770 0.182182 0.225331
Si Si4 0.920252 0.631565 0.718028
Si Si5 0.652789 0.928320 0.280586
Si Si6 0.657584 0.704607 0.784188
Si Si7 0.831966 0.570310 0.092775
Si Si8 0.843031 0.171844 0.581262
O O1 0.210504 0.746670 0.705448
O O2 0.327188 0.673655 0.394703
O O3 0.235408 0.624044 0.741074
O O4 0.053316 0.666610 0.691871
O O5 0.786277 0.886370 0.730844
O O6 0.672568 0.000000 0.863225
O O7 0.500000 0.902425 0.000000
O O8 0.647112 0.923339 0.106886
O O9 0.751382 0.129855 0.245153
O O10 0.871353 0.159541 0.383046
O O11 0.000000 0.185528 0.000000
O O12 0.786616 0.674046 0.773300
O O13 0.000000 0.604442 0.500000
O O14 0.846462 0.586937 0.905871
O O15 0.500000 0.923295 0.500000
O O16 0.709684 0.000000 0.266080
O O17 0.715463 0.776139 0.707526
O O18 0.500000 0.700806 0.000000
O O19 0.767013 0.500000 0.169939
O O20 0.000000 0.567777 0.000000
O O21 0.000000 0.196975 0.500000
#
# Coordination Sequence:
#
# PCOD9155463 Si02
#       8
#     4   4   4   4   4   4   4   4
#     4   9  19  36  55  82 112 142 180 224 276 323
#     4  10  21  38  58  79 107 144 184 225 270 327
#     4  11  21  35  56  81 110 143 179 224 276 328
#     4   9  17  32  55  80 111 143 176 226 276 318
#     4  10  22  39  57  80 110 143 180 224 274 324
#     4  10  20  35  55  79 107 140 180 224 272 328
#     4   9  17  31  55  84 112 145 186 229 271 322
#     4  11  22  36  56  81 108 140 180 227 280 331
#
# _framework density 18.418444999999998
#
# number of rings (size 3 to 8) (size 9 to 14) (size 15 to 20)
#    0.000    2.125    0.000    4.875    0.000    4.250 
#    0.000    2.500    0.000    2.250    0.000    0.000 
#    0.000    0.000    0.000    0.000    0.000    0.000 
#
# Total GULP energy -178286.629636 kJ/mol
# GULP energy per Si atom -5571.457176 kJ/mol
# Density = 1.837652 g / cm^3
# Si number density = 18.418445 Si / 1000 Ang^3
#
#
#
# Elastic Constant Matrix: (Units=GPa)
#
#
# Indices 1 2 3 4 5 6 
#
# 1 47.5424 31.9045 33.7109 0.0000 9.3140 0.0000
# 2 31.9045 109.5459 62.2430 0.0000 13.3329 0.0000
# 3 33.7109 62.2430 171.5903 0.0000 3.8952 0.0000
# 4 0.0000 0.0000 0.0000 48.2423 0.0000 -13.9162
# 5 9.3140 13.3329 3.8952 0.0000 31.5034 0.0000
# 6 0.0000 0.0000 0.0000 -13.9162 0.0000 24.1361
#
#
#
# Elastic Compliance Matrix: (Units=1/GPa)
#
#
# Indices 1 2 3 4 5 6 
#
# 1 0.028314 -0.005643 -0.003389 0.000000 -0.005564 0.000000
# 2 -0.005643 0.013254 -0.003620 0.000000 -0.003493 0.000000
# 3 -0.003389 -0.003620 0.007771 0.000000 0.001573 0.000000
# 4 0.000000 0.000000 0.000000 0.024864 0.000000 0.014336
# 5 -0.005564 -0.003493 0.001573 0.000000 0.034672 0.000000
# 6 0.000000 0.000000 0.000000 0.014336 0.000000 0.049698
#
#
# Mechanical properties :
#
#
# Convention : Reuss Voigt Hill
#
# Bulk Modulus (GPa) = 41.60705 64.93285 53.26995
# Shear Modulus (GPa) = 26.05673 34.16435 30.11054
#
# Velocity S-wave (km/s) = 3.76534 4.31153 4.04766
# Velocity P-wave (km/s) = 6.44536 7.75348 7.12948
#
# Compressibility (1/GPa) = 0.02403439
#
# Stress axis : x y z
#
# Youngs Moduli (GPa) = 35.31797 75.44816 128.68294
#
# Poissons Ratio (x) = 0.42579 0.43614
# Poissons Ratio (y) = 0.19931 0.46581
# Poissons Ratio (z) = 0.11970 0.27311
#
# Static dielectric constant tensor:
#      x y z
#    x 1.671700 0.000000 0.048370 
#    y 0.000000 1.661520 0.000000 
#    z 0.048370 0.000000 1.655770 
# 
# From -- ./inp_files/26065.got.cif
#   From: 2010.05.17/outbox.ucp.g08.bks.cvg/sg10_14_cif.got.tgz:26065.got - 2010.06.11 11:31:16.
