data_PCOD9155814
_publ_section_title
;
Structure prediction by ZEFSAII (Michael W. Deem and Ramdas Pophale) SiO2 
 PCOD9155814
Probable space group: P 21/M
;
_chemical_formula_sum "Si O2"
_cell_formula_units_Z 28
_cell_length_a 13.283377
_cell_length_b 19.590771
_cell_length_c 9.130512
_cell_angle_alpha 90.000000
_cell_angle_beta 30.586087
_cell_angle_gamma 90.000000
_cell_volume 1209.010036
_symmetry_space_group_name_H-M "P 21/M"
_symmetry_group_IT_number 11
_symmetry_cell_setting 'monoclinic'
loop_
_space_group_symop_operation_xyz
x,y,z
-x,1/2+y,-z
-x,-y,-z
x,1/2-y,z
loop_
_atom_site_type_symbol
_atom_site_label
_atom_site_fract_x
_atom_site_fract_y
_atom_site_fract_z
Si Si1 0.204432 0.039508 0.301625
Si Si2 0.344767 0.826760 0.067091
Si Si3 0.467699 0.603263 0.650886
Si Si4 0.245243 0.466717 0.931351
Si Si5 0.218253 0.826301 0.753770
Si Si6 0.210320 0.921937 0.496471
Si Si7 0.951539 0.825770 0.357501
O O1 0.162007 0.111470 0.429176
O O2 0.291740 0.990347 0.317187
O O3 0.316946 0.051483 0.007060
O O4 0.000000 0.000000 0.500000
O O5 0.410249 0.750000 0.013512
O O6 0.272624 0.864713 0.301592
O O7 0.152590 0.823910 0.202571
O O8 0.496807 0.870786 0.778800
O O9 0.287946 0.547749 0.873875
O O10 0.641070 0.565801 0.347707
O O11 0.400885 0.667228 0.637112
O O12 0.022422 0.440446 0.200171
O O13 0.210618 0.750000 0.697846
O O14 0.252609 0.887789 0.598830
O O15 0.023490 0.835040 0.099544
O O16 0.861655 0.750000 0.483459
#
# Coordination Sequence:
#
# PCOD9155814 Si02
#       7
#     4   4   4   4   4   4   4
#     4  10  16  31  53  83 109 135 183 235 274 313
#     4  10  17  31  54  78 105 149 191 223 272 337
#     4  10  20  37  56  80 115 153 182 226 294 345
#     4  10  20  34  59  87 111 138 196 246 271 329
#     4  10  21  36  53  81 116 151 185 227 287 347
#     4  11  19  33  59  86 108 140 193 246 270 319
#     4   9  17  30  50  74 106 144 182 221 274 332
#
# _framework density 23.159444000000001
#
# number of rings (size 3 to 8) (size 9 to 14) (size 15 to 20)
#    0.000    2.000    4.286    4.286    0.000    2.286 
#    0.000    5.000    3.143    0.000    0.000    0.000 
#    0.000    0.000    0.000    0.000    0.000    0.000 
#
# Total GULP energy -156239.621480 kJ/mol
# GULP energy per Si atom -5579.986481 kJ/mol
# Density = 2.310673 g / cm^3
# Si number density = 23.159444 Si / 1000 Ang^3
#
#
#
# Elastic Constant Matrix: (Units=GPa)
#
#
# Indices 1 2 3 4 5 6 
#
# 1 45.8770 16.4327 24.9865 0.0000 5.4842 0.0000
# 2 16.4327 172.9469 67.6981 0.0000 9.5773 0.0000
# 3 24.9865 67.6981 124.1768 0.0000 16.2462 0.0000
# 4 0.0000 0.0000 0.0000 33.9239 0.0000 10.6318
# 5 5.4842 9.5773 16.2462 0.0000 21.7522 0.0000
# 6 0.0000 0.0000 0.0000 10.6318 0.0000 16.1655
#
#
#
# Elastic Compliance Matrix: (Units=1/GPa)
#
#
# Indices 1 2 3 4 5 6 
#
# 1 0.024664 -0.000495 -0.004331 0.000000 -0.002766 0.000000
# 2 -0.000495 0.007362 -0.003886 0.000000 -0.000214 0.000000
# 3 -0.004331 -0.003886 0.011833 0.000000 -0.006034 0.000000
# 4 0.000000 0.000000 0.000000 0.037131 0.000000 -0.024421
# 5 -0.002766 -0.000214 -0.006034 0.000000 0.051271 0.000000
# 6 0.000000 0.000000 0.000000 -0.024421 0.000000 0.077922
#
#
# Mechanical properties :
#
#
# Convention : Reuss Voigt Hill
#
# Bulk Modulus (GPa) = 37.82913 62.35948 50.09431
# Shear Modulus (GPa) = 21.14892 29.96054 25.55473
#
# Velocity S-wave (km/s) = 3.02518 3.60066 3.32539
# Velocity P-wave (km/s) = 5.34527 6.65364 6.03502
#
# Compressibility (1/GPa) = 0.02643466
#
# Stress axis : x y z
#
# Youngs Moduli (GPa) = 40.54448 135.82968 84.51215
#
# Poissons Ratio (x) = 0.06723 0.36604
# Poissons Ratio (y) = 0.02007 0.32842
# Poissons Ratio (z) = 0.17561 0.52784
#
# Static dielectric constant tensor:
#      x y z
#    x 1.932990 0.000000 -0.060560 
#    y 0.000000 1.836620 0.000000 
#    z -0.060560 0.000000 1.948150 
# 
# From -- ./inp_files/25254.got.cif
#   From: 2010.05.17/outbox.cif.g08.bks.cpg/sg11_13_cif.got.tgz:25254.got - 2010.06.03 12:22:45.
