data_PCOD9155595
_publ_section_title
;
Structure prediction by ZEFSAII (Michael W. Deem and Ramdas Pophale) SiO2 
 PCOD9155595
Probable space group: P 2/M
;
_chemical_formula_sum "Si O2"
_cell_formula_units_Z 32
_cell_length_a 27.000000
_cell_length_b 9.000000
_cell_length_c 21.000000
_cell_angle_alpha 90.000000
_cell_angle_beta 20.000000
_cell_angle_gamma 90.000000
_cell_volume 1745.328791
_symmetry_space_group_name_H-M "P 2/M"
_symmetry_group_IT_number 10
_symmetry_cell_setting 'monoclinic'
loop_
_space_group_symop_operation_xyz
x,y,z
-x,y,-z
-x,-y,-z
x,-y,z
loop_
_atom_site_type_symbol
_atom_site_label
_atom_site_fract_x
_atom_site_fract_y
_atom_site_fract_z
Si Si1 0.161807 0.674666 0.778053
Si Si2 0.670835 0.321818 0.296290
Si Si3 0.608739 0.677721 0.132954
Si Si4 0.875206 0.819614 0.419762
Si Si5 0.297146 0.178170 0.496464
Si Si6 0.876634 0.178638 0.560667
Si Si7 0.210520 0.178830 0.197167
Si Si8 0.201690 0.820943 0.983887
O O1 0.186472 0.500000 0.732856
O O2 0.267572 0.716697 0.708509
O O3 0.188715 0.772328 0.683367
O O4 0.000000 0.689525 0.000000
O O5 0.500000 0.289259 0.500000
O O6 0.690459 0.500000 0.264216
O O7 0.753873 0.238926 0.139157
O O8 0.612300 0.500000 0.132507
O O9 0.446573 0.739418 0.329788
O O10 0.694710 0.748372 0.088436
O O11 0.683086 0.735960 0.978218
O O12 0.765074 0.775950 0.497292
O O13 0.842976 0.764478 0.530421
O O14 0.872553 0.000000 0.425840
O O15 0.037395 0.779622 0.201679
O O16 0.316077 0.000000 0.474119
O O17 0.789300 0.228627 0.728983
O O18 0.046663 0.203437 0.369790
O O19 0.858001 0.000000 0.582202
O O20 0.237185 0.000000 0.161780
O O21 0.213824 0.000000 0.971264
#
# Coordination Sequence:
#
# PCOD9155595 Si02
#       8
#     4   4   4   4   4   4   4   4
#     4  10  21  38  58  80 112 153 188 224 277 344
#     4  10  21  36  53  76 109 146 182 223 275 332
#     4  12  24  38  55  80 118 157 189 230 283 340
#     4   9  18  34  57  87 115 140 179 235 288 328
#     4  11  23  38  59  84 113 150 193 239 281 331
#     4   8  14  29  57  88 115 142 180 233 284 329
#     4   9  16  31  59  87 111 146 188 231 278 331
#     4  11  21  36  61  87 111 139 183 238 283 334
#
# _framework density 18.334654
#
# number of rings (size 3 to 8) (size 9 to 14) (size 15 to 20)
#    0.000    2.000    1.250    4.125    0.000    2.000 
#    0.000    3.750    0.000    3.750    0.000    0.000 
#    0.000    0.000    0.000    0.000    0.000    0.000 
#
# Total GULP energy -178647.210534 kJ/mol
# GULP energy per Si atom -5582.725329 kJ/mol
# Density = 1.829292 g / cm^3
# Si number density = 18.334654 Si / 1000 Ang^3
#
#
#
# Elastic Constant Matrix: (Units=GPa)
#
#
# Indices 1 2 3 4 5 6 
#
# 1 81.1573 11.1531 -2.6785 0.0000 6.3499 0.0000
# 2 11.1531 47.5627 7.4048 0.0000 5.1591 0.0000
# 3 -2.6785 7.4048 11.2899 0.0000 5.8980 0.0000
# 4 0.0000 0.0000 0.0000 8.2711 0.0000 3.5420
# 5 6.3499 5.1591 5.8980 0.0000 38.5757 0.0000
# 6 0.0000 0.0000 0.0000 3.5420 0.0000 6.7871
#
#
#
# Elastic Compliance Matrix: (Units=1/GPa)
#
#
# Indices 1 2 3 4 5 6 
#
# 1 0.013317 -0.003942 0.007189 0.000000 -0.002764 0.000000
# 2 -0.003942 0.024609 -0.017058 0.000000 -0.000034 0.000000
# 3 0.007189 -0.017058 0.109653 0.000000 -0.015667 0.000000
# 4 0.000000 0.000000 0.000000 0.155700 0.000000 -0.081255
# 5 -0.002764 -0.000034 -0.015667 0.000000 0.028778 0.000000
# 6 0.000000 0.000000 0.000000 -0.081255 0.000000 0.189742
#
#
# Mechanical properties :
#
#
# Convention : Reuss Voigt Hill
#
# Bulk Modulus (GPa) = 8.33633 19.08542 13.71088
# Shear Modulus (GPa) = 8.48311 19.00214 13.74263
#
# Velocity S-wave (km/s) = 2.15334 3.22282 2.74075
# Velocity P-wave (km/s) = 3.27706 4.92756 4.18449
#
# Compressibility (1/GPa) = 0.11995686
#
# Stress axis : x y z
#
# Youngs Moduli (GPa) = 75.09179 40.63614 9.11968
#
# Poissons Ratio (x) = 0.16019 -0.06556
# Poissons Ratio (y) = 0.29602 0.15556
# Poissons Ratio (z) = -0.53983 0.69316
#
# Static dielectric constant tensor:
#      x y z
#    x 1.638110 0.000000 0.003760 
#    y 0.000000 1.609430 0.000000 
#    z 0.003760 0.000000 1.630700 
# 
# From -- ./inp_files/86866.got.cif
#   From: 2010.05.17/outbox.ucp.g08.bks.cvg/sg10_44_cif.got.tgz:86866.got - 2010.06.11 11:31:16.
