data_PCOD9155048
_publ_section_title
;
Structure prediction by ZEFSAII (Michael W. Deem and Ramdas Pophale) SiO2 
 PCOD9155048
Probable space group: P 2/M
;
_chemical_formula_sum "Si O2"
_cell_formula_units_Z 20
_cell_length_a 15.064778
_cell_length_b 7.451158
_cell_length_c 16.325262
_cell_angle_alpha 90.000000
_cell_angle_beta 39.093075
_cell_angle_gamma 90.000000
_cell_volume 1155.548672
_symmetry_space_group_name_H-M "P 2/M"
_symmetry_group_IT_number 10
_symmetry_cell_setting 'monoclinic'
loop_
_space_group_symop_operation_xyz
x,y,z
-x,y,-z
-x,-y,-z
x,-y,z
loop_
_atom_site_type_symbol
_atom_site_label
_atom_site_fract_x
_atom_site_fract_y
_atom_site_fract_z
Si Si1 0.933256 0.500000 0.178210
Si Si2 0.427205 0.219007 0.136895
Si Si3 0.341646 0.788964 0.900396
Si Si4 0.049947 0.210996 0.208278
Si Si5 0.228606 0.500000 0.866464
Si Si6 0.105580 0.780948 0.353460
O O1 0.807066 0.500000 0.203736
O O2 0.945691 0.327542 0.227723
O O3 0.077459 0.500000 0.021369
O O4 0.522595 0.272322 0.145535
O O5 0.265702 0.277037 0.254716
O O6 0.428787 0.000000 0.135080
O O7 0.500000 0.276518 0.000000
O O8 0.310092 0.672368 0.843115
O O9 0.354078 0.000000 0.872728
O O10 0.206547 0.768209 0.057479
O O11 0.057091 0.271631 0.297243
O O12 0.015612 0.000000 0.229798
O O13 0.000000 0.722380 0.500000
O O14 0.107101 0.000000 0.352097
#
# Coordination Sequence:
#
# PCOD9155048 Si02
#       6
#     2   4   4   4   2   4
#     4   9  18  30  44  63  92 121 149 195 242 275
#     4   9  14  24  43  66  93 126 155 182 226 277
#     4   9  16  27  45  66  91 122 153 186 228 277
#     4   9  16  28  45  65  90 123 156 184 226 279
#     4   9  18  30  42  66  94 114 151 201 238 270
#     4   9  16  26  43  69  98 125 155 189 223 270
#
# _framework density 17.307797000000001
#
# number of rings (size 3 to 8) (size 9 to 14) (size 15 to 20)
#    0.000    3.000    2.000    0.000    0.000    0.800 
#    0.000    6.000    0.000    0.000    0.000    2.800 
#    0.000    8.000    0.000    0.000    0.000    0.000 
#
# Total GULP energy -111505.275123 kJ/mol
# GULP energy per Si atom -5575.263756 kJ/mol
# Density = 1.726840 g / cm^3
# Si number density = 17.307797 Si / 1000 Ang^3
#
#
#
# Elastic Constant Matrix: (Units=GPa)
#
#
# Indices 1 2 3 4 5 6 
#
# 1 205.6995 65.5585 63.5593 0.0000 16.8993 0.0000
# 2 65.5585 73.5645 27.4705 0.0000 9.9097 0.0000
# 3 63.5593 27.4705 71.8706 0.0000 -0.3942 0.0000
# 4 0.0000 0.0000 0.0000 0.9073 0.0000 5.5198
# 5 16.8993 9.9097 -0.3942 0.0000 16.5621 0.0000
# 6 0.0000 0.0000 0.0000 5.5198 0.0000 28.8050
#
#
#
# Elastic Compliance Matrix: (Units=1/GPa)
#
#
# Indices 1 2 3 4 5 6 
#
# 1 0.008704 -0.004705 -0.005933 0.000000 -0.006208 0.000000
# 2 -0.004705 0.020102 -0.003562 0.000000 -0.007311 0.000000
# 3 -0.005933 -0.003562 0.020570 0.000000 0.008675 0.000000
# 4 0.000000 0.000000 0.000000 -6.646298 0.000000 1.273611
# 5 -0.006208 -0.007311 0.008675 0.000000 0.071294 0.000000
# 6 0.000000 0.000000 0.000000 1.273611 0.000000 -0.209342
#
#
# Mechanical properties :
#
#
# Convention : Reuss Voigt Hill
#
# Bulk Modulus (GPa) = 47.67670 73.81234 60.74452
# Shear Modulus (GPa) = -0.74632 22.22464 10.73916
#
# Velocity S-wave (km/s) = -0.65737 3.58730 2.49365
# Velocity P-wave (km/s) = 5.19904 7.73936 6.59271
#
# Compressibility (1/GPa) = 0.02097461
#
# Stress axis : x y z
#
# Youngs Moduli (GPa) = 114.88402 49.74673 48.61365
#
# Poissons Ratio (x) = 0.23407 0.28845
# Poissons Ratio (y) = 0.54056 0.17318
# Poissons Ratio (z) = 0.68166 0.17721
#
# Static dielectric constant tensor:
#      x y z
#    x 1.570780 0.000000 -0.001370 
#    y 0.000000 1.635310 0.000000 
#    z -0.001370 0.000000 1.556890 
# 
# From -- ./inp_files/31455.got.cif
#   From: 2010.05.17/outbox.cif.g08.bks.cpg/sg10_16_cif.got.tgz:31455.got - 2010.06.03 11:33:40.
