data_PCOD9155870
_publ_section_title
;
Structure prediction by ZEFSAII (Michael W. Deem and Ramdas Pophale) SiO2 
 PCOD9155870
Probable space group: P 21/M
;
_chemical_formula_sum "Si O2"
_cell_formula_units_Z 32
_cell_length_a 23.980526
_cell_length_b 8.858903
_cell_length_c 21.089879
_cell_angle_alpha 90.000000
_cell_angle_beta 24.172445
_cell_angle_gamma 90.000000
_cell_volume 1834.636463
_symmetry_space_group_name_H-M "P 21/M"
_symmetry_group_IT_number 11
_symmetry_cell_setting 'monoclinic'
loop_
_space_group_symop_operation_xyz
x,y,z
-x,1/2+y,-z
-x,-y,-z
x,1/2-y,z
loop_
_atom_site_type_symbol
_atom_site_label
_atom_site_fract_x
_atom_site_fract_y
_atom_site_fract_z
Si Si1 0.571174 0.930070 0.155049
Si Si2 0.141731 0.931292 0.377683
Si Si3 0.973555 0.067878 0.375223
Si Si4 0.932689 0.068207 0.272037
Si Si5 0.463728 0.569765 0.605025
Si Si6 0.237650 0.068971 0.923333
Si Si7 0.653763 0.930234 0.526087
Si Si8 0.741589 0.431086 0.870749
O O1 0.560592 0.750000 0.161525
O O2 0.686251 0.966599 0.089092
O O3 0.432622 0.997904 0.326767
O O4 0.621804 0.997731 0.036424
O O5 0.133473 0.750000 0.382887
O O6 0.140468 0.970724 0.453425
O O7 0.252694 0.976228 0.209835
O O8 0.000000 0.000000 0.500000
O O9 0.995756 0.250000 0.353440
O O10 0.932945 0.026886 0.346317
O O11 0.115456 0.990135 0.247895
O O12 0.919994 0.250000 0.281061
O O13 0.806201 0.991025 0.369584
O O14 0.080145 0.025430 0.091584
O O15 0.500000 0.500000 0.500000
O O16 0.460311 0.750000 0.603974
O O17 0.321614 0.509620 0.780632
O O18 0.575630 0.527046 0.542319
O O19 0.245678 0.250000 0.907277
O O20 0.650661 0.750000 0.534861
O O21 0.736428 0.250000 0.880836
#
# Coordination Sequence:
#
# PCOD9155870 Si02
#       8
#     4   4   4   4   4   4   4   4
#     4  10  18  32  52  73  99 136 175 216 260 306
#     4   8  15  25  39  62  95 131 167 213 261 306
#     4   9  16  29  46  67  98 136 176 212 255 308
#     4  10  19  33  53  78 106 139 175 211 254 306
#     4  10  21  38  60  83 107 136 169 204 247 297
#     4   9  18  33  54  80 106 134 173 212 248 294
#     4  10  22  37  53  79 109 135 166 210 258 303
#     4  10  17  25  42  71 101 130 169 218 268 308
#
# _framework density 17.442148
#
# number of rings (size 3 to 8) (size 9 to 14) (size 15 to 20)
#    0.000    2.500    1.250    1.500    0.000    3.500 
#    0.000    0.625    0.000    0.750    0.000    0.000 
#    0.000    0.000    0.000    0.000    0.000    0.000 
#
# Total GULP energy -178371.662907 kJ/mol
# GULP energy per Si atom -5574.114466 kJ/mol
# Density = 1.740245 g / cm^3
# Si number density = 17.442148 Si / 1000 Ang^3
#
#
#
# Elastic Constant Matrix: (Units=GPa)
#
#
# Indices 1 2 3 4 5 6 
#
# 1 72.1433 27.7672 66.1284 0.0000 25.8817 0.0000
# 2 27.7672 26.7644 39.6332 0.0000 8.9473 0.0000
# 3 66.1284 39.6332 128.4303 0.0000 19.2200 0.0000
# 4 0.0000 0.0000 0.0000 31.5551 0.0000 3.3435
# 5 25.8817 8.9473 19.2200 0.0000 35.8349 0.0000
# 6 0.0000 0.0000 0.0000 3.3435 0.0000 21.3408
#
#
#
# Elastic Compliance Matrix: (Units=1/GPa)
#
#
# Indices 1 2 3 4 5 6 
#
# 1 0.035840 -0.014824 -0.011481 0.000000 -0.016026 0.000000
# 2 -0.014824 0.076269 -0.015935 0.000000 0.000211 0.000000
# 3 -0.011481 -0.015935 0.018243 0.000000 0.002486 0.000000
# 4 0.000000 0.000000 0.000000 0.032226 0.000000 -0.005049
# 5 -0.016026 0.000211 0.002486 0.000000 0.038095 0.000000
# 6 0.000000 0.000000 0.000000 -0.005049 0.000000 0.047650
#
#
# Mechanical properties :
#
#
# Convention : Reuss Voigt Hill
#
# Bulk Modulus (GPa) = 21.79961 54.93285 38.36623
# Shear Modulus (GPa) = 14.36392 24.00010 19.18201
#
# Velocity S-wave (km/s) = 2.87281 3.71345 3.31985
# Velocity P-wave (km/s) = 4.85072 7.06746 6.06129
#
# Compressibility (1/GPa) = 0.04587238
#
# Stress axis : x y z
#
# Youngs Moduli (GPa) = 27.90161 13.11141 54.81474
#
# Poissons Ratio (x) = 0.19437 0.62932
# Poissons Ratio (y) = 0.41362 0.87347
# Poissons Ratio (z) = 0.32033 0.20893
#
# Static dielectric constant tensor:
#      x y z
#    x 1.592030 0.000000 0.025360 
#    y 0.000000 1.582780 0.000000 
#    z 0.025360 0.000000 1.589130 
# 
# From -- ./inp_files/70335.got.cif
#   From: 2010.05.17/outbox.cif.g08.bks.cpg/sg11_36_cif.got.tgz:70335.got - 2010.06.03 12:22:45.
