data_PCOD9155852
_publ_section_title
;
Structure prediction by ZEFSAII (Michael W. Deem and Ramdas Pophale) SiO2 
 PCOD9155852
Probable space group: P 21/M
;
_chemical_formula_sum "Si O2"
_cell_formula_units_Z 32
_cell_length_a 14.685962
_cell_length_b 8.813241
_cell_length_c 23.617405
_cell_angle_alpha 90.000000
_cell_angle_beta 134.592749
_cell_angle_gamma 90.000000
_cell_volume 2176.808861
_symmetry_space_group_name_H-M "P 21/M"
_symmetry_group_IT_number 11
_symmetry_cell_setting 'monoclinic'
loop_
_space_group_symop_operation_xyz
x,y,z
-x,1/2+y,-z
-x,-y,-z
x,1/2-y,z
loop_
_atom_site_type_symbol
_atom_site_label
_atom_site_fract_x
_atom_site_fract_y
_atom_site_fract_z
Si Si1 0.318768 0.568059 0.456570
Si Si2 0.422069 0.068553 0.383195
Si Si3 0.924378 0.932209 0.690483
Si Si4 0.212614 0.568033 0.828842
Si Si5 0.528124 0.568678 0.074205
Si Si6 0.821320 0.068152 0.763671
Si Si7 0.021777 0.068793 0.947970
Si Si8 0.748761 0.067719 0.021829
O O1 0.313910 0.750000 0.447678
O O2 0.426316 0.533574 0.550846
O O3 0.372713 0.493576 0.422314
O O4 0.176502 0.501767 0.397946
O O5 0.406964 0.250000 0.374981
O O6 0.324139 0.992102 0.297003
O O7 0.087302 0.250000 0.313623
O O8 0.885071 0.995543 0.735322
O O9 0.072309 0.972707 0.745200
O O10 0.226771 0.750000 0.832909
O O11 0.332865 0.494319 0.849597
O O12 0.219466 0.525490 0.898802
O O13 0.533087 0.750000 0.072233
O O14 0.500000 0.500000 0.000000
O O15 0.400571 0.529110 0.053731
O O16 0.820702 0.250000 0.756924
O O17 0.906916 0.026250 0.854882
O O18 0.024609 0.250000 0.952877
O O19 0.152337 0.010306 0.976650
O O20 0.000000 0.000000 0.000000
O O21 0.762836 0.250000 0.023878
#
# Coordination Sequence:
#
# PCOD9155852 Si02
#       8
#     4   4   4   4   4   4   4   4
#     4   9  16  24  34  53  77 101 133 166 195 233
#     4   9  16  25  38  53  72 101 132 163 201 239
#     4  10  17  25  39  57  80 110 138 165 202 238
#     4   9  17  27  40  60  83 109 138 168 201 241
#     4   9  17  27  41  60  80 104 133 166 203 242
#     4  10  19  29  41  58  75  98 135 172 207 245
#     4  11  23  34  46  62  79 104 137 176 217 252
#     4   9  17  31  45  58  79 104 133 171 209 246
#
# _framework density 14.700417
#
# number of rings (size 3 to 8) (size 9 to 14) (size 15 to 20)
#    0.000    2.500    1.250    4.500    0.000    6.500 
#    0.000    0.000    0.000    0.000    0.000    0.000 
#    0.000    0.000    0.000    1.125    0.000   14.750 
#
# Total GULP energy -178138.966157 kJ/mol
# GULP energy per Si atom -5566.842692 kJ/mol
# Density = 1.466696 g / cm^3
# Si number density = 14.700417 Si / 1000 Ang^3
#
#
#
# Elastic Constant Matrix: (Units=GPa)
#
#
# Indices 1 2 3 4 5 6 
#
# 1 64.1007 27.0503 58.2194 0.0000 22.4881 0.0000
# 2 27.0503 39.8601 37.9971 0.0000 12.1384 0.0000
# 3 58.2194 37.9971 109.1420 0.0000 38.4663 0.0000
# 4 0.0000 0.0000 0.0000 23.9587 0.0000 7.3000
# 5 22.4881 12.1384 38.4663 0.0000 26.9900 0.0000
# 6 0.0000 0.0000 0.0000 7.3000 0.0000 19.5048
#
#
#
# Elastic Compliance Matrix: (Units=1/GPa)
#
#
# Indices 1 2 3 4 5 6 
#
# 1 0.032335 -0.008494 -0.012341 0.000000 -0.005532 0.000000
# 2 -0.008494 0.039946 -0.011129 0.000000 0.004973 0.000000
# 3 -0.012341 -0.011129 0.028596 0.000000 -0.025467 0.000000
# 4 0.000000 0.000000 0.000000 0.047111 0.000000 -0.017632
# 5 -0.005532 0.004973 -0.025467 0.000000 0.075720 0.000000
# 6 0.000000 0.000000 0.000000 -0.017632 0.000000 0.057869
#
#
# Mechanical properties :
#
#
# Convention : Reuss Voigt Hill
#
# Bulk Modulus (GPa) = 27.06459 51.07070 39.06764
# Shear Modulus (GPa) = 13.97349 20.07976 17.02662
#
# Velocity S-wave (km/s) = 3.08645 3.69986 3.40699
# Velocity P-wave (km/s) = 5.58142 7.28480 6.48925
#
# Compressibility (1/GPa) = 0.03694865
#
# Stress axis : x y z
#
# Youngs Moduli (GPa) = 30.92635 25.03356 34.97046
#
# Poissons Ratio (x) = 0.21264 0.43158
# Poissons Ratio (y) = 0.26270 0.38917
# Poissons Ratio (z) = 0.38167 0.27859
#
# Static dielectric constant tensor:
#      x y z
#    x 1.465640 0.000000 0.054700 
#    y 0.000000 1.491450 0.000000 
#    z 0.054700 0.000000 1.532520 
# 
# From -- ./inp_files/68335.got.cif
#   From: 2010.05.17/outbox.cif.g08.bks.cpg/sg11_35_cif.got.tgz:68335.got - 2010.06.03 12:22:45.
