data_PCOD9155135
_publ_section_title
;
Structure prediction by ZEFSAII (Michael W. Deem and Ramdas Pophale) SiO2 
 PCOD9155135
Probable space group: P 2/M
;
_chemical_formula_sum "Si O2"
_cell_formula_units_Z 32
_cell_length_a 15.000000
_cell_length_b 9.000000
_cell_length_c 21.000000
_cell_angle_alpha 90.000000
_cell_angle_beta 40.000000
_cell_angle_gamma 90.000000
_cell_volume 1822.302873
_symmetry_space_group_name_H-M "P 2/M"
_symmetry_group_IT_number 10
_symmetry_cell_setting 'monoclinic'
loop_
_space_group_symop_operation_xyz
x,y,z
-x,y,-z
-x,-y,-z
x,-y,z
loop_
_atom_site_type_symbol
_atom_site_label
_atom_site_fract_x
_atom_site_fract_y
_atom_site_fract_z
Si Si1 0.345913 0.319207 0.063560
Si Si2 0.133364 0.820427 0.785369
Si Si3 0.168072 0.170398 0.402985
Si Si4 0.831726 0.170196 0.092445
Si Si5 0.135210 0.321147 0.289637
Si Si6 0.188000 0.321496 0.524122
Si Si7 0.828061 0.678437 0.963524
Si Si8 0.659370 0.679299 0.429922
O O1 0.350145 0.500000 0.061482
O O2 0.231006 0.273469 0.178527
O O3 0.285632 0.276633 0.027304
O O4 0.500000 0.268277 0.000000
O O5 0.198960 0.779788 0.818755
O O6 0.233195 0.758201 0.676366
O O7 0.978651 0.750972 0.865829
O O8 0.122126 0.000000 0.789647
O O9 0.194986 0.256194 0.322673
O O10 0.221836 0.247203 0.437887
O O11 0.000000 0.172169 0.500000
O O12 0.213886 0.000000 0.374267
O O13 0.784833 0.000000 0.109041
O O14 0.787529 0.268398 0.056699
O O15 0.000000 0.168598 0.000000
O O16 0.138408 0.500000 0.291400
O O17 0.972399 0.278940 0.371291
O O18 0.189772 0.500000 0.515470
O O19 0.291303 0.282572 0.525218
O O20 0.843155 0.500000 0.953764
O O21 0.500000 0.718000 0.500000
O O22 0.673205 0.500000 0.415747
#
# Coordination Sequence:
#
# PCOD9155135 Si02
#       8
#     4   4   4   4   4   4   4   4
#     4   9  18  32  49  72 102 133 166 205 249 296
#     4  10  20  34  53  75 102 136 168 201 248 306
#     4   9  17  29  47  73 100 123 156 204 247 285
#     4   8  16  31  49  72 101 130 162 203 252 302
#     4   9  16  29  51  73  95 127 163 199 242 294
#     4   9  17  31  51  74  98 126 160 198 246 297
#     4  10  18  30  53  80 101 127 168 214 253 292
#     4  10  21  36  53  75 103 132 167 212 251 288
#
# _framework density 17.560198
#
# number of rings (size 3 to 8) (size 9 to 14) (size 15 to 20)
#    0.000    2.750    0.000    2.625    0.000    7.000 
#    0.000    5.000    0.000    9.375    0.000    0.000 
#    0.000    0.000    0.000    0.000    0.000    0.000 
#
# Total GULP energy -178342.347801 kJ/mol
# GULP energy per Si atom -5573.198369 kJ/mol
# Density = 1.752023 g / cm^3
# Si number density = 17.560198 Si / 1000 Ang^3
#
#
#
# Elastic Constant Matrix: (Units=GPa)
#
#
# Indices 1 2 3 4 5 6 
#
# 1 174.0141 44.5513 52.0467 0.0000 18.3688 0.0000
# 2 44.5513 36.2580 15.1248 0.0000 5.5286 0.0000
# 3 52.0467 15.1248 27.7170 0.0000 9.3764 0.0000
# 4 0.0000 0.0000 0.0000 17.3653 0.0000 8.0690
# 5 18.3688 5.5286 9.3764 0.0000 27.3311 0.0000
# 6 0.0000 0.0000 0.0000 8.0690 0.0000 8.4684
#
#
#
# Elastic Compliance Matrix: (Units=1/GPa)
#
#
# Indices 1 2 3 4 5 6 
#
# 1 0.014935 -0.008608 -0.023238 0.000000 -0.000324 0.000000
# 2 -0.008608 0.040679 -0.005890 0.000000 -0.000422 0.000000
# 3 -0.023238 -0.005890 0.087384 0.000000 -0.013169 0.000000
# 4 0.000000 0.000000 0.000000 0.103339 0.000000 -0.098465
# 5 -0.000324 -0.000422 -0.013169 0.000000 0.041410 0.000000
# 6 0.000000 0.000000 0.000000 -0.098465 0.000000 0.211907
#
#
# Mechanical properties :
#
#
# Convention : Reuss Voigt Hill
#
# Bulk Modulus (GPa) = 14.80934 51.27050 33.03992
# Shear Modulus (GPa) = 8.36630 19.05072 13.70851
#
# Velocity S-wave (km/s) = 2.18511 3.29733 2.79706
# Velocity P-wave (km/s) = 3.84942 6.61490 5.41179
#
# Compressibility (1/GPa) = 0.06752495
#
# Stress axis : x y z
#
# Youngs Moduli (GPa) = 66.95626 24.58275 11.44370
#
# Poissons Ratio (x) = 0.21161 0.26593
# Poissons Ratio (y) = 0.57638 0.06741
# Poissons Ratio (z) = 1.55593 0.14480
#
# Static dielectric constant tensor:
#      x y z
#    x 1.599380 0.000000 0.016760 
#    y 0.000000 1.592080 0.000000 
#    z 0.016760 0.000000 1.591700 
# 
# From -- ./inp_files/84726.got.cif
#   From: 2010.05.17/outbox.ucp.g08.bks.cvg/sg10_43_cif.got.tgz:84726.got - 2010.06.11 11:31:16.
