data_PCOD9155930
_publ_section_title
;
Structure prediction by ZEFSAII (Michael W. Deem and Ramdas Pophale) SiO2 
 PCOD9155930
Probable space group: P 21/M
;
_chemical_formula_sum "Si O2"
_cell_formula_units_Z 24
_cell_length_a 12.371007
_cell_length_b 8.716532
_cell_length_c 22.134159
_cell_angle_alpha 90.000000
_cell_angle_beta 38.701194
_cell_angle_gamma 90.000000
_cell_volume 1492.353481
_symmetry_space_group_name_H-M "P 21/M"
_symmetry_group_IT_number 11
_symmetry_cell_setting 'monoclinic'
loop_
_space_group_symop_operation_xyz
x,y,z
-x,1/2+y,-z
-x,-y,-z
x,1/2-y,z
loop_
_atom_site_type_symbol
_atom_site_label
_atom_site_fract_x
_atom_site_fract_y
_atom_site_fract_z
Si Si1 0.074982 0.065407 0.173526
Si Si2 0.708844 0.566948 0.346697
Si Si3 0.226380 0.934880 0.233627
Si Si4 0.341335 0.432941 0.489281
Si Si5 0.978085 0.067210 0.442938
Si Si6 0.575172 0.565771 0.029546
O O1 0.066494 0.250000 0.181526
O O2 0.139152 0.999096 0.210195
O O3 0.223158 0.021529 0.059926
O O4 0.886550 0.998594 0.243097
O O5 0.701464 0.750000 0.343351
O O6 0.536197 0.491745 0.395278
O O7 0.706395 0.531737 0.419885
O O8 0.209655 0.750000 0.240679
O O9 0.430603 0.977711 0.141812
O O10 0.126245 0.002621 0.334011
O O11 0.332026 0.250000 0.485723
O O12 0.203371 0.513357 0.506604
O O13 0.985961 0.250000 0.440920
O O14 0.000000 0.000000 0.500000
O O15 0.571460 0.750000 0.028045
O O16 0.500000 0.500000 0.000000
#
# Coordination Sequence:
#
# PCOD9155930 Si02
#       6
#     4   4   4   4   4   4
#     4  10  17  27  45  71 100 132 164 196 241 293
#     4  10  19  30  48  72 101 133 163 199 246 294
#     4  10  18  31  47  67  97 130 164 204 245 287
#     4  10  20  34  50  70  98 129 165 204 246 292
#     4  12  24  37  53  72  97 130 169 207 246 291
#     4   8  16  27  42  65  95 128 161 196 238 289
#
# _framework density 16.081980999999999
#
# number of rings (size 3 to 8) (size 9 to 14) (size 15 to 20)
#    0.000    2.000    1.667    3.500    0.000    2.667 
#    0.000    0.000    0.000    0.000    0.000    1.167 
#    0.000    0.000    0.000    0.000    0.000    0.000 
#
# Total GULP energy -133804.742571 kJ/mol
# GULP energy per Si atom -5575.197607 kJ/mol
# Density = 1.604538 g / cm^3
# Si number density = 16.081981 Si / 1000 Ang^3
#
#
#
# Elastic Constant Matrix: (Units=GPa)
#
#
# Indices 1 2 3 4 5 6 
#
# 1 64.4689 37.7403 63.7262 0.0000 -11.3213 0.0000
# 2 37.7403 64.5121 43.4049 0.0000 -8.4262 0.0000
# 3 63.7262 43.4049 143.4284 0.0000 -33.8645 0.0000
# 4 0.0000 0.0000 0.0000 22.4555 0.0000 -5.4835
# 5 -11.3213 -8.4262 -33.8645 0.0000 28.3840 0.0000
# 6 0.0000 0.0000 0.0000 -5.4835 0.0000 23.8679
#
#
#
# Elastic Compliance Matrix: (Units=1/GPa)
#
#
# Indices 1 2 3 4 5 6 
#
# 1 0.034410 -0.012176 -0.012831 0.000000 -0.005198 0.000000
# 2 -0.012176 0.023835 -0.001781 0.000000 0.000095 0.000000
# 3 -0.012831 -0.001781 0.016537 0.000000 0.014084 0.000000
# 4 0.000000 0.000000 0.000000 0.047179 0.000000 0.010839
# 5 -0.005198 0.000095 0.014084 0.000000 0.049989 0.000000
# 6 0.000000 0.000000 0.000000 0.010839 0.000000 0.044387
#
#
# Mechanical properties :
#
#
# Convention : Reuss Voigt Hill
#
# Bulk Modulus (GPa) = 47.15692 62.46134 54.80913
# Shear Modulus (GPa) = 18.05178 23.44402 20.74790
#
# Velocity S-wave (km/s) = 3.35398 3.82223 3.59574
# Velocity P-wave (km/s) = 6.66224 7.64218 7.16897
#
# Compressibility (1/GPa) = 0.02120579
#
# Stress axis : x y z
#
# Youngs Moduli (GPa) = 29.06166 41.95598 60.46968
#
# Poissons Ratio (x) = 0.51086 0.77589
# Poissons Ratio (y) = 0.35386 0.10768
# Poissons Ratio (z) = 0.37289 0.07471
#
# Static dielectric constant tensor:
#      x y z
#    x 1.503970 0.000000 -0.033410 
#    y 0.000000 1.523430 0.000000 
#    z -0.033410 0.000000 1.575140 
# 
# From -- ./inp_files/33817.got.cif
#   From: 2010.05.17/outbox.cif.g08.bks.cpg/sg11_17_cif.got.tgz:33817.got - 2010.06.03 12:22:45.
