data_PCOD9155006
_publ_section_title
;
Structure prediction by ZEFSAII (Michael W. Deem and Ramdas Pophale) SiO2 
 PCOD9155006
Probable space group: P 2/M
;
_chemical_formula_sum "Si O2"
_cell_formula_units_Z 28
_cell_length_a 18.170068
_cell_length_b 9.918234
_cell_length_c 19.705071
_cell_angle_alpha 90.000000
_cell_angle_beta 159.035207
_cell_angle_gamma 90.000000
_cell_volume 1270.580612
_symmetry_space_group_name_H-M "P 2/M"
_symmetry_group_IT_number 10
_symmetry_cell_setting 'monoclinic'
loop_
_space_group_symop_operation_xyz
x,y,z
-x,y,-z
-x,-y,-z
x,-y,z
loop_
_atom_site_type_symbol
_atom_site_label
_atom_site_fract_x
_atom_site_fract_y
_atom_site_fract_z
Si Si1 0.029788 0.652853 0.380815
Si Si2 0.798870 0.844932 0.276689
Si Si3 0.206824 0.155043 0.266821
Si Si4 0.848471 0.652561 0.662490
Si Si5 0.579646 0.653068 0.185385
Si Si6 0.711773 0.155486 0.813823
Si Si7 0.336152 0.652591 0.108010
O O1 0.948618 0.500000 0.299525
O O2 0.205002 0.643246 0.588430
O O3 0.864696 0.756323 0.268235
O O4 0.139353 0.695995 0.405453
O O5 0.624445 0.764462 0.167716
O O6 0.000000 0.848445 0.500000
O O7 0.749514 0.000000 0.218286
O O8 0.304381 0.197378 0.278902
O O9 0.250729 0.247308 0.369090
O O10 0.263536 0.000000 0.328343
O O11 0.958996 0.156487 0.041343
O O12 0.767570 0.500000 0.598065
O O13 0.090224 0.647235 0.890775
O O14 0.534749 0.500000 0.121803
O O15 0.420492 0.694744 0.107114
O O16 0.613102 0.251639 0.785267
O O17 0.645237 0.000000 0.763819
O O18 0.413749 0.500000 0.185588
#
# Coordination Sequence:
#
# PCOD9155006 Si02
#       7
#     4   4   4   4   4   4   4
#     4   9  17  30  47  64  84 112 142 170 206 253
#     4   9  17  29  46  67  86 106 140 181 210 238
#     4   8  14  25  41  61  85 113 143 173 207 248
#     4   9  17  28  43  65  89 110 137 175 213 246
#     4   9  17  30  47  64  84 112 142 170 206 253
#     4   8  14  25  41  61  85 113 143 173 207 248
#     4   9  17  28  43  65  89 110 137 175 213 246
#
# _framework density 22.037168999999999
#
# number of rings (size 3 to 8) (size 9 to 14) (size 15 to 20)
#    0.000    3.286    0.000    1.286    0.000    3.429 
#    0.000    3.571    0.000    5.143    0.000    6.000 
#    0.000    0.000    0.000    0.000    0.000    0.000 
#
# Total GULP energy -156412.095560 kJ/mol
# GULP energy per Si atom -5586.146270 kJ/mol
# Density = 2.198701 g / cm^3
# Si number density = 22.037169 Si / 1000 Ang^3
#
#
#
# Elastic Constant Matrix: (Units=GPa)
#
#
# Indices 1 2 3 4 5 6 
#
# 1 194.6707 130.9554 21.6489 0.0000 0.2485 0.0000
# 2 130.9554 122.8643 13.1224 0.0000 1.4987 0.0000
# 3 21.6489 13.1224 65.9780 0.0000 0.6624 0.0000
# 4 0.0000 0.0000 0.0000 5.0324 0.0000 -2.4055
# 5 0.2485 1.4987 0.6624 0.0000 36.2544 0.0000
# 6 0.0000 0.0000 0.0000 -2.4055 0.0000 44.2796
#
#
#
# Elastic Compliance Matrix: (Units=1/GPa)
#
#
# Indices 1 2 3 4 5 6 
#
# 1 0.018475 -0.019466 -0.002198 0.000000 0.000718 0.000000
# 2 -0.019466 0.028829 0.000664 0.000000 -0.001070 0.000000
# 3 -0.002198 0.000664 0.015749 0.000000 -0.000300 0.000000
# 4 0.000000 0.000000 0.000000 0.204008 0.000000 0.011083
# 5 0.000718 -0.001070 -0.000300 0.000000 0.027628 0.000000
# 6 0.000000 0.000000 0.000000 0.011083 0.000000 0.023186
#
#
# Mechanical properties :
#
#
# Convention : Reuss Voigt Hill
#
# Bulk Modulus (GPa) = 47.49746 79.44072 63.46909
# Shear Modulus (GPa) = 13.62806 31.63238 22.63022
#
# Velocity S-wave (km/s) = 2.48949 3.79279 3.20802
# Velocity P-wave (km/s) = 5.46475 7.43688 6.52574
#
# Compressibility (1/GPa) = 0.02105376
#
# Stress axis : x y z
#
# Youngs Moduli (GPa) = 54.12749 34.68771 63.49762
#
# Poissons Ratio (x) = 0.67522 0.13955
# Poissons Ratio (y) = 1.05362 -0.04217
# Poissons Ratio (z) = 0.11896 -0.02304
#
# Static dielectric constant tensor:
#      x y z
#    x 1.770880 0.000000 0.001470 
#    y 0.000000 1.762170 0.000000 
#    z 0.001470 0.000000 1.924370 
# 
# From -- ./inp_files/34423.got.cif
#   From: 2010.05.17/outbox.cif.g08.bks.cpg/sg10_18_cif.got.tgz:34423.got - 2010.06.03 11:33:40.
