data_PCOD9155549
_publ_section_title
;
Structure prediction by ZEFSAII (Michael W. Deem and Ramdas Pophale) SiO2 
 PCOD9155549
Probable space group: P 2/M
;
_chemical_formula_sum "Si O2"
_cell_formula_units_Z 28
_cell_length_a 12.000000
_cell_length_b 9.000000
_cell_length_c 15.000000
_cell_angle_alpha 90.000000
_cell_angle_beta 120.000000
_cell_angle_gamma 90.000000
_cell_volume 1402.961154
_symmetry_space_group_name_H-M "P 2/M"
_symmetry_group_IT_number 10
_symmetry_cell_setting 'monoclinic'
loop_
_space_group_symop_operation_xyz
x,y,z
-x,y,-z
-x,-y,-z
x,-y,z
loop_
_atom_site_type_symbol
_atom_site_label
_atom_site_fract_x
_atom_site_fract_y
_atom_site_fract_z
Si Si1 0.396347 0.824740 0.153728
Si Si2 0.301871 0.320655 0.942596
Si Si3 0.644949 0.671602 0.240920
Si Si4 0.038737 0.328765 0.921949
Si Si5 0.244940 0.329424 0.248371
Si Si6 0.348047 0.823260 0.461606
Si Si7 0.854432 0.673387 0.473431
O O1 0.538984 0.779110 0.241173
O O2 0.297970 0.733450 0.176046
O O3 0.373860 0.000000 0.149597
O O4 0.387501 0.762984 0.049505
O O5 0.318121 0.500000 0.958279
O O6 0.327317 0.286914 0.850114
O O7 0.158451 0.271978 0.914315
O O8 0.596681 0.500000 0.223640
O O9 0.773138 0.676570 0.349850
O O10 0.076563 0.500000 0.959230
O O11 0.908800 0.332281 0.814847
O O12 0.000000 0.253988 0.000000
O O13 0.290679 0.500000 0.279155
O O14 0.286752 0.220650 0.342781
O O15 0.500000 0.778020 0.500000
O O16 0.246792 0.749801 0.494654
O O17 0.350656 0.000000 0.480273
O O18 0.869903 0.500000 0.508978
O O19 0.000000 0.726017 0.500000
#
# Coordination Sequence:
#
# PCOD9155549 Si02
#       7
#     4   4   4   4   4   4   4
#     4  12  24  38  57  87 128 164 200 246 300 364
#     4  10  20  37  61  88 119 157 202 247 299 360
#     4  10  22  39  63  89 118 157 205 254 302 358
#     4   9  17  33  59  89 118 150 193 247 301 355
#     4  11  22  38  66  93 119 156 203 254 306 360
#     4  11  25  44  65  93 130 169 209 258 320 383
#     4  10  23  43  68  97 126 160 213 272 318 369
#
# _framework density 19.957787
#
# number of rings (size 3 to 8) (size 9 to 14) (size 15 to 20)
#    0.000    1.571    1.429    3.429    2.000    6.571 
#    0.000    2.143    0.000    0.000    0.000    0.000 
#    0.000    0.000    0.000    0.000    0.000    0.000 
#
# Total GULP energy -155989.734858 kJ/mol
# GULP energy per Si atom -5571.061959 kJ/mol
# Density = 1.991236 g / cm^3
# Si number density = 19.957787 Si / 1000 Ang^3
#
#
#
# Elastic Constant Matrix: (Units=GPa)
#
#
# Indices 1 2 3 4 5 6 
#
# 1 134.6182 30.1725 24.8969 0.0000 5.5933 0.0000
# 2 30.1725 42.4827 2.7046 0.0000 0.7552 0.0000
# 3 24.8969 2.7046 57.6433 0.0000 -1.8869 0.0000
# 4 0.0000 0.0000 0.0000 -25.0627 0.0000 -8.3640
# 5 5.5933 0.7552 -1.8869 0.0000 32.7804 0.0000
# 6 0.0000 0.0000 0.0000 -8.3640 0.0000 24.6658
#
#
#
# Elastic Compliance Matrix: (Units=1/GPa)
#
#
# Indices 1 2 3 4 5 6 
#
# 1 0.009712 -0.006616 -0.003941 0.000000 -0.001732 0.000000
# 2 -0.006616 0.028129 0.001557 0.000000 0.000570 0.000000
# 3 -0.003941 0.001557 0.019034 0.000000 0.001732 0.000000
# 4 0.000000 0.000000 0.000000 -0.035844 0.000000 -0.012154
# 5 -0.001732 0.000570 0.001732 0.000000 0.030888 0.000000
# 6 0.000000 0.000000 0.000000 -0.012154 0.000000 0.036420
#
#
# Mechanical properties :
#
#
# Convention : Reuss Voigt Hill
#
# Bulk Modulus (GPa) = 25.72454 38.92136 32.32295
# Shear Modulus (GPa) = 41.91154 18.27473 30.09314
#
# Velocity S-wave (km/s) = 4.58756 3.02929 3.88730
# Velocity P-wave (km/s) = 6.40144 5.63734 6.03150
#
# Compressibility (1/GPa) = 0.03887339
#
# Stress axis : x y z
#
# Youngs Moduli (GPa) = 102.96373 35.55078 52.53772
#
# Poissons Ratio (x) = 0.23521 0.20705
# Poissons Ratio (y) = 0.68123 -0.08178
# Poissons Ratio (z) = 0.40579 -0.05534
#
# Static dielectric constant tensor:
#      x y z
#    x 1.738810 0.000000 0.031060 
#    y 0.000000 1.698030 0.000000 
#    z 0.031060 0.000000 1.734690 
# 
# From -- ./inp_files/63365.got.cif
#   From: 2010.05.17/outbox.ucp.g08.bks.cvg/sg10_32_cif.got.tgz:63365.got - 2010.06.11 11:31:16.
