data_PCOD9155508
_publ_section_title
;
Structure prediction by ZEFSAII (Michael W. Deem and Ramdas Pophale) SiO2 
 PCOD9155508
Probable space group: P 2/M
;
_chemical_formula_sum "Si O2"
_cell_formula_units_Z 32
_cell_length_a 15.000000
_cell_length_b 9.000000
_cell_length_c 24.000000
_cell_angle_alpha 90.000000
_cell_angle_beta 150.000000
_cell_angle_gamma 90.000000
_cell_volume 1620.000000
_symmetry_space_group_name_H-M "P 2/M"
_symmetry_group_IT_number 10
_symmetry_cell_setting 'monoclinic'
loop_
_space_group_symop_operation_xyz
x,y,z
-x,y,-z
-x,-y,-z
x,-y,z
loop_
_atom_site_type_symbol
_atom_site_label
_atom_site_fract_x
_atom_site_fract_y
_atom_site_fract_z
Si Si1 0.730285 0.322272 0.215613
Si Si2 0.647852 0.676272 0.943549
Si Si3 0.072383 0.178484 0.978542
Si Si4 0.210062 0.172924 0.867419
Si Si5 0.378934 0.322395 0.570294
Si Si6 0.781884 0.173970 0.625807
Si Si7 0.056880 0.319003 0.469506
Si Si8 0.727294 0.178466 0.721847
O O1 0.738929 0.500000 0.210199
O O2 0.709818 0.241953 0.145491
O O3 0.909687 0.274394 0.344170
O O4 0.562497 0.293753 0.164760
O O5 0.674217 0.500000 0.956426
O O6 0.746142 0.748471 0.944290
O O7 0.730682 0.741620 0.045277
O O8 0.919966 0.217358 0.850891
O O9 0.093212 0.000000 0.990004
O O10 0.000000 0.223446 0.000000
O O11 0.995904 0.182528 0.745444
O O12 0.258468 0.000000 0.899073
O O13 0.391503 0.500000 0.577698
O O14 0.288408 0.268873 0.463600
O O15 0.249940 0.273999 0.550961
O O16 0.573163 0.250729 0.674945
O O17 0.710539 0.222107 0.647888
O O18 0.732659 0.000000 0.590594
O O19 0.055216 0.500000 0.469998
O O20 0.000000 0.267059 0.500000
O O21 0.712698 0.000000 0.715989
#
# Coordination Sequence:
#
# PCOD9155508 Si02
#       8
#     4   4   4   4   4   4   4   4
#     4  10  21  38  58  85 118 153 191 235 294 349
#     4  11  23  37  59  88 120 154 189 239 293 345
#     4  10  22  42  64  84 113 156 201 241 286 342
#     4  11  21  36  60  87 116 152 193 237 286 348
#     4  11  22  35  58  89 114 146 191 238 282 337
#     4  10  20  36  58  82 113 153 187 226 287 348
#     4   9  19  37  58  79 110 152 192 231 279 337
#     4  10  21  39  59  82 115 153 186 229 288 344
#
# _framework density 19.753086
#
# number of rings (size 3 to 8) (size 9 to 14) (size 15 to 20)
#    0.000    1.750    2.500    1.875    0.000    6.750 
#    0.000    1.250    0.000    3.375    0.000    0.000 
#    0.000    0.000    0.000    0.000    0.000    0.000 
#
# Total GULP energy -178803.695676 kJ/mol
# GULP energy per Si atom -5587.615490 kJ/mol
# Density = 1.970813 g / cm^3
# Si number density = 19.753086 Si / 1000 Ang^3
#
#
#
# Elastic Constant Matrix: (Units=GPa)
#
#
# Indices 1 2 3 4 5 6 
#
# 1 151.1544 32.0598 7.2206 0.0000 16.8188 0.0000
# 2 32.0598 16.8353 7.2999 0.0000 12.4380 0.0000
# 3 7.2206 7.2999 14.9432 0.0000 15.6240 0.0000
# 4 0.0000 0.0000 0.0000 20.8016 0.0000 3.4078
# 5 16.8188 12.4380 15.6240 0.0000 32.2118 0.0000
# 6 0.0000 0.0000 0.0000 3.4078 0.0000 26.0185
#
#
#
# Elastic Compliance Matrix: (Units=1/GPa)
#
#
# Indices 1 2 3 4 5 6 
#
# 1 0.011597 -0.025252 0.005820 0.000000 0.000873 0.000000
# 2 -0.025252 0.139627 -0.027233 0.000000 -0.027521 0.000000
# 3 0.005820 -0.027233 0.141204 0.000000 -0.061013 0.000000
# 4 0.000000 0.000000 0.000000 0.049127 0.000000 -0.006434
# 5 0.000873 -0.027521 -0.061013 0.000000 0.070809 0.000000
# 6 0.000000 0.000000 0.000000 -0.006434 0.000000 0.039277
#
#
# Mechanical properties :
#
#
# Convention : Reuss Voigt Hill
#
# Bulk Modulus (GPa) = 5.02267 30.67709 17.84988
# Shear Modulus (GPa) = 8.17878 24.89655 16.53767
#
# Velocity S-wave (km/s) = 2.03703 3.55405 2.89661
# Velocity P-wave (km/s) = 2.84269 5.69260 4.49925
#
# Compressibility (1/GPa) = 0.19909741
#
# Stress axis : x y z
#
# Youngs Moduli (GPa) = 86.23267 7.16192 7.08194
#
# Poissons Ratio (x) = 0.18085 -0.04121
# Poissons Ratio (y) = 2.17753 0.19286
# Poissons Ratio (z) = -0.50185 0.19504
#
# Static dielectric constant tensor:
#      x y z
#    x 1.693710 0.000000 0.024170 
#    y 0.000000 1.664170 0.000000 
#    z 0.024170 0.000000 1.695180 
# 
# From -- ./inp_files/71436.got.cif
#   From: 2010.05.17/outbox.ucp.g08.bks.cvg/sg10_36_cif.got.tgz:71436.got - 2010.06.11 11:31:16.
