data_PCOD9155521
_publ_section_title
;
Structure prediction by ZEFSAII (Michael W. Deem and Ramdas Pophale) SiO2 
 PCOD9155521
Probable space group: P 2/M
;
_chemical_formula_sum "Si O2"
_cell_formula_units_Z 28
_cell_length_a 27.000000
_cell_length_b 9.000000
_cell_length_c 9.000000
_cell_angle_alpha 90.000000
_cell_angle_beta 40.000000
_cell_angle_gamma 90.000000
_cell_volume 1405.776502
_symmetry_space_group_name_H-M "P 2/M"
_symmetry_group_IT_number 10
_symmetry_cell_setting 'monoclinic'
loop_
_space_group_symop_operation_xyz
x,y,z
-x,y,-z
-x,-y,-z
x,-y,z
loop_
_atom_site_type_symbol
_atom_site_label
_atom_site_fract_x
_atom_site_fract_y
_atom_site_fract_z
Si Si1 0.795988 0.676412 0.065030
Si Si2 0.377379 0.674168 0.463751
Si Si3 0.182241 0.834502 0.681905
Si Si4 0.925613 0.662817 0.272655
Si Si5 0.075735 0.170236 0.427387
Si Si6 0.482639 0.177765 0.699940
Si Si7 0.643718 0.829027 0.790806
O O1 0.804082 0.500000 0.022532
O O2 0.704779 0.715611 0.272804
O O3 0.820773 0.720035 0.175335
O O4 0.849832 0.767843 0.830632
O O5 0.389159 0.500000 0.459277
O O6 0.448203 0.767679 0.358772
O O7 0.373584 0.714671 0.299705
O O8 0.123924 0.788096 0.691251
O O9 0.264952 0.831902 0.413538
O O10 0.168666 0.000000 0.773824
O O11 0.887187 0.500000 0.363908
O O12 0.942686 0.718738 0.396857
O O13 0.000000 0.650928 0.000000
O O14 0.000000 0.169544 0.500000
O O15 0.089475 0.000000 0.444541
O O16 0.500000 0.243328 0.500000
O O17 0.484436 0.000000 0.686805
O O18 0.401032 0.216579 0.959176
O O19 0.619340 0.000000 0.807772
#
# Coordination Sequence:
#
# PCOD9155521 Si02
#       7
#     4   4   4   4   4   4   4
#     4  10  21  38  59  84 115 148 184 228 282 341
#     4  10  21  36  56  83 111 143 184 228 274 327
#     4  10  20  36  59  85 113 146 189 237 280 328
#     4  11  24  40  59  84 116 153 188 226 277 334
#     4  11  24  40  60  86 114 146 187 234 279 327
#     4  10  21  36  54  78 110 147 186 229 277 329
#     4   9  19  36  57  81 109 145 186 227 275 330
#
# _framework density 19.917818
#
# number of rings (size 3 to 8) (size 9 to 14) (size 15 to 20)
#    0.000    1.857    0.000    3.429    0.000   10.571 
#    0.000    1.429    0.000    0.000    0.000    0.000 
#    0.000    0.000    0.000    0.000    0.000    0.000 
#
# Total GULP energy -156122.157200 kJ/mol
# GULP energy per Si atom -5575.791329 kJ/mol
# Density = 1.987248 g / cm^3
# Si number density = 19.917818 Si / 1000 Ang^3
#
#
#
# Elastic Constant Matrix: (Units=GPa)
#
#
# Indices 1 2 3 4 5 6 
#
# 1 17.7716 -12.3097 11.6631 0.0000 1.5059 0.0000
# 2 -12.3097 4.7242 45.6982 0.0000 0.5199 0.0000
# 3 11.6631 45.6982 93.7515 0.0000 33.6246 0.0000
# 4 0.0000 0.0000 0.0000 34.8199 0.0000 4.4793
# 5 1.5059 0.5199 33.6246 0.0000 -6.1151 0.0000
# 6 0.0000 0.0000 0.0000 4.4793 0.0000 54.6848
#
#
#
# Elastic Compliance Matrix: (Units=1/GPa)
#
#
# Indices 1 2 3 4 5 6 
#
# 1 0.012035 -0.051021 0.008030 0.000000 0.042778 0.000000
# 2 -0.051021 -0.054468 0.013144 0.000000 0.055077 0.000000
# 3 0.008030 0.013144 0.000724 0.000000 0.007074 0.000000
# 4 0.000000 0.000000 0.000000 0.029025 0.000000 -0.002377
# 5 0.042778 0.055077 0.007074 0.000000 -0.109415 0.000000
# 6 0.000000 0.000000 0.000000 -0.002377 0.000000 0.018481
#
#
# Mechanical properties :
#
#
# Convention : Reuss Voigt Hill
#
# Bulk Modulus (GPa) = -9.86148 22.92782 6.53317
# Shear Modulus (GPa) = -64.32957 21.42430 -21.45263
#
# Velocity S-wave (km/s) = -5.68925 3.28325 -3.28542
# Velocity P-wave (km/s) = 6.93676 5.09010 3.33238
#
# Compressibility (1/GPa) = -0.10140467
#
# Stress axis : x y z
#
# Youngs Moduli (GPa) = 83.09064 -18.35933 1381.78302
#
# Poissons Ratio (x) = -0.93671 -11.09519
# Poissons Ratio (y) = 4.23935 -18.16154
# Poissons Ratio (z) = -0.66719 0.24131
#
# Static dielectric constant tensor:
#      x y z
#    x 1.716180 0.000000 0.009630 
#    y 0.000000 1.683260 0.000000 
#    z 0.009630 0.000000 1.690490 
# 
# From -- ./inp_files/31515.got.cif
#   From: 2010.05.17/outbox.ucp.g08.bks.cvg/sg10_16_cif.got.tgz:31515.got - 2010.06.11 11:31:16.
