data_PCOD9155802
_publ_section_title
;
Structure prediction by ZEFSAII (Michael W. Deem and Ramdas Pophale) SiO2 
 PCOD9155802
Probable space group: P 21/M
;
_chemical_formula_sum "Si O2"
_cell_formula_units_Z 32
_cell_length_a 13.592000
_cell_length_b 14.202529
_cell_length_c 11.608617
_cell_angle_alpha 90.000000
_cell_angle_beta 147.639752
_cell_angle_gamma 90.000000
_cell_volume 1199.440752
_symmetry_space_group_name_H-M "P 21/M"
_symmetry_group_IT_number 11
_symmetry_cell_setting 'monoclinic'
loop_
_space_group_symop_operation_xyz
x,y,z
-x,1/2+y,-z
-x,-y,-z
x,1/2-y,z
loop_
_atom_site_type_symbol
_atom_site_label
_atom_site_fract_x
_atom_site_fract_y
_atom_site_fract_z
Si Si1 0.869719 0.857341 0.354669
Si Si2 0.757097 0.142582 0.362039
Si Si3 0.787692 0.486486 0.085729
Si Si4 0.448442 0.087478 0.531698
Si Si5 0.629832 0.850618 0.767627
Si Si6 0.602709 0.948896 0.263975
Si Si7 0.865211 0.141543 0.971417
Si Si8 0.182833 0.642884 0.324165
O O1 0.828975 0.750000 0.274689
O O2 0.740411 0.881469 0.333613
O O3 0.090533 0.859009 0.587077
O O4 0.841510 0.945795 0.242554
O O5 0.682316 0.250000 0.294486
O O6 0.865536 0.122693 0.591366
O O7 0.620686 0.054894 0.230077
O O8 0.708349 0.562334 0.914249
O O9 0.612419 0.425928 0.955796
O O10 0.916333 0.421539 0.132860
O O11 0.313556 0.250000 0.127317
O O12 0.322026 0.145411 0.319916
O O13 0.357043 0.055763 0.559514
O O14 0.639022 0.139907 0.748466
O O15 0.406429 0.854415 0.549086
O O16 0.500000 0.000000 0.500000
O O17 0.924550 0.250000 0.042345
O O18 0.893217 0.098614 0.869314
O O19 0.123135 0.750000 0.248835
#
# Coordination Sequence:
#
# PCOD9155802 Si02
#       8
#     4   4   4   4   4   4   4   4
#     4  11  26  42  54  78 117 156 189 227 282 334
#     4  10  20  37  60  84 109 146 194 235 274 326
#     4  11  21  36  57  83 117 146 184 230 280 341
#     4  10  16  30  51  87 116 133 173 238 284 323
#     4  10  17  28  52  85 115 142 178 228 283 331
#     4  11  21  37  63  82 110 144 195 234 274 327
#     4   9  17  29  51  83 116 146 181 233 290 338
#     4   8  14  27  52  83 108 137 183 231 270 319
#
# _framework density 26.679099000000001
#
# number of rings (size 3 to 8) (size 9 to 14) (size 15 to 20)
#    0.000    2.000    3.750    3.000    0.000    3.000 
#    0.000    1.250    0.000    0.750    0.000    0.000 
#    0.000    0.000    0.000    0.000    0.000    0.000 
#
# Total GULP energy -178705.616170 kJ/mol
# GULP energy per Si atom -5584.550505 kJ/mol
# Density = 2.661838 g / cm^3
# Si number density = 26.679099 Si / 1000 Ang^3
#
#
#
# Elastic Constant Matrix: (Units=GPa)
#
#
# Indices 1 2 3 4 5 6 
#
# 1 71.3371 22.6482 33.8597 0.0000 -7.7285 0.0000
# 2 22.6482 115.2141 18.1396 0.0000 -3.8887 0.0000
# 3 33.8597 18.1396 64.6227 0.0000 -2.1717 0.0000
# 4 0.0000 0.0000 0.0000 16.6733 0.0000 -1.5576
# 5 -7.7285 -3.8887 -2.1717 0.0000 34.8196 0.0000
# 6 0.0000 0.0000 0.0000 -1.5576 0.0000 30.5208
#
#
#
# Elastic Compliance Matrix: (Units=1/GPa)
#
#
# Indices 1 2 3 4 5 6 
#
# 1 0.019639 -0.002239 -0.009544 0.000000 0.003514 0.000000
# 2 -0.002239 0.009362 -0.001439 0.000000 0.000459 0.000000
# 3 -0.009544 -0.001439 0.020846 0.000000 -0.000979 0.000000
# 4 0.000000 0.000000 0.000000 0.060264 0.000000 0.003076
# 5 0.003514 0.000459 -0.000979 0.000000 0.029490 0.000000
# 6 0.000000 0.000000 0.000000 0.003076 0.000000 0.032922
#
#
# Mechanical properties :
#
#
# Convention : Reuss Voigt Hill
#
# Bulk Modulus (GPa) = 42.72964 44.49656 43.61310
# Shear Modulus (GPa) = 24.18181 28.17114 26.17647
#
# Velocity S-wave (km/s) = 3.01391 3.25303 3.13575
# Velocity P-wave (km/s) = 5.30683 5.55196 5.43077
#
# Compressibility (1/GPa) = 0.02340296
#
# Stress axis : x y z
#
# Youngs Moduli (GPa) = 50.91798 106.81748 47.97096
#
# Poissons Ratio (x) = 0.23921 0.45781
# Poissons Ratio (y) = 0.11403 0.06903
# Poissons Ratio (z) = 0.48594 0.15371
#
# Static dielectric constant tensor:
#      x y z
#    x 2.201060 0.000000 -0.036670 
#    y 0.000000 2.118960 0.000000 
#    z -0.036670 0.000000 2.181540 
# 
# From -- ./inp_files/39681.got.cif
#   From: 2010.05.17/outbox.cif.g08.bks.cpg/sg11_20_cif.got.tgz:39681.got - 2010.06.03 12:22:45.
