data_PCOD9155119
_publ_section_title
;
Structure prediction by ZEFSAII (Michael W. Deem and Ramdas Pophale) SiO2 
 PCOD9155119
Probable space group: P 2/M
;
_chemical_formula_sum "Si O2"
_cell_formula_units_Z 32
_cell_length_a 21.000000
_cell_length_b 9.000000
_cell_length_c 27.000000
_cell_angle_alpha 90.000000
_cell_angle_beta 160.000000
_cell_angle_gamma 90.000000
_cell_volume 1745.328791
_symmetry_space_group_name_H-M "P 2/M"
_symmetry_group_IT_number 10
_symmetry_cell_setting 'monoclinic'
loop_
_space_group_symop_operation_xyz
x,y,z
-x,y,-z
-x,-y,-z
x,-y,z
loop_
_atom_site_type_symbol
_atom_site_label
_atom_site_fract_x
_atom_site_fract_y
_atom_site_fract_z
Si Si1 0.014954 0.675875 0.675358
Si Si2 0.677803 0.170014 0.165712
Si Si3 0.696453 0.166968 0.844920
Si Si4 0.206656 0.327719 0.176569
Si Si5 0.476753 0.180061 0.841113
Si Si6 0.029067 0.678585 0.143670
Si Si7 0.884110 0.319658 0.140622
Si Si8 0.694203 0.168272 0.385458
O O1 0.024248 0.500000 0.684261
O O2 0.169585 0.735452 0.750768
O O3 0.048555 0.731166 0.756019
O O4 0.822952 0.729172 0.512171
O O5 0.612382 0.224060 0.171643
O O6 0.744200 0.000000 0.220028
O O7 0.500000 0.168283 0.000000
O O8 0.672289 0.231172 0.772213
O O9 0.505615 0.162753 0.734747
O O10 0.774687 0.000000 0.899009
O O11 0.836941 0.268172 0.978667
O O12 0.265618 0.500000 0.219378
O O13 0.183416 0.273053 0.216085
O O14 0.000000 0.322787 0.000000
O O15 0.342516 0.218999 0.697451
O O16 0.500176 0.000000 0.857883
O O17 0.678400 0.253752 0.982145
O O18 0.036068 0.500000 0.147703
O O19 0.018382 0.725671 0.193082
O O20 0.873041 0.500000 0.132049
O O21 0.771008 0.000000 0.440405
#
# Coordination Sequence:
#
# PCOD9155119 Si02
#       8
#     4   4   4   4   4   4   4   4
#     4  11  24  38  55  80 109 140 177 220 266 316
#     4  10  20  36  60  82 105 139 175 215 265 320
#     4  10  18  29  49  76 105 136 173 218 261 304
#     4   8  15  27  44  70 104 139 171 207 257 314
#     4  10  20  36  58  82 104 136 180 218 260 316
#     4   9  17  30  49  74 105 138 172 212 261 313
#     4  10  20  34  54  80 107 137 175 222 266 308
#     4  10  22  38  54  76 109 143 178 218 261 314
#
# _framework density 18.334654
#
# number of rings (size 3 to 8) (size 9 to 14) (size 15 to 20)
#    0.000    2.250    2.500    1.500    0.000    5.500 
#    0.000    2.500    0.000    0.750    0.000    5.250 
#    0.000    0.000    0.000    0.000    0.000    0.000 
#
# Total GULP energy -178294.182817 kJ/mol
# GULP energy per Si atom -5571.693213 kJ/mol
# Density = 1.829292 g / cm^3
# Si number density = 18.334654 Si / 1000 Ang^3
#
#
#
# Elastic Constant Matrix: (Units=GPa)
#
#
# Indices 1 2 3 4 5 6 
#
# 1 142.8622 15.4766 9.8734 0.0000 -15.7900 0.0000
# 2 15.4766 -2.4667 -2.8945 0.0000 -3.7916 0.0000
# 3 9.8734 -2.8945 13.7922 0.0000 -7.4444 0.0000
# 4 0.0000 0.0000 0.0000 28.6299 0.0000 -7.4029
# 5 -15.7900 -3.7916 -7.4444 0.0000 10.7274 0.0000
# 6 0.0000 0.0000 0.0000 -7.4029 0.0000 45.3832
#
#
#
# Elastic Compliance Matrix: (Units=1/GPa)
#
#
# Indices 1 2 3 4 5 6 
#
# 1 0.007633 0.009560 0.007083 0.000000 0.019530 0.000000
# 2 0.009560 -0.124146 -0.078324 0.000000 -0.084161 0.000000
# 3 0.007083 -0.078324 0.066645 0.000000 0.028992 0.000000
# 4 0.000000 0.000000 0.000000 0.036467 0.000000 0.005948
# 5 0.019530 -0.084161 0.028992 0.000000 0.112338 0.000000
# 6 0.000000 0.000000 0.000000 0.005948 0.000000 0.023005
#
#
# Mechanical properties :
#
#
# Convention : Reuss Voigt Hill
#
# Bulk Modulus (GPa) = -5.77273 22.12207 8.17467
# Shear Modulus (GPa) = 26.65823 25.73026 26.19425
#
# Velocity S-wave (km/s) = 3.81725 3.75022 3.78388
# Velocity P-wave (km/s) = 4.03400 5.55375 4.85372
#
# Compressibility (1/GPa) = -0.17322824
#
# Stress axis : x y z
#
# Youngs Moduli (GPa) = 131.00827 -8.05505 15.00495
#
# Poissons Ratio (x) = 0.07701 -0.10629
# Poissons Ratio (y) = -1.25245 1.17524
# Poissons Ratio (z) = -0.92798 -0.63090
#
# Static dielectric constant tensor:
#      x y z
#    x 1.663510 0.000000 -0.010040 
#    y 0.000000 1.636520 0.000000 
#    z -0.010040 0.000000 1.597240 
# 
# From -- ./inp_files/93639.got.cif
#   From: 2010.05.17/outbox.ucp.g08.bks.cvg/sg10_47_cif.got.tgz:93639.got - 2010.06.11 11:31:16.
