data_PCOD9155057
_publ_section_title
;
Structure prediction by ZEFSAII (Michael W. Deem and Ramdas Pophale) SiO2 
 PCOD9155057
Probable space group: P 2/M
;
_chemical_formula_sum "Si O2"
_cell_formula_units_Z 28
_cell_length_a 7.282899
_cell_length_b 8.286432
_cell_length_c 22.498138
_cell_angle_alpha 90.000000
_cell_angle_beta 115.965054
_cell_angle_gamma 90.000000
_cell_volume 1220.696544
_symmetry_space_group_name_H-M "P 2/M"
_symmetry_group_IT_number 10
_symmetry_cell_setting 'monoclinic'
loop_
_space_group_symop_operation_xyz
x,y,z
-x,y,-z
-x,-y,-z
x,-y,z
loop_
_atom_site_type_symbol
_atom_site_label
_atom_site_fract_x
_atom_site_fract_y
_atom_site_fract_z
Si Si1 0.463407 0.821223 0.648451
Si Si2 0.232973 0.681247 0.791028
Si Si3 0.565407 0.816008 0.071598
Si Si4 0.906605 0.500000 0.581605
Si Si5 0.027429 0.176229 0.656561
Si Si6 0.870299 0.183701 0.927087
Si Si7 0.661159 0.500000 0.429442
Si Si8 0.673828 0.683266 0.786610
O O1 0.242602 0.821235 0.650746
O O2 0.453910 0.664311 0.605276
O O3 0.633379 0.792890 0.723579
O O4 0.486079 0.000000 0.624813
O O5 0.154840 0.500000 0.773640
O O6 0.274187 0.725722 0.864722
O O7 0.091073 0.800263 0.734081
O O8 0.454730 0.685058 0.789973
O O9 0.357560 0.824812 0.079318
O O10 0.634445 0.000000 0.070267
O O11 0.500000 0.739758 0.000000
O O12 0.732338 0.500000 0.507365
O O13 0.906410 0.333992 0.618481
O O14 0.126692 0.500000 0.578691
O O15 0.933806 0.000000 0.633003
O O16 0.840996 0.265792 0.859089
O O17 0.945360 0.000000 0.929288
O O18 0.000000 0.258448 0.000000
O O19 0.709373 0.500000 0.772268
#
# Coordination Sequence:
#
# PCOD9155057 Si02
#       8
#     4   4   4   2   4   4   2   4
#     4   9  15  23  35  49  67  94 128 165 204 244
#     4   9  15  24  38  54  72  95 128 169 206 243
#     4   9  17  28  41  58  80 106 138 176 216 256
#     4   9  16  24  32  46  69  94 125 165 205 247
#     4   9  15  23  35  49  67  94 128 165 204 244
#     4   9  17  28  41  58  80 106 138 176 216 256
#     4   9  16  24  32  46  69  94 125 165 205 247
#     4   9  15  24  38  54  72  95 128 169 206 243
#
# _framework density 22.937722000000001
#
# number of rings (size 3 to 8) (size 9 to 14) (size 15 to 20)
#    0.000    3.000    1.429    0.857    0.000    4.571 
#    0.000    2.857    0.000    0.000    0.000    0.000 
#    0.000    0.000    0.000    0.000    0.000    2.857 
#
# Total GULP energy -156300.012817 kJ/mol
# GULP energy per Si atom -5582.143315 kJ/mol
# Density = 2.288551 g / cm^3
# Si number density = 22.937722 Si / 1000 Ang^3
#
#
#
# Elastic Constant Matrix: (Units=GPa)
#
#
# Indices 1 2 3 4 5 6 
#
# 1 94.8522 2.1631 -0.3997 0.0000 9.1199 0.0000
# 2 2.1631 173.4092 89.9660 0.0000 10.6418 0.0000
# 3 -0.3997 89.9660 157.7347 0.0000 13.1053 0.0000
# 4 0.0000 0.0000 0.0000 18.2656 0.0000 -0.0011
# 5 9.1199 10.6418 13.1053 0.0000 3.6641 0.0000
# 6 0.0000 0.0000 0.0000 -0.0011 0.0000 -19.7534
#
#
#
# Elastic Compliance Matrix: (Units=1/GPa)
#
#
# Indices 1 2 3 4 5 6 
#
# 1 0.016220 0.001216 0.004261 0.000000 -0.059144 0.000000
# 2 0.001216 0.008551 -0.003641 0.000000 -0.014840 0.000000
# 3 0.004261 -0.003641 0.011994 0.000000 -0.042929 0.000000
# 4 0.000000 0.000000 0.000000 0.054748 0.000000 -0.000003
# 5 -0.059144 -0.014840 -0.042929 0.000000 0.616765 0.000000
# 6 0.000000 0.000000 0.000000 -0.000003 0.000000 -0.050624
#
#
# Mechanical properties :
#
#
# Convention : Reuss Voigt Hill
#
# Bulk Modulus (GPa) = 24.72931 67.71722 46.22326
# Shear Modulus (GPa) = 7.49108 22.71971 15.10539
#
# Velocity S-wave (km/s) = 1.80912 3.15063 2.56899
# Velocity P-wave (km/s) = 3.89466 6.54382 5.38470
#
# Compressibility (1/GPa) = 0.04043785
#
# Stress axis : x y z
#
# Youngs Moduli (GPa) = 61.65407 116.94005 83.37345
#
# Poissons Ratio (x) = -0.14226 -0.35527
# Poissons Ratio (y) = -0.07500 0.30359
# Poissons Ratio (z) = -0.26272 0.42582
#
# Static dielectric constant tensor:
#      x y z
#    x 1.883930 0.000000 -0.010690 
#    y 0.000000 1.826870 0.000000 
#    z -0.010690 0.000000 1.831400 
# 
# From -- ./inp_files/88434.got.cif
#   From: 2010.05.17/outbox.cif.g08.bks.cpg/sg10_45_cif.got.tgz:88434.got - 2010.06.03 11:33:40.
