data_PCOD9155910
_publ_section_title
;
Structure prediction by ZEFSAII (Michael W. Deem and Ramdas Pophale) SiO2 
 PCOD9155910
Probable space group: P 21/M
;
_chemical_formula_sum "Si O2"
_cell_formula_units_Z 32
_cell_length_a 35.914382
_cell_length_b 8.877170
_cell_length_c 24.594564
_cell_angle_alpha 90.000000
_cell_angle_beta 15.810839
_cell_angle_gamma 90.000000
_cell_volume 2136.428853
_symmetry_space_group_name_H-M "P 21/M"
_symmetry_group_IT_number 11
_symmetry_cell_setting 'monoclinic'
loop_
_space_group_symop_operation_xyz
x,y,z
-x,1/2+y,-z
-x,-y,-z
x,1/2-y,z
loop_
_atom_site_type_symbol
_atom_site_label
_atom_site_fract_x
_atom_site_fract_y
_atom_site_fract_z
Si Si1 0.199224 0.072171 0.365913
Si Si2 0.319694 0.569633 0.510899
Si Si3 0.895084 0.069375 0.104235
Si Si4 0.107585 0.431233 0.720899
Si Si5 0.570074 0.072013 0.108298
Si Si6 0.194336 0.928774 0.486083
Si Si7 0.502196 0.425853 0.901971
Si Si8 0.128940 0.568939 0.349451
O O1 0.170866 0.250000 0.404018
O O2 0.150551 0.001300 0.490722
O O3 0.140097 0.993753 0.395110
O O4 0.363974 0.052067 0.130083
O O5 0.315325 0.750000 0.510634
O O6 0.252231 0.527839 0.664009
O O7 0.223255 0.497701 0.599244
O O8 0.472705 0.511575 0.287492
O O9 0.903107 0.250000 0.095901
O O10 0.960149 0.027974 0.954779
O O11 0.000000 0.000000 0.000000
O O12 0.121705 0.250000 0.699748
O O13 0.127028 0.498473 0.633935
O O14 0.562482 0.250000 0.127810
O O15 0.509219 0.030183 0.134666
O O16 0.729001 0.026499 0.880640
O O17 0.171084 0.750000 0.518228
O O18 0.357496 0.954350 0.264162
O O19 0.503920 0.250000 0.881504
O O20 0.121738 0.750000 0.360899
O O21 0.000000 0.500000 0.500000
#
# Coordination Sequence:
#
# PCOD9155910 Si02
#       8
#     4   4   4   4   4   4   4   4
#     4  10  20  33  48  66  87 117 152 186 226 269
#     4  10  17  27  42  61  87 118 153 191 227 264
#     4   8  16  27  39  56  81 115 154 191 224 260
#     4  10  18  28  41  59  85 121 159 191 225 262
#     4  10  19  29  45  68  91 117 151 187 224 268
#     4  11  20  29  42  63  91 122 155 190 223 262
#     4   9  18  30  43  60  87 120 152 186 223 260
#     4  10  21  37  54  71  91 116 146 185 231 275
#
# _framework density 14.978265
#
# number of rings (size 3 to 8) (size 9 to 14) (size 15 to 20)
#    0.000    2.250    1.250    2.625    0.000    3.500 
#    0.000    0.000    0.000    0.000    0.000    0.000 
#    0.000    1.000    0.000    3.000    0.000    4.625 
#
# Total GULP energy -178303.321902 kJ/mol
# GULP energy per Si atom -5571.978809 kJ/mol
# Density = 1.494417 g / cm^3
# Si number density = 14.978265 Si / 1000 Ang^3
#
#
#
# Elastic Constant Matrix: (Units=GPa)
#
#
# Indices 1 2 3 4 5 6 
#
# 1 80.1918 43.3601 66.4642 0.0000 17.1497 0.0000
# 2 43.3601 52.6008 49.6700 0.0000 8.7730 0.0000
# 3 66.4642 49.6700 98.2168 0.0000 15.9047 0.0000
# 4 0.0000 0.0000 0.0000 21.1338 0.0000 2.1392
# 5 17.1497 8.7730 15.9047 0.0000 20.6463 0.0000
# 6 0.0000 0.0000 0.0000 2.1392 0.0000 20.8842
#
#
#
# Elastic Compliance Matrix: (Units=1/GPa)
#
#
# Indices 1 2 3 4 5 6 
#
# 1 0.033696 -0.011648 -0.015059 0.000000 -0.011439 0.000000
# 2 -0.011648 0.040454 -0.012978 0.000000 0.002483 0.000000
# 3 -0.015059 -0.012978 0.027440 0.000000 -0.003115 0.000000
# 4 0.000000 0.000000 0.000000 0.047813 0.000000 -0.004898
# 5 -0.011439 0.002483 -0.003115 0.000000 0.059281 0.000000
# 6 0.000000 0.000000 0.000000 -0.004898 0.000000 0.048385
#
#
# Mechanical properties :
#
#
# Convention : Reuss Voigt Hill
#
# Bulk Modulus (GPa) = 45.00720 61.11089 53.05905
# Shear Modulus (GPa) = 14.54143 17.30053 15.92098
#
# Velocity S-wave (km/s) = 3.11920 3.40228 3.26381
# Velocity P-wave (km/s) = 6.56400 7.50482 7.05012
#
# Compressibility (1/GPa) = 0.02221867
#
# Stress axis : x y z
#
# Youngs Moduli (GPa) = 29.67694 24.71967 36.44351
#
# Poissons Ratio (x) = 0.28795 0.54881
# Poissons Ratio (y) = 0.34569 0.47295
# Poissons Ratio (z) = 0.44691 0.32080
#
# Static dielectric constant tensor:
#      x y z
#    x 1.466360 0.000000 0.035660 
#    y 0.000000 1.492060 0.000000 
#    z 0.035660 0.000000 1.531110 
# 
# From -- ./inp_files/67401.got.cif
#   From: 2010.05.17/outbox.cif.g08.bks.cpg/sg11_34_cif.got.tgz:67401.got - 2010.06.03 12:22:45.
