data_PCOD9155666
_publ_section_title
;
Structure prediction by ZEFSAII (Michael W. Deem and Ramdas Pophale) SiO2 
 PCOD9155666
Probable space group: P 2/M
;
_chemical_formula_sum "Si O2"
_cell_formula_units_Z 32
_cell_length_a 12.000000
_cell_length_b 15.000000
_cell_length_c 18.000000
_cell_angle_alpha 90.000000
_cell_angle_beta 30.000000
_cell_angle_gamma 90.000000
_cell_volume 1620.000000
_symmetry_space_group_name_H-M "P 2/M"
_symmetry_group_IT_number 10
_symmetry_cell_setting 'monoclinic'
loop_
_space_group_symop_operation_xyz
x,y,z
-x,y,-z
-x,-y,-z
x,-y,z
loop_
_atom_site_type_symbol
_atom_site_label
_atom_site_fract_x
_atom_site_fract_y
_atom_site_fract_z
Si Si1 0.293342 0.597643 0.175212
Si Si2 0.470587 0.893097 0.251723
Si Si3 0.183459 0.403842 0.829267
Si Si4 0.932919 0.106431 0.407900
Si Si5 0.599964 0.795180 0.856172
Si Si6 0.129447 0.598962 0.690127
Si Si7 0.789468 0.791333 0.175772
Si Si8 0.251162 0.201826 0.632238
O O1 0.279336 0.500000 0.222484
O O2 0.338052 0.690476 0.191989
O O3 0.077372 0.606048 0.246741
O O4 0.500000 0.592055 0.000000
O O5 0.226665 0.874707 0.429017
O O6 0.524244 0.836791 0.145081
O O7 0.628156 0.861050 0.228776
O O8 0.490072 0.000000 0.226893
O O9 0.304757 0.500000 0.763298
O O10 0.070751 0.401075 0.812290
O O11 0.310846 0.309979 0.764053
O O12 0.000000 0.405056 0.000000
O O13 0.848372 0.150020 0.379793
O O14 0.176292 0.147167 0.275873
O O15 0.941034 0.000000 0.395854
O O16 0.500000 0.801570 0.000000
O O17 0.233657 0.500000 0.616948
O O18 0.256875 0.692423 0.608853
O O19 0.854093 0.810268 0.224497
O O20 0.000000 0.787608 0.000000
O O21 0.500000 0.169120 0.500000
#
# Coordination Sequence:
#
# PCOD9155666 Si02
#       8
#     4   4   4   4   4   4   4   4
#     4   9  18  33  57  89 123 157 193 236 297 361
#     4  11  25  44  62  84 120 166 206 250 311 370
#     4   8  15  28  50  79 115 155 192 232 290 359
#     4  11  24  43  65  87 117 161 206 253 310 370
#     4  11  24  41  67  95 121 152 206 258 300 353
#     4   9  17  31  53  82 117 153 193 243 294 353
#     4  10  22  37  59  89 125 156 196 249 309 356
#     4  11  21  38  62  89 119 157 204 245 297 369
#
# _framework density 19.753086
#
# number of rings (size 3 to 8) (size 9 to 14) (size 15 to 20)
#    0.000    2.000    2.500    0.750    1.750    6.250 
#    0.000    1.875    0.000    3.000    0.000    0.000 
#    0.000    0.000    0.000    0.000    0.000    0.000 
#
# Total GULP energy -178141.625645 kJ/mol
# GULP energy per Si atom -5566.925801 kJ/mol
# Density = 1.970813 g / cm^3
# Si number density = 19.753086 Si / 1000 Ang^3
#
#
#
# Elastic Constant Matrix: (Units=GPa)
#
#
# Indices 1 2 3 4 5 6 
#
# 1 66.1207 37.9398 7.9977 0.0000 13.1784 0.0000
# 2 37.9398 124.6433 18.5193 0.0000 17.3000 0.0000
# 3 7.9977 18.5193 61.1558 0.0000 14.8824 0.0000
# 4 0.0000 0.0000 0.0000 19.0405 0.0000 6.4478
# 5 13.1784 17.3000 14.8824 0.0000 32.9620 0.0000
# 6 0.0000 0.0000 0.0000 6.4478 0.0000 15.4847
#
#
#
# Elastic Compliance Matrix: (Units=1/GPa)
#
#
# Indices 1 2 3 4 5 6 
#
# 1 0.019044 -0.005140 0.000295 0.000000 -0.005049 0.000000
# 2 -0.005140 0.010201 -0.001813 0.000000 -0.002480 0.000000
# 3 0.000295 -0.001813 0.018716 0.000000 -0.007616 0.000000
# 4 0.000000 0.000000 0.000000 0.061141 0.000000 -0.025459
# 5 -0.005049 -0.002480 -0.007616 0.000000 0.037097 0.000000
# 6 0.000000 0.000000 0.000000 -0.025459 0.000000 0.075181
#
#
# Mechanical properties :
#
#
# Convention : Reuss Voigt Hill
#
# Bulk Modulus (GPa) = 28.86508 42.31479 35.58994
# Shear Modulus (GPa) = 20.30510 25.99499 23.15004
#
# Velocity S-wave (km/s) = 3.20964 3.63160 3.42712
# Velocity P-wave (km/s) = 5.32732 6.24925 5.80661
#
# Compressibility (1/GPa) = 0.03464393
#
# Stress axis : x y z
#
# Youngs Moduli (GPa) = 52.51086 98.02946 53.43109
#
# Poissons Ratio (x) = 0.50383 -0.01575
# Poissons Ratio (y) = 0.26988 0.09689
# Poissons Ratio (z) = -0.01548 0.17776
#
# Static dielectric constant tensor:
#      x y z
#    x -0.291440 0.000000 0.365650 
#    y 0.000000 1.738890 0.000000 
#    z 0.365650 0.000000 1.647340 
# 
# From -- ./inp_files/76981.got.cif
#   From: 2010.05.17/outbox.ucp.g08.bks.cvg/sg10_39_cif.got.tgz:76981.got - 2010.06.11 11:31:16.
