data_PCOD9155711
_publ_section_title
;
Structure prediction by ZEFSAII (Michael W. Deem and Ramdas Pophale) SiO2 
 PCOD9155711
Probable space group: P 2/M
;
_chemical_formula_sum "Si O2"
_cell_formula_units_Z 24
_cell_length_a 12.000000
_cell_length_b 9.000000
_cell_length_c 24.000000
_cell_angle_alpha 90.000000
_cell_angle_beta 150.000000
_cell_angle_gamma 90.000000
_cell_volume 1296.000000
_symmetry_space_group_name_H-M "P 2/M"
_symmetry_group_IT_number 10
_symmetry_cell_setting 'monoclinic'
loop_
_space_group_symop_operation_xyz
x,y,z
-x,y,-z
-x,-y,-z
x,-y,z
loop_
_atom_site_type_symbol
_atom_site_label
_atom_site_fract_x
_atom_site_fract_y
_atom_site_fract_z
Si Si1 0.503011 0.177793 0.781127
Si Si2 0.921274 0.822987 0.326884
Si Si3 0.411648 0.678946 0.524594
Si Si4 0.841378 0.323848 0.011579
Si Si5 0.475996 0.829438 0.924089
Si Si6 0.692369 0.178361 0.745924
O O1 0.265294 0.220834 0.706620
O O2 0.716679 0.255422 0.903151
O O3 0.523152 0.206368 0.724271
O O4 0.524950 0.000000 0.798586
O O5 0.772653 0.800459 0.206535
O O6 0.159744 0.741493 0.426596
O O7 0.963735 0.000000 0.351894
O O8 0.500000 0.713657 0.500000
O O9 0.408335 0.500000 0.529016
O O10 0.583692 0.749230 0.643941
O O11 0.875168 0.500000 0.019569
O O12 0.651463 0.284588 0.974590
O O13 0.069977 0.246744 0.131351
O O14 0.530668 0.000000 0.929411
O O15 0.500000 0.824958 0.000000
O O16 0.717275 0.000000 0.749553
#
# Coordination Sequence:
#
# PCOD9155711 Si02
#       6
#     4   4   4   4   4   4
#     4   9  20  40  64  91 120 153 198 249 296 350
#     4   9  19  38  62  87 116 151 197 247 292 346
#     4  11  26  44  59  83 121 159 197 245 300 357
#     4  11  22  35  56  91 129 159 191 239 301 360
#     4   9  19  36  59  87 116 155 204 247 289 346
#     4  11  23  40  64  88 116 159 206 247 293 351
#
# _framework density 18.518519000000001
#
# number of rings (size 3 to 8) (size 9 to 14) (size 15 to 20)
#    0.000    2.000    0.000    4.000    2.333    8.333 
#    0.000    3.333    0.000    0.000    0.000    0.000 
#    0.000    0.000    0.000    0.000    0.000    0.000 
#
# Total GULP energy -133891.660792 kJ/mol
# GULP energy per Si atom -5578.819200 kJ/mol
# Density = 1.847637 g / cm^3
# Si number density = 18.518519 Si / 1000 Ang^3
#
#
#
# Elastic Constant Matrix: (Units=GPa)
#
#
# Indices 1 2 3 4 5 6 
#
# 1 101.9875 47.6638 72.2869 0.0000 -14.9623 0.0000
# 2 47.6638 99.5765 62.3648 0.0000 3.5493 0.0000
# 3 72.2869 62.3648 132.1402 0.0000 10.0216 0.0000
# 4 0.0000 0.0000 0.0000 36.6638 0.0000 3.0545
# 5 -14.9623 3.5493 10.0216 0.0000 40.0983 0.0000
# 6 0.0000 0.0000 0.0000 3.0545 0.0000 21.7328
#
#
#
# Elastic Compliance Matrix: (Units=1/GPa)
#
#
# Indices 1 2 3 4 5 6 
#
# 1 0.020230 -0.003732 -0.010094 0.000000 0.010402 0.000000
# 2 -0.003732 0.014952 -0.004902 0.000000 -0.001491 0.000000
# 3 -0.010094 -0.004902 0.015959 0.000000 -0.007321 0.000000
# 4 0.000000 0.000000 0.000000 0.027598 0.000000 -0.003879
# 5 0.010402 -0.001491 -0.007321 0.000000 0.030782 0.000000
# 6 0.000000 0.000000 0.000000 -0.003879 0.000000 0.046559
#
#
# Mechanical properties :
#
#
# Convention : Reuss Voigt Hill
#
# Bulk Modulus (GPa) = 73.07870 77.59277 75.33574
# Shear Modulus (GPa) = 25.24011 29.79156 27.51583
#
# Velocity S-wave (km/s) = 3.69584 4.01527 3.85886
# Velocity P-wave (km/s) = 7.60003 7.96791 7.78614
#
# Compressibility (1/GPa) = 0.01368388
#
# Stress axis : x y z
#
# Youngs Moduli (GPa) = 49.43179 66.87912 62.66225
#
# Poissons Ratio (x) = 0.24960 0.63252
# Poissons Ratio (y) = 0.18449 0.30718
# Poissons Ratio (z) = 0.49897 0.32785
#
# Static dielectric constant tensor:
#      x y z
#    x 1.683460 0.000000 -0.021450 
#    y 0.000000 1.633090 0.000000 
#    z -0.021450 0.000000 1.609930 
# 
# From -- ./inp_files/88744.got.cif
#   From: 2010.05.17/outbox.ucp.g08.bks.cvg/sg10_45_cif.got.tgz:88744.got - 2010.06.11 11:31:16.
