data_PCOD9155473
_publ_section_title
;
Structure prediction by ZEFSAII (Michael W. Deem and Ramdas Pophale) SiO2 
 PCOD9155473
Probable space group: P 2/M
;
_chemical_formula_sum "Si O2"
_cell_formula_units_Z 32
_cell_length_a 21.000000
_cell_length_b 9.000000
_cell_length_c 27.000000
_cell_angle_alpha 90.000000
_cell_angle_beta 20.000000
_cell_angle_gamma 90.000000
_cell_volume 1745.328791
_symmetry_space_group_name_H-M "P 2/M"
_symmetry_group_IT_number 10
_symmetry_cell_setting 'monoclinic'
loop_
_space_group_symop_operation_xyz
x,y,z
-x,y,-z
-x,-y,-z
x,-y,z
loop_
_atom_site_type_symbol
_atom_site_label
_atom_site_fract_x
_atom_site_fract_y
_atom_site_fract_z
Si Si1 0.285453 0.821333 0.666296
Si Si2 0.209373 0.179581 0.836546
Si Si3 0.545589 0.820685 0.663283
Si Si4 0.968900 0.179043 0.321887
Si Si5 0.962576 0.678324 0.834388
Si Si6 0.287389 0.178730 0.169348
Si Si7 0.534432 0.679272 0.172461
Si Si8 0.789160 0.320780 0.668935
O O1 0.500000 0.776008 0.500000
O O2 0.250270 0.789438 0.749554
O O3 0.124173 0.746548 0.751240
O O4 0.274465 0.000000 0.666046
O O5 0.379704 0.230036 0.747273
O O6 0.204143 0.000000 0.846181
O O7 0.000000 0.235924 0.000000
O O8 0.756540 0.785000 0.492580
O O9 0.514047 0.749714 0.739603
O O10 0.534490 0.000000 0.674475
O O11 0.006342 0.261043 0.243330
O O12 0.128216 0.220389 0.245562
O O13 0.979355 0.000000 0.307509
O O14 0.975655 0.500000 0.826697
O O15 0.749114 0.720622 0.003977
O O16 0.246390 0.253801 0.251434
O O17 0.279351 0.000000 0.179994
O O18 0.500000 0.218430 0.000000
O O19 0.526959 0.500000 0.180609
O O20 0.376874 0.725702 0.247413
O O21 0.784243 0.500000 0.674572
O O22 0.000000 0.276966 0.500000
#
# Coordination Sequence:
#
# PCOD9155473 Si02
#       8
#     4   4   4   4   4   4   4   4
#     4  10  20  36  58  80 106 142 181 225 274 320
#     4   9  17  30  50  76 102 129 167 213 259 310
#     4  10  20  35  57  82 105 136 180 225 270 322
#     4  10  21  37  56  80 110 142 181 228 275 327
#     4  11  23  37  55  81 113 148 185 224 269 327
#     4  10  21  36  55  81 110 140 179 228 278 326
#     4  10  22  38  54  79 114 147 182 225 274 329
#     4  10  21  37  57  80 108 145 187 228 273 329
#
# _framework density 18.334654
#
# number of rings (size 3 to 8) (size 9 to 14) (size 15 to 20)
#    0.000    2.000    0.000    3.375    0.000    6.250 
#    0.000    0.625    0.000    2.250    0.000    0.000 
#    0.000    0.000    0.000    0.000    0.000    0.000 
#
# Total GULP energy -178580.748548 kJ/mol
# GULP energy per Si atom -5580.648392 kJ/mol
# Density = 1.829292 g / cm^3
# Si number density = 18.334654 Si / 1000 Ang^3
#
#
#
# Elastic Constant Matrix: (Units=GPa)
#
#
# Indices 1 2 3 4 5 6 
#
# 1 170.8860 37.7331 93.5174 0.0000 -33.0033 0.0000
# 2 37.7331 11.7611 42.0765 0.0000 -2.3118 0.0000
# 3 93.5174 42.0765 191.6016 0.0000 -16.9374 0.0000
# 4 0.0000 0.0000 0.0000 5.5666 0.0000 2.5234
# 5 -33.0033 -2.3118 -16.9374 0.0000 39.8496 0.0000
# 6 0.0000 0.0000 0.0000 2.5234 0.0000 36.6140
#
#
#
# Elastic Compliance Matrix: (Units=1/GPa)
#
#
# Indices 1 2 3 4 5 6 
#
# 1 -0.042646 0.312671 -0.051295 0.000000 -0.038983 0.000000
# 2 0.312671 -1.887453 0.285834 0.000000 0.270946 0.000000
# 3 -0.051295 0.285834 -0.036163 0.000000 -0.041271 0.000000
# 4 0.000000 0.000000 0.000000 0.185436 0.000000 -0.012780
# 5 -0.038983 0.270946 -0.041271 0.000000 -0.009014 0.000000
# 6 0.000000 0.000000 0.000000 -0.012780 0.000000 0.028193
#
#
# Mechanical properties :
#
#
# Convention : Reuss Voigt Hill
#
# Bulk Modulus (GPa) = -1.14700 80.10032 39.47666
# Shear Modulus (GPa) = -1.58897 29.80083 14.10593
#
# Velocity S-wave (km/s) = -0.93195 4.03598 2.77674
# Velocity P-wave (km/s) = 1.33604 8.09331 5.64432
#
# Compressibility (1/GPa) = -0.87184232
#
# Stress axis : x y z
#
# Youngs Moduli (GPa) = -23.44878 -0.52981 -27.65236
#
# Poissons Ratio (x) = 0.16566 -1.41843
# Poissons Ratio (y) = 7.33175 7.90399
# Poissons Ratio (z) = -1.20280 0.15144
#
# Static dielectric constant tensor:
#      x y z
#    x 1.598300 0.000000 -0.006340 
#    y 0.000000 1.609410 0.000000 
#    z -0.006340 0.000000 1.660930 
# 
# From -- ./inp_files/93613.got.cif
#   From: 2010.05.17/outbox.ucp.g08.bks.cvg/sg10_47_cif.got.tgz:93613.got - 2010.06.11 11:31:16.
