data_PCOD9155116
_publ_section_title
;
Structure prediction by ZEFSAII (Michael W. Deem and Ramdas Pophale) SiO2 
 PCOD9155116
Probable space group: P 2/M
;
_chemical_formula_sum "Si O2"
_cell_formula_units_Z 32
_cell_length_a 21.000000
_cell_length_b 9.000000
_cell_length_c 30.000000
_cell_angle_alpha 90.000000
_cell_angle_beta 20.000000
_cell_angle_gamma 90.000000
_cell_volume 1939.254213
_symmetry_space_group_name_H-M "P 2/M"
_symmetry_group_IT_number 10
_symmetry_cell_setting 'monoclinic'
loop_
_space_group_symop_operation_xyz
x,y,z
-x,y,-z
-x,-y,-z
x,-y,z
loop_
_atom_site_type_symbol
_atom_site_label
_atom_site_fract_x
_atom_site_fract_y
_atom_site_fract_z
Si Si1 0.721430 0.177958 0.677595
Si Si2 0.338412 0.821789 0.968516
Si Si3 0.015565 0.323081 0.423862
Si Si4 0.314797 0.676698 0.527904
Si Si5 0.369728 0.829186 0.630041
Si Si6 0.356599 0.821204 0.056905
Si Si7 0.994648 0.676897 0.333258
Si Si8 0.058469 0.323888 0.782629
O O1 0.505074 0.213611 0.825421
O O2 0.823058 0.264193 0.571213
O O3 0.827657 0.233898 0.652162
O O4 0.745082 0.000000 0.657873
O O5 0.315612 0.000000 0.984230
O O6 0.400393 0.775193 0.977652
O O7 0.143060 0.748709 0.085892
O O8 0.035663 0.500000 0.418219
O O9 0.018961 0.293724 0.369302
O O10 0.350128 0.500000 0.506000
O O11 0.503953 0.761341 0.414243
O O12 0.207414 0.716276 0.553366
O O13 0.168504 0.710190 0.664139
O O14 0.500000 0.821792 0.500000
O O15 0.186888 0.738142 0.737665
O O16 0.324191 0.000000 0.668281
O O17 0.153196 0.763221 0.202654
O O18 0.359043 0.000000 0.056865
O O19 0.500000 0.765025 0.000000
O O20 0.018375 0.500000 0.309863
O O21 0.042709 0.500000 0.796019
#
# Coordination Sequence:
#
# PCOD9155116 Si02
#       8
#     4   4   4   4   4   4   4   4
#     4  10  20  35  53  70  93 125 164 207 249 287
#     4  10  20  32  47  69  97 127 160 200 241 283
#     4  10  20  34  52  72  95 123 162 208 248 284
#     4   9  17  30  45  66  96 127 160 192 231 282
#     4   9  17  28  44  66  94 126 160 194 232 276
#     4  10  20  32  46  66  95 129 162 194 234 286
#     4  10  20  33  48  70  98 128 159 197 240 284
#     4  10  18  29  47  68  95 129 161 194 233 283
#
# _framework density 16.501189
#
# number of rings (size 3 to 8) (size 9 to 14) (size 15 to 20)
#    0.000    2.250    1.250    3.000    0.000    5.750 
#    0.000    0.000    0.000    0.000    0.000    0.875 
#    0.000    7.000    0.000    0.000    0.000    0.000 
#
# Total GULP energy -178417.300121 kJ/mol
# GULP energy per Si atom -5575.540629 kJ/mol
# Density = 1.646363 g / cm^3
# Si number density = 16.501189 Si / 1000 Ang^3
#
#
#
# Elastic Constant Matrix: (Units=GPa)
#
#
# Indices 1 2 3 4 5 6 
#
# 1 0.6431 -9.1673 -3.5375 0.0000 -3.9921 0.0000
# 2 -9.1673 1.6848 11.6789 0.0000 -0.0691 0.0000
# 3 -3.5375 11.6789 58.1430 0.0000 -9.1402 0.0000
# 4 0.0000 0.0000 0.0000 41.0108 0.0000 -4.5402
# 5 -3.9921 -0.0691 -9.1402 0.0000 19.6051 0.0000
# 6 0.0000 0.0000 0.0000 -4.5402 0.0000 21.2561
#
#
#
# Elastic Compliance Matrix: (Units=1/GPa)
#
#
# Indices 1 2 3 4 5 6 
#
# 1 0.013088 -0.125936 0.028533 0.000000 0.015523 0.000000
# 2 -0.125936 0.011169 -0.015032 0.000000 -0.032613 0.000000
# 3 0.028533 -0.015032 0.024667 0.000000 0.017257 0.000000
# 4 0.000000 0.000000 0.000000 0.024974 0.000000 0.005334
# 5 0.015523 -0.032613 0.017257 0.000000 0.062099 0.000000
# 6 0.000000 0.000000 0.000000 0.005334 0.000000 0.048185
#
#
# Mechanical properties :
#
#
# Convention : Reuss Voigt Hill
#
# Bulk Modulus (GPa) = -5.68352 6.49100 0.40374
# Shear Modulus (GPa) = 14.26924 20.47418 17.37171
#
# Velocity S-wave (km/s) = 2.94384 3.52628 3.24814
# Velocity P-wave (km/s) = 2.84660 4.53009 3.78318
#
# Compressibility (1/GPa) = -0.17594734
#
# Stress axis : x y z
#
# Youngs Moduli (GPa) = 76.40607 89.53562 40.53950
#
# Poissons Ratio (x) = 11.27576 -1.15670
# Poissons Ratio (y) = 9.62227 0.60940
# Poissons Ratio (z) = -2.18007 1.34593
#
# Static dielectric constant tensor:
#      x y z
#    x 1.560380 0.000000 -0.005630 
#    y 0.000000 1.547670 0.000000 
#    z -0.005630 0.000000 1.538290 
# 
# From -- ./inp_files/95647.got.cif
#   From: 2010.05.17/outbox.ucp.g08.bks.cvg/sg10_48_cif.got.tgz:95647.got - 2010.06.11 11:31:16.
