data_PCOD9155858
_publ_section_title
;
Structure prediction by ZEFSAII (Michael W. Deem and Ramdas Pophale) SiO2 
 PCOD9155858
Probable space group: P 21/M
;
_chemical_formula_sum "Si O2"
_cell_formula_units_Z 32
_cell_length_a 5.471927
_cell_length_b 19.320470
_cell_length_c 17.554228
_cell_angle_alpha 90.000000
_cell_angle_beta 128.567204
_cell_angle_gamma 90.000000
_cell_volume 1451.036730
_symmetry_space_group_name_H-M "P 21/M"
_symmetry_group_IT_number 11
_symmetry_cell_setting 'monoclinic'
loop_
_space_group_symop_operation_xyz
x,y,z
-x,1/2+y,-z
-x,-y,-z
x,1/2-y,z
loop_
_atom_site_type_symbol
_atom_site_label
_atom_site_fract_x
_atom_site_fract_y
_atom_site_fract_z
Si Si1 0.521032 0.834422 0.760521
Si Si2 0.376884 0.821967 0.438443
Si Si3 0.929388 0.359282 0.464693
Si Si4 0.684550 0.833300 0.092276
Si Si5 0.273616 0.522143 0.386809
Si Si6 0.761482 0.334465 0.130736
Si Si7 0.716434 0.955662 0.358217
Si Si8 0.586920 0.333260 0.793459
O O1 0.512455 0.750000 0.756233
O O2 0.300591 0.860417 0.650297
O O3 0.382061 0.855206 0.815683
O O4 0.880652 0.855206 0.815687
O O5 0.259406 0.750000 0.379704
O O6 0.257822 0.824328 0.501983
O O7 0.263757 0.893970 0.381879
O O8 0.750106 0.824328 0.501982
O O9 0.057982 0.429546 0.528991
O O10 0.674291 0.750000 0.087146
O O11 0.542618 0.850608 0.147405
O O12 0.046998 0.850608 0.147405
O O13 0.462407 0.859014 0.981206
O O14 0.500000 0.500000 0.500000
O O15 0.432790 0.502377 0.339410
O O16 0.924845 0.502377 0.339410
O O17 0.759210 0.250000 0.129600
O O18 0.598976 0.883349 0.299489
O O19 0.543655 0.250000 0.771827
#
# Coordination Sequence:
#
# PCOD9155858 Si02
#       8
#     4   4   4   4   4   4   4   4
#     4  10  17  25  39  60  87 124 165 200 238 292
#     4  10  19  31  48  69  95 132 168 201 243 289
#     4  10  20  31  44  67 101 134 166 204 245 291
#     4   9  17  30  44  61  90 127 167 211 251 296
#     4  10  21  36  52  70  97 136 173 208 247 288
#     4   9  17  27  40  58  83 123 170 204 241 295
#     4  10  21  34  50  71  96 131 166 205 241 292
#     4  10  19  30  47  70  96 129 168 207 252 297
#
# _framework density 22.053197999999998
#
# number of rings (size 3 to 8) (size 9 to 14) (size 15 to 20)
#    0.000    2.250    0.000    3.750    0.000    8.500 
#    0.000    1.250    0.000    0.000    0.000    0.000 
#    0.000    0.000    0.000  315.000    0.000   52.500 
#
# Total GULP energy -178703.909153 kJ/mol
# GULP energy per Si atom -5584.497161 kJ/mol
# Density = 2.200300 g / cm^3
# Si number density = 22.053198 Si / 1000 Ang^3
#
#
#
# Elastic Constant Matrix: (Units=GPa)
#
#
# Indices 1 2 3 4 5 6 
#
# 1 258.5947 18.1996 72.4527 0.0000 -1.7402 0.0000
# 2 18.1996 56.3521 10.0277 0.0000 -0.1226 0.0000
# 3 72.4527 10.0277 116.8169 0.0000 -0.3773 0.0000
# 4 0.0000 0.0000 0.0000 13.6396 0.0000 -0.6213
# 5 -1.7402 -0.1226 -0.3773 0.0000 34.7950 0.0000
# 6 0.0000 0.0000 0.0000 -0.6213 0.0000 55.3172
#
#
#
# Elastic Compliance Matrix: (Units=1/GPa)
#
#
# Indices 1 2 3 4 5 6 
#
# 1 0.004739 -0.001023 -0.002851 0.000000 0.000203 0.000000
# 2 -0.001023 0.018242 -0.000932 0.000000 0.000003 0.000000
# 3 -0.002851 -0.000932 0.010408 0.000000 -0.000033 0.000000
# 4 0.000000 0.000000 0.000000 0.073354 0.000000 0.000824
# 5 0.000203 0.000003 -0.000033 0.000000 0.028750 0.000000
# 6 0.000000 0.000000 0.000000 0.000824 0.000000 0.018087
#
#
# Mechanical properties :
#
#
# Convention : Reuss Voigt Hill
#
# Bulk Modulus (GPa) = 42.05418 70.34708 56.20063
# Shear Modulus (GPa) = 29.21993 42.82259 36.02126
#
# Velocity S-wave (km/s) = 3.64397 4.41135 4.04589
# Velocity P-wave (km/s) = 6.06758 7.61017 6.88223
#
# Compressibility (1/GPa) = 0.02377885
#
# Stress axis : x y z
#
# Youngs Moduli (GPa) = 211.00782 54.81958 96.07580
#
# Poissons Ratio (x) = 0.05607 0.27390
# Poissons Ratio (y) = 0.21582 0.08950
# Poissons Ratio (z) = 0.60156 0.05106
#
# Static dielectric constant tensor:
#      x y z
#    x 1.908300 0.000000 -0.001750 
#    y 0.000000 1.819110 0.000000 
#    z -0.001750 0.000000 1.791040 
# 
# From -- ./inp_files/57237.got.cif
#   From: 2010.05.17/outbox.cif.g08.bks.cpg/sg11_29_cif.got.tgz:57237.got - 2010.06.03 12:22:45.
