data_PCOD9155010
_publ_section_title
;
Structure prediction by ZEFSAII (Michael W. Deem and Ramdas Pophale) SiO2 
 PCOD9155010
Probable space group: P 2/M
;
_chemical_formula_sum "Si O2"
_cell_formula_units_Z 28
_cell_length_a 9.695026
_cell_length_b 7.547459
_cell_length_c 30.840390
_cell_angle_alpha 90.000000
_cell_angle_beta 38.177302
_cell_angle_gamma 90.000000
_cell_volume 1394.845982
_symmetry_space_group_name_H-M "P 2/M"
_symmetry_group_IT_number 10
_symmetry_cell_setting 'monoclinic'
loop_
_space_group_symop_operation_xyz
x,y,z
-x,y,-z
-x,-y,-z
x,-y,z
loop_
_atom_site_type_symbol
_atom_site_label
_atom_site_fract_x
_atom_site_fract_y
_atom_site_fract_z
Si Si1 0.337898 0.706424 0.625784
Si Si2 0.993663 0.716089 0.367627
Si Si3 0.647513 0.289515 0.785113
Si Si4 0.251393 0.787700 0.937329
Si Si5 0.157708 0.282552 0.500187
Si Si6 0.974936 0.200264 0.781380
Si Si7 0.420449 0.217455 0.067099
O O1 0.365266 0.500000 0.608506
O O2 0.586617 0.779015 0.568045
O O3 0.188413 0.778880 0.622989
O O4 0.192682 0.717216 0.705614
O O5 0.985924 0.500000 0.370140
O O6 0.236397 0.764998 0.288440
O O7 0.935750 0.774694 0.430033
O O8 0.682420 0.500000 0.781213
O O9 0.391803 0.251274 0.859127
O O10 0.793601 0.201283 0.787050
O O11 0.400930 0.723420 0.940810
O O12 0.240493 0.000000 0.944193
O O13 0.000000 0.718632 0.000000
O O14 0.157169 0.500000 0.499737
O O15 0.000000 0.224802 0.500000
O O16 0.827210 0.278013 0.857031
O O17 0.035403 0.000000 0.777780
O O18 0.414019 0.000000 0.069683
O O19 0.500000 0.271138 0.000000
#
# Coordination Sequence:
#
# PCOD9155010 Si02
#       7
#     4   4   4   4   4   4   4
#     4   9  16  27  45  66  86 110 142 179 215 253
#     4   8  14  25  42  63  84 109 143 179 214 253
#     4   9  16  27  45  66  88 113 142 179 219 255
#     4   9  17  29  45  65  89 116 146 179 212 251
#     4   9  16  26  42  64  88 114 144 177 212 252
#     4   9  16  27  45  66  87 111 142 180 216 252
#     4   8  14  26  44  63  82 109 145 178 208 248
#
# _framework density 20.073899999999998
#
# number of rings (size 3 to 8) (size 9 to 14) (size 15 to 20)
#    0.000    3.286    0.000    3.000    0.000    2.000 
#    0.000    1.429    0.000   18.857    0.000    0.000 
#    0.000    0.000    0.000    0.000    0.000    0.000 
#
# Total GULP energy -155944.256957 kJ/mol
# GULP energy per Si atom -5569.437748 kJ/mol
# Density = 2.002821 g / cm^3
# Si number density = 20.073900 Si / 1000 Ang^3
#
#
#
# Elastic Constant Matrix: (Units=GPa)
#
#
# Indices 1 2 3 4 5 6 
#
# 1 80.8584 3.9849 95.8780 0.0000 1.5044 0.0000
# 2 3.9849 45.0501 -4.1853 0.0000 -1.4482 0.0000
# 3 95.8780 -4.1853 232.5038 0.0000 0.6705 0.0000
# 4 0.0000 0.0000 0.0000 24.4527 0.0000 -0.7460
# 5 1.5044 -1.4482 0.6705 0.0000 28.7267 0.0000
# 6 0.0000 0.0000 0.0000 -0.7460 0.0000 2.7587
#
#
#
# Elastic Compliance Matrix: (Units=1/GPa)
#
#
# Indices 1 2 3 4 5 6 
#
# 1 0.024675 -0.003172 -0.010229 0.000000 -0.001213 0.000000
# 2 -0.003172 0.022678 0.001713 0.000000 0.001269 0.000000
# 3 -0.010229 0.001713 0.008549 0.000000 0.000422 0.000000
# 4 0.000000 0.000000 0.000000 0.041235 0.000000 0.011151
# 5 -0.001213 0.001269 0.000422 0.000000 0.034928 0.000000
# 6 0.000000 0.000000 0.000000 0.011151 0.000000 0.365502
#
#
# Mechanical properties :
#
#
# Convention : Reuss Voigt Hill
#
# Bulk Modulus (GPa) = 30.74528 61.08527 45.91528
# Shear Modulus (GPa) = 9.40228 28.70328 19.05278
#
# Velocity S-wave (km/s) = 2.16656 3.78548 3.08414
# Velocity P-wave (km/s) = 4.64844 7.04292 5.96702
#
# Compressibility (1/GPa) = 0.03252531
#
# Stress axis : x y z
#
# Youngs Moduli (GPa) = 40.52653 44.09557 116.97618
#
# Poissons Ratio (x) = 0.13987 1.19654
# Poissons Ratio (y) = 0.12855 -0.20033
# Poissons Ratio (z) = 0.41454 -0.07552
#
# Static dielectric constant tensor:
#      x y z
#    x 1.670940 0.000000 -0.003950 
#    y 0.000000 1.768740 0.000000 
#    z -0.003950 0.000000 1.748030 
# 
# From -- ./inp_files/86694.got.cif
#   From: 2010.05.17/outbox.cif.g08.bks.cpg/sg10_44_cif.got.tgz:86694.got - 2010.06.03 11:33:40.
