data_PCOD9155197
_publ_section_title
;
Structure prediction by ZEFSAII (Michael W. Deem and Ramdas Pophale) SiO2 
 PCOD9155197
Probable space group: P 2/M
;
_chemical_formula_sum "Si O2"
_cell_formula_units_Z 32
_cell_length_a 12.000000
_cell_length_b 9.000000
_cell_length_c 21.000000
_cell_angle_alpha 90.000000
_cell_angle_beta 120.000000
_cell_angle_gamma 90.000000
_cell_volume 1964.145616
_symmetry_space_group_name_H-M "P 2/M"
_symmetry_group_IT_number 10
_symmetry_cell_setting 'monoclinic'
loop_
_space_group_symop_operation_xyz
x,y,z
-x,y,-z
-x,-y,-z
x,-y,z
loop_
_atom_site_type_symbol
_atom_site_label
_atom_site_fract_x
_atom_site_fract_y
_atom_site_fract_z
Si Si1 0.617627 0.177640 0.286680
Si Si2 0.848432 0.178287 0.258527
Si Si3 0.869708 0.821573 0.117979
Si Si4 0.626063 0.678101 0.842621
Si Si5 0.026950 0.673366 0.405568
Si Si6 0.787387 0.326222 0.435970
Si Si7 0.074181 0.679055 0.086924
Si Si8 0.382299 0.321719 0.012741
O O1 0.720902 0.227062 0.261342
O O2 0.478756 0.243983 0.231438
O O3 0.675751 0.235158 0.369955
O O4 0.613267 0.000000 0.284967
O O5 0.850915 0.225704 0.186021
O O6 0.974445 0.237342 0.330785
O O7 0.848786 0.000000 0.260600
O O8 0.747039 0.759910 0.045014
O O9 0.997050 0.754987 0.122100
O O10 0.873254 0.000000 0.116234
O O11 0.617217 0.500000 0.832231
O O12 0.775225 0.720407 0.873889
O O13 0.590973 0.713222 0.905975
O O14 0.044980 0.500000 0.394774
O O15 0.908693 0.680710 0.422103
O O16 0.153429 0.726137 0.479797
O O17 0.752007 0.500000 0.431535
O O18 0.066773 0.500000 0.091078
O O19 0.000000 0.718057 0.000000
O O20 0.362099 0.500000 0.002365
O O21 0.500000 0.281359 0.000000
#
# Coordination Sequence:
#
# PCOD9155197 Si02
#       8
#     4   4   4   4   4   4   4   4
#     4  10  19  30  46  70 101 133 163 193 233 289
#     4   9  19  32  44  67 104 136 158 192 239 286
#     4  11  22  34  50  72  99 128 161 201 247 291
#     4  10  20  34  51  70  93 123 158 203 250 283
#     4   8  14  25  44  68  93 127 166 199 229 274
#     4   8  14  26  43  66  97 128 161 198 235 274
#     4  10  20  38  57  70  90 120 162 212 251 289
#     4  10  20  34  52  72  95 127 164 197 238 293
#
# _framework density 16.292071
#
# number of rings (size 3 to 8) (size 9 to 14) (size 15 to 20)
#    0.000    2.500    1.250    2.250    0.000    3.500 
#    0.000    2.500    0.000    0.000    0.000    0.875 
#    0.000    7.000    0.000    0.000    0.000    0.000 
#
# Total GULP energy -178349.091413 kJ/mol
# GULP energy per Si atom -5573.409107 kJ/mol
# Density = 1.625499 g / cm^3
# Si number density = 16.292071 Si / 1000 Ang^3
#
#
#
# Elastic Constant Matrix: (Units=GPa)
#
#
# Indices 1 2 3 4 5 6 
#
# 1 69.9493 19.1705 24.9866 0.0000 24.4656 0.0000
# 2 19.1705 14.6786 27.1357 0.0000 13.9201 0.0000
# 3 24.9866 27.1357 98.7560 0.0000 35.2090 0.0000
# 4 0.0000 0.0000 0.0000 11.2604 0.0000 -8.6851
# 5 24.4656 13.9201 35.2090 0.0000 21.8673 0.0000
# 6 0.0000 0.0000 0.0000 -8.6851 0.0000 13.5056
#
#
#
# Elastic Compliance Matrix: (Units=1/GPa)
#
#
# Indices 1 2 3 4 5 6 
#
# 1 0.030767 -0.030339 0.013943 0.000000 -0.037560 0.000000
# 2 -0.030339 0.219051 -0.034983 0.000000 -0.049172 0.000000
# 3 0.013943 -0.034983 0.032475 0.000000 -0.045620 0.000000
# 4 0.000000 0.000000 0.000000 0.176207 0.000000 0.113315
# 5 -0.037560 -0.049172 -0.045620 0.000000 0.192509 0.000000
# 6 0.000000 0.000000 0.000000 0.113315 0.000000 0.146914
#
#
# Mechanical properties :
#
#
# Convention : Reuss Voigt Hill
#
# Bulk Modulus (GPa) = 5.56989 36.21884 20.89436
# Shear Modulus (GPa) = 5.20548 16.79940 11.00244
#
# Velocity S-wave (km/s) = 1.78942 3.21462 2.60152
# Velocity P-wave (km/s) = 2.77409 6.00480 4.67724
#
# Compressibility (1/GPa) = 0.17953676
#
# Stress axis : x y z
#
# Youngs Moduli (GPa) = 32.50184 4.56514 30.79277
#
# Poissons Ratio (x) = 0.13850 -0.42935
# Poissons Ratio (y) = 0.98608 1.07721
# Poissons Ratio (z) = -0.45318 0.15970
#
# Static dielectric constant tensor:
#      x y z
#    x 1.528730 0.000000 -0.001980 
#    y 0.000000 1.542840 0.000000 
#    z -0.001980 0.000000 1.555490 
# 
# From -- ./inp_files/52784.got.cif
#   From: 2010.05.17/outbox.ucp.g08.bks.cvg/sg10_27_cif.got.tgz:52784.got - 2010.06.11 11:31:16.
