data_PCOD9155750
_publ_section_title
;
Structure prediction by ZEFSAII (Michael W. Deem and Ramdas Pophale) SiO2 
 PCOD9155750
Probable space group: P 21/M
;
_chemical_formula_sum "Si O2"
_cell_formula_units_Z 28
_cell_length_a 19.572083
_cell_length_b 8.723735
_cell_length_c 18.579224
_cell_angle_alpha 90.000000
_cell_angle_beta 148.422096
_cell_angle_gamma 90.000000
_cell_volume 1661.170957
_symmetry_space_group_name_H-M "P 21/M"
_symmetry_group_IT_number 11
_symmetry_cell_setting 'monoclinic'
loop_
_space_group_symop_operation_xyz
x,y,z
-x,1/2+y,-z
-x,-y,-z
x,1/2-y,z
loop_
_atom_site_type_symbol
_atom_site_label
_atom_site_fract_x
_atom_site_fract_y
_atom_site_fract_z
Si Si1 0.882312 0.932549 0.239949
Si Si2 0.220724 0.067840 0.403956
Si Si3 0.826928 0.933295 0.480342
Si Si4 0.930182 0.934081 0.127005
Si Si5 0.852652 0.067351 0.359085
Si Si6 0.135599 0.433688 0.091728
Si Si7 0.639893 0.432180 0.605994
O O1 0.873117 0.750000 0.241369
O O2 0.851467 0.972847 0.129365
O O3 0.809851 0.013884 0.241200
O O4 0.033390 0.985031 0.382113
O O5 0.228164 0.250000 0.399120
O O6 0.249573 0.036631 0.514222
O O7 0.071618 0.014516 0.255478
O O8 0.313766 0.984100 0.431550
O O9 0.846846 0.750000 0.492184
O O10 0.776436 0.998353 0.359170
O O11 0.953542 0.750000 0.149839
O O12 0.859657 0.970436 0.989022
O O13 0.857381 0.250000 0.367500
O O14 0.000000 0.000000 0.500000
O O15 0.135576 0.250000 0.099948
O O16 0.252925 0.503944 0.242254
O O17 0.000000 0.500000 0.000000
O O18 0.500000 0.500000 0.500000
O O19 0.636905 0.250000 0.607085
#
# Coordination Sequence:
#
# PCOD9155750 Si02
#       7
#     4   4   4   4   4   4   4
#     4   9  15  24  37  56  85 121 157 196 239 286
#     4  10  19  31  49  71  96 126 165 209 253 302
#     4   9  16  25  38  58  84 118 157 197 239 290
#     4   9  18  30  47  70  97 129 166 205 248 298
#     4  10  16  22  33  52  81 119 157 194 237 288
#     4  11  21  35  55  80 105 134 172 213 257 307
#     4  12  25  40  56  75 102 136 172 215 263 310
#
# _framework density 16.85558
#
# number of rings (size 3 to 8) (size 9 to 14) (size 15 to 20)
#    0.000    2.000    1.429    6.000    0.000    2.857 
#    0.000    0.000    0.000    0.000    0.000    0.000 
#    0.000    1.143    0.000    3.429    0.000    7.714 
#
# Total GULP energy -156056.235584 kJ/mol
# GULP energy per Si atom -5573.436985 kJ/mol
# Density = 1.681722 g / cm^3
# Si number density = 16.855580 Si / 1000 Ang^3
#
#
#
# Elastic Constant Matrix: (Units=GPa)
#
#
# Indices 1 2 3 4 5 6 
#
# 1 134.4621 63.7159 67.9146 0.0000 -38.4819 0.0000
# 2 63.7159 98.3672 37.9270 0.0000 -17.0826 0.0000
# 3 67.9146 37.9270 63.1223 0.0000 -14.1671 0.0000
# 4 0.0000 0.0000 0.0000 18.0344 0.0000 -4.2532
# 5 -38.4819 -17.0826 -14.1671 0.0000 30.3927 0.0000
# 6 0.0000 0.0000 0.0000 -4.2532 0.0000 28.3754
#
#
#
# Elastic Compliance Matrix: (Units=1/GPa)
#
#
# Indices 1 2 3 4 5 6 
#
# 1 0.026171 -0.005599 -0.020173 0.000000 0.020586 0.000000
# 2 -0.005599 0.014919 -0.002959 0.000000 -0.000083 0.000000
# 3 -0.020173 -0.002959 0.037101 0.000000 -0.009912 0.000000
# 4 0.000000 0.000000 0.000000 0.057482 0.000000 0.008616
# 5 0.020586 -0.000083 -0.009912 0.000000 0.054301 0.000000
# 6 0.000000 0.000000 0.000000 0.008616 0.000000 0.036533
#
#
# Mechanical properties :
#
#
# Convention : Reuss Voigt Hill
#
# Bulk Modulus (GPa) = 48.24327 70.56294 59.40311
# Shear Modulus (GPa) = 17.18937 23.78677 20.48807
#
# Velocity S-wave (km/s) = 3.19690 3.76068 3.49019
# Velocity P-wave (km/s) = 6.50466 7.79815 7.18059
#
# Compressibility (1/GPa) = 0.02072828
#
# Stress axis : x y z
#
# Youngs Moduli (GPa) = 38.21060 67.02909 26.95377
#
# Poissons Ratio (x) = 0.37527 0.54375
# Poissons Ratio (y) = 0.21392 0.07975
# Poissons Ratio (z) = 0.77084 0.19834
#
# Static dielectric constant tensor:
#      x y z
#    x 1.622380 0.000000 -0.066980 
#    y 0.000000 1.560340 0.000000 
#    z -0.066980 0.000000 1.552450 
# 
# From -- ./inp_files/61271.got.cif
#   From: 2010.05.17/outbox.cif.g08.bks.cpg/sg11_31_cif.got.tgz:61271.got - 2010.06.03 12:22:45.
