data_PCOD9155321
_publ_section_title
;
Structure prediction by ZEFSAII (Michael W. Deem and Ramdas Pophale) SiO2 
 PCOD9155321
Probable space group: P 2/M
;
_chemical_formula_sum "Si O2"
_cell_formula_units_Z 28
_cell_length_a 12.000000
_cell_length_b 9.000000
_cell_length_c 15.000000
_cell_angle_alpha 90.000000
_cell_angle_beta 120.000000
_cell_angle_gamma 90.000000
_cell_volume 1402.961154
_symmetry_space_group_name_H-M "P 2/M"
_symmetry_group_IT_number 10
_symmetry_cell_setting 'monoclinic'
loop_
_space_group_symop_operation_xyz
x,y,z
-x,y,-z
-x,-y,-z
x,-y,z
loop_
_atom_site_type_symbol
_atom_site_label
_atom_site_fract_x
_atom_site_fract_y
_atom_site_fract_z
Si Si1 0.938098 0.670193 0.649034
Si Si2 0.946805 0.822817 0.835600
Si Si3 0.243193 0.322054 0.579584
Si Si4 0.752103 0.331614 0.224882
Si Si5 0.488530 0.173954 0.602219
Si Si6 0.699213 0.677893 0.815797
Si Si7 0.771111 0.680297 0.038192
O O1 0.891108 0.500000 0.648139
O O2 0.908102 0.779534 0.718357
O O3 0.879381 0.719351 0.530720
O O4 0.092175 0.661101 0.710345
O O5 0.842384 0.736452 0.852265
O O6 0.089432 0.759218 0.911781
O O7 0.942786 0.000000 0.847193
O O8 0.231545 0.500000 0.586817
O O9 0.271381 0.256469 0.689270
O O10 0.365752 0.274807 0.573142
O O11 0.698527 0.500000 0.206040
O O12 0.715991 0.271319 0.112972
O O13 0.500000 0.180248 0.500000
O O14 0.603813 0.239297 0.709301
O O15 0.470246 0.000000 0.618395
O O16 0.689409 0.500000 0.798920
O O17 0.684746 0.708940 0.916325
O O18 0.791792 0.500000 0.050832
#
# Coordination Sequence:
#
# PCOD9155321 Si02
#       7
#     4   4   4   4   4   4   4
#     4   9  17  31  53  81 112 144 179 219 261 310
#     4  11  21  32  51  81 115 147 176 213 266 321
#     4  10  19  33  57  83 106 139 181 222 265 312
#     4   8  15  31  55  83 111 137 172 219 265 309
#     4  11  25  42  57  76 106 141 176 218 267 318
#     4  11  22  37  58  80 103 138 183 225 265 311
#     4   9  19  36  57  81 109 140 176 219 263 311
#
# _framework density 19.957787
#
# number of rings (size 3 to 8) (size 9 to 14) (size 15 to 20)
#    0.000    2.143    0.000    4.714    0.000    8.571 
#    0.000    3.571    0.000    8.571    0.000    0.000 
#    0.000    0.000    0.000    0.000    0.000    0.000 
#
# Total GULP energy -156038.554714 kJ/mol
# GULP energy per Si atom -5572.805525 kJ/mol
# Density = 1.991236 g / cm^3
# Si number density = 19.957787 Si / 1000 Ang^3
#
#
#
# Elastic Constant Matrix: (Units=GPa)
#
#
# Indices 1 2 3 4 5 6 
#
# 1 5.0805 -15.2515 2.8256 0.0000 -15.8911 0.0000
# 2 -15.2515 26.2731 19.9109 0.0000 -2.2952 0.0000
# 3 2.8256 19.9109 134.0238 0.0000 -18.7669 0.0000
# 4 0.0000 0.0000 0.0000 6.1325 0.0000 31.6362
# 5 -15.8911 -2.2952 -18.7669 0.0000 27.1617 0.0000
# 6 0.0000 0.0000 0.0000 31.6362 0.0000 -36.5385
#
#
#
# Elastic Compliance Matrix: (Units=1/GPa)
#
#
# Indices 1 2 3 4 5 6 
#
# 1 -0.067162 -0.044265 0.002177 0.000000 -0.041530 0.000000
# 2 -0.044265 0.013735 -0.005061 0.000000 -0.028234 0.000000
# 3 0.002177 -0.005061 0.009173 0.000000 0.007184 0.000000
# 4 0.000000 0.000000 0.000000 0.029829 0.000000 0.025827
# 5 -0.041530 -0.028234 0.007184 0.000000 0.015097 0.000000
# 6 0.000000 0.000000 0.000000 0.025827 0.000000 -0.005006
#
#
# Mechanical properties :
#
#
# Convention : Reuss Voigt Hill
#
# Bulk Modulus (GPa) = -7.21751 20.03862 6.41055
# Shear Modulus (GPa) = 114.20866 9.87731 62.04298
#
# Velocity S-wave (km/s) = 7.57293 2.22707 5.58163
# Velocity P-wave (km/s) = 8.53473 4.08355 6.69018
#
# Compressibility (1/GPa) = -0.13855184
#
# Stress axis : x y z
#
# Youngs Moduli (GPa) = -14.88938 72.80833 109.01269
#
# Poissons Ratio (x) = 3.22286 -0.23730
# Poissons Ratio (y) = -0.65908 0.55168
# Poissons Ratio (z) = 0.03241 0.36846
#
# Static dielectric constant tensor:
#      x y z
#    x 1.754730 0.000000 -0.053890 
#    y 0.000000 1.664510 0.000000 
#    z -0.053890 0.000000 1.770720 
# 
# From -- ./inp_files/63923.got.cif
#   From: 2010.05.17/outbox.ucp.g08.bks.cvg/sg10_32_cif.got.tgz:63923.got - 2010.06.11 11:31:16.
