data_PCOD9155659
_publ_section_title
;
Structure prediction by ZEFSAII (Michael W. Deem and Ramdas Pophale) SiO2 
 PCOD9155659
Probable space group: P 2/M
;
_chemical_formula_sum "Si O2"
_cell_formula_units_Z 24
_cell_length_a 9.000000
_cell_length_b 9.000000
_cell_length_c 21.000000
_cell_angle_alpha 90.000000
_cell_angle_beta 130.000000
_cell_angle_gamma 90.000000
_cell_volume 1303.041598
_symmetry_space_group_name_H-M "P 2/M"
_symmetry_group_IT_number 10
_symmetry_cell_setting 'monoclinic'
loop_
_space_group_symop_operation_xyz
x,y,z
-x,y,-z
-x,-y,-z
x,-y,z
loop_
_atom_site_type_symbol
_atom_site_label
_atom_site_fract_x
_atom_site_fract_y
_atom_site_fract_z
Si Si1 0.402873 0.821773 0.290641
Si Si2 0.397043 0.320374 0.773266
Si Si3 0.023639 0.820510 0.360765
Si Si4 0.623356 0.820847 0.098453
Si Si5 0.037888 0.678383 0.233119
Si Si6 0.368041 0.677297 0.527548
O O1 0.499563 0.777495 0.251184
O O2 0.206340 0.726287 0.232861
O O3 0.531425 0.756494 0.384567
O O4 0.377360 0.000000 0.290415
O O5 0.419212 0.500000 0.775093
O O6 0.174457 0.273276 0.697753
O O7 0.455535 0.259427 0.859399
O O8 0.105153 0.769859 0.314574
O O9 0.167025 0.759158 0.454269
O O10 0.998263 0.000000 0.357245
O O11 0.835560 0.745489 0.153197
O O12 0.640021 0.000000 0.113068
O O13 0.500000 0.796904 0.000000
O O14 0.027024 0.500000 0.241088
O O15 0.500000 0.690757 0.500000
O O16 0.342808 0.500000 0.532643
#
# Coordination Sequence:
#
# PCOD9155659 Si02
#       6
#     4   4   4   4   4   4
#     4  12  24  39  59  85 119 156 197 243 294 344
#     4  11  23  40  61  86 120 155 192 239 295 348
#     4  11  21  36  58  84 115 155 202 243 287 340
#     4  10  21  40  66  93 119 150 190 235 285 346
#     4  11  21  36  59  87 118 154 195 237 288 345
#     4  11  22  36  57  84 117 154 201 248 288 337
#
# _framework density 18.418444999999998
#
# number of rings (size 3 to 8) (size 9 to 14) (size 15 to 20)
#    0.000    1.000    1.667    9.000    0.000    2.667 
#    0.000    4.167    0.000    5.000    0.000    0.000 
#    0.000    0.000    0.000    0.000    0.000    0.000 
#
# Total GULP energy -133854.152650 kJ/mol
# GULP energy per Si atom -5577.256360 kJ/mol
# Density = 1.837652 g / cm^3
# Si number density = 18.418445 Si / 1000 Ang^3
#
#
#
# Elastic Constant Matrix: (Units=GPa)
#
#
# Indices 1 2 3 4 5 6 
#
# 1 25.6963 -16.1620 19.5577 0.0000 -9.1724 0.0000
# 2 -16.1620 161.1583 53.3469 0.0000 -1.7938 0.0000
# 3 19.5577 53.3469 134.1132 0.0000 -7.6151 0.0000
# 4 0.0000 0.0000 0.0000 31.7166 0.0000 -1.5800
# 5 -9.1724 -1.7938 -7.6151 0.0000 14.1668 0.0000
# 6 0.0000 0.0000 0.0000 -1.5800 0.0000 28.1016
#
#
#
# Elastic Compliance Matrix: (Units=1/GPa)
#
#
# Indices 1 2 3 4 5 6 
#
# 1 0.070140 0.011646 -0.012583 0.000000 0.040124 0.000000
# 2 0.011646 0.009085 -0.004970 0.000000 0.006019 0.000000
# 3 -0.012583 -0.004970 0.011109 0.000000 -0.002805 0.000000
# 4 0.000000 0.000000 0.000000 0.031618 0.000000 0.001778
# 5 0.040124 0.006019 -0.002805 0.000000 0.095821 0.000000
# 6 0.000000 0.000000 0.000000 0.001778 0.000000 0.035685
#
#
# Mechanical properties :
#
#
# Convention : Reuss Voigt Hill
#
# Bulk Modulus (GPa) = 12.73563 48.27255 30.50409
# Shear Modulus (GPa) = 17.15584 32.41201 24.78392
#
# Velocity S-wave (km/s) = 3.05528 4.19950 3.67223
# Velocity P-wave (km/s) = 4.40181 7.05550 5.88031
#
# Compressibility (1/GPa) = 0.07851987
#
# Stress axis : x y z
#
# Youngs Moduli (GPa) = 14.25722 110.06762 90.01561
#
# Poissons Ratio (x) = -1.28183 1.13263
# Poissons Ratio (y) = -0.16604 0.44742
# Poissons Ratio (z) = 0.17939 0.54709
#
# Static dielectric constant tensor:
#      x y z
#    x 1.753700 0.000000 0.004100 
#    y 0.000000 1.593980 0.000000 
#    z 0.004100 0.000000 1.603930 
# 
# From -- ./inp_files/82042.got.cif
#   From: 2010.05.17/outbox.ucp.g08.bks.cvg/sg10_42_cif.got.tgz:82042.got - 2010.06.11 11:31:16.
