data_PCOD9155623
_publ_section_title
;
Structure prediction by ZEFSAII (Michael W. Deem and Ramdas Pophale) SiO2 
 PCOD9155623
Probable space group: P 2/M
;
_chemical_formula_sum "Si O2"
_cell_formula_units_Z 28
_cell_length_a 15.000000
_cell_length_b 12.000000
_cell_length_c 9.000000
_cell_angle_alpha 90.000000
_cell_angle_beta 120.000000
_cell_angle_gamma 90.000000
_cell_volume 1402.961154
_symmetry_space_group_name_H-M "P 2/M"
_symmetry_group_IT_number 10
_symmetry_cell_setting 'monoclinic'
loop_
_space_group_symop_operation_xyz
x,y,z
-x,y,-z
-x,-y,-z
x,-y,z
loop_
_atom_site_type_symbol
_atom_site_label
_atom_site_fract_x
_atom_site_fract_y
_atom_site_fract_z
Si Si1 0.610752 0.000000 0.019517
Si Si2 0.623290 0.368647 0.313967
Si Si3 0.611526 0.000000 0.661456
Si Si4 0.925725 0.873162 0.301991
Si Si5 0.287812 0.763881 0.867284
Si Si6 0.383022 0.369798 0.191800
Si Si7 0.082445 0.127839 0.195837
Si Si8 0.705409 0.233974 0.636176
O O1 0.611280 0.000000 0.840261
O O2 0.500000 0.000000 0.000000
O O3 0.661738 0.115269 0.113402
O O4 0.646026 0.500000 0.360206
O O5 0.654596 0.333823 0.174354
O O6 0.501922 0.351860 0.245512
O O7 0.688569 0.274304 0.454565
O O8 0.500000 0.000000 0.500000
O O9 0.659834 0.885600 0.641926
O O10 0.831656 0.791269 0.253362
O O11 0.000000 0.890059 0.500000
O O12 0.007630 0.823849 0.256988
O O13 0.889852 0.000000 0.223268
O O14 0.309768 0.719477 0.050226
O O15 0.359263 0.500000 0.148406
O O16 0.358976 0.333113 0.339133
O O17 0.174498 0.211046 0.236266
O O18 0.119326 0.000000 0.266783
O O19 0.000000 0.113101 0.000000
#
# Coordination Sequence:
#
# PCOD9155623 Si02
#       8
#     2   4   2   4   4   4   4   4
#     4  12  26  40  60  98 136 168 198 256 329 389
#     4  11  25  43  64  91 126 172 220 256 303 378
#     4  12  26  40  60  97 138 168 198 253 329 395
#     4  10  21  39  59  88 122 160 205 252 309 385
#     4  12  23  40  66  91 127 163 209 265 314 373
#     4  11  23  41  64  89 122 170 216 254 303 374
#     4  10  21  37  61  88 122 160 207 254 313 381
#     4  12  23  40  64  93 127 165 207 262 317 376
#
# _framework density 19.957787
#
# number of rings (size 3 to 8) (size 9 to 14) (size 15 to 20)
#    0.000    0.857    2.857    5.143    2.000    2.286 
#    0.000    0.000    0.000   17.143    0.000    0.000 
#    0.000    0.000    0.000    0.000    0.000    0.000 
#
# Total GULP energy -155904.117856 kJ/mol
# GULP energy per Si atom -5568.004209 kJ/mol
# Density = 1.991236 g / cm^3
# Si number density = 19.957787 Si / 1000 Ang^3
#
#
#
# Elastic Constant Matrix: (Units=GPa)
#
#
# Indices 1 2 3 4 5 6 
#
# 1 120.0255 44.2100 22.1178 0.0000 21.4008 0.0000
# 2 44.2100 113.7653 13.0695 0.0000 18.9031 0.0000
# 3 22.1178 13.0695 40.4501 0.0000 15.5232 0.0000
# 4 0.0000 0.0000 0.0000 23.6516 0.0000 -0.5233
# 5 21.4008 18.9031 15.5232 0.0000 28.8489 0.0000
# 6 0.0000 0.0000 0.0000 -0.5233 0.0000 26.9052
#
#
#
# Elastic Compliance Matrix: (Units=1/GPa)
#
#
# Indices 1 2 3 4 5 6 
#
# 1 0.010846 -0.003135 -0.003300 0.000000 -0.004216 0.000000
# 2 -0.003135 0.010796 0.000061 0.000000 -0.004781 0.000000
# 3 -0.003300 0.000061 0.032240 0.000000 -0.014940 0.000000
# 4 0.000000 0.000000 0.000000 0.042299 0.000000 0.000823
# 5 -0.004216 -0.004781 -0.014940 0.000000 0.048963 0.000000
# 6 0.000000 0.000000 0.000000 0.000823 0.000000 0.037184
#
#
# Mechanical properties :
#
#
# Convention : Reuss Voigt Hill
#
# Bulk Modulus (GPa) = 24.31090 48.11505 36.21297
# Shear Modulus (GPa) = 23.94797 28.87071 26.40934
#
# Velocity S-wave (km/s) = 3.46776 3.80753 3.64161
# Velocity P-wave (km/s) = 5.31427 6.59473 5.98882
#
# Compressibility (1/GPa) = 0.04113381
#
# Stress axis : x y z
#
# Youngs Moduli (GPa) = 92.19839 92.62856 31.01758
#
# Poissons Ratio (x) = 0.29042 0.10235
# Poissons Ratio (y) = 0.28907 -0.00189
# Poissons Ratio (z) = 0.30422 -0.00564
#
# Static dielectric constant tensor:
#      x y z
#    x 1.666170 0.000000 -0.010800 
#    y 0.000000 1.620800 0.000000 
#    z -0.010800 0.000000 1.689490 
# 
# From -- ./inp_files/28539.got.cif
#   From: 2010.05.17/outbox.ucp.g08.bks.cvg/sg10_15_cif.got.tgz:28539.got - 2010.06.11 11:31:16.
