data_PCOD9155484
_publ_section_title
;
Structure prediction by ZEFSAII (Michael W. Deem and Ramdas Pophale) SiO2 
 PCOD9155484
Probable space group: P 2/M
;
_chemical_formula_sum "Si O2"
_cell_formula_units_Z 32
_cell_length_a 15.000000
_cell_length_b 9.000000
_cell_length_c 24.000000
_cell_angle_alpha 90.000000
_cell_angle_beta 150.000000
_cell_angle_gamma 90.000000
_cell_volume 1620.000000
_symmetry_space_group_name_H-M "P 2/M"
_symmetry_group_IT_number 10
_symmetry_cell_setting 'monoclinic'
loop_
_space_group_symop_operation_xyz
x,y,z
-x,y,-z
-x,-y,-z
x,-y,z
loop_
_atom_site_type_symbol
_atom_site_label
_atom_site_fract_x
_atom_site_fract_y
_atom_site_fract_z
Si Si1 0.535366 0.677712 0.257539
Si Si2 0.140111 0.323967 0.737470
Si Si3 0.142284 0.336950 0.029160
Si Si4 0.110241 0.166018 0.189375
Si Si5 0.515674 0.823266 0.125943
Si Si6 0.240298 0.319071 0.514910
Si Si7 0.166144 0.169735 0.864689
Si Si8 0.469889 0.320670 0.419488
O O1 0.562849 0.500000 0.267450
O O2 0.327403 0.705117 0.158879
O O3 0.541920 0.750879 0.200628
O O4 0.670326 0.731285 0.378493
O O5 0.164923 0.500000 0.742195
O O6 0.314071 0.233683 0.814795
O O7 0.122983 0.284702 0.792903
O O8 0.963155 0.275779 0.607869
O O9 0.171032 0.500000 0.017582
O O10 0.000000 0.352207 0.000000
O O11 0.046966 0.227011 0.935268
O O12 0.286655 0.263067 0.292978
O O13 0.010286 0.160573 0.194023
O O14 0.160456 0.000000 0.198573
O O15 0.511442 0.000000 0.129680
O O16 0.335131 0.783082 0.994452
O O17 0.242001 0.500000 0.516982
O O18 0.367201 0.273906 0.532308
O O19 0.205623 0.000000 0.865604
O O20 0.500000 0.271440 0.500000
O O21 0.463955 0.500000 0.416643
#
# Coordination Sequence:
#
# PCOD9155484 Si02
#       8
#     4   4   4   4   4   4   4   4
#     4  10  20  37  61  85 115 155 199 245 290 349
#     4  11  23  39  63  91 115 148 199 250 295 354
#     4  10  20  35  58  86 114 149 195 244 290 342
#     4  11  22  36  56  85 120 157 193 236 292 353
#     4  11  23  41  61  84 120 158 193 241 302 357
#     4   9  20  39  60  86 121 155 193 247 305 347
#     4  10  22  40  59  83 121 160 191 237 302 357
#     4  10  20  37  61  87 118 159 203 246 295 350
#
# _framework density 19.753086
#
# number of rings (size 3 to 8) (size 9 to 14) (size 15 to 20)
#    0.000    1.750    1.250    3.000    0.000    7.500 
#    0.000    6.875    0.000    0.000    0.000    0.000 
#    0.000    0.000    0.000    0.000    0.000    0.000 
#
# Total GULP energy -178420.690778 kJ/mol
# GULP energy per Si atom -5575.646587 kJ/mol
# Density = 1.970813 g / cm^3
# Si number density = 19.753086 Si / 1000 Ang^3
#
#
#
# Elastic Constant Matrix: (Units=GPa)
#
#
# Indices 1 2 3 4 5 6 
#
# 1 -3.7605 -4.6878 -32.2950 0.0000 -0.2168 0.0000
# 2 -4.6878 8.1790 1.5099 0.0000 -7.4471 0.0000
# 3 -32.2950 1.5099 41.8763 0.0000 -6.0105 0.0000
# 4 0.0000 0.0000 0.0000 -29.4481 0.0000 11.2459
# 5 -0.2168 -7.4471 -6.0105 0.0000 34.9362 0.0000
# 6 0.0000 0.0000 0.0000 11.2459 0.0000 0.4356
#
#
#
# Elastic Compliance Matrix: (Units=1/GPa)
#
#
# Indices 1 2 3 4 5 6 
#
# 1 -0.030766 -0.021255 -0.024237 0.000000 -0.008892 0.000000
# 2 -0.021255 0.137054 -0.017594 0.000000 0.026056 0.000000
# 3 -0.024237 -0.017594 0.005396 0.000000 -0.002972 0.000000
# 4 0.000000 0.000000 0.000000 -0.003127 0.000000 0.080733
# 5 -0.008892 0.026056 -0.002972 0.000000 0.033611 0.000000
# 6 0.000000 0.000000 0.000000 0.080733 0.000000 0.211405
#
#
# Mechanical properties :
#
#
# Convention : Reuss Voigt Hill
#
# Bulk Modulus (GPa) = -69.01918 -2.73901 -35.87910
# Shear Modulus (GPa) = 10.52816 6.63592 8.58204
#
# Velocity S-wave (km/s) = 2.31116 1.83486 2.08665
# Velocity P-wave (km/s) = 5.28156 1.76049 3.52105
#
# Compressibility (1/GPa) = -0.01448873
#
# Stress axis : x y z
#
# Youngs Moduli (GPa) = -32.50293 7.29637 185.32075
#
# Poissons Ratio (x) = 0.15509 4.49161
# Poissons Ratio (y) = -0.69086 3.26054
# Poissons Ratio (z) = -0.78777 0.12837
#
# Static dielectric constant tensor:
#      x y z
#    x 1.679240 0.000000 -0.033440 
#    y 0.000000 1.729760 0.000000 
#    z -0.033440 0.000000 1.647410 
# 
# From -- ./inp_files/89598.got.cif
#   From: 2010.05.17/outbox.ucp.g08.bks.cvg/sg10_45_cif.got.tgz:89598.got - 2010.06.11 11:31:16.
