data_PCOD9155525
_publ_section_title
;
Structure prediction by ZEFSAII (Michael W. Deem and Ramdas Pophale) SiO2 
 PCOD9155525
Probable space group: P 2/M
;
_chemical_formula_sum "Si O2"
_cell_formula_units_Z 24
_cell_length_a 15.000000
_cell_length_b 12.000000
_cell_length_c 21.000000
_cell_angle_alpha 90.000000
_cell_angle_beta 20.000000
_cell_angle_gamma 90.000000
_cell_volume 1292.836142
_symmetry_space_group_name_H-M "P 2/M"
_symmetry_group_IT_number 10
_symmetry_cell_setting 'monoclinic'
loop_
_space_group_symop_operation_xyz
x,y,z
-x,y,-z
-x,-y,-z
x,-y,z
loop_
_atom_site_type_symbol
_atom_site_label
_atom_site_fract_x
_atom_site_fract_y
_atom_site_fract_z
Si Si1 0.668911 0.000000 0.718114
Si Si2 0.738627 0.241934 0.717481
Si Si3 0.860253 0.000000 0.020555
Si Si4 0.217845 0.626639 0.057679
Si Si5 0.018735 0.252696 0.891485
Si Si6 0.011105 0.372555 0.339448
Si Si7 0.391972 0.365806 0.737023
O O1 0.624513 0.117307 0.783830
O O2 0.454050 0.000000 0.799809
O O3 0.000000 0.000000 0.500000
O O4 0.841552 0.281410 0.717035
O O5 0.000000 0.252820 0.500000
O O6 0.505923 0.324443 0.854683
O O7 0.969534 0.119986 0.924685
O O8 0.000000 0.000000 0.000000
O O9 0.206574 0.500000 0.041739
O O10 0.009511 0.700001 0.159840
O O11 0.142699 0.627821 0.182031
O O12 0.277859 0.298021 0.752799
O O13 0.781542 0.312341 0.089968
O O14 0.040952 0.500000 0.345649
O O15 0.700553 0.350297 0.541513
O O16 0.345786 0.500000 0.762117
#
# Coordination Sequence:
#
# PCOD9155525 Si02
#       7
#     2   4   2   4   4   4   4
#     4  10  24  40  62  92 125 159 204 258 314 366
#     4  11  22  39  63  87 118 155 209 252 303 357
#     4  12  22  40  65  92 126 163 204 263 317 365
#     4  11  22  38  59  85 125 162 198 244 312 376
#     4  11  21  36  62  88 116 158 205 255 306 356
#     4  10  23  39  58  88 125 164 197 245 312 377
#     4  10  20  36  59  92 122 152 205 257 305 361
#
# _framework density 18.563836999999999
#
# number of rings (size 3 to 8) (size 9 to 14) (size 15 to 20)
#    0.000    1.333    3.333    4.000    2.333    4.667 
#    0.000    5.000    0.000    1.000    0.000    0.000 
#    0.000    0.000    0.000    0.000    0.000    0.000 
#
# Total GULP energy -133601.224376 kJ/mol
# GULP energy per Si atom -5566.717682 kJ/mol
# Density = 1.852159 g / cm^3
# Si number density = 18.563837 Si / 1000 Ang^3
#
#
#
# Elastic Constant Matrix: (Units=GPa)
#
#
# Indices 1 2 3 4 5 6 
#
# 1 107.3308 48.9688 5.9152 0.0000 -20.3968 0.0000
# 2 48.9688 152.8121 11.1984 0.0000 -6.6951 0.0000
# 3 5.9152 11.1984 28.7668 0.0000 -14.4687 0.0000
# 4 0.0000 0.0000 0.0000 13.8042 0.0000 -9.9541
# 5 -20.3968 -6.6951 -14.4687 0.0000 30.5658 0.0000
# 6 0.0000 0.0000 0.0000 -9.9541 0.0000 37.5566
#
#
#
# Elastic Compliance Matrix: (Units=1/GPa)
#
#
# Indices 1 2 3 4 5 6 
#
# 1 0.012674 -0.003917 0.003598 0.000000 0.009302 0.000000
# 2 -0.003917 0.007949 -0.003580 0.000000 -0.002568 0.000000
# 3 0.003598 -0.003580 0.047550 0.000000 0.024125 0.000000
# 4 0.000000 0.000000 0.000000 0.089558 0.000000 0.023737
# 5 0.009302 -0.002568 0.024125 0.000000 0.049781 0.000000
# 6 0.000000 0.000000 0.000000 0.023737 0.000000 0.032918
#
#
# Mechanical properties :
#
#
# Convention : Reuss Voigt Hill
#
# Bulk Modulus (GPa) = 16.56377 46.78607 31.67492
# Shear Modulus (GPa) = 18.63202 31.24047 24.93624
#
# Velocity S-wave (km/s) = 3.17152 4.10673 3.66904
# Velocity P-wave (km/s) = 4.72793 6.90974 5.92021
#
# Compressibility (1/GPa) = 0.06037271
#
# Stress axis : x y z
#
# Youngs Moduli (GPa) = 78.90315 125.79881 21.03035
#
# Poissons Ratio (x) = 0.49280 -0.07566
# Poissons Ratio (y) = 0.30910 0.07530
# Poissons Ratio (z) = -0.28386 0.45042
#
# Static dielectric constant tensor:
#      x y z
#    x 1.723900 0.000000 -0.011970 
#    y 0.000000 1.637860 0.000000 
#    z -0.011970 0.000000 1.643130 
# 
# From -- ./inp_files/85178.got.cif
#   From: 2010.05.17/outbox.ucp.g08.bks.cvg/sg10_43_cif.got.tgz:85178.got - 2010.06.11 11:31:16.
