data_PCOD9155708
_publ_section_title
;
Structure prediction by ZEFSAII (Michael W. Deem and Ramdas Pophale) SiO2 
 PCOD9155708
Probable space group: P 2/M
;
_chemical_formula_sum "Si O2"
_cell_formula_units_Z 28
_cell_length_a 27.000000
_cell_length_b 9.000000
_cell_length_c 9.000000
_cell_angle_alpha 90.000000
_cell_angle_beta 140.000000
_cell_angle_gamma 90.000000
_cell_volume 1405.776502
_symmetry_space_group_name_H-M "P 2/M"
_symmetry_group_IT_number 10
_symmetry_cell_setting 'monoclinic'
loop_
_space_group_symop_operation_xyz
x,y,z
-x,y,-z
-x,-y,-z
x,-y,z
loop_
_atom_site_type_symbol
_atom_site_label
_atom_site_fract_x
_atom_site_fract_y
_atom_site_fract_z
Si Si1 0.050723 0.179430 0.892885
Si Si2 0.177485 0.322016 0.010737
Si Si3 0.685373 0.319365 0.465058
Si Si4 0.889076 0.179422 0.645266
Si Si5 0.466489 0.329145 0.753714
Si Si6 0.752452 0.178822 0.122102
Si Si7 0.623790 0.319319 0.999624
O O1 0.094234 0.258321 0.859738
O O2 0.961423 0.219931 0.707620
O O3 0.056549 0.000000 0.892745
O O4 0.090808 0.226583 0.141355
O O5 0.177088 0.500000 0.994658
O O6 0.212815 0.245999 0.947443
O O7 0.233491 0.279994 0.277727
O O8 0.680100 0.500000 0.453007
O O9 0.617509 0.261021 0.417936
O O10 0.665614 0.275051 0.251510
O O11 0.810349 0.227392 0.388498
O O12 0.888072 0.000000 0.648663
O O13 0.455946 0.500000 0.680500
O O14 0.500000 0.333880 0.000000
O O15 0.535260 0.267363 0.812337
O O16 0.670003 0.247231 0.972225
O O17 0.750251 0.000000 0.110882
O O18 0.624816 0.500000 0.993087
#
# Coordination Sequence:
#
# PCOD9155708 Si02
#       7
#     4   4   4   4   4   4   4
#     4   9  17  35  59  78  95 120 160 205 246 288
#     4  11  22  34  48  72 104 134 164 198 240 287
#     4   8  15  29  51  76 100 126 159 200 244 292
#     4   8  17  34  57  78  95 123 163 201 238 291
#     4   7  11  23  47  76  98 119 154 199 244 289
#     4  11  22  35  49  69 100 136 168 196 236 290
#     4   9  16  30  54  79  98 120 158 208 252 286
#
# _framework density 19.917818
#
# number of rings (size 3 to 8) (size 9 to 14) (size 15 to 20)
#    0.000    3.000    0.000    4.286    0.000    0.571 
#    0.000    7.857    0.000    9.857    0.000    0.000 
#    0.000    0.000    0.000    0.000    0.000    0.000 
#
# Total GULP energy -156041.151656 kJ/mol
# GULP energy per Si atom -5572.898273 kJ/mol
# Density = 1.987248 g / cm^3
# Si number density = 19.917818 Si / 1000 Ang^3
#
#
#
# Elastic Constant Matrix: (Units=GPa)
#
#
# Indices 1 2 3 4 5 6 
#
# 1 162.0410 29.5823 4.3488 0.0000 29.3241 0.0000
# 2 29.5823 27.1218 0.5913 0.0000 5.5152 0.0000
# 3 4.3488 0.5913 6.0161 0.0000 16.6046 0.0000
# 4 0.0000 0.0000 0.0000 17.2834 0.0000 3.6688
# 5 29.3241 5.5152 16.6046 0.0000 24.5556 0.0000
# 6 0.0000 0.0000 0.0000 3.6688 0.0000 35.0867
#
#
#
# Elastic Compliance Matrix: (Units=1/GPa)
#
#
# Indices 1 2 3 4 5 6 
#
# 1 0.007386 -0.008594 -0.016762 0.000000 0.004445 0.000000
# 2 -0.008594 0.046007 -0.002175 0.000000 0.001400 0.000000
# 3 -0.016762 -0.002175 -0.140770 0.000000 0.115695 0.000000
# 4 0.000000 0.000000 0.000000 0.059172 0.000000 -0.006187
# 5 0.004445 0.001400 0.115695 0.000000 -0.043132 0.000000
# 6 0.000000 0.000000 0.000000 -0.006187 0.000000 0.029148
#
#
# Mechanical properties :
#
#
# Convention : Reuss Voigt Hill
#
# Bulk Modulus (GPa) = -7.02056 29.35820 11.16882
# Shear Modulus (GPa) = -144.47875 26.09557 -59.19159
#
# Velocity S-wave (km/s) = -8.52613 3.62354 -5.45733
# Velocity P-wave (km/s) = 10.02292 5.68141 5.83869
#
# Compressibility (1/GPa) = -0.14243873
#
# Stress axis : x y z
#
# Youngs Moduli (GPa) = 135.39646 21.73572 -7.10378
#
# Poissons Ratio (x) = 0.18680 -0.11907
# Poissons Ratio (y) = 1.16362 -0.01545
# Poissons Ratio (z) = 2.26952 0.04726
#
# Static dielectric constant tensor:
#      x y z
#    x 1.730220 0.000000 0.013740 
#    y 0.000000 1.660740 0.000000 
#    z 0.013740 0.000000 1.723640 
# 
# From -- ./inp_files/37292.got.cif
#   From: 2010.05.17/outbox.ucp.g08.bks.cvg/sg10_19_cif.got.tgz:37292.got - 2010.06.11 11:31:16.
