data_PCOD9155160
_publ_section_title
;
Structure prediction by ZEFSAII (Michael W. Deem and Ramdas Pophale) SiO2 
 PCOD9155160
Probable space group: P 2/M
;
_chemical_formula_sum "Si O2"
_cell_formula_units_Z 32
_cell_length_a 12.000000
_cell_length_b 9.000000
_cell_length_c 21.000000
_cell_angle_alpha 90.000000
_cell_angle_beta 130.000000
_cell_angle_gamma 90.000000
_cell_volume 1737.388797
_symmetry_space_group_name_H-M "P 2/M"
_symmetry_group_IT_number 10
_symmetry_cell_setting 'monoclinic'
loop_
_space_group_symop_operation_xyz
x,y,z
-x,y,-z
-x,-y,-z
x,-y,z
loop_
_atom_site_type_symbol
_atom_site_label
_atom_site_fract_x
_atom_site_fract_y
_atom_site_fract_z
Si Si1 0.096777 0.827060 0.150452
Si Si2 0.706810 0.325344 0.128968
Si Si3 0.988469 0.830019 0.256032
Si Si4 0.534222 0.172916 0.874085
Si Si5 0.565819 0.825437 0.743269
Si Si6 0.484507 0.325192 0.589528
Si Si7 0.804863 0.676371 0.022249
Si Si8 0.290322 0.825571 0.418403
O O1 0.261664 0.786998 0.194305
O O2 0.064046 0.812914 0.214261
O O3 0.968261 0.731823 0.072799
O O4 0.076397 0.000000 0.126033
O O5 0.678424 0.500000 0.118366
O O6 0.857546 0.282063 0.217885
O O7 0.575282 0.246207 0.116238
O O8 0.742260 0.278582 0.069345
O O9 0.118584 0.808535 0.352541
O O10 0.932828 0.000000 0.238346
O O11 0.491835 0.188341 0.784771
O O12 0.548020 0.000000 0.894295
O O13 0.691441 0.248032 0.934527
O O14 0.491933 0.721159 0.664900
O O15 0.559157 0.000000 0.721477
O O16 0.470182 0.500000 0.574725
O O17 0.630524 0.266344 0.608303
O O18 0.358398 0.236171 0.507538
O O19 0.799796 0.500000 0.016713
O O20 0.323146 0.000000 0.420996
#
# Coordination Sequence:
#
# PCOD9155160 Si02
#       8
#     4   4   4   4   4   4   4   4
#     4   9  17  33  54  76 103 136 176 215 258 312
#     4  10  21  36  55  78 107 138 171 220 273 316
#     4   9  17  31  55  81 104 136 176 217 258 307
#     4  11  23  37  56  77 100 138 185 224 260 312
#     4  10  21  38  55  74 105 144 181 217 261 315
#     4  11  21  31  49  80 113 143 175 214 260 314
#     4  10  21  36  54  78 107 136 170 218 274 319
#     4  10  18  32  54  79 110 144 177 215 259 307
#
# _framework density 18.418444999999998
#
# number of rings (size 3 to 8) (size 9 to 14) (size 15 to 20)
#    0.000    2.000    1.250    3.750    0.000    6.000 
#    0.000    2.500    0.000    0.750    0.000    5.250 
#    0.000    0.000    0.000    0.000    0.000    0.000 
#
# Total GULP energy -178497.040703 kJ/mol
# GULP energy per Si atom -5578.032522 kJ/mol
# Density = 1.837652 g / cm^3
# Si number density = 18.418445 Si / 1000 Ang^3
#
#
#
# Elastic Constant Matrix: (Units=GPa)
#
#
# Indices 1 2 3 4 5 6 
#
# 1 -2.5424 -2.9427 -9.1298 0.0000 -4.5097 0.0000
# 2 -2.9427 -2.1678 3.9699 0.0000 -6.4380 0.0000
# 3 -9.1298 3.9699 30.6863 0.0000 3.6321 0.0000
# 4 0.0000 0.0000 0.0000 38.7049 0.0000 9.8432
# 5 -4.5097 -6.4380 3.6321 0.0000 11.7700 0.0000
# 6 0.0000 0.0000 0.0000 9.8432 0.0000 13.0509
#
#
#
# Elastic Compliance Matrix: (Units=1/GPa)
#
#
# Indices 1 2 3 4 5 6 
#
# 1 -0.241335 0.134880 -0.090339 0.000000 0.009188 0.000000
# 2 0.134880 -0.220533 0.079734 0.000000 -0.093554 0.000000
# 3 -0.090339 0.079734 -0.005885 0.000000 0.010816 0.000000
# 4 0.000000 0.000000 0.000000 0.031968 0.000000 -0.024111
# 5 0.009188 -0.093554 0.010816 0.000000 0.033971 0.000000
# 6 0.000000 0.000000 0.000000 -0.024111 0.000000 0.094808
#
#
# Mechanical properties :
#
#
# Convention : Reuss Voigt Hill
#
# Bulk Modulus (GPa) = -4.56193 1.08564 -1.73815
# Shear Modulus (GPa) = -7.95390 14.97707 3.51158
#
# Velocity S-wave (km/s) = -2.08034 2.85468 1.38228
# Velocity P-wave (km/s) = 2.87274 3.38472 1.26564
#
# Compressibility (1/GPa) = -0.21920535
#
# Stress axis : x y z
#
# Youngs Moduli (GPa) = -4.14362 -4.53446 -169.91014
#
# Poissons Ratio (x) = 0.61161 -15.34959
# Poissons Ratio (y) = 0.55889 13.54755
# Poissons Ratio (z) = -0.37433 0.36155
#
# Static dielectric constant tensor:
#      x y z
#    x 1.580080 0.000000 0.013100 
#    y 0.000000 1.616260 0.000000 
#    z 0.013100 0.000000 1.675450 
# 
# From -- ./inp_files/83628.got.cif
#   From: 2010.05.17/outbox.ucp.g08.bks.cvg/sg10_42_cif.got.tgz:83628.got - 2010.06.11 11:31:16.
