data_PCOD9155400
_publ_section_title
;
Structure prediction by ZEFSAII (Michael W. Deem and Ramdas Pophale) SiO2 
 PCOD9155400
Probable space group: P 2/M
;
_chemical_formula_sum "Si O2"
_cell_formula_units_Z 28
_cell_length_a 12.000000
_cell_length_b 15.000000
_cell_length_c 9.000000
_cell_angle_alpha 90.000000
_cell_angle_beta 120.000000
_cell_angle_gamma 90.000000
_cell_volume 1402.961154
_symmetry_space_group_name_H-M "P 2/M"
_symmetry_group_IT_number 10
_symmetry_cell_setting 'monoclinic'
loop_
_space_group_symop_operation_xyz
x,y,z
-x,y,-z
-x,-y,-z
x,-y,z
loop_
_atom_site_type_symbol
_atom_site_label
_atom_site_fract_x
_atom_site_fract_y
_atom_site_fract_z
Si Si1 0.870384 0.161962 0.247023
Si Si2 0.711089 0.401607 0.943762
Si Si3 0.043380 0.364743 0.691649
Si Si4 0.158064 0.102940 0.431796
Si Si5 0.401729 0.209543 0.066458
Si Si6 0.395554 0.767898 0.554238
Si Si7 0.236686 0.603953 0.375414
O O1 0.905930 0.264731 0.301329
O O2 0.841606 0.118128 0.388352
O O3 0.009082 0.123633 0.283122
O O4 0.738957 0.163178 0.058583
O O5 0.649668 0.500000 0.918257
O O6 0.631467 0.315020 0.940599
O O7 0.738274 0.387538 0.785408
O O8 0.841383 0.403762 0.130798
O O9 0.000000 0.400483 0.500000
O O10 0.911580 0.370183 0.695845
O O11 0.272639 0.166550 0.446361
O O12 0.185329 0.000000 0.416755
O O13 0.502072 0.187447 0.264959
O O14 0.500000 0.193855 0.000000
O O15 0.500000 0.745490 0.500000
O O16 0.324156 0.672241 0.529868
O O17 0.256873 0.500000 0.428877
#
# Coordination Sequence:
#
# PCOD9155400 Si02
#       7
#     4   4   4   4   4   4   4
#     4  10  19  39  66  95 127 163 211 259 323 386
#     4  10  23  39  57  89 128 175 229 270 321 383
#     4  11  20  36  61  94 130 168 218 274 322 380
#     4  11  22  42  72 100 128 164 215 271 327 394
#     4  11  23  40  64  91 134 172 208 269 330 392
#     4  12  24  44  65  98 133 174 217 265 331 393
#     4  11  23  40  62  89 130 180 226 268 318 386
#
# _framework density 19.957787
#
# number of rings (size 3 to 8) (size 9 to 14) (size 15 to 20)
#    0.000    1.143    5.714    1.714    2.000    3.714 
#    0.000    2.857    0.000    0.857    0.000    0.000 
#    0.000    0.000    0.000    0.000    0.000    0.000 
#
# Total GULP energy -155889.252134 kJ/mol
# GULP energy per Si atom -5567.473290 kJ/mol
# Density = 1.991236 g / cm^3
# Si number density = 19.957787 Si / 1000 Ang^3
#
#
#
# Elastic Constant Matrix: (Units=GPa)
#
#
# Indices 1 2 3 4 5 6 
#
# 1 65.7681 20.9867 4.4387 0.0000 47.7092 0.0000
# 2 20.9867 86.3514 0.8028 0.0000 19.4837 0.0000
# 3 4.4387 0.8028 57.1189 0.0000 30.4472 0.0000
# 4 0.0000 0.0000 0.0000 19.6516 0.0000 -0.1916
# 5 47.7092 19.4837 30.4472 0.0000 33.5972 0.0000
# 6 0.0000 0.0000 0.0000 -0.1916 0.0000 21.8091
#
#
#
# Elastic Compliance Matrix: (Units=1/GPa)
#
#
# Indices 1 2 3 4 5 6 
#
# 1 -0.015230 -0.006710 -0.023842 0.000000 0.047125 0.000000
# 2 -0.006710 0.012327 -0.001780 0.000000 0.003993 0.000000
# 3 -0.023842 -0.001780 0.001524 0.000000 0.033508 0.000000
# 4 0.000000 0.000000 0.000000 0.050891 0.000000 0.000447
# 5 0.047125 0.003993 0.033508 0.000000 -0.069836 0.000000
# 6 0.000000 0.000000 0.000000 0.000447 0.000000 0.045856
#
#
# Mechanical properties :
#
#
# Convention : Reuss Voigt Hill
#
# Bulk Modulus (GPa) = -15.14170 29.07721 6.96775
# Shear Modulus (GPa) = 73.33374 27.21225 50.27300
#
# Velocity S-wave (km/s) = 6.06829 3.69655 5.02438
# Velocity P-wave (km/s) = 6.44171 5.72890 6.09573
#
# Compressibility (1/GPa) = -0.06604279
#
# Stress axis : x y z
#
# Youngs Moduli (GPa) = -65.66057 81.12278 656.27483
#
# Poissons Ratio (x) = 0.54432 15.64686
# Poissons Ratio (y) = -0.44057 1.16825
# Poissons Ratio (z) = -1.56548 0.14441
#
# Static dielectric constant tensor:
#      x y z
#    x 1.667100 0.000000 0.024230 
#    y 0.000000 1.716820 0.000000 
#    z 0.024230 0.000000 1.593350 
# 
# From -- ./inp_files/25426.got.cif
#   From: 2010.05.17/outbox.ucp.g08.bks.cvg/sg10_13_cif.got.tgz:25426.got - 2010.06.11 11:31:16.
