data_PCOD9155589
_publ_section_title
;
Structure prediction by ZEFSAII (Michael W. Deem and Ramdas Pophale) SiO2 
 PCOD9155589
Probable space group: P 2/M
;
_chemical_formula_sum "Si O2"
_cell_formula_units_Z 32
_cell_length_a 12.000000
_cell_length_b 18.000000
_cell_length_c 15.000000
_cell_angle_alpha 90.000000
_cell_angle_beta 30.000000
_cell_angle_gamma 90.000000
_cell_volume 1620.000000
_symmetry_space_group_name_H-M "P 2/M"
_symmetry_group_IT_number 10
_symmetry_cell_setting 'monoclinic'
loop_
_space_group_symop_operation_xyz
x,y,z
-x,y,-z
-x,-y,-z
x,-y,z
loop_
_atom_site_type_symbol
_atom_site_label
_atom_site_fract_x
_atom_site_fract_y
_atom_site_fract_z
Si Si1 0.942643 0.077054 0.816689
Si Si2 0.578096 0.766423 0.800313
Si Si3 0.206660 0.293026 0.793657
Si Si4 0.744587 0.421500 0.373656
Si Si5 0.127192 0.226440 0.225467
Si Si6 0.682446 0.321908 0.561791
Si Si7 0.491316 0.083482 0.765613
Si Si8 0.707563 0.123760 0.289955
O O1 0.969894 0.146290 0.733891
O O2 0.100511 0.079167 0.793529
O O3 0.981134 0.000000 0.740864
O O4 0.696864 0.078711 0.027683
O O5 0.743425 0.772435 0.769810
O O6 0.632370 0.696863 0.698878
O O7 0.609605 0.840073 0.715678
O O8 0.324821 0.759035 0.015057
O O9 0.172963 0.348773 0.734958
O O10 0.452872 0.299843 0.668116
O O11 0.197541 0.206999 0.775850
O O12 0.000000 0.309790 0.000000
O O13 0.500000 0.428086 0.500000
O O14 0.862905 0.500000 0.275441
O O15 0.725161 0.403383 0.491610
O O16 0.910738 0.278445 0.380243
O O17 0.374107 0.098933 0.750951
O O18 0.594839 0.000000 0.690197
O O19 0.500000 0.120803 0.500000
#
# Coordination Sequence:
#
# PCOD9155589 Si02
#       8
#     4   4   4   4   4   4   4   4
#     4  10  21  35  53  76 109 154 197 247 310 363
#     4  10  22  39  61  88 111 159 210 259 303 345
#     4  11  22  34  60  92 125 162 197 234 286 360
#     4   9  20  38  60  92 131 160 184 227 289 358
#     4  10  22  40  61  84 119 152 211 263 297 350
#     4  11  21  38  63  88 121 158 196 243 294 349
#     4  10  21  36  53  77 113 152 198 251 306 361
#     4  12  22  34  51  81 115 155 197 245 300 362
#
# _framework density 19.753086
#
# number of rings (size 3 to 8) (size 9 to 14) (size 15 to 20)
#    0.000    1.625    1.250    4.500    3.500    2.750 
#    0.000    2.500    0.000    3.000    0.000    1.750 
#    0.000    0.000    0.000    0.000    0.000    0.000 
#
# Total GULP energy -178290.958417 kJ/mol
# GULP energy per Si atom -5571.592451 kJ/mol
# Density = 1.970813 g / cm^3
# Si number density = 19.753086 Si / 1000 Ang^3
#
#
#
# Elastic Constant Matrix: (Units=GPa)
#
#
# Indices 1 2 3 4 5 6 
#
# 1 92.8303 37.6707 27.6516 0.0000 11.1172 0.0000
# 2 37.6707 80.7189 20.4895 0.0000 12.3151 0.0000
# 3 27.6516 20.4895 82.5245 0.0000 4.7524 0.0000
# 4 0.0000 0.0000 0.0000 63.9590 0.0000 -17.9521
# 5 11.1172 12.3151 4.7524 0.0000 32.6860 0.0000
# 6 0.0000 0.0000 0.0000 -17.9521 0.0000 3.7146
#
#
#
# Elastic Compliance Matrix: (Units=1/GPa)
#
#
# Indices 1 2 3 4 5 6 
#
# 1 0.014243 -0.005461 -0.003284 0.000000 -0.002309 0.000000
# 2 -0.005461 0.016020 -0.001923 0.000000 -0.003899 0.000000
# 3 -0.003284 -0.001923 0.013704 0.000000 -0.000151 0.000000
# 4 0.000000 0.000000 0.000000 -0.043858 0.000000 -0.211960
# 5 -0.002309 -0.003899 -0.000151 0.000000 0.032871 0.000000
# 6 0.000000 0.000000 0.000000 -0.211960 0.000000 -0.755163
#
#
# Mechanical properties :
#
#
# Convention : Reuss Voigt Hill
#
# Bulk Modulus (GPa) = 44.18598 47.52191 45.85394
# Shear Modulus (GPa) = -7.21186 31.42272 12.10543
#
# Velocity S-wave (km/s) = -1.91283 3.99278 2.47824
# Velocity P-wave (km/s) = 4.18798 6.73547 5.60828
#
# Compressibility (1/GPa) = 0.02263161
#
# Stress axis : x y z
#
# Youngs Moduli (GPa) = 70.20895 62.42024 72.97122
#
# Poissons Ratio (x) = 0.34090 0.23960
# Poissons Ratio (y) = 0.38343 0.14033
# Poissons Ratio (z) = 0.23053 0.12004
#
# Static dielectric constant tensor:
#      x y z
#    x 1.684990 0.000000 0.002790 
#    y 0.000000 1.758770 0.000000 
#    z 0.002790 0.000000 1.743990 
# 
# From -- ./inp_files/65381.got.cif
#   From: 2010.05.17/outbox.ucp.g08.bks.cvg/sg10_33_cif.got.tgz:65381.got - 2010.06.11 11:31:16.
