data_PCOD9155491
_publ_section_title
;
Structure prediction by ZEFSAII (Michael W. Deem and Ramdas Pophale) SiO2 
 PCOD9155491
Probable space group: P 2/M
;
_chemical_formula_sum "Si O2"
_cell_formula_units_Z 28
_cell_length_a 15.000000
_cell_length_b 9.000000
_cell_length_c 12.000000
_cell_angle_alpha 90.000000
_cell_angle_beta 120.000000
_cell_angle_gamma 90.000000
_cell_volume 1402.961154
_symmetry_space_group_name_H-M "P 2/M"
_symmetry_group_IT_number 10
_symmetry_cell_setting 'monoclinic'
loop_
_space_group_symop_operation_xyz
x,y,z
-x,y,-z
-x,-y,-z
x,-y,z
loop_
_atom_site_type_symbol
_atom_site_label
_atom_site_fract_x
_atom_site_fract_y
_atom_site_fract_z
Si Si1 0.723092 0.676644 0.994667
Si Si2 0.880433 0.174870 0.923003
Si Si3 0.888362 0.325543 0.473622
Si Si4 0.425227 0.332324 0.558762
Si Si5 0.502471 0.825415 0.817789
Si Si6 0.809566 0.669623 0.665252
Si Si7 0.283965 0.177714 0.778733
O O1 0.722071 0.500000 0.993483
O O2 0.805947 0.737573 0.959327
O O3 0.608111 0.737307 0.898893
O O4 0.751919 0.742100 0.132380
O O5 0.838749 0.211419 0.774759
O O6 0.875107 0.000000 0.945148
O O7 0.000000 0.221468 0.000000
O O8 0.875160 0.500000 0.434553
O O9 0.881088 0.316684 0.602020
O O10 0.792743 0.234457 0.364602
O O11 0.000000 0.275939 0.500000
O O12 0.500000 0.327840 0.500000
O O13 0.432933 0.500000 0.613536
O O14 0.460804 0.210996 0.668834
O O15 0.308213 0.312445 0.447235
O O16 0.404128 0.783090 0.832318
O O17 0.523040 0.000000 0.847111
O O18 0.819276 0.500000 0.715780
O O19 0.278788 0.000000 0.784532
#
# Coordination Sequence:
#
# PCOD9155491 Si02
#       7
#     4   4   4   4   4   4   4
#     4  12  26  43  67  94 126 170 217 264 317 377
#     4  11  26  46  67  94 129 168 212 264 321 380
#     4  10  22  40  64  96 129 167 215 262 314 374
#     4  10  20  35  59  90 124 163 208 255 307 370
#     4  11  23  40  63  94 130 166 207 259 320 384
#     4  10  21  39  63  93 130 166 209 262 310 372
#     4  11  24  42  65  96 132 169 212 263 323 382
#
# _framework density 19.957787
#
# number of rings (size 3 to 8) (size 9 to 14) (size 15 to 20)
#    0.000    1.286    1.429    3.857    2.000    7.429 
#    0.000    0.000    0.000    0.000    0.000    0.000 
#    0.000    0.000    0.000    0.000    0.000    0.000 
#
# Total GULP energy -156508.877188 kJ/mol
# GULP energy per Si atom -5589.602757 kJ/mol
# Density = 1.991236 g / cm^3
# Si number density = 19.957787 Si / 1000 Ang^3
#
#
#
# Elastic Constant Matrix: (Units=GPa)
#
#
# Indices 1 2 3 4 5 6 
#
# 1 130.4762 51.2737 22.9941 0.0000 -8.2368 0.0000
# 2 51.2737 72.0584 27.2149 0.0000 1.6486 0.0000
# 3 22.9941 27.2149 44.4368 0.0000 -8.2990 0.0000
# 4 0.0000 0.0000 0.0000 31.7149 0.0000 -0.2932
# 5 -8.2368 1.6486 -8.2990 0.0000 15.6400 0.0000
# 6 0.0000 0.0000 0.0000 -0.2932 0.0000 18.8441
#
#
#
# Elastic Compliance Matrix: (Units=1/GPa)
#
#
# Indices 1 2 3 4 5 6 
#
# 1 0.011336 -0.008490 0.000683 0.000000 0.007228 0.000000
# 2 -0.008490 0.025524 -0.013960 0.000000 -0.014569 0.000000
# 3 0.000683 -0.013960 0.034457 0.000000 0.020115 0.000000
# 4 0.000000 0.000000 0.000000 0.031535 0.000000 0.000491
# 5 0.007228 -0.014569 0.020115 0.000000 0.079954 0.000000
# 6 0.000000 0.000000 0.000000 0.000491 0.000000 0.053075
#
#
# Mechanical properties :
#
#
# Convention : Reuss Voigt Hill
#
# Bulk Modulus (GPa) = 35.99160 49.99299 42.99230
# Shear Modulus (GPa) = 17.32044 22.93904 20.12974
#
# Velocity S-wave (km/s) = 2.94913 3.39393 3.17932
# Velocity P-wave (km/s) = 5.44697 6.36098 5.92164
#
# Compressibility (1/GPa) = 0.02778426
#
# Stress axis : x y z
#
# Youngs Moduli (GPa) = 88.21115 39.17809 29.02207
#
# Poissons Ratio (x) = 0.33262 -0.01983
# Poissons Ratio (y) = 0.74891 0.40515
# Poissons Ratio (z) = -0.06028 0.54693
#
# Static dielectric constant tensor:
#      x y z
#    x 1.706750 0.000000 -0.019720 
#    y 0.000000 1.691980 0.000000 
#    z -0.019720 0.000000 1.715250 
# 
# From -- ./inp_files/50032.got.cif
#   From: 2010.05.17/outbox.ucp.g08.bks.cvg/sg10_26_cif.got.tgz:50032.got - 2010.06.11 11:31:16.
