data_PCOD9155304
_publ_section_title
;
Structure prediction by ZEFSAII (Michael W. Deem and Ramdas Pophale) SiO2 
 PCOD9155304
Probable space group: P 2/M
;
_chemical_formula_sum "Si O2"
_cell_formula_units_Z 28
_cell_length_a 24.000000
_cell_length_b 12.000000
_cell_length_c 30.000000
_cell_angle_alpha 90.000000
_cell_angle_beta 10.000000
_cell_angle_gamma 90.000000
_cell_volume 1500.320255
_symmetry_space_group_name_H-M "P 2/M"
_symmetry_group_IT_number 10
_symmetry_cell_setting 'monoclinic'
loop_
_space_group_symop_operation_xyz
x,y,z
-x,y,-z
-x,-y,-z
x,-y,z
loop_
_atom_site_type_symbol
_atom_site_label
_atom_site_fract_x
_atom_site_fract_y
_atom_site_fract_z
Si Si1 0.408397 0.866480 0.719147
Si Si2 0.494387 0.127935 0.454942
Si Si3 0.225892 0.500000 0.177901
Si Si4 0.864866 0.742198 0.727066
Si Si5 0.360787 0.500000 0.237749
Si Si6 0.882708 0.132153 0.804858
Si Si7 0.568949 0.739724 0.772621
Si Si8 0.757733 0.871015 0.049473
O O1 0.353993 0.825402 0.710585
O O2 0.233700 0.838638 0.904219
O O3 0.777369 0.840673 0.439997
O O4 0.374295 0.000000 0.741841
O O5 0.500000 0.182083 0.500000
O O6 0.620527 0.000000 0.360880
O O7 0.112392 0.120924 0.749542
O O8 0.042970 0.616534 0.329418
O O9 0.500000 0.500000 0.000000
O O10 0.397001 0.500000 0.995124
O O11 0.904174 0.824276 0.737527
O O12 0.065146 0.771597 0.525467
O O13 0.500000 0.739978 0.000000
O O14 0.424177 0.610600 0.217354
O O15 0.000000 0.500000 0.500000
O O16 0.837380 0.000000 0.841873
O O17 0.607342 0.193410 0.049603
O O18 0.416174 0.781265 0.845488
O O19 0.623229 0.000000 0.153693
#
# Coordination Sequence:
#
# PCOD9155304 Si02
#       8
#     4   4   2   4   2   4   4   4
#     4   9  17  31  50  75 110 150 187 219 264 328
#     4   9  17  29  48  79 117 150 184 226 267 319
#     4  10  20  40  58  77 103 136 175 230 294 341
#     4  11  23  39  57  77 107 142 185 240 290 333
#     4  12  24  40  62  85 108 139 187 244 300 339
#     4  11  22  36  56  81 110 149 188 226 280 341
#     4  12  23  37  60  82 108 145 189 235 282 340
#     4  10  19  33  55  79 111 153 186 221 275 335
#
# _framework density 18.662682
#
# number of rings (size 3 to 8) (size 9 to 14) (size 15 to 20)
#    0.000    1.571    4.286    2.571    0.000    1.429 
#    0.000    3.571    0.000    0.000    0.000    0.500 
#    0.000    1.143    0.000    0.000    0.000    0.000 
#
# Total GULP energy -155962.263181 kJ/mol
# GULP energy per Si atom -5570.080828 kJ/mol
# Density = 1.862021 g / cm^3
# Si number density = 18.662682 Si / 1000 Ang^3
#
#
#
# Elastic Constant Matrix: (Units=GPa)
#
#
# Indices 1 2 3 4 5 6 
#
# 1 127.1578 38.6966 17.5281 0.0000 26.8484 0.0000
# 2 38.6966 62.5656 18.9366 0.0000 2.8554 0.0000
# 3 17.5281 18.9366 99.2286 0.0000 31.8023 0.0000
# 4 0.0000 0.0000 0.0000 10.8717 0.0000 8.7892
# 5 26.8484 2.8554 31.8023 0.0000 40.6438 0.0000
# 6 0.0000 0.0000 0.0000 8.7892 0.0000 26.7663
#
#
#
# Elastic Compliance Matrix: (Units=1/GPa)
#
#
# Indices 1 2 3 4 5 6 
#
# 1 0.011744 -0.007532 0.002242 0.000000 -0.008983 0.000000
# 2 -0.007532 0.021892 -0.005271 0.000000 0.007562 0.000000
# 3 0.002242 -0.005271 0.014740 0.000000 -0.012644 0.000000
# 4 0.000000 0.000000 0.000000 0.125224 0.000000 -0.041119
# 5 -0.008983 0.007562 -0.012644 0.000000 0.039900 0.000000
# 6 0.000000 0.000000 0.000000 -0.041119 0.000000 0.050863
#
#
# Mechanical properties :
#
#
# Convention : Reuss Voigt Hill
#
# Bulk Modulus (GPa) = 36.69219 48.80828 42.75023
# Shear Modulus (GPa) = 16.97387 29.90909 23.44148
#
# Velocity S-wave (km/s) = 3.01908 4.00761 3.54794
# Velocity P-wave (km/s) = 5.64416 6.90103 6.30400
#
# Compressibility (1/GPa) = 0.02725376
#
# Stress axis : x y z
#
# Youngs Moduli (GPa) = 85.14905 45.67854 67.84259
#
# Poissons Ratio (x) = 0.34406 -0.15210
# Poissons Ratio (y) = 0.64137 0.35759
# Poissons Ratio (z) = -0.19090 0.24077
#
# Static dielectric constant tensor:
#      x y z
#    x 1.705380 0.000000 0.005140 
#    y 0.000000 1.632190 0.000000 
#    z 0.005140 0.000000 1.742020 
# 
# From -- ./inp_files/85837.got.cif
#   From: 2010.05.17/outbox.ucp.g08.bks.cvg/sg10_43_cif.got.tgz:85837.got - 2010.06.11 11:31:16.
