data_PCOD9155827
_publ_section_title
;
Structure prediction by ZEFSAII (Michael W. Deem and Ramdas Pophale) SiO2 
 PCOD9155827
Probable space group: P 21/M
;
_chemical_formula_sum "Si O2"
_cell_formula_units_Z 24
_cell_length_a 9.405754
_cell_length_b 16.714232
_cell_length_c 8.953627
_cell_angle_alpha 90.000000
_cell_angle_beta 116.913795
_cell_angle_gamma 90.000000
_cell_volume 1255.140204
_symmetry_space_group_name_H-M "P 21/M"
_symmetry_group_IT_number 11
_symmetry_cell_setting 'monoclinic'
loop_
_space_group_symop_operation_xyz
x,y,z
-x,1/2+y,-z
-x,-y,-z
x,1/2-y,z
loop_
_atom_site_type_symbol
_atom_site_label
_atom_site_fract_x
_atom_site_fract_y
_atom_site_fract_z
Si Si1 0.298229 0.422159 0.945617
Si Si2 0.209088 0.657368 0.241474
Si Si3 0.626478 0.390226 0.973763
Si Si4 0.943470 0.337515 0.281693
Si Si5 0.979583 0.078672 0.595485
Si Si6 0.068542 0.412070 0.073569
O O1 0.338815 0.515878 0.983055
O O2 0.142680 0.414646 0.767108
O O3 0.239204 0.398041 0.082315
O O4 0.448663 0.376745 0.948776
O O5 0.230363 0.750000 0.298251
O O6 0.345209 0.631229 0.187140
O O7 0.052383 0.649733 0.061868
O O8 0.165232 0.595993 0.355476
O O9 0.762210 0.347363 0.137170
O O10 0.002287 0.250000 0.270799
O O11 0.957921 0.352645 0.462526
O O12 0.048776 0.400611 0.239113
O O13 0.000000 0.000000 0.500000
O O14 0.000000 0.500000 0.000000
#
# Coordination Sequence:
#
# PCOD9155827 Si02
#       6
#     4   4   4   4   4   4
#     4  10  20  34  59  86 110 138 192 241 279 318
#     4  10  20  35  55  80 114 154 187 225 287 345
#     4  10  19  36  56  85 110 144 187 236 280 338
#     4  11  21  36  57  83 116 151 184 229 290 341
#     4  11  21  37  59  87 110 149 190 241 274 334
#     4  10  16  33  57  83 107 146 191 238 267 333
#
# _framework density 19.121369999999999
#
# number of rings (size 3 to 8) (size 9 to 14) (size 15 to 20)
#    0.000    1.667    5.000    3.500    0.000    0.000 
#    0.000   12.500    0.000    0.000    0.000    0.000 
#    0.000    0.000    0.000    0.000    0.000    0.000 
#
# Total GULP energy -133613.555898 kJ/mol
# GULP energy per Si atom -5567.231496 kJ/mol
# Density = 1.907785 g / cm^3
# Si number density = 19.121370 Si / 1000 Ang^3
#
#
#
# Elastic Constant Matrix: (Units=GPa)
#
#
# Indices 1 2 3 4 5 6 
#
# 1 161.4102 22.5928 36.2714 0.0000 -29.2664 0.0000
# 2 22.5928 76.2945 11.9234 0.0000 -11.6476 0.0000
# 3 36.2714 11.9234 66.9985 0.0000 -26.3797 0.0000
# 4 0.0000 0.0000 0.0000 20.9040 0.0000 -6.9446
# 5 -29.2664 -11.6476 -26.3797 0.0000 28.5444 0.0000
# 6 0.0000 0.0000 0.0000 -6.9446 0.0000 17.2055
#
#
#
# Elastic Compliance Matrix: (Units=1/GPa)
#
#
# Indices 1 2 3 4 5 6 
#
# 1 0.007819 -0.001137 -0.001661 0.000000 0.006017 0.000000
# 2 -0.001137 0.014149 -0.000139 0.000000 0.004480 0.000000
# 3 -0.001661 -0.000139 0.023827 0.000000 0.020260 0.000000
# 4 0.000000 0.000000 0.000000 0.055246 0.000000 0.022299
# 5 0.006017 0.004480 0.020260 0.000000 0.061754 0.000000
# 6 0.000000 0.000000 0.000000 0.022299 0.000000 0.067121
#
#
# Mechanical properties :
#
#
# Convention : Reuss Voigt Hill
#
# Bulk Modulus (GPa) = 25.04955 49.58648 37.31801
# Shear Modulus (GPa) = 20.07245 28.92515 24.49880
#
# Velocity S-wave (km/s) = 3.24348 3.89358 3.58331
# Velocity P-wave (km/s) = 5.21111 6.79721 6.05631
#
# Compressibility (1/GPa) = 0.03992088
#
# Stress axis : x y z
#
# Youngs Moduli (GPa) = 127.89452 70.67443 41.96932
#
# Poissons Ratio (x) = 0.08036 0.06973
# Poissons Ratio (y) = 0.14543 0.00582
# Poissons Ratio (z) = 0.21248 0.00980
#
# Static dielectric constant tensor:
#      x y z
#    x 1.718880 0.000000 -0.055280 
#    y 0.000000 1.682620 0.000000 
#    z -0.055280 0.000000 1.676930 
# 
# From -- ./inp_files/13275.got.cif
#   From: 2010.05.17/outbox.cif.g08.bks.cpg/sg11_7_cif.got.tgz:13275.got - 2010.06.03 12:22:45.
