data_PCOD9155495
_publ_section_title
;
Structure prediction by ZEFSAII (Michael W. Deem and Ramdas Pophale) SiO2 
 PCOD9155495
Probable space group: P 2/M
;
_chemical_formula_sum "Si O2"
_cell_formula_units_Z 32
_cell_length_a 27.000000
_cell_length_b 9.000000
_cell_length_c 21.000000
_cell_angle_alpha 90.000000
_cell_angle_beta 20.000000
_cell_angle_gamma 90.000000
_cell_volume 1745.328791
_symmetry_space_group_name_H-M "P 2/M"
_symmetry_group_IT_number 10
_symmetry_cell_setting 'monoclinic'
loop_
_space_group_symop_operation_xyz
x,y,z
-x,y,-z
-x,-y,-z
x,-y,z
loop_
_atom_site_type_symbol
_atom_site_label
_atom_site_fract_x
_atom_site_fract_y
_atom_site_fract_z
Si Si1 0.209800 0.822815 0.365302
Si Si2 0.357543 0.819475 0.459388
Si Si3 0.342200 0.818802 0.717416
Si Si4 0.640760 0.178965 0.684432
Si Si5 0.871406 0.821354 0.761105
Si Si6 0.662634 0.677018 0.910478
Si Si7 0.163745 0.818382 0.811939
Si Si8 0.321356 0.180593 0.887777
O O1 0.252230 0.787215 0.386661
O O2 0.305621 0.734960 0.198914
O O3 0.041674 0.791181 0.555443
O O4 0.233259 0.000000 0.327739
O O5 0.309114 0.776220 0.446986
O O6 0.260980 0.767901 0.635050
O O7 0.523291 0.774318 0.271378
O O8 0.354676 0.000000 0.464877
O O9 0.500000 0.775604 0.500000
O O10 0.227853 0.771353 0.802281
O O11 0.311587 0.767761 0.826396
O O12 0.342006 0.000000 0.719624
O O13 0.619426 0.000000 0.709354
O O14 0.488259 0.255310 0.883217
O O15 0.787294 0.740394 0.806202
O O16 0.850902 0.000000 0.778429
O O17 0.801482 0.776429 0.913458
O O18 0.659750 0.500000 0.915867
O O19 0.167314 0.000000 0.807512
O O20 0.000000 0.771089 0.000000
O O21 0.319923 0.000000 0.887281
#
# Coordination Sequence:
#
# PCOD9155495 Si02
#       8
#     4   4   4   4   4   4   4   4
#     4  10  22  37  55  79 105 135 175 219 266 317
#     4   9  15  26  45  66  94 135 173 206 251 304
#     4   9  14  21  35  57  87 124 163 198 238 292
#     4  10  20  36  57  78 104 140 180 219 260 311
#     4  10  20  36  56  78 104 138 178 220 263 311
#     4  12  24  37  56  80 105 137 175 215 266 322
#     4   9  16  23  34  60  99 135 163 199 251 304
#     4   9  15  25  45  67  91 129 174 212 247 296
#
# _framework density 18.334654
#
# number of rings (size 3 to 8) (size 9 to 14) (size 15 to 20)
#    0.000    2.250    2.500    1.875    0.000    5.000 
#    0.000    5.000    0.000    0.000    0.000    0.000 
#    0.000    5.000    0.000    0.000    0.000    0.125 
#
# Total GULP energy -178498.222950 kJ/mol
# GULP energy per Si atom -5578.069467 kJ/mol
# Density = 1.829292 g / cm^3
# Si number density = 18.334654 Si / 1000 Ang^3
#
#
#
# Elastic Constant Matrix: (Units=GPa)
#
#
# Indices 1 2 3 4 5 6 
#
# 1 95.6667 7.0270 -3.3918 0.0000 2.5477 0.0000
# 2 7.0270 3.4632 1.2631 0.0000 -4.0822 0.0000
# 3 -3.3918 1.2631 26.7678 0.0000 2.2988 0.0000
# 4 0.0000 0.0000 0.0000 -0.9702 0.0000 -1.1668
# 5 2.5477 -4.0822 2.2988 0.0000 37.1980 0.0000
# 6 0.0000 0.0000 0.0000 -1.1668 0.0000 -2.7018
#
#
#
# Elastic Compliance Matrix: (Units=1/GPa)
#
#
# Indices 1 2 3 4 5 6 
#
# 1 0.013198 -0.033834 0.003685 0.000000 -0.004845 0.000000
# 2 -0.033834 0.428153 -0.028878 0.000000 0.051088 0.000000
# 3 0.003685 -0.028878 0.039692 0.000000 -0.005874 0.000000
# 4 0.000000 0.000000 0.000000 -2.144437 0.000000 0.926101
# 5 -0.004845 0.051088 -0.005874 0.000000 0.033185 0.000000
# 6 0.000000 0.000000 0.000000 0.926101 0.000000 -0.770077
#
#
# Mechanical properties :
#
#
# Convention : Reuss Voigt Hill
#
# Bulk Modulus (GPa) = 2.75490 15.07716 8.91603
# Shear Modulus (GPa) = -2.31349 14.77182 6.22916
#
# Velocity S-wave (km/s) = -1.12452 2.84153 1.84523
# Velocity P-wave (km/s) = 0.42455 4.35968 3.06811
#
# Compressibility (1/GPa) = 0.36298975
#
# Stress axis : x y z
#
# Youngs Moduli (GPa) = 75.77020 2.33561 25.19370
#
# Poissons Ratio (x) = 0.07902 -0.09284
# Poissons Ratio (y) = 2.56358 0.72755
# Poissons Ratio (z) = -0.27920 0.06745
#
# Static dielectric constant tensor:
#      x y z
#    x 1.643980 0.000000 0.006540 
#    y 0.000000 1.610530 0.000000 
#    z 0.006540 0.000000 1.618840 
# 
# From -- ./inp_files/86851.got.cif
#   From: 2010.05.17/outbox.ucp.g08.bks.cvg/sg10_44_cif.got.tgz:86851.got - 2010.06.11 11:31:16.
