data_PCOD9155912
_publ_section_title
;
Structure prediction by ZEFSAII (Michael W. Deem and Ramdas Pophale) SiO2 
 PCOD9155912
Probable space group: P 21/M
;
_chemical_formula_sum "Si O2"
_cell_formula_units_Z 28
_cell_length_a 26.481459
_cell_length_b 8.619384
_cell_length_c 12.483145
_cell_angle_alpha 90.000000
_cell_angle_beta 141.164842
_cell_angle_gamma 90.000000
_cell_volume 1786.760850
_symmetry_space_group_name_H-M "P 21/M"
_symmetry_group_IT_number 11
_symmetry_cell_setting 'monoclinic'
loop_
_space_group_symop_operation_xyz
x,y,z
-x,1/2+y,-z
-x,-y,-z
x,1/2-y,z
loop_
_atom_site_type_symbol
_atom_site_label
_atom_site_fract_x
_atom_site_fract_y
_atom_site_fract_z
Si Si1 0.724498 0.435168 0.156538
Si Si2 0.873557 0.935300 0.287768
Si Si3 0.008144 0.564583 0.685275
Si Si4 0.954651 0.436030 0.821911
Si Si5 0.396227 0.562091 0.747336
Si Si6 0.774793 0.437920 0.481028
Si Si7 0.438123 0.434312 0.051938
O O1 0.730123 0.250000 0.161765
O O2 0.784715 0.508316 0.170420
O O3 0.755493 0.486518 0.326589
O O4 0.631358 0.484966 0.994052
O O5 0.876136 0.750000 0.283243
O O6 0.932826 0.981972 0.484307
O O7 0.912697 0.009463 0.247063
O O8 0.007953 0.750000 0.694454
O O9 0.996823 0.489634 0.782055
O O10 0.953920 0.250000 0.824874
O O11 0.861762 0.493517 0.662294
O O12 0.000000 0.500000 0.000000
O O13 0.400160 0.750000 0.768928
O O14 0.302859 0.520285 0.575051
O O15 0.417763 0.482528 0.895897
O O16 0.467305 0.521762 0.781722
O O17 0.778067 0.250000 0.484514
O O18 0.430671 0.250000 0.052179
#
# Coordination Sequence:
#
# PCOD9155912 Si02
#       7
#     4   4   4   4   4   4   4
#     4  10  17  27  42  61  88 120 152 180 218 267
#     4  10  19  30  47  69  92 117 150 188 226 270
#     4  10  20  33  48  67  90 117 151 188 231 275
#     4  11  21  34  49  66  90 120 157 196 234 269
#     4   8  14  25  38  54  78 112 147 179 218 265
#     4   8  15  27  43  59  80 114 152 186 222 266
#     4   9  15  22  35  57  84 111 143 180 218 260
#
# _framework density 15.670817
#
# number of rings (size 3 to 8) (size 9 to 14) (size 15 to 20)
#    0.000    2.571    1.429    3.000    0.000    1.714 
#    0.000    0.714    0.000    0.000    0.000    0.000 
#    0.000    1.143    0.000    3.143    0.000    4.857 
#
# Total GULP energy -155902.825575 kJ/mol
# GULP energy per Si atom -5567.958056 kJ/mol
# Density = 1.563515 g / cm^3
# Si number density = 15.670817 Si / 1000 Ang^3
#
#
#
# Elastic Constant Matrix: (Units=GPa)
#
#
# Indices 1 2 3 4 5 6 
#
# 1 118.3796 25.8826 57.7095 0.0000 27.3483 0.0000
# 2 25.8826 32.5124 16.6278 0.0000 1.4812 0.0000
# 3 57.7095 16.6278 59.1514 0.0000 11.1455 0.0000
# 4 0.0000 0.0000 0.0000 15.5699 0.0000 2.3399
# 5 27.3483 1.4812 11.1455 0.0000 25.8484 0.0000
# 6 0.0000 0.0000 0.0000 2.3399 0.0000 25.5695
#
#
#
# Elastic Compliance Matrix: (Units=1/GPa)
#
#
# Indices 1 2 3 4 5 6 
#
# 1 0.021535 -0.008394 -0.015725 0.000000 -0.015523 0.000000
# 2 -0.008394 0.039342 -0.004483 0.000000 0.008559 0.000000
# 3 -0.015725 -0.004483 0.033006 0.000000 0.002663 0.000000
# 4 0.000000 0.000000 0.000000 0.065122 0.000000 -0.005959
# 5 -0.015523 0.008559 0.002663 0.000000 0.053472 0.000000
# 6 0.000000 0.000000 0.000000 -0.005959 0.000000 0.039654
#
#
# Mechanical properties :
#
#
# Convention : Reuss Voigt Hill
#
# Bulk Modulus (GPa) = 27.26353 45.60924 36.43638
# Shear Modulus (GPa) = 15.54904 20.71913 18.13408
#
# Velocity S-wave (km/s) = 3.15338 3.64008 3.40544
# Velocity P-wave (km/s) = 5.54020 6.84358 6.22609
#
# Compressibility (1/GPa) = 0.03667904
#
# Stress axis : x y z
#
# Youngs Moduli (GPa) = 46.43627 25.41786 30.29722
#
# Poissons Ratio (x) = 0.21335 0.47644
# Poissons Ratio (y) = 0.38978 0.13582
# Poissons Ratio (z) = 0.73023 0.11395
#
# Static dielectric constant tensor:
#      x y z
#    x 1.543880 0.000000 0.050780 
#    y 0.000000 1.523460 0.000000 
#    z 0.050780 0.000000 1.517380 
# 
# From -- ./inp_files/42600.got.cif
#   From: 2010.05.17/outbox.cif.g08.bks.cpg/sg11_22_cif.got.tgz:42600.got - 2010.06.03 12:22:45.
