data_PCOD9155452
_publ_section_title
;
Structure prediction by ZEFSAII (Michael W. Deem and Ramdas Pophale) SiO2 
 PCOD9155452
Probable space group: P 2/M
;
_chemical_formula_sum "Si O2"
_cell_formula_units_Z 32
_cell_length_a 24.000000
_cell_length_b 15.000000
_cell_length_c 9.000000
_cell_angle_alpha 90.000000
_cell_angle_beta 30.000000
_cell_angle_gamma 90.000000
_cell_volume 1620.000000
_symmetry_space_group_name_H-M "P 2/M"
_symmetry_group_IT_number 10
_symmetry_cell_setting 'monoclinic'
loop_
_space_group_symop_operation_xyz
x,y,z
-x,y,-z
-x,-y,-z
x,-y,z
loop_
_atom_site_type_symbol
_atom_site_label
_atom_site_fract_x
_atom_site_fract_y
_atom_site_fract_z
Si Si1 0.267214 0.609100 0.177281
Si Si2 0.661349 0.730011 0.262065
Si Si3 0.026642 0.902319 0.610543
Si Si4 0.836984 0.234427 0.124633
Si Si5 0.715667 0.100879 0.957949
Si Si6 0.673194 0.108032 0.706511
Si Si7 0.449777 0.712131 0.958833
Si Si8 0.998600 0.398434 0.179974
O O1 0.281115 0.500000 0.154923
O O2 0.132247 0.627182 0.487210
O O3 0.309849 0.653315 0.924559
O O4 0.340827 0.660024 0.138599
O O5 0.758488 0.746423 0.162120
O O6 0.548253 0.707850 0.610622
O O7 0.649546 0.822406 0.196387
O O8 0.000000 0.911416 0.500000
O O9 0.154769 0.876549 0.320934
O O10 0.012383 0.000000 0.716540
O O11 0.943077 0.829268 0.860458
O O12 0.760478 0.170412 0.410367
O O13 0.901248 0.328524 0.013027
O O14 0.703425 0.099545 0.809629
O O15 0.693597 0.000000 0.066014
O O16 0.659760 0.000000 0.687436
O O17 0.575154 0.182737 0.949653
O O18 0.500000 0.675275 0.000000
O O19 0.017507 0.500000 0.196633
O O20 0.000000 0.404102 0.000000
#
# Coordination Sequence:
#
# PCOD9155452 Si02
#       8
#     4   4   4   4   4   4   4   4
#     4  11  26  49  75 102 137 178 228 288 349 410
#     4  12  25  42  68 100 138 178 231 284 342 407
#     4  10  20  34  56  92 133 172 220 269 330 407
#     4  12  24  39  68 101 137 181 221 279 341 410
#     4  10  22  40  63  94 133 178 227 278 336 408
#     4  11  25  45  67  99 139 182 233 284 337 403
#     4  12  26  47  69 100 136 181 237 288 340 403
#     4  10  24  44  71 102 135 178 223 277 345 415
#
# _framework density 19.753086
#
# number of rings (size 3 to 8) (size 9 to 14) (size 15 to 20)
#    0.000    1.000    3.750    2.250    1.750    3.000 
#    0.000    4.375    0.000    0.000    0.000    0.000 
#    0.000    0.000    0.000    0.000    0.000    0.000 
#
# Total GULP energy -178169.365710 kJ/mol
# GULP energy per Si atom -5567.792678 kJ/mol
# Density = 1.970813 g / cm^3
# Si number density = 19.753086 Si / 1000 Ang^3
#
#
#
# Elastic Constant Matrix: (Units=GPa)
#
#
# Indices 1 2 3 4 5 6 
#
# 1 87.8650 28.2014 28.2216 0.0000 0.6001 0.0000
# 2 28.2014 121.5416 54.2172 0.0000 6.2902 0.0000
# 3 28.2216 54.2172 83.6057 0.0000 9.3496 0.0000
# 4 0.0000 0.0000 0.0000 27.0548 0.0000 -0.5052
# 5 0.6001 6.2902 9.3496 0.0000 25.3542 0.0000
# 6 0.0000 0.0000 0.0000 -0.5052 0.0000 32.2621
#
#
#
# Elastic Compliance Matrix: (Units=1/GPa)
#
#
# Indices 1 2 3 4 5 6 
#
# 1 0.012999 -0.001493 -0.003574 0.000000 0.001381 0.000000
# 2 -0.001493 0.011748 -0.007085 0.000000 -0.000267 0.000000
# 3 -0.003574 -0.007085 0.018311 0.000000 -0.004910 0.000000
# 4 0.000000 0.000000 0.000000 0.036973 0.000000 0.000579
# 5 0.001381 -0.000267 -0.004910 0.000000 0.041285 0.000000
# 6 0.000000 0.000000 0.000000 0.000579 0.000000 0.031005
#
#
# Mechanical properties :
#
#
# Convention : Reuss Voigt Hill
#
# Bulk Modulus (GPa) = 53.32174 57.14364 55.23269
# Shear Modulus (GPa) = 27.34091 29.09237 28.21664
#
# Velocity S-wave (km/s) = 3.72443 3.84187 3.78361
# Velocity P-wave (km/s) = 6.74892 6.97651 6.86366
#
# Compressibility (1/GPa) = 0.01875408
#
# Stress axis : x y z
#
# Youngs Moduli (GPa) = 76.92977 85.11874 54.61301
#
# Poissons Ratio (x) = 0.12712 0.19518
# Poissons Ratio (y) = 0.11489 0.38692
# Poissons Ratio (z) = 0.27493 0.60304
#
# Static dielectric constant tensor:
#      x y z
#    x 1.726630 0.000000 0.010630 
#    y 0.000000 1.771600 0.000000 
#    z 0.010630 0.000000 1.730770 
# 
# From -- ./inp_files/36366.got.cif
#   From: 2010.05.17/outbox.ucp.g08.bks.cvg/sg10_19_cif.got.tgz:36366.got - 2010.06.11 11:31:16.
