data_PCOD9155026
_publ_section_title
;
Structure prediction by ZEFSAII (Michael W. Deem and Ramdas Pophale) SiO2 
 PCOD9155026
Probable space group: P 2/M
;
_chemical_formula_sum "Si O2"
_cell_formula_units_Z 28
_cell_length_a 7.010313
_cell_length_b 13.863732
_cell_length_c 12.632568
_cell_angle_alpha 90.000000
_cell_angle_beta 70.286439
_cell_angle_gamma 90.000000
_cell_volume 1155.790518
_symmetry_space_group_name_H-M "P 2/M"
_symmetry_group_IT_number 10
_symmetry_cell_setting 'monoclinic'
loop_
_space_group_symop_operation_xyz
x,y,z
-x,y,-z
-x,-y,-z
x,-y,z
loop_
_atom_site_type_symbol
_atom_site_label
_atom_site_fract_x
_atom_site_fract_y
_atom_site_fract_z
Si Si1 0.159272 0.500000 0.093443
Si Si2 0.569323 0.311944 0.709040
Si Si3 0.270739 0.114468 0.530490
Si Si4 0.207236 0.611796 0.531007
Si Si5 0.574700 0.500000 0.154984
Si Si6 0.003221 0.891164 0.213856
Si Si7 0.013267 0.312802 0.228578
Si Si8 0.625817 0.891503 0.712624
O O1 0.366063 0.500000 0.125594
O O2 0.040518 0.405118 0.150225
O O3 0.239264 0.500000 0.959770
O O4 0.633585 0.338751 0.577478
O O5 0.440053 0.401305 0.776016
O O6 0.777123 0.308048 0.740921
O O7 0.485487 0.202858 0.740124
O O8 0.500000 0.150578 0.500000
O O9 0.225699 0.133110 0.415499
O O10 0.127552 0.131682 0.655803
O O11 0.280110 0.000000 0.530916
O O12 0.257842 0.500000 0.541400
O O13 0.000000 0.611898 0.500000
O O14 0.156330 0.664776 0.650040
O O15 0.990852 0.785451 0.164631
O O16 0.234846 0.898275 0.211008
O O17 0.950377 0.000000 0.183175
O O18 0.538329 0.000000 0.711627
#
# Coordination Sequence:
#
# PCOD9155026 Si02
#       8
#     2   4   4   4   2   4   4   4
#     4   9  16  25  37  55  81 109 136 172 216 253
#     4   9  15  23  36  55  79 107 138 170 204 242
#     4   9  16  25  37  56  85 117 144 169 200 241
#     4   9  13  18  29  47  72  96 123 164 202 230
#     4   9  16  25  37  55  81 109 136 172 216 253
#     4   9  16  25  38  57  82 111 141 170 200 241
#     4   9  15  23  36  55  79 107 138 170 204 242
#     4   9  16  25  38  57  82 111 141 170 200 241
#
# _framework density 24.225843999999999
#
# number of rings (size 3 to 8) (size 9 to 14) (size 15 to 20)
#    0.000    3.000    1.429    1.286    0.000    4.000 
#    0.000    0.000    0.000    0.857    0.000    8.000 
#    0.000    2.286    0.000    7.143    0.000    7.429 
#
# Total GULP energy -156176.364641 kJ/mol
# GULP energy per Si atom -5577.727309 kJ/mol
# Density = 2.417070 g / cm^3
# Si number density = 24.225844 Si / 1000 Ang^3
#
#
#
# Elastic Constant Matrix: (Units=GPa)
#
#
# Indices 1 2 3 4 5 6 
#
# 1 63.4177 5.5753 8.3307 0.0000 -3.3894 0.0000
# 2 5.5753 303.0325 72.6700 0.0000 -5.0690 0.0000
# 3 8.3307 72.6700 85.0712 0.0000 -10.6195 0.0000
# 4 0.0000 0.0000 0.0000 -7.8282 0.0000 1.8736
# 5 -3.3894 -5.0690 -10.6195 0.0000 19.9054 0.0000
# 6 0.0000 0.0000 0.0000 1.8736 0.0000 -0.7535
#
#
#
# Elastic Compliance Matrix: (Units=1/GPa)
#
#
# Indices 1 2 3 4 5 6 
#
# 1 0.016051 0.000069 -0.001379 0.000000 0.002015 0.000000
# 2 0.000069 0.004165 -0.003676 0.000000 -0.000889 0.000000
# 3 -0.001379 -0.003676 0.015946 0.000000 0.007336 0.000000
# 4 0.000000 0.000000 0.000000 -0.315517 0.000000 -0.784542
# 5 0.002015 -0.000889 0.007336 0.000000 0.054268 0.000000
# 6 0.000000 0.000000 0.000000 -0.784542 0.000000 -3.277896
#
#
# Mechanical properties :
#
#
# Convention : Reuss Voigt Hill
#
# Bulk Modulus (GPa) = 38.18226 69.40815 53.79521
# Shear Modulus (GPa) = -1.43502 26.59442 12.57970
#
# Velocity S-wave (km/s) = -0.77048 3.31686 2.28122
# Velocity P-wave (km/s) = 3.87346 6.58645 5.40301
#
# Compressibility (1/GPa) = 0.02619017
#
# Stress axis : x y z
#
# Youngs Moduli (GPa) = 62.30036 240.07665 62.71287
#
# Poissons Ratio (x) = -0.01661 0.08651
# Poissons Ratio (y) = -0.00431 0.23052
# Poissons Ratio (z) = 0.08594 0.88248
#
# Static dielectric constant tensor:
#      x y z
#    x 2.001650 0.000000 -0.013460 
#    y 0.000000 1.979280 0.000000 
#    z -0.013460 0.000000 1.902070 
# 
# From -- ./inp_files/61794.got.cif
#   From: 2010.05.17/outbox.cif.g08.bks.cpg/sg10_31_cif.got.tgz:61794.got - 2010.06.03 11:33:40.
