data_PCOD9155200
_publ_section_title
;
Structure prediction by ZEFSAII (Michael W. Deem and Ramdas Pophale) SiO2 
 PCOD9155200
Probable space group: P 2/M
;
_chemical_formula_sum "Si O2"
_cell_formula_units_Z 30
_cell_length_a 27.000000
_cell_length_b 12.000000
_cell_length_c 27.000000
_cell_angle_alpha 90.000000
_cell_angle_beta 10.000000
_cell_angle_gamma 90.000000
_cell_volume 1519.074258
_symmetry_space_group_name_H-M "P 2/M"
_symmetry_group_IT_number 10
_symmetry_cell_setting 'monoclinic'
loop_
_space_group_symop_operation_xyz
x,y,z
-x,y,-z
-x,-y,-z
x,-y,z
loop_
_atom_site_type_symbol
_atom_site_label
_atom_site_fract_x
_atom_site_fract_y
_atom_site_fract_z
Si Si1 0.215436 0.876809 0.084891
Si Si2 0.738495 0.777172 0.614610
Si Si3 0.771860 0.500000 0.268090
Si Si4 0.394912 0.868245 0.660275
Si Si5 0.095191 0.268274 0.807415
Si Si6 0.282403 0.129981 0.255102
Si Si7 0.430340 0.624498 0.301936
Si Si8 0.953089 0.272343 0.832753
O O1 0.160036 0.839070 0.083138
O O2 0.052359 0.796082 0.283700
O O3 0.111697 0.000000 0.195088
O O4 0.541125 0.866595 0.780408
O O5 0.730175 0.800912 0.681324
O O6 0.621344 0.665277 0.703496
O O7 0.500000 0.500000 0.500000
O O8 0.805935 0.388600 0.268307
O O9 0.000000 0.500000 0.000000
O O10 0.500000 0.856057 0.500000
O O11 0.642025 0.817868 0.451516
O O12 0.337067 0.000000 0.725595
O O13 0.128036 0.789785 0.935436
O O14 0.966234 0.277166 0.878989
O O15 0.000000 0.126733 0.500000
O O16 0.356588 0.000000 0.194864
O O17 0.500000 0.175515 0.000000
O O18 0.330356 0.500000 0.406105
O O19 0.261395 0.704524 0.505949
O O20 0.751155 0.636606 0.005377
#
# Coordination Sequence:
#
# PCOD9155200 Si02
#       8
#     4   4   2   4   4   4   4   4
#     4  10  19  33  54  78 113 148 180 226 275 344
#     4  10  20  34  52  80 107 148 194 224 281 334
#     4  12  26  42  64  90 120 160 194 244 298 354
#     4  11  24  43  67  90 119 160 202 244 289 352
#     4  12  24  42  64  93 124 155 198 247 302 358
#     4  10  19  30  48  75 108 144 182 230 281 331
#     4  10  21  38  61  79 113 146 191 239 276 344
#     4  10  23  38  56  91 111 147 187 230 292 335
#
# _framework density 19.74887
#
# number of rings (size 3 to 8) (size 9 to 14) (size 15 to 20)
#    0.000    1.467    0.000    6.000    1.867    3.200 
#    0.000    0.000    0.000    0.800    0.000    0.000 
#    0.000    0.000    0.000    0.000    0.000    0.000 
#
# Total GULP energy -167179.082406 kJ/mol
# GULP energy per Si atom -5572.636080 kJ/mol
# Density = 1.970392 g / cm^3
# Si number density = 19.748870 Si / 1000 Ang^3
#
#
#
# Elastic Constant Matrix: (Units=GPa)
#
#
# Indices 1 2 3 4 5 6 
#
# 1 127.4249 25.7148 5.0531 0.0000 5.4628 0.0000
# 2 25.7148 74.0165 15.1869 0.0000 -0.9719 0.0000
# 3 5.0531 15.1869 77.5810 0.0000 1.9646 0.0000
# 4 0.0000 0.0000 0.0000 14.5237 0.0000 4.9063
# 5 5.4628 -0.9719 1.9646 0.0000 25.9867 0.0000
# 6 0.0000 0.0000 0.0000 4.9063 0.0000 17.3065
#
#
#
# Elastic Compliance Matrix: (Units=1/GPa)
#
#
# Indices 1 2 3 4 5 6 
#
# 1 0.008533 -0.003006 0.000081 0.000000 -0.001912 0.000000
# 2 -0.003006 0.015149 -0.002805 0.000000 0.001411 0.000000
# 3 0.000081 -0.002805 0.013463 0.000000 -0.001140 0.000000
# 4 0.000000 0.000000 0.000000 0.076146 0.000000 -0.021587
# 5 -0.001912 0.001411 -0.001140 0.000000 0.039022 0.000000
# 6 0.000000 0.000000 0.000000 -0.021587 0.000000 0.063902
#
#
# Mechanical properties :
#
#
# Convention : Reuss Voigt Hill
#
# Bulk Modulus (GPa) = 38.93546 41.21469 40.07508
# Shear Modulus (GPa) = 21.16522 27.10121 24.13322
#
# Velocity S-wave (km/s) = 3.27726 3.70846 3.49951
# Velocity P-wave (km/s) = 5.83770 6.26511 6.05518
#
# Compressibility (1/GPa) = 0.02568353
#
# Stress axis : x y z
#
# Youngs Moduli (GPa) = 117.18900 66.01041 74.28037
#
# Poissons Ratio (x) = 0.19845 -0.00603
# Poissons Ratio (y) = 0.35231 0.20839
# Poissons Ratio (z) = -0.00951 0.18519
#
# Static dielectric constant tensor:
#      x y z
#    x 1.633250 0.000000 0.013460 
#    y 0.000000 1.807160 0.000000 
#    z 0.013460 0.000000 1.700970 
# 
# From -- ./inp_files/94088.got.cif
#   From: 2010.05.17/outbox.ucp.g08.bks.cvg/sg10_48_cif.got.tgz:94088.got - 2010.06.11 11:31:16.
