data_PCOD9155917
_publ_section_title
;
Structure prediction by ZEFSAII (Michael W. Deem and Ramdas Pophale) SiO2 
 PCOD9155917
Probable space group: P 21/M
;
_chemical_formula_sum "Si O2"
_cell_formula_units_Z 32
_cell_length_a 20.183611
_cell_length_b 8.715539
_cell_length_c 29.695002
_cell_angle_alpha 90.000000
_cell_angle_beta 23.616452
_cell_angle_gamma 90.000000
_cell_volume 2092.669211
_symmetry_space_group_name_H-M "P 21/M"
_symmetry_group_IT_number 11
_symmetry_cell_setting 'monoclinic'
loop_
_space_group_symop_operation_xyz
x,y,z
-x,1/2+y,-z
-x,-y,-z
x,1/2-y,z
loop_
_atom_site_type_symbol
_atom_site_label
_atom_site_fract_x
_atom_site_fract_y
_atom_site_fract_z
Si Si1 0.769974 0.933543 0.551289
Si Si2 0.100128 0.566135 0.894940
Si Si3 0.441915 0.935098 0.083671
Si Si4 0.886780 0.932791 0.668170
Si Si5 0.821231 0.432507 0.014651
Si Si6 0.612957 0.928577 0.067836
Si Si7 0.403623 0.936222 0.760071
Si Si8 0.248872 0.570491 0.338083
O O1 0.782893 0.750000 0.539179
O O2 0.593200 0.987194 0.641696
O O3 0.765674 0.980456 0.606481
O O4 0.932453 0.011175 0.429572
O O5 0.090571 0.750000 0.900996
O O6 0.288865 0.520938 0.789005
O O7 0.000000 0.500000 0.000000
O O8 0.000167 0.502532 0.914725
O O9 0.435540 0.750000 0.087406
O O10 0.568024 0.981283 0.045402
O O11 0.262009 0.998504 0.209562
O O12 0.500000 0.000000 0.000000
O O13 0.876927 0.750000 0.673876
O O14 0.856867 0.997413 0.636303
O O15 0.832177 0.250000 0.011427
O O16 0.746401 0.480134 0.013532
O O17 0.692485 0.486050 0.134315
O O18 0.661693 0.750000 0.035928
O O19 0.438286 0.937680 0.203075
O O20 0.407270 0.750000 0.759614
O O21 0.205154 0.750000 0.371373
#
# Coordination Sequence:
#
# PCOD9155917 Si02
#       8
#     4   4   4   4   4   4   4   4
#     4  11  19  30  45  63  90 123 157 195 229 269
#     4   9  16  27  40  58  83 117 156 193 230 268
#     4  10  21  38  56  74  93 117 148 187 236 282
#     4  11  22  34  47  66  89 119 154 190 229 272
#     4  10  17  27  42  63  88 119 157 192 228 269
#     4   9  18  30  46  68  92 118 152 190 227 270
#     4   8  16  27  40  59  85 120 158 191 227 267
#     4  10  19  31  44  63  89 120 156 193 232 271
#
# _framework density 15.291475
#
# number of rings (size 3 to 8) (size 9 to 14) (size 15 to 20)
#    0.000    2.250    1.250    4.875    0.000    2.500 
#    0.000    1.875    0.000    0.000    0.000    0.000 
#    0.000    1.000    0.000    3.000    0.000    4.000 
#
# Total GULP energy -178381.301889 kJ/mol
# GULP energy per Si atom -5574.415684 kJ/mol
# Density = 1.525667 g / cm^3
# Si number density = 15.291475 Si / 1000 Ang^3
#
#
#
# Elastic Constant Matrix: (Units=GPa)
#
#
# Indices 1 2 3 4 5 6 
#
# 1 102.2714 34.8720 61.3418 0.0000 -24.9059 0.0000
# 2 34.8720 58.6918 24.6257 0.0000 -12.6479 0.0000
# 3 61.3418 24.6257 67.5736 0.0000 -25.4117 0.0000
# 4 0.0000 0.0000 0.0000 19.8206 0.0000 -1.8471
# 5 -24.9059 -12.6479 -25.4117 0.0000 27.9330 0.0000
# 6 0.0000 0.0000 0.0000 -1.8471 0.0000 22.0632
#
#
#
# Elastic Compliance Matrix: (Units=1/GPa)
#
#
# Indices 1 2 3 4 5 6 
#
# 1 0.023051 -0.005718 -0.018371 0.000000 0.001251 0.000000
# 2 -0.005718 0.021788 -0.001454 0.000000 0.003444 0.000000
# 3 -0.018371 -0.001454 0.038909 0.000000 0.018359 0.000000
# 4 0.000000 0.000000 0.000000 0.050849 0.000000 0.004257
# 5 0.001251 0.003444 0.018359 0.000000 0.055177 0.000000
# 6 0.000000 0.000000 0.000000 0.004257 0.000000 0.045681
#
#
# Mechanical properties :
#
#
# Convention : Reuss Voigt Hill
#
# Bulk Modulus (GPa) = 30.61670 52.24618 41.43144
# Shear Modulus (GPa) = 16.81076 21.14318 18.97697
#
# Velocity S-wave (km/s) = 3.31925 3.72247 3.52663
# Velocity P-wave (km/s) = 5.89537 7.26063 6.61333
#
# Compressibility (1/GPa) = 0.03266192
#
# Stress axis : x y z
#
# Youngs Moduli (GPa) = 43.38179 45.89693 25.70087
#
# Poissons Ratio (x) = 0.26245 0.47215
# Poissons Ratio (y) = 0.24807 0.03737
# Poissons Ratio (z) = 0.79696 0.06673
#
# Static dielectric constant tensor:
#      x y z
#    x 1.523110 0.000000 -0.035690 
#    y 0.000000 1.512730 0.000000 
#    z -0.035690 0.000000 1.511840 
# 
# From -- ./inp_files/73613.got.cif
#   From: 2010.05.17/outbox.cif.g08.bks.cpg/sg11_37_cif.got.tgz:73613.got - 2010.06.03 12:22:45.
