data_PCOD9155398
_publ_section_title
;
Structure prediction by ZEFSAII (Michael W. Deem and Ramdas Pophale) SiO2 
 PCOD9155398
Probable space group: P 2/M
;
_chemical_formula_sum "Si O2"
_cell_formula_units_Z 32
_cell_length_a 15.000000
_cell_length_b 9.000000
_cell_length_c 24.000000
_cell_angle_alpha 90.000000
_cell_angle_beta 30.000000
_cell_angle_gamma 90.000000
_cell_volume 1620.000000
_symmetry_space_group_name_H-M "P 2/M"
_symmetry_group_IT_number 10
_symmetry_cell_setting 'monoclinic'
loop_
_space_group_symop_operation_xyz
x,y,z
-x,y,-z
-x,-y,-z
x,-y,z
loop_
_atom_site_type_symbol
_atom_site_label
_atom_site_fract_x
_atom_site_fract_y
_atom_site_fract_z
Si Si1 0.801502 0.325472 0.112599
Si Si2 0.613499 0.173192 0.806197
Si Si3 0.746060 0.326874 0.012291
Si Si4 0.692972 0.669266 0.868619
Si Si5 0.982134 0.328599 0.221281
Si Si6 0.204192 0.678928 0.397327
Si Si7 0.548696 0.680071 0.633422
Si Si8 0.340319 0.828991 0.542277
O O1 0.825436 0.500000 0.115472
O O2 0.645678 0.268351 0.237823
O O3 0.735546 0.320194 0.084558
O O4 0.000000 0.257759 0.000000
O O5 0.722180 0.220353 0.801951
O O6 0.685256 0.260541 0.714297
O O7 0.621905 0.000000 0.791486
O O8 0.410915 0.225798 0.925802
O O9 0.717106 0.500000 0.011594
O O10 0.938002 0.284654 0.882365
O O11 0.692531 0.500000 0.846612
O O12 0.845538 0.678857 0.831994
O O13 0.500000 0.695980 0.000000
O O14 0.921368 0.500000 0.250327
O O15 0.829505 0.235438 0.333148
O O16 0.206529 0.500000 0.394598
O O17 0.302039 0.723589 0.401547
O O18 0.000000 0.728538 0.500000
O O19 0.543809 0.500000 0.634120
O O20 0.603554 0.741163 0.543683
O O21 0.500000 0.821538 0.500000
O O22 0.308083 0.000000 0.544357
#
# Coordination Sequence:
#
# PCOD9155398 Si02
#       8
#     4   4   4   4   4   4   4   4
#     4   9  18  33  61  96 121 143 183 250 317 358
#     4  12  24  36  56  88 127 164 198 242 301 370
#     4  10  19  38  63  89 122 157 200 253 308 364
#     4  10  20  38  61  86 119 159 202 250 303 360
#     4  10  22  39  66  94 116 157 215 265 305 355
#     4  10  22  41  64  88 118 160 205 254 307 363
#     4  10  21  40  67  95 121 155 208 262 302 357
#     4  11  27  47  63  84 127 176 209 253 317 375
#
# _framework density 19.753086
#
# number of rings (size 3 to 8) (size 9 to 14) (size 15 to 20)
#    0.000    1.750    2.500    1.500    3.500    3.000 
#    0.000    0.000    0.000    0.750    0.000    0.000 
#    0.000    0.000    0.000    0.000    0.000    0.000 
#
# Total GULP energy -178605.140033 kJ/mol
# GULP energy per Si atom -5581.410626 kJ/mol
# Density = 1.970813 g / cm^3
# Si number density = 19.753086 Si / 1000 Ang^3
#
#
#
# Elastic Constant Matrix: (Units=GPa)
#
#
# Indices 1 2 3 4 5 6 
#
# 1 12.6579 14.4911 17.6934 0.0000 1.5898 0.0000
# 2 14.4911 -1.0157 28.1165 0.0000 -3.8407 0.0000
# 3 17.6934 28.1165 141.8241 0.0000 1.7664 0.0000
# 4 0.0000 0.0000 0.0000 -27.0265 0.0000 -46.0869
# 5 1.5898 -3.8407 1.7664 0.0000 28.9484 0.0000
# 6 0.0000 0.0000 0.0000 -46.0869 0.0000 -49.2286
#
#
#
# Elastic Compliance Matrix: (Units=1/GPa)
#
#
# Indices 1 2 3 4 5 6 
#
# 1 0.036025 0.055971 -0.015670 0.000000 0.006404 0.000000
# 2 0.055971 -0.051986 0.003450 0.000000 -0.010182 0.000000
# 3 -0.015670 0.003450 0.008312 0.000000 0.000811 0.000000
# 4 0.000000 0.000000 0.000000 0.062038 0.000000 -0.058079
# 5 0.006404 -0.010182 0.000811 0.000000 0.032792 0.000000
# 6 0.000000 0.000000 0.000000 -0.058079 0.000000 0.034059
#
#
# Mechanical properties :
#
#
# Convention : Reuss Voigt Hill
#
# Bulk Modulus (GPa) = 12.52307 30.45201 21.48754
# Shear Modulus (GPa) = 82.84406 -3.25031 39.79688
#
# Velocity S-wave (km/s) = 6.48312 -1.28415 4.49343
# Velocity P-wave (km/s) = 7.89903 3.64020 6.15003
#
# Compressibility (1/GPa) = 0.07985265
#
# Stress axis : x y z
#
# Youngs Moduli (GPa) = 27.75877 -19.23583 120.31063
#
# Poissons Ratio (x) = 1.07665 1.88530
# Poissons Ratio (y) = -1.55369 -0.41511
# Poissons Ratio (z) = 0.43499 0.06637
#
# Static dielectric constant tensor:
#      x y z
#    x 1.730550 0.000000 -0.017840 
#    y 0.000000 1.666000 0.000000 
#    z -0.017840 0.000000 1.721820 
# 
# From -- ./inp_files/71400.got.cif
#   From: 2010.05.17/outbox.ucp.g08.bks.cvg/sg10_36_cif.got.tgz:71400.got - 2010.06.11 11:31:16.
