data_PCOD9155193
_publ_section_title
;
Structure prediction by ZEFSAII (Michael W. Deem and Ramdas Pophale) SiO2 
 PCOD9155193
Probable space group: P 2/M
;
_chemical_formula_sum "Si O2"
_cell_formula_units_Z 32
_cell_length_a 21.000000
_cell_length_b 9.000000
_cell_length_c 12.000000
_cell_angle_alpha 90.000000
_cell_angle_beta 60.000000
_cell_angle_gamma 90.000000
_cell_volume 1964.145616
_symmetry_space_group_name_H-M "P 2/M"
_symmetry_group_IT_number 10
_symmetry_cell_setting 'monoclinic'
loop_
_space_group_symop_operation_xyz
x,y,z
-x,y,-z
-x,-y,-z
x,-y,z
loop_
_atom_site_type_symbol
_atom_site_label
_atom_site_fract_x
_atom_site_fract_y
_atom_site_fract_z
Si Si1 0.849922 0.678391 0.867997
Si Si2 0.881926 0.178150 0.371798
Si Si3 0.437227 0.825442 0.712236
Si Si4 0.592075 0.825916 0.528789
Si Si5 0.288335 0.677252 0.874642
Si Si6 0.913673 0.679162 0.574442
Si Si7 0.746673 0.819217 0.332782
Si Si8 0.024038 0.178525 0.102935
O O1 0.857875 0.500000 0.863647
O O2 0.875281 0.728448 0.723107
O O3 0.903031 0.746775 0.914711
O O4 0.767279 0.715051 0.977030
O O5 0.877541 0.254178 0.495410
O O6 0.818570 0.219992 0.339604
O O7 0.959261 0.215497 0.246068
O O8 0.878586 0.000000 0.388673
O O9 0.520120 0.763875 0.653171
O O10 0.422791 0.819232 0.591272
O O11 0.370161 0.737672 0.823872
O O12 0.434316 0.000000 0.745271
O O13 0.674590 0.767724 0.465432
O O14 0.593644 0.000000 0.557578
O O15 0.289922 0.500000 0.858684
O O16 0.258622 0.750136 0.785600
O O17 0.910468 0.500000 0.571882
O O18 0.000000 0.722397 0.500000
O O19 0.743554 0.000000 0.323887
O O20 0.033502 0.000000 0.092302
O O21 0.000000 0.224962 0.000000
#
# Coordination Sequence:
#
# PCOD9155193 Si02
#       8
#     4   4   4   4   4   4   4   4
#     4  10  21  35  48  65  88 120 157 190 226 269
#     4  10  20  32  49  72  93 115 148 192 233 266
#     4   8  13  24  42  63  89 122 156 181 215 266
#     4   7  11  22  42  64  87 121 156 180 207 263
#     4  10  19  29  43  67  97 122 151 190 228 265
#     4  10  20  36  54  66  83 117 158 195 232 274
#     4   9  17  31  48  67  96 127 152 179 223 277
#     4  10  20  32  47  69  95 120 146 179 224 274
#
# _framework density 16.292071
#
# number of rings (size 3 to 8) (size 9 to 14) (size 15 to 20)
#    0.000    2.750    1.250    2.625    0.000    3.500 
#    0.000    5.000    0.000    0.000    0.000    0.875 
#    0.000    7.000    0.000    0.000    0.000    0.000 
#
# Total GULP energy -178168.153301 kJ/mol
# GULP energy per Si atom -5567.754791 kJ/mol
# Density = 1.625499 g / cm^3
# Si number density = 16.292071 Si / 1000 Ang^3
#
#
#
# Elastic Constant Matrix: (Units=GPa)
#
#
# Indices 1 2 3 4 5 6 
#
# 1 22.7273 11.4532 29.0329 0.0000 -21.2817 0.0000
# 2 11.4532 11.7974 27.2383 0.0000 -8.2957 0.0000
# 3 29.0329 27.2383 112.0241 0.0000 -16.9373 0.0000
# 4 0.0000 0.0000 0.0000 14.9883 0.0000 -7.2911
# 5 -21.2817 -8.2957 -16.9373 0.0000 31.8563 0.0000
# 6 0.0000 0.0000 0.0000 -7.2911 0.0000 7.3000
#
#
#
# Elastic Compliance Matrix: (Units=1/GPa)
#
#
# Indices 1 2 3 4 5 6 
#
# 1 0.217292 -0.094209 -0.016496 0.000000 0.111859 0.000000
# 2 -0.094209 0.259242 -0.041242 0.000000 -0.017355 0.000000
# 3 -0.016496 -0.041242 0.021683 0.000000 -0.010232 0.000000
# 4 0.000000 0.000000 0.000000 0.129766 0.000000 0.129607
# 5 0.111859 -0.017355 -0.010232 0.000000 0.096159 0.000000
# 6 0.000000 0.000000 0.000000 0.129607 0.000000 0.266433
#
#
# Mechanical properties :
#
#
# Convention : Reuss Voigt Hill
#
# Bulk Modulus (GPa) = 5.14606 31.33306 18.23956
# Shear Modulus (GPa) = 3.67852 16.08389 9.88120
#
# Velocity S-wave (km/s) = 1.50425 3.14542 2.46540
# Velocity P-wave (km/s) = 2.48646 5.69784 4.39590
#
# Compressibility (1/GPa) = 0.19432346
#
# Stress axis : x y z
#
# Youngs Moduli (GPa) = 4.60210 3.85740 46.11955
#
# Poissons Ratio (x) = 0.36340 0.76078
# Poissons Ratio (y) = 0.43356 1.90207
# Poissons Ratio (z) = 0.07592 0.15909
#
# Static dielectric constant tensor:
#      x y z
#    x 1.554010 0.000000 -0.048270 
#    y 0.000000 1.544650 0.000000 
#    z -0.048270 0.000000 1.556980 
# 
# From -- ./inp_files/54788.got.cif
#   From: 2010.05.17/outbox.ucp.g08.bks.cvg/sg10_28_cif.got.tgz:54788.got - 2010.06.11 11:31:16.
