data_PCOD9155986
_publ_section_title
;
Structure prediction by ZEFSAII (Michael W. Deem and Ramdas Pophale) SiO2 
 PCOD9155986
Probable space group: P 21/M
;
_chemical_formula_sum "Si O2"
_cell_formula_units_Z 32
_cell_length_a 12.580408
_cell_length_b 17.854926
_cell_length_c 18.621857
_cell_angle_alpha 90.000000
_cell_angle_beta 152.396127
_cell_angle_gamma 90.000000
_cell_volume 1938.163905
_symmetry_space_group_name_H-M "P 21/M"
_symmetry_group_IT_number 11
_symmetry_cell_setting 'monoclinic'
loop_
_space_group_symop_operation_xyz
x,y,z
-x,1/2+y,-z
-x,-y,-z
x,1/2-y,z
loop_
_atom_site_type_symbol
_atom_site_label
_atom_site_fract_x
_atom_site_fract_y
_atom_site_fract_z
Si Si1 0.387622 0.928206 0.471523
Si Si2 0.437210 0.666550 0.915818
Si Si3 0.690968 0.838525 0.553684
Si Si4 0.348925 0.475344 0.581397
Si Si5 0.191070 0.834237 0.917568
Si Si6 0.815510 0.016733 0.266742
Si Si7 0.417981 0.534234 0.128620
Si Si8 0.153053 0.431641 0.865028
O O1 0.521709 0.858261 0.518362
O O2 0.118104 0.922028 0.293368
O O3 0.500000 0.000000 0.500000
O O4 0.405695 0.953062 0.565161
O O5 0.387686 0.750000 0.859287
O O6 0.372704 0.665118 0.961145
O O7 0.281667 0.601207 0.788972
O O8 0.699214 0.642610 0.060565
O O9 0.680642 0.750000 0.527976
O O10 0.640183 0.898352 0.459567
O O11 0.947961 0.855630 0.736111
O O12 0.511577 0.473374 0.747190
O O13 0.083069 0.484225 0.445331
O O14 0.166900 0.750000 0.930395
O O15 0.279772 0.890331 0.030058
O O16 0.651039 0.969683 0.220443
O O17 0.794649 0.985500 0.172515
O O18 0.256337 0.470215 0.997621
#
# Coordination Sequence:
#
# PCOD9155986 Si02
#       8
#     4   4   4   4   4   4   4   4
#     4   9  19  36  53  72  96 131 176 212 241 300
#     4  10  17  28  50  74  97 129 168 207 243 290
#     4  10  20  37  57  72  95 134 173 208 249 299
#     4  10  20  31  51  77 104 128 165 210 253 295
#     4  10  18  31  51  74 100 131 168 204 245 299
#     4  10  17  32  48  74 103 140 169 196 240 306
#     4  11  18  30  50  78 107 132 158 207 258 295
#     4  10  18  32  52  74 102 134 173 208 242 299
#
# _framework density 16.510470999999999
#
# number of rings (size 3 to 8) (size 9 to 14) (size 15 to 20)
#    0.000    2.000    3.750    2.625    0.000    1.000 
#    0.000    5.625    0.000    3.000    0.000    0.000 
#    0.000    0.000    0.000    0.000    0.000    0.000 
#
# Total GULP energy -178275.236548 kJ/mol
# GULP energy per Si atom -5571.101142 kJ/mol
# Density = 1.647289 g / cm^3
# Si number density = 16.510471 Si / 1000 Ang^3
#
#
#
# Elastic Constant Matrix: (Units=GPa)
#
#
# Indices 1 2 3 4 5 6 
#
# 1 63.3305 22.4161 53.2570 0.0000 2.8798 0.0000
# 2 22.4161 56.1231 28.7017 0.0000 -6.2156 0.0000
# 3 53.2570 28.7017 94.1409 0.0000 -16.5239 0.0000
# 4 0.0000 0.0000 0.0000 18.7118 0.0000 3.0911
# 5 2.8798 -6.2156 -16.5239 0.0000 31.9442 0.0000
# 6 0.0000 0.0000 0.0000 3.0911 0.0000 10.0259
#
#
#
# Elastic Compliance Matrix: (Units=1/GPa)
#
#
# Indices 1 2 3 4 5 6 
#
# 1 0.036883 -0.005202 -0.022042 0.000000 -0.015739 0.000000
# 2 -0.005202 0.021864 -0.003183 0.000000 0.003077 0.000000
# 3 -0.022042 -0.003183 0.026729 0.000000 0.015194 0.000000
# 4 0.000000 0.000000 0.000000 0.056310 0.000000 -0.017361
# 5 -0.015739 0.003077 0.015194 0.000000 0.041182 0.000000
# 6 0.000000 0.000000 0.000000 -0.017361 0.000000 0.105094
#
#
# Mechanical properties :
#
#
# Convention : Reuss Voigt Hill
#
# Bulk Modulus (GPa) = 40.61333 46.92715 43.77024
# Shear Modulus (GPa) = 14.00077 19.41768 16.70922
#
# Velocity S-wave (km/s) = 2.91519 3.43313 3.18471
# Velocity P-wave (km/s) = 5.99859 6.64827 6.33177
#
# Compressibility (1/GPa) = 0.02462246
#
# Stress axis : x y z
#
# Youngs Moduli (GPa) = 27.11285 45.73659 37.41244
#
# Poissons Ratio (x) = 0.23793 0.82463
# Poissons Ratio (y) = 0.14105 0.11908
# Poissons Ratio (z) = 0.59761 0.14558
#
# Static dielectric constant tensor:
#      x y z
#    x 1.568360 0.000000 0.014360 
#    y 0.000000 1.576660 0.000000 
#    z 0.014360 0.000000 1.546150 
# 
# From -- ./inp_files/36044.got.cif
#   From: 2010.05.17/outbox.cif.g08.bks.cpg/sg11_19_cif.got.tgz:36044.got - 2010.06.03 12:22:45.
