data_PCOD9155184
_publ_section_title
;
Structure prediction by ZEFSAII (Michael W. Deem and Ramdas Pophale) SiO2 
 PCOD9155184
Probable space group: P 2/M
;
_chemical_formula_sum "Si O2"
_cell_formula_units_Z 24
_cell_length_a 15.000000
_cell_length_b 9.000000
_cell_length_c 15.000000
_cell_angle_alpha 90.000000
_cell_angle_beta 40.000000
_cell_angle_gamma 90.000000
_cell_volume 1301.644910
_symmetry_space_group_name_H-M "P 2/M"
_symmetry_group_IT_number 10
_symmetry_cell_setting 'monoclinic'
loop_
_space_group_symop_operation_xyz
x,y,z
-x,y,-z
-x,-y,-z
x,-y,z
loop_
_atom_site_type_symbol
_atom_site_label
_atom_site_fract_x
_atom_site_fract_y
_atom_site_fract_z
Si Si1 0.655970 0.320373 0.384142
Si Si2 0.146396 0.826274 0.116302
Si Si3 0.154105 0.319485 0.406503
Si Si4 0.856278 0.679933 0.387784
Si Si5 0.849222 0.329030 0.070175
Si Si6 0.659501 0.676578 0.899253
O O1 0.500000 0.262166 0.500000
O O2 0.648225 0.500000 0.400988
O O3 0.751587 0.266424 0.391915
O O4 0.736063 0.294469 0.231269
O O5 0.280437 0.763584 0.063513
O O6 0.010006 0.741912 0.256328
O O7 0.130810 0.000000 0.142584
O O8 0.156980 0.783956 0.005292
O O9 0.153046 0.500000 0.406317
O O10 0.193278 0.275899 0.476096
O O11 0.256298 0.270946 0.251533
O O12 0.000000 0.269095 0.500000
O O13 0.864783 0.500000 0.376413
O O14 0.829218 0.500000 0.053529
O O15 0.000000 0.324070 0.000000
O O16 0.684771 0.500000 0.893480
O O17 0.500000 0.697313 0.000000
#
# Coordination Sequence:
#
# PCOD9155184 Si02
#       6
#     4   4   4   4   4   4
#     4   9  18  32  55  87 115 138 175 232 287 328
#     4  12  24  36  55  83 115 152 191 230 278 333
#     4   9  16  29  56  86 109 136 178 231 279 324
#     4  10  18  34  58  81 109 144 187 232 278 331
#     4  10  19  35  60  87 111 144 188 234 280 328
#     4  10  21  38  60  87 114 144 185 234 284 333
#
# _framework density 18.438207999999999
#
# number of rings (size 3 to 8) (size 9 to 14) (size 15 to 20)
#    0.000    2.000    3.333    1.500    0.000    2.000 
#    0.000    6.667    0.000    4.000    0.000    0.000 
#    0.000    0.000    0.000    0.000    0.000    0.000 
#
# Total GULP energy -133863.464422 kJ/mol
# GULP energy per Si atom -5577.644351 kJ/mol
# Density = 1.839624 g / cm^3
# Si number density = 18.438208 Si / 1000 Ang^3
#
#
#
# Elastic Constant Matrix: (Units=GPa)
#
#
# Indices 1 2 3 4 5 6 
#
# 1 60.7064 34.7340 10.2008 0.0000 9.8199 0.0000
# 2 34.7340 23.1948 24.4038 0.0000 -1.7349 0.0000
# 3 10.2008 24.4038 48.8903 0.0000 -14.0390 0.0000
# 4 0.0000 0.0000 0.0000 4.5922 0.0000 -0.2897
# 5 9.8199 -1.7349 -14.0390 0.0000 13.0159 0.0000
# 6 0.0000 0.0000 0.0000 -0.2897 0.0000 6.4240
#
#
#
# Elastic Compliance Matrix: (Units=1/GPa)
#
#
# Indices 1 2 3 4 5 6 
#
# 1 -0.046461 0.130010 -0.058179 0.000000 -0.010370 0.000000
# 2 0.130010 -0.237530 0.078491 0.000000 -0.045087 0.000000
# 3 -0.058179 0.078491 0.013070 0.000000 0.068453 0.000000
# 4 0.000000 0.000000 0.000000 0.218383 0.000000 0.009847
# 5 -0.010370 -0.045087 0.068453 0.000000 0.152477 0.000000
# 6 0.000000 0.000000 0.000000 0.009847 0.000000 0.156111
#
#
# Mechanical properties :
#
#
# Convention : Reuss Voigt Hill
#
# Bulk Modulus (GPa) = 33.64320 30.16317 31.90318
# Shear Modulus (GPa) = -144.16241 9.03661 -67.56290
#
# Velocity S-wave (km/s) = -8.85192 2.21623 -6.05990
# Velocity P-wave (km/s) = 9.28382 4.78993 5.62343
#
# Compressibility (1/GPa) = 0.02972369
#
# Stress axis : x y z
#
# Youngs Moduli (GPa) = -21.52365 -4.21000 76.50844
#
# Poissons Ratio (x) = 0.54734 4.45117
# Poissons Ratio (y) = 2.79829 -6.00520
# Poissons Ratio (z) = -1.25222 0.33045
#
# Static dielectric constant tensor:
#      x y z
#    x 1.623640 0.000000 0.021620 
#    y 0.000000 1.626910 0.000000 
#    z 0.021620 0.000000 1.633590 
# 
# From -- ./inp_files/66298.got.cif
#   From: 2010.05.17/outbox.ucp.g08.bks.cvg/sg10_34_cif.got.tgz:66298.got - 2010.06.11 11:31:16.
