data_PCOD9155745
_publ_section_title
;
Structure prediction by ZEFSAII (Michael W. Deem and Ramdas Pophale) SiO2 
 PCOD9155745
Probable space group: P 21/M
;
_chemical_formula_sum "Si O2"
_cell_formula_units_Z 16
_cell_length_a 9.634647
_cell_length_b 15.014564
_cell_length_c 6.556938
_cell_angle_alpha 90.000000
_cell_angle_beta 143.982064
_cell_angle_gamma 90.000000
_cell_volume 557.770263
_symmetry_space_group_name_H-M "P 21/M"
_symmetry_group_IT_number 11
_symmetry_cell_setting 'monoclinic'
loop_
_space_group_symop_operation_xyz
x,y,z
-x,1/2+y,-z
-x,-y,-z
x,1/2-y,z
loop_
_atom_site_type_symbol
_atom_site_label
_atom_site_fract_x
_atom_site_fract_y
_atom_site_fract_z
Si Si1 0.893870 0.352255 0.496148
Si Si2 0.010515 0.099998 0.088021
Si Si3 0.477096 0.856066 0.356668
Si Si4 0.399623 0.139861 0.034263
O O1 0.882753 0.250000 0.410915
O O2 0.950736 0.346123 0.809408
O O3 0.627520 0.389719 0.175465
O O4 0.133539 0.394908 0.696161
O O5 0.796442 0.115426 0.991180
O O6 0.279560 0.120634 0.470319
O O7 0.000000 0.000000 0.000000
O O8 0.473312 0.750000 0.351283
O O9 0.534772 0.887399 0.656207
O O10 0.394991 0.250000 0.018719
#
# Coordination Sequence:
#
# PCOD9155745 Si02
#       4
#     4   4   4   4
#     4   8  12  18  24  28  34  44  50  50  56  70
#     4  10  16  20  26  36  42  42  48  62  68  64
#     4   9  15  23  29  31  37  49  55  53  59  75
#     4   7  10  15  23  29  31  37  49  55  53  59
#
# _framework density 28.685642999999999
#
# number of rings (size 3 to 8) (size 9 to 14) (size 15 to 20)
#    0.000    3.500    0.000    6.000    0.000    0.000 
#    0.000    0.000    0.000    0.000    0.000    0.000 
#    0.000    0.000    0.000    0.000    0.000    0.000 
#
# Total GULP energy -89499.808317 kJ/mol
# GULP energy per Si atom -5593.738020 kJ/mol
# Density = 2.862035 g / cm^3
# Si number density = 28.685643 Si / 1000 Ang^3
#
#
#
# Elastic Constant Matrix: (Units=GPa)
#
#
# Indices 1 2 3 4 5 6 
#
# 1 180.7719 -7.4242 100.8688 0.0000 80.1368 0.0000
# 2 -7.4242 91.7924 20.4551 0.0000 10.6169 0.0000
# 3 100.8688 20.4551 356.0189 0.0000 74.9789 0.0000
# 4 0.0000 0.0000 0.0000 19.5872 0.0000 16.6873
# 5 80.1368 10.6169 74.9789 0.0000 76.3457 0.0000
# 6 0.0000 0.0000 0.0000 16.6873 0.0000 6.4732
#
#
#
# Elastic Compliance Matrix: (Units=1/GPa)
#
#
# Indices 1 2 3 4 5 6 
#
# 1 0.011019 0.002371 -0.000949 0.000000 -0.010964 0.000000
# 2 0.002371 0.011626 -0.000599 0.000000 -0.003517 0.000000
# 3 -0.000949 -0.000599 0.003637 0.000000 -0.002492 0.000000
# 4 0.000000 0.000000 0.000000 -0.042678 0.000000 0.110020
# 5 -0.010964 -0.003517 -0.002492 0.000000 0.027543 0.000000
# 6 0.000000 0.000000 0.000000 0.110020 0.000000 -0.129139
#
#
# Mechanical properties :
#
#
# Convention : Reuss Voigt Hill
#
# Bulk Modulus (GPa) = 35.80671 95.15361 65.48016
# Shear Modulus (GPa) = -45.31992 54.79346 4.73677
#
# Velocity S-wave (km/s) = -3.97908 4.37525 1.28641
# Velocity P-wave (km/s) = 2.93279 7.66596 5.00828
#
# Compressibility (1/GPa) = 0.02792773
#
# Stress axis : x y z
#
# Youngs Moduli (GPa) = 90.75130 86.01276 274.94588
#
# Poissons Ratio (x) = -0.20392 0.26097
# Poissons Ratio (y) = -0.21516 0.16469
# Poissons Ratio (z) = 0.08614 0.05152
#
# Static dielectric constant tensor:
#      x y z
#    x 2.359500 0.000000 -0.098350 
#    y 0.000000 1.740020 0.000000 
#    z -0.098350 0.000000 2.294260 
# 
# From -- ./inp_files/12661.got.cif
#   From: 2010.05.17/outbox.cif.g08.bks.cpg/sg11_7_cif.got.tgz:12661.got - 2010.06.03 12:22:45.
