data_PCOD9155262
_publ_section_title
;
Structure prediction by ZEFSAII (Michael W. Deem and Ramdas Pophale) SiO2 
 PCOD9155262
Probable space group: P 2/M
;
_chemical_formula_sum "Si O2"
_cell_formula_units_Z 32
_cell_length_a 21.000000
_cell_length_b 9.000000
_cell_length_c 27.000000
_cell_angle_alpha 90.000000
_cell_angle_beta 160.000000
_cell_angle_gamma 90.000000
_cell_volume 1745.328791
_symmetry_space_group_name_H-M "P 2/M"
_symmetry_group_IT_number 10
_symmetry_cell_setting 'monoclinic'
loop_
_space_group_symop_operation_xyz
x,y,z
-x,y,-z
-x,-y,-z
x,-y,z
loop_
_atom_site_type_symbol
_atom_site_label
_atom_site_fract_x
_atom_site_fract_y
_atom_site_fract_z
Si Si1 0.197630 0.668394 0.170294
Si Si2 0.908594 0.175604 0.078232
Si Si3 0.403720 0.827344 0.071969
Si Si4 0.551564 0.677942 0.090636
Si Si5 0.685516 0.176358 0.365172
Si Si6 0.384937 0.330148 0.205687
Si Si7 0.962254 0.321357 0.415966
Si Si8 0.700499 0.823833 0.658206
O O1 0.190559 0.500000 0.186161
O O2 0.347076 0.672272 0.235928
O O3 0.245832 0.786798 0.246604
O O4 0.000000 0.695920 0.000000
O O5 0.118166 0.229751 0.238635
O O6 0.908824 0.000000 0.064324
O O7 0.787505 0.187816 0.038701
O O8 0.796323 0.264841 0.954503
O O9 0.411136 0.729743 0.029356
O O10 0.565819 0.780455 0.228797
O O11 0.434356 0.000000 0.082438
O O12 0.555594 0.500000 0.092393
O O13 0.756734 0.730666 0.253729
O O14 0.500000 0.737683 0.000000
O O15 0.560208 0.233400 0.318271
O O16 0.883841 0.251437 0.506495
O O17 0.699475 0.000000 0.376093
O O18 0.411934 0.500000 0.209020
O O19 0.972352 0.500000 0.419984
O O20 0.000000 0.278080 0.500000
O O21 0.500000 0.756885 0.500000
O O22 0.689365 0.000000 0.641725
#
# Coordination Sequence:
#
# PCOD9155262 Si02
#       8
#     4   4   4   4   4   4   4   4
#     4  10  20  35  54  80 109 138 179 227 272 319
#     4   9  18  33  52  77 107 138 177 221 266 316
#     4   9  18  32  51  75 103 135 172 217 261 312
#     4  10  21  36  53  76 106 137 172 216 260 309
#     4  10  20  33  52  80 110 137 173 221 268 314
#     4  10  19  32  53  79 109 140 175 222 271 319
#     4  10  19  33  54  78 103 136 175 214 259 310
#     4  10  21  36  55  80 111 148 185 223 270 325
#
# _framework density 18.334654
#
# number of rings (size 3 to 8) (size 9 to 14) (size 15 to 20)
#    0.000    2.250    2.500    1.500    0.000    4.500 
#    0.000    1.250    0.000    3.000    0.000    0.000 
#    0.000    0.000    0.000    0.000    0.000    0.000 
#
# Total GULP energy -178243.160648 kJ/mol
# GULP energy per Si atom -5570.098770 kJ/mol
# Density = 1.829292 g / cm^3
# Si number density = 18.334654 Si / 1000 Ang^3
#
#
#
# Elastic Constant Matrix: (Units=GPa)
#
#
# Indices 1 2 3 4 5 6 
#
# 1 33.8938 7.6244 12.8339 0.0000 2.5536 0.0000
# 2 7.6244 -15.3913 9.5881 0.0000 0.8333 0.0000
# 3 12.8339 9.5881 38.9965 0.0000 4.2284 0.0000
# 4 0.0000 0.0000 0.0000 22.2198 0.0000 10.8915
# 5 2.5536 0.8333 4.2284 0.0000 9.9013 0.0000
# 6 0.0000 0.0000 0.0000 10.8915 0.0000 17.1032
#
#
#
# Elastic Compliance Matrix: (Units=1/GPa)
#
#
# Indices 1 2 3 4 5 6 
#
# 1 0.032611 0.008256 -0.012346 0.000000 -0.003833 0.000000
# 2 0.008256 -0.054238 0.010857 0.000000 -0.002201 0.000000
# 3 -0.012346 0.010857 0.028092 0.000000 -0.009726 0.000000
# 4 0.000000 0.000000 0.000000 0.065428 0.000000 -0.041665
# 5 -0.003833 -0.002201 -0.009726 0.000000 0.106324 0.000000
# 6 0.000000 0.000000 0.000000 -0.041665 0.000000 0.085001
#
#
# Mechanical properties :
#
#
# Convention : Reuss Voigt Hill
#
# Bulk Modulus (GPa) = 50.00760 13.06576 31.53668
# Shear Modulus (GPa) = 19.50458 11.67506 15.58982
#
# Velocity S-wave (km/s) = 3.26515 2.52618 2.91914
# Velocity P-wave (km/s) = 6.44585 3.95607 5.34788
#
# Compressibility (1/GPa) = 0.01999696
#
# Stress axis : x y z
#
# Youngs Moduli (GPa) = 30.66494 -18.43727 35.59759
#
# Poissons Ratio (x) = 0.15221 0.43950
# Poissons Ratio (y) = -0.25316 -0.38649
# Poissons Ratio (z) = 0.37860 0.20018
#
# Static dielectric constant tensor:
#      x y z
#    x 1.604740 0.000000 0.019110 
#    y 0.000000 1.629840 0.000000 
#    z 0.019110 0.000000 1.635750 
# 
# From -- ./inp_files/86835.got.cif
#   From: 2010.05.17/outbox.ucp.g08.bks.cvg/sg10_44_cif.got.tgz:86835.got - 2010.06.11 11:31:16.
