data_PCOD9155096
_publ_section_title
;
Structure prediction by ZEFSAII (Michael W. Deem and Ramdas Pophale) SiO2 
 PCOD9155096
Probable space group: P 2/M
;
_chemical_formula_sum "Si O2"
_cell_formula_units_Z 32
_cell_length_a 15.000000
_cell_length_b 9.000000
_cell_length_c 15.000000
_cell_angle_alpha 90.000000
_cell_angle_beta 80.000000
_cell_angle_gamma 90.000000
_cell_volume 1994.235700
_symmetry_space_group_name_H-M "P 2/M"
_symmetry_group_IT_number 10
_symmetry_cell_setting 'monoclinic'
loop_
_space_group_symop_operation_xyz
x,y,z
-x,y,-z
-x,-y,-z
x,-y,z
loop_
_atom_site_type_symbol
_atom_site_label
_atom_site_fract_x
_atom_site_fract_y
_atom_site_fract_z
Si Si1 0.544841 0.323430 0.110599
Si Si2 0.733031 0.325892 0.155416
Si Si3 0.946267 0.824203 0.810989
Si Si4 0.884242 0.322602 0.451201
Si Si5 0.622799 0.177514 0.915482
Si Si6 0.848746 0.824494 0.281361
Si Si7 0.201440 0.675689 0.057735
Si Si8 0.081894 0.177423 0.383144
O O1 0.534630 0.500000 0.095913
O O2 0.624791 0.305707 0.167787
O O3 0.447650 0.248430 0.142448
O O4 0.586228 0.243617 0.015831
O O5 0.751221 0.500000 0.172282
O O6 0.777343 0.219977 0.219447
O O7 0.775727 0.295758 0.050053
O O8 0.896718 0.730889 0.895169
O O9 0.896611 0.798344 0.724285
O O10 0.051407 0.786347 0.775379
O O11 0.941100 0.000000 0.831981
O O12 0.888366 0.500000 0.455682
O O13 0.829878 0.265953 0.375049
O O14 0.857387 0.251947 0.550987
O O15 0.983664 0.253416 0.413576
O O16 0.724960 0.235941 0.895869
O O17 0.618591 0.000000 0.915368
O O18 0.850423 0.000000 0.300852
O O19 0.212423 0.500000 0.070018
O O20 0.925244 0.000000 0.601420
#
# Coordination Sequence:
#
# PCOD9155096 Si02
#       8
#     4   4   4   4   4   4   4   4
#     4   9  16  28  44  62  85 109 137 175 220 262
#     4   9  19  32  44  61  85 115 149 183 216 253
#     4   9  19  32  44  61  85 115 149 183 216 253
#     4  10  17  26  43  64  84 107 139 177 217 261
#     4  10  17  26  43  64  84 107 139 177 217 261
#     4  10  20  32  45  61  85 117 149 183 220 256
#     4  10  20  32  45  61  85 117 149 183 220 256
#     4   9  16  28  44  62  85 109 137 175 220 262
#
# _framework density 16.046247999999999
#
# number of rings (size 3 to 8) (size 9 to 14) (size 15 to 20)
#    0.000    2.500    0.000    6.750    0.000    6.500 
#    0.000    2.500    0.000    0.000    0.000    0.000 
#    0.000    1.000    0.000   10.500    0.000    5.000 
#
# Total GULP energy -178155.319570 kJ/mol
# GULP energy per Si atom -5567.353737 kJ/mol
# Density = 1.600973 g / cm^3
# Si number density = 16.046248 Si / 1000 Ang^3
#
#
#
# Elastic Constant Matrix: (Units=GPa)
#
#
# Indices 1 2 3 4 5 6 
#
# 1 43.4789 22.7145 9.5487 0.0000 19.1002 0.0000
# 2 22.7145 88.2779 19.1946 0.0000 17.6980 0.0000
# 3 9.5487 19.1946 22.2755 0.0000 16.6545 0.0000
# 4 0.0000 0.0000 0.0000 24.0309 0.0000 -1.1737
# 5 19.1002 17.6980 16.6545 0.0000 11.7156 0.0000
# 6 0.0000 0.0000 0.0000 -1.1737 0.0000 46.1144
#
#
#
# Elastic Compliance Matrix: (Units=1/GPa)
#
#
# Indices 1 2 3 4 5 6 
#
# 1 0.005581 -0.004420 -0.051354 0.000000 0.070580 0.000000
# 2 -0.004420 0.015001 -0.008330 0.000000 -0.003614 0.000000
# 3 -0.051354 -0.008330 -0.033093 0.000000 0.143349 0.000000
# 4 0.000000 0.000000 0.000000 0.041665 0.000000 0.001060
# 5 0.070580 -0.003614 0.143349 0.000000 -0.228032 0.000000
# 6 0.000000 0.000000 0.000000 0.001060 0.000000 0.021712
#
#
# Mechanical properties :
#
#
# Convention : Reuss Voigt Hill
#
# Bulk Modulus (GPa) = -7.10646 28.54977 10.72166
# Shear Modulus (GPa) = -52.15651 23.21050 -14.47301
#
# Velocity S-wave (km/s) = -5.70740 3.80738 -3.00652
# Velocity P-wave (km/s) = 6.91888 6.09582 2.31429
#
# Compressibility (1/GPa) = -0.14071713
#
# Stress axis : x y z
#
# Youngs Moduli (GPa) = 179.17506 66.66334 -30.21822
#
# Poissons Ratio (x) = 0.29466 -1.55181
# Poissons Ratio (y) = 0.79197 -0.25171
# Poissons Ratio (z) = 9.20128 0.55528
#
# Static dielectric constant tensor:
#      x y z
#    x 1.578830 0.000000 0.038810 
#    y 0.000000 1.527500 0.000000 
#    z 0.038810 0.000000 1.562450 
# 
# From -- ./inp_files/66073.got.cif
#   From: 2010.05.17/outbox.ucp.g08.bks.cvg/sg10_34_cif.got.tgz:66073.got - 2010.06.11 11:31:16.
