data_PCOD9155168
_publ_section_title
;
Structure prediction by ZEFSAII (Michael W. Deem and Ramdas Pophale) SiO2 
 PCOD9155168
Probable space group: P 2/M
;
_chemical_formula_sum "Si O2"
_cell_formula_units_Z 32
_cell_length_a 21.000000
_cell_length_b 9.000000
_cell_length_c 27.000000
_cell_angle_alpha 90.000000
_cell_angle_beta 160.000000
_cell_angle_gamma 90.000000
_cell_volume 1745.328791
_symmetry_space_group_name_H-M "P 2/M"
_symmetry_group_IT_number 10
_symmetry_cell_setting 'monoclinic'
loop_
_space_group_symop_operation_xyz
x,y,z
-x,y,-z
-x,-y,-z
x,-y,z
loop_
_atom_site_type_symbol
_atom_site_label
_atom_site_fract_x
_atom_site_fract_y
_atom_site_fract_z
Si Si1 0.689122 0.318894 0.663702
Si Si2 0.882206 0.320845 0.295137
Si Si3 0.217463 0.318773 0.158429
Si Si4 0.259056 0.319704 0.623435
Si Si5 0.832574 0.822569 0.153373
Si Si6 0.041418 0.320651 0.853889
Si Si7 0.384935 0.319475 0.176695
Si Si8 0.426765 0.320710 0.851495
O O1 0.500000 0.269009 0.500000
O O2 0.690052 0.500000 0.665483
O O3 0.701265 0.269737 0.729514
O O4 0.866012 0.277047 0.759602
O O5 0.887547 0.500000 0.291715
O O6 0.896035 0.241574 0.252636
O O7 0.693929 0.287619 0.187882
O O8 0.055982 0.276054 0.456534
O O9 0.222372 0.500000 0.160853
O O10 0.323414 0.267385 0.186342
O O11 0.000000 0.277015 0.000000
O O12 0.261694 0.500000 0.624803
O O13 0.418410 0.268091 0.701587
O O14 0.312762 0.278841 0.718645
O O15 0.947992 0.756525 0.191544
O O16 0.837900 0.000000 0.156793
O O17 0.622158 0.762128 0.993498
O O18 0.037696 0.500000 0.844422
O O19 0.225401 0.283402 0.020167
O O20 0.391705 0.500000 0.184060
O O21 0.458828 0.500000 0.873588
#
# Coordination Sequence:
#
# PCOD9155168 Si02
#       8
#     4   4   4   4   4   4   4   4
#     4   9  17  27  44  77 113 138 168 217 273 324
#     4  10  21  36  57  84 112 142 177 226 281 332
#     4   9  14  22  38  66 103 136 164 201 258 315
#     4   9  17  31  54  85 113 138 176 223 274 327
#     4  12  25  38  54  78 110 149 190 229 270 322
#     4  10  18  33  56  78 106 143 181 226 275 322
#     4   9  15  25  48  78 107 139 173 216 266 320
#     4  10  19  36  61  85 109 139 180 226 275 333
#
# _framework density 18.334654
#
# number of rings (size 3 to 8) (size 9 to 14) (size 15 to 20)
#    0.000    2.250    2.500    1.875    0.000    4.500 
#    0.000    4.375    0.000    1.875    0.000    1.750 
#    0.000    0.000    0.000    0.000    0.000    0.000 
#
# Total GULP energy -178519.305460 kJ/mol
# GULP energy per Si atom -5578.728296 kJ/mol
# Density = 1.829292 g / cm^3
# Si number density = 18.334654 Si / 1000 Ang^3
#
#
#
# Elastic Constant Matrix: (Units=GPa)
#
#
# Indices 1 2 3 4 5 6 
#
# 1 110.2128 15.9138 -0.3555 0.0000 -9.2651 0.0000
# 2 15.9138 18.8199 2.4774 0.0000 -2.1907 0.0000
# 3 -0.3555 2.4774 46.0063 0.0000 -10.4285 0.0000
# 4 0.0000 0.0000 0.0000 -4.2158 0.0000 3.2321
# 5 -9.2651 -2.1907 -10.4285 0.0000 34.1047 0.0000
# 6 0.0000 0.0000 0.0000 3.2321 0.0000 2.7371
#
#
#
# Elastic Compliance Matrix: (Units=1/GPa)
#
#
# Indices 1 2 3 4 5 6 
#
# 1 0.010568 -0.008779 0.001158 0.000000 0.002661 0.000000
# 2 -0.008779 0.061048 -0.003231 0.000000 0.000548 0.000000
# 3 0.001158 -0.003231 0.023578 0.000000 0.007316 0.000000
# 4 0.000000 0.000000 0.000000 -0.124493 0.000000 0.147009
# 5 0.002661 0.000548 0.007316 0.000000 0.032317 0.000000
# 6 0.000000 0.000000 0.000000 0.147009 0.000000 0.191751
#
#
# Mechanical properties :
#
#
# Convention : Reuss Voigt Hill
#
# Bulk Modulus (GPa) = 13.60747 23.45671 18.53209
# Shear Modulus (GPa) = 20.74958 16.99209 18.87083
#
# Velocity S-wave (km/s) = 3.36775 3.04760 3.21166
# Velocity P-wave (km/s) = 4.74975 5.02048 4.88699
#
# Compressibility (1/GPa) = 0.07348903
#
# Stress axis : x y z
#
# Youngs Moduli (GPa) = 94.62149 16.38065 42.41328
#
# Poissons Ratio (x) = 0.14381 -0.04910
# Poissons Ratio (y) = 0.83069 0.13703
# Poissons Ratio (z) = -0.10953 0.05292
#
# Static dielectric constant tensor:
#      x y z
#    x 1.627310 0.000000 -0.004080 
#    y 0.000000 1.608910 0.000000 
#    z -0.004080 0.000000 1.635220 
# 
# From -- ./inp_files/93705.got.cif
#   From: 2010.05.17/outbox.ucp.g08.bks.cvg/sg10_47_cif.got.tgz:93705.got - 2010.06.11 11:31:16.
