data_PCOD9155937
_publ_section_title
;
Structure prediction by ZEFSAII (Michael W. Deem and Ramdas Pophale) SiO2 
 PCOD9155937
Probable space group: P 21/M
;
_chemical_formula_sum "Si O2"
_cell_formula_units_Z 32
_cell_length_a 24.045807
_cell_length_b 7.774864
_cell_length_c 15.081826
_cell_angle_alpha 90.000000
_cell_angle_beta 28.763293
_cell_angle_gamma 90.000000
_cell_volume 1356.764991
_symmetry_space_group_name_H-M "P 21/M"
_symmetry_group_IT_number 11
_symmetry_cell_setting 'monoclinic'
loop_
_space_group_symop_operation_xyz
x,y,z
-x,1/2+y,-z
-x,-y,-z
x,1/2-y,z
loop_
_atom_site_type_symbol
_atom_site_label
_atom_site_fract_x
_atom_site_fract_y
_atom_site_fract_z
Si Si1 0.275373 0.051347 0.306387
Si Si2 0.565045 0.449338 0.495937
Si Si3 0.554367 0.962950 0.071392
Si Si4 0.131798 0.043767 0.069428
Si Si5 0.290715 0.550502 0.474749
Si Si6 0.949246 0.455709 0.474246
Si Si7 0.667353 0.546082 0.082478
Si Si8 0.810506 0.456543 0.203013
O O1 0.293547 0.250000 0.303804
O O2 0.240820 0.960508 0.445933
O O3 0.172623 0.037760 0.379445
O O4 0.391767 0.981951 0.097803
O O5 0.500000 0.500000 0.500000
O O6 0.593578 0.250000 0.451324
O O7 0.466531 0.472418 0.704789
O O8 0.686730 0.532526 0.343126
O O9 0.554059 0.750000 0.073096
O O10 0.423009 0.020451 0.277879
O O11 0.653795 0.023236 0.002533
O O12 0.136379 0.250000 0.063520
O O13 0.034477 0.988440 0.275316
O O14 0.249860 0.978559 0.954787
O O15 0.114501 0.997994 0.989931
O O16 0.310364 0.750000 0.471665
O O17 0.202330 0.485059 0.675220
O O18 0.938419 0.250000 0.485322
O O19 0.000000 0.500000 0.500000
O O20 0.694795 0.750000 0.038191
O O21 0.822669 0.250000 0.191470
#
# Coordination Sequence:
#
# PCOD9155937 Si02
#       8
#     4   4   4   4   4   4   4   4
#     4  11  23  39  61  88 117 153 197 246 296 347
#     4  10  17  27  46  73 110 152 189 225 275 337
#     4   9  17  32  56  84 117 156 196 236 287 352
#     4  10  21  36  58  85 116 155 195 237 289 347
#     4  10  20  37  59  84 118 159 198 240 291 349
#     4  11  24  44  68  92 117 150 192 240 294 347
#     4   9  15  27  49  78 111 148 185 222 273 339
#     4  10  20  33  53  83 117 154 194 238 287 340
#
# _framework density 23.585515999999998
#
# number of rings (size 3 to 8) (size 9 to 14) (size 15 to 20)
#    0.000    2.000    2.500    1.875    0.000    3.500 
#    0.000    1.250    0.000    1.500    0.000    0.000 
#    0.000    0.000    0.000    0.000    0.000    0.000 
#
# Total GULP energy -178150.587672 kJ/mol
# GULP energy per Si atom -5567.205865 kJ/mol
# Density = 2.353183 g / cm^3
# Si number density = 23.585516 Si / 1000 Ang^3
#
#
#
# Elastic Constant Matrix: (Units=GPa)
#
#
# Indices 1 2 3 4 5 6 
#
# 1 120.6512 0.8301 35.9956 0.0000 34.5857 0.0000
# 2 0.8301 48.0469 -10.7535 0.0000 5.0384 0.0000
# 3 35.9956 -10.7535 138.4928 0.0000 46.1965 0.0000
# 4 0.0000 0.0000 0.0000 13.0174 0.0000 1.3918
# 5 34.5857 5.0384 46.1965 0.0000 47.3163 0.0000
# 6 0.0000 0.0000 0.0000 1.3918 0.0000 16.3664
#
#
#
# Elastic Compliance Matrix: (Units=1/GPa)
#
#
# Indices 1 2 3 4 5 6 
#
# 1 0.010506 0.000580 -0.000153 0.000000 -0.007592 0.000000
# 2 0.000580 0.022314 0.003731 0.000000 -0.006443 0.000000
# 3 -0.000153 0.003731 0.011338 0.000000 -0.011354 0.000000
# 4 0.000000 0.000000 0.000000 0.077525 0.000000 -0.006593
# 5 -0.007592 -0.006443 -0.011354 0.000000 0.038455 0.000000
# 6 0.000000 0.000000 0.000000 -0.006593 0.000000 0.061661
#
#
# Mechanical properties :
#
#
# Convention : Reuss Voigt Hill
#
# Bulk Modulus (GPa) = 19.05742 39.92615 29.49179
# Shear Modulus (GPa) = 21.64741 34.08127 27.86434
#
# Velocity S-wave (km/s) = 3.03285 3.80545 3.44090
# Velocity P-wave (km/s) = 4.51242 6.02276 5.32144
#
# Compressibility (1/GPa) = 0.05247299
#
# Stress axis : x y z
#
# Youngs Moduli (GPa) = 95.18086 44.81576 88.20219
#
# Poissons Ratio (x) = -0.02600 0.01352
# Poissons Ratio (y) = -0.05523 -0.32907
# Poissons Ratio (z) = 0.01459 -0.16720
#
# Static dielectric constant tensor:
#      x y z
#    x 2.028490 0.000000 0.046860 
#    y 0.000000 1.881080 0.000000 
#    z 0.046860 0.000000 2.009730 
# 
# From -- ./inp_files/55524.got.cif
#   From: 2010.05.17/outbox.cif.g08.bks.cpg/sg11_28_cif.got.tgz:55524.got - 2010.06.03 12:22:45.
