data_PCOD9155652
_publ_section_title
;
Structure prediction by ZEFSAII (Michael W. Deem and Ramdas Pophale) SiO2 
 PCOD9155652
Probable space group: P 2/M
;
_chemical_formula_sum "Si O2"
_cell_formula_units_Z 28
_cell_length_a 15.000000
_cell_length_b 21.000000
_cell_length_c 9.000000
_cell_angle_alpha 90.000000
_cell_angle_beta 150.000000
_cell_angle_gamma 90.000000
_cell_volume 1417.500000
_symmetry_space_group_name_H-M "P 2/M"
_symmetry_group_IT_number 10
_symmetry_cell_setting 'monoclinic'
loop_
_space_group_symop_operation_xyz
x,y,z
-x,y,-z
-x,-y,-z
x,-y,z
loop_
_atom_site_type_symbol
_atom_site_label
_atom_site_fract_x
_atom_site_fract_y
_atom_site_fract_z
Si Si1 0.688087 0.428813 0.687303
Si Si2 0.821331 0.925869 0.305851
Si Si3 0.143846 0.115415 0.316739
Si Si4 0.149084 0.338772 0.832063
Si Si5 0.907235 0.262388 0.712295
Si Si6 0.461356 0.336634 0.776705
Si Si7 0.477875 0.075209 0.643441
O O1 0.500000 0.434651 0.500000
O O2 0.755538 0.500000 0.751797
O O3 0.640567 0.387870 0.473089
O O4 0.806786 0.390129 0.976458
O O5 0.818525 0.921480 0.477870
O O6 0.000000 0.895645 0.500000
O O7 0.821022 0.000000 0.259771
O O8 0.648956 0.899506 0.977455
O O9 0.086809 0.185924 0.279682
O O10 0.317466 0.117246 0.467591
O O11 0.000000 0.084420 0.000000
O O12 0.000000 0.362545 0.500000
O O13 0.032345 0.286025 0.756123
O O14 0.343368 0.322638 0.027566
O O15 0.697298 0.283825 0.420538
O O16 0.000000 0.284218 0.000000
O O17 0.500000 0.360191 0.000000
O O18 0.500000 0.078471 0.500000
O O19 0.445489 0.000000 0.634502
#
# Coordination Sequence:
#
# PCOD9155652 Si02
#       7
#     4   4   4   4   4   4   4
#     4   9  20  39  65  97 130 165 208 261 314 374
#     4  10  21  39  63  89 121 160 200 250 311 371
#     4  11  24  40  59  90 123 158 203 264 303 366
#     4  11  22  41  67  90 128 170 208 260 313 371
#     4  11  24  44  62  90 125 164 223 258 307 378
#     4  11  22  40  67  92 125 171 208 256 317 372
#     4  10  21  40  64  91 124 162 204 251 315 383
#
# _framework density 19.753086
#
# number of rings (size 3 to 8) (size 9 to 14) (size 15 to 20)
#    0.000    1.571    2.857    1.714    0.000    5.714 
#    7.714    1.429    0.000    0.000    0.000    0.000 
#    0.000    0.000    0.000    0.000    0.000    0.000 
#
# Total GULP energy -155885.492153 kJ/mol
# GULP energy per Si atom -5567.339005 kJ/mol
# Density = 1.970813 g / cm^3
# Si number density = 19.753086 Si / 1000 Ang^3
#
#
#
# Elastic Constant Matrix: (Units=GPa)
#
#
# Indices 1 2 3 4 5 6 
#
# 1 104.8501 8.1261 38.3698 0.0000 3.1658 0.0000
# 2 8.1261 26.9514 6.8678 0.0000 6.4761 0.0000
# 3 38.3698 6.8678 150.4939 0.0000 -5.5580 0.0000
# 4 0.0000 0.0000 0.0000 6.5474 0.0000 13.5850
# 5 3.1658 6.4761 -5.5580 0.0000 43.8760 0.0000
# 6 0.0000 0.0000 0.0000 13.5850 0.0000 16.2436
#
#
#
# Elastic Compliance Matrix: (Units=1/GPa)
#
#
# Indices 1 2 3 4 5 6 
#
# 1 0.010715 -0.002373 -0.002652 0.000000 -0.000759 0.000000
# 2 -0.002373 0.039586 -0.001418 0.000000 -0.005851 0.000000
# 3 -0.002652 -0.001418 0.007435 0.000000 0.001342 0.000000
# 4 0.000000 0.000000 0.000000 -0.207725 0.000000 0.173726
# 5 -0.000759 -0.005851 0.001342 0.000000 0.023880 0.000000
# 6 0.000000 0.000000 0.000000 0.173726 0.000000 -0.083729
#
#
# Mechanical properties :
#
#
# Convention : Reuss Voigt Hill
#
# Bulk Modulus (GPa) = 22.29528 43.22476 32.76002
# Shear Modulus (GPa) = -27.47202 28.59552 0.56175
#
# Velocity S-wave (km/s) = -3.73335 3.80892 0.53386
# Velocity P-wave (km/s) = 2.69673 6.42448 4.12320
#
# Compressibility (1/GPa) = 0.04485254
#
# Stress axis : x y z
#
# Youngs Moduli (GPa) = 93.33121 25.26114 134.49730
#
# Poissons Ratio (x) = 0.05993 0.35662
# Poissons Ratio (y) = 0.22143 0.19068
# Poissons Ratio (z) = 0.24747 0.03581
#
# Static dielectric constant tensor:
#      x y z
#    x 1.702220 0.000000 0.020970 
#    y 0.000000 1.699970 0.000000 
#    z 0.020970 0.000000 1.713840 
# 
# From -- ./inp_files/30414.got.cif
#   From: 2010.05.17/outbox.ucp.g08.bks.cvg/sg10_16_cif.got.tgz:30414.got - 2010.06.11 11:31:16.
