data_PCOD9155084
_publ_section_title
;
Structure prediction by ZEFSAII (Michael W. Deem and Ramdas Pophale) SiO2 
 PCOD9155084
Probable space group: P 2/M
;
_chemical_formula_sum "Si O2"
_cell_formula_units_Z 28
_cell_length_a 21.028264
_cell_length_b 9.500576
_cell_length_c 23.534296
_cell_angle_alpha 90.000000
_cell_angle_beta 18.207704
_cell_angle_gamma 90.000000
_cell_volume 1469.104466
_symmetry_space_group_name_H-M "P 2/M"
_symmetry_group_IT_number 10
_symmetry_cell_setting 'monoclinic'
loop_
_space_group_symop_operation_xyz
x,y,z
-x,y,-z
-x,-y,-z
x,-y,z
loop_
_atom_site_type_symbol
_atom_site_label
_atom_site_fract_x
_atom_site_fract_y
_atom_site_fract_z
Si Si1 0.176647 0.838616 0.628762
Si Si2 0.444857 0.667222 0.877193
Si Si3 0.927005 0.660509 0.000437
Si Si4 0.644684 0.339492 0.427875
Si Si5 0.260431 0.161384 0.934160
Si Si6 0.978691 0.667221 0.699258
Si Si7 0.109919 0.329229 0.463364
O O1 0.335532 0.758742 0.534373
O O2 0.130655 0.753081 0.610604
O O3 0.232483 0.000000 0.570940
O O4 0.959943 0.838934 0.846689
O O5 0.455028 0.500000 0.855462
O O6 0.406888 0.753082 0.851852
O O7 0.653550 0.709772 0.730618
O O8 0.248911 0.688879 0.083691
O O9 0.850206 0.500000 0.072314
O O10 0.130609 0.653055 0.789798
O O11 0.774177 0.758737 0.095729
O O12 0.000000 0.712611 0.000000
O O13 0.500000 0.287400 0.500000
O O14 0.582662 0.500000 0.494825
O O15 0.322221 0.000000 0.874353
O O16 0.023539 0.500000 0.665970
O O17 0.001030 0.709770 0.614801
O O18 0.104556 0.500000 0.465150
O O19 0.000000 0.275567 0.500000
#
# Coordination Sequence:
#
# PCOD9155084 Si02
#       7
#     4   4   4   4   4   4   4
#     4   9  17  30  49  70  94 127 165 206 248 292
#     4   9  17  31  52  75  99 131 168 204 247 298
#     4   9  17  30  47  67  93 125 161 202 248 297
#     4   9  17  30  47  67  93 125 161 202 248 297
#     4   9  17  30  49  70  94 127 165 206 248 292
#     4   9  17  31  52  75  99 131 168 204 247 298
#     4   9  18  32  51  79 109 131 161 209 255 297
#
# _framework density 19.059229999999999
#
# number of rings (size 3 to 8) (size 9 to 14) (size 15 to 20)
#    0.000    3.000    0.000    0.857    0.000    4.571 
#    2.571    3.571    0.000    1.714    0.000    4.000 
#    0.000    0.000    0.000    0.000    0.000    0.000 
#
# Total GULP energy -156191.420708 kJ/mol
# GULP energy per Si atom -5578.265025 kJ/mol
# Density = 1.901585 g / cm^3
# Si number density = 19.059230 Si / 1000 Ang^3
#
#
#
# Elastic Constant Matrix: (Units=GPa)
#
#
# Indices 1 2 3 4 5 6 
#
# 1 220.8852 94.8409 54.7735 0.0000 -23.0238 0.0000
# 2 94.8409 77.8909 35.2200 0.0000 -12.1299 0.0000
# 3 54.7735 35.2200 69.7038 0.0000 -7.7357 0.0000
# 4 0.0000 0.0000 0.0000 0.9754 0.0000 1.5447
# 5 -23.0238 -12.1299 -7.7357 0.0000 29.5837 0.0000
# 6 0.0000 0.0000 0.0000 1.5447 0.0000 -6.6208
#
#
#
# Elastic Compliance Matrix: (Units=1/GPa)
#
#
# Indices 1 2 3 4 5 6 
#
# 1 0.009941 -0.010728 -0.002081 0.000000 0.002794 0.000000
# 2 -0.010728 0.028896 -0.005955 0.000000 0.001942 0.000000
# 3 -0.002081 -0.005955 0.019094 0.000000 0.000932 0.000000
# 4 0.000000 0.000000 0.000000 0.748592 0.000000 0.174656
# 5 0.002794 0.001942 0.000932 0.000000 0.037016 0.000000
# 6 0.000000 0.000000 0.000000 0.174656 0.000000 -0.110290
#
#
# Mechanical properties :
#
#
# Convention : Reuss Voigt Hill
#
# Bulk Modulus (GPa) = 49.01229 82.01651 65.51440
# Shear Modulus (GPa) = 6.43023 17.03069 11.73046
#
# Velocity S-wave (km/s) = 1.83879 2.99250 2.48357
# Velocity P-wave (km/s) = 5.50271 7.42064 6.53245
#
# Compressibility (1/GPa) = 0.02040305
#
# Stress axis : x y z
#
# Youngs Moduli (GPa) = 100.59740 34.60683 52.37286
#
# Poissons Ratio (x) = 0.37126 0.10897
# Poissons Ratio (y) = 1.07920 0.31189
# Poissons Ratio (z) = 0.20931 0.20609
#
# Static dielectric constant tensor:
#      x y z
#    x 1.636100 0.000000 0.012620 
#    y 0.000000 1.637970 0.000000 
#    z 0.012620 0.000000 1.698130 
# 
# From -- ./inp_files/37962.got.cif
#   From: 2010.05.17/outbox.cif.g08.bks.cpg/sg10_19_cif.got.tgz:37962.got - 2010.06.03 11:33:40.
