data_PCOD9155843
_publ_section_title
;
Structure prediction by ZEFSAII (Michael W. Deem and Ramdas Pophale) SiO2 
 PCOD9155843
Probable space group: P 21/M
;
_chemical_formula_sum "Si O2"
_cell_formula_units_Z 32
_cell_length_a 14.721624
_cell_length_b 7.520251
_cell_length_c 15.370441
_cell_angle_alpha 90.000000
_cell_angle_beta 86.914416
_cell_angle_gamma 90.000000
_cell_volume 1699.199253
_symmetry_space_group_name_H-M "P 21/M"
_symmetry_group_IT_number 11
_symmetry_cell_setting 'monoclinic'
loop_
_space_group_symop_operation_xyz
x,y,z
-x,1/2+y,-z
-x,-y,-z
x,1/2-y,z
loop_
_atom_site_type_symbol
_atom_site_label
_atom_site_fract_x
_atom_site_fract_y
_atom_site_fract_z
Si Si1 0.335294 0.046896 0.308577
Si Si2 0.040363 0.038266 0.375838
Si Si3 0.021878 0.462959 0.098341
Si Si4 0.488683 0.535897 0.603481
Si Si5 0.204979 0.957352 0.469802
Si Si6 0.287051 0.533150 0.649377
Si Si7 0.888520 0.467861 0.257350
Si Si8 0.177306 0.465275 0.208075
O O1 0.357227 0.250000 0.282553
O O2 0.426782 0.965774 0.343960
O O3 0.276093 0.965907 0.232586
O O4 0.263626 0.051506 0.392276
O O5 0.034400 0.250000 0.386216
O O6 0.108736 0.997884 0.291645
O O7 0.945175 0.975285 0.340649
O O8 0.097185 0.971960 0.455851
O O9 0.023897 0.250000 0.108553
O O10 0.943693 0.527190 0.169303
O O11 0.120681 0.527919 0.127222
O O12 0.000000 0.500000 0.000000
O O13 0.500000 0.500000 0.500000
O O14 0.489817 0.750000 0.610668
O O15 0.390801 0.471248 0.642229
O O16 0.228171 0.750000 0.461604
O O17 0.240136 0.019464 0.560812
O O18 0.289602 0.750000 0.650765
O O19 0.215989 0.477030 0.727244
O O20 0.890608 0.250000 0.257673
O O21 0.185800 0.250000 0.202659
#
# Coordination Sequence:
#
# PCOD9155843 Si02
#       8
#     4   4   4   4   4   4   4   4
#     4   9  16  27  43  59  80 113 151 181 205 243
#     4   8  14  26  42  56  75 109 149 174 195 242
#     4   9  16  28  48  68  85 105 131 167 211 260
#     4  10  18  28  43  62  84 112 149 190 218 241
#     4  10  17  24  37  58  84 111 140 180 220 242
#     4   9  17  27  39  59  85 112 145 180 213 246
#     4   8  15  29  45  59  82 116 143 167 205 255
#     4   7  12  24  40  59  80 104 135 167 199 242
#
# _framework density 18.832401000000001
#
# number of rings (size 3 to 8) (size 9 to 14) (size 15 to 20)
#    0.000    3.250    1.250    2.625    0.000    0.500 
#    0.000    5.625    0.000    3.750    0.000    0.875 
#    0.000    0.000    0.000    0.000    0.000    0.000 
#
# Total GULP energy -178190.454449 kJ/mol
# GULP energy per Si atom -5568.451702 kJ/mol
# Density = 1.878954 g / cm^3
# Si number density = 18.832401 Si / 1000 Ang^3
#
#
#
# Elastic Constant Matrix: (Units=GPa)
#
#
# Indices 1 2 3 4 5 6 
#
# 1 184.7513 4.7795 70.5861 0.0000 23.6017 0.0000
# 2 4.7795 45.8588 0.0854 0.0000 2.0022 0.0000
# 3 70.5861 0.0854 95.8691 0.0000 23.1738 0.0000
# 4 0.0000 0.0000 0.0000 13.5289 0.0000 4.6985
# 5 23.6017 2.0022 23.1738 0.0000 26.4884 0.0000
# 6 0.0000 0.0000 0.0000 4.6985 0.0000 5.7075
#
#
#
# Elastic Compliance Matrix: (Units=1/GPa)
#
#
# Indices 1 2 3 4 5 6 
#
# 1 0.007671 -0.000688 -0.005082 0.000000 -0.002336 0.000000
# 2 -0.000688 0.021958 0.000938 0.000000 -0.001868 0.000000
# 3 -0.005082 0.000938 0.016606 0.000000 -0.010071 0.000000
# 4 0.000000 0.000000 0.000000 0.103509 0.000000 -0.085211
# 5 -0.002336 -0.001868 -0.010071 0.000000 0.048786 0.000000
# 6 0.000000 0.000000 0.000000 -0.085211 0.000000 0.245357
#
#
# Mechanical properties :
#
#
# Convention : Reuss Voigt Hill
#
# Bulk Modulus (GPa) = 27.34410 53.04234 40.19322
# Shear Modulus (GPa) = 10.73558 25.88016 18.30787
#
# Velocity S-wave (km/s) = 2.39018 3.71109 3.12131
# Velocity P-wave (km/s) = 4.70835 6.82565 5.86336
#
# Compressibility (1/GPa) = 0.03657095
#
# Stress axis : x y z
#
# Youngs Moduli (GPa) = 130.36565 45.54233 60.21748
#
# Poissons Ratio (x) = 0.03133 0.30605
# Poissons Ratio (y) = 0.08969 -0.05651
# Poissons Ratio (z) = 0.66257 -0.04274
#
# Static dielectric constant tensor:
#      x y z
#    x 1.713690 0.000000 0.025730 
#    y 0.000000 1.725440 0.000000 
#    z 0.025730 0.000000 1.647650 
# 
# From -- ./inp_files/51318.got.cif
#   From: 2010.05.17/outbox.cif.g08.bks.cpg/sg11_26_cif.got.tgz:51318.got - 2010.06.03 12:22:45.
