data_PCOD9155573
_publ_section_title
;
Structure prediction by ZEFSAII (Michael W. Deem and Ramdas Pophale) SiO2 
 PCOD9155573
Probable space group: P 2/M
;
_chemical_formula_sum "Si O2"
_cell_formula_units_Z 26
_cell_length_a 30.000000
_cell_length_b 9.000000
_cell_length_c 30.000000
_cell_angle_alpha 90.000000
_cell_angle_beta 10.000000
_cell_angle_gamma 90.000000
_cell_volume 1406.550239
_symmetry_space_group_name_H-M "P 2/M"
_symmetry_group_IT_number 10
_symmetry_cell_setting 'monoclinic'
loop_
_space_group_symop_operation_xyz
x,y,z
-x,y,-z
-x,-y,-z
x,-y,z
loop_
_atom_site_type_symbol
_atom_site_label
_atom_site_fract_x
_atom_site_fract_y
_atom_site_fract_z
Si Si1 0.582994 0.824241 0.164379
Si Si2 0.896090 0.322367 0.509966
Si Si3 0.947361 0.824056 0.363891
Si Si4 0.705790 0.322787 0.137129
Si Si5 0.234467 0.000000 0.734996
Si Si6 0.229249 0.168930 0.652428
Si Si7 0.413865 0.825002 0.033442
O O1 0.300100 0.796998 0.423476
O O2 0.640819 0.728836 0.150988
O O3 0.603150 0.000000 0.155845
O O4 0.794757 0.793963 0.917855
O O5 0.891022 0.500000 0.519291
O O6 0.928435 0.272552 0.426891
O O7 0.141230 0.253771 0.294203
O O8 0.634185 0.251846 0.786939
O O9 0.945582 0.000000 0.377716
O O10 0.712237 0.500000 0.133976
O O11 0.482686 0.254259 0.387761
O O12 0.977552 0.252872 0.883672
O O13 0.500000 0.000000 0.500000
O O14 0.221283 0.138220 0.713366
O O15 0.000000 0.000000 0.000000
O O16 0.234080 0.000000 0.628195
O O17 0.392791 0.000000 0.042620
O O18 0.500000 0.813871 0.000000
#
# Coordination Sequence:
#
# PCOD9155573 Si02
#       7
#     4   4   4   4   2   4   4
#     4  10  21  36  59  84 118 158 208 251 291 350
#     4  12  25  40  63  92 126 157 194 251 308 369
#     4  10  21  38  58  84 114 160 203 246 293 353
#     4  12  23  38  59  92 130 162 198 252 315 362
#     4  10  20  38  68  96 116 154 218 266 296 348
#     4  10  22  38  64  89 119 162 206 254 294 364
#     4  11  24  43  66  90 117 157 203 249 301 367
#
# _framework density 18.484942
#
# number of rings (size 3 to 8) (size 9 to 14) (size 15 to 20)
#    0.462    0.769    0.000    6.923    0.000    6.769 
#    0.000    0.000    0.000    9.231    0.000    0.000 
#    0.000    0.000    0.000    0.000    0.000    0.000 
#
# Total GULP energy -145365.732470 kJ/mol
# GULP energy per Si atom -5590.989710 kJ/mol
# Density = 1.844287 g / cm^3
# Si number density = 18.484942 Si / 1000 Ang^3
#
#
#
# Elastic Constant Matrix: (Units=GPa)
#
#
# Indices 1 2 3 4 5 6 
#
# 1 44.2391 18.3227 -26.4198 0.0000 1.1445 0.0000
# 2 18.3227 106.3003 1.5490 0.0000 0.0663 0.0000
# 3 -26.4198 1.5490 51.0516 0.0000 -1.2926 0.0000
# 4 0.0000 0.0000 0.0000 25.2951 0.0000 -5.7171
# 5 1.1445 0.0663 -1.2926 0.0000 34.2829 0.0000
# 6 0.0000 0.0000 0.0000 -5.7171 0.0000 -3.3562
#
#
#
# Elastic Compliance Matrix: (Units=1/GPa)
#
#
# Indices 1 2 3 4 5 6 
#
# 1 0.036875 -0.006637 0.019272 0.000000 -0.000492 0.000000
# 2 -0.006637 0.010606 -0.003755 0.000000 0.000059 0.000000
# 3 0.019272 -0.003755 0.029688 0.000000 0.000483 0.000000
# 4 0.000000 0.000000 0.000000 0.028544 0.000000 -0.048622
# 5 -0.000492 0.000059 0.000483 0.000000 0.029204 0.000000
# 6 0.000000 0.000000 0.000000 -0.048622 0.000000 -0.215129
#
#
# Mechanical properties :
#
#
# Convention : Reuss Voigt Hill
#
# Bulk Modulus (GPa) = 10.53393 20.94385 15.73889
# Shear Modulus (GPa) = -75.38037 25.12031 -25.13003
#
# Velocity S-wave (km/s) = -6.39280 3.69041 -3.69112
# Velocity P-wave (km/s) = 6.98423 5.43265 3.10369
#
# Compressibility (1/GPa) = 0.09493130
#
# Stress axis : x y z
#
# Youngs Moduli (GPa) = 27.11828 94.28692 33.68371
#
# Poissons Ratio (x) = 0.62575 -0.64917
# Poissons Ratio (y) = 0.17997 0.12648
# Poissons Ratio (z) = -0.52264 0.35403
#
# Static dielectric constant tensor:
#      x y z
#    x 1.623430 0.000000 0.003440 
#    y 0.000000 1.617560 0.000000 
#    z 0.003440 0.000000 1.609250 
# 
# From -- ./inp_files/95948.got.cif
#   From: 2010.05.17/outbox.ucp.g08.bks.cvg/sg10_48_cif.got.tgz:95948.got - 2010.06.11 11:31:16.
