data_PCOD9155167
_publ_section_title
;
Structure prediction by ZEFSAII (Michael W. Deem and Ramdas Pophale) SiO2 
 PCOD9155167
Probable space group: P 2/M
;
_chemical_formula_sum "Si O2"
_cell_formula_units_Z 32
_cell_length_a 21.000000
_cell_length_b 9.000000
_cell_length_c 27.000000
_cell_angle_alpha 90.000000
_cell_angle_beta 160.000000
_cell_angle_gamma 90.000000
_cell_volume 1745.328791
_symmetry_space_group_name_H-M "P 2/M"
_symmetry_group_IT_number 10
_symmetry_cell_setting 'monoclinic'
loop_
_space_group_symop_operation_xyz
x,y,z
-x,y,-z
-x,-y,-z
x,-y,z
loop_
_atom_site_type_symbol
_atom_site_label
_atom_site_fract_x
_atom_site_fract_y
_atom_site_fract_z
Si Si1 0.781102 0.676652 0.334145
Si Si2 0.411294 0.680940 0.704502
Si Si3 0.833847 0.321999 0.019264
Si Si4 0.562354 0.178916 0.467003
Si Si5 0.515679 0.822834 0.068253
Si Si6 0.795456 0.821746 0.735723
Si Si7 0.836600 0.678303 0.137328
Si Si8 0.227422 0.320683 0.469151
O O1 0.746487 0.500000 0.302988
O O2 0.672466 0.728080 0.304103
O O3 0.701162 0.761024 0.228783
O O4 0.000000 0.698423 0.500000
O O5 0.411503 0.500000 0.705812
O O6 0.285398 0.727520 0.566357
O O7 0.625054 0.727847 0.853503
O O8 0.842983 0.500000 0.020544
O O9 0.861282 0.286502 0.097488
O O10 0.002596 0.249404 0.113076
O O11 0.354695 0.221625 0.332395
O O12 0.699567 0.219193 0.612978
O O13 0.631986 0.255328 0.468419
O O14 0.568463 0.000000 0.466663
O O15 0.511262 0.000000 0.067351
O O16 0.500000 0.775123 0.000000
O O17 0.344281 0.756051 0.973492
O O18 0.810596 0.000000 0.747419
O O19 0.813334 0.500000 0.124027
O O20 0.019876 0.723615 0.301465
O O21 0.235381 0.500000 0.472906
#
# Coordination Sequence:
#
# PCOD9155167 Si02
#       8
#     4   4   4   4   4   4   4   4
#     4  10  21  39  64  87 110 148 191 230 277 331
#     4   9  19  36  54  79 113 140 173 223 275 327
#     4  10  18  33  55  80 107 137 177 228 271 316
#     4   9  18  33  51  76 110 143 178 224 270 320
#     4  11  25  41  57  83 119 152 184 229 280 329
#     4   9  18  32  52  77 107 143 181 221 269 322
#     4  10  20  35  58  84 108 139 187 234 271 319
#     4  10  20  34  55  82 110 140 177 227 277 323
#
# _framework density 18.334654
#
# number of rings (size 3 to 8) (size 9 to 14) (size 15 to 20)
#    0.000    2.250    2.500    1.125    1.750    2.750 
#    0.000    3.125    0.000    3.750    0.000    0.000 
#    0.000    0.000    0.000    0.000    0.000    0.000 
#
# Total GULP energy -178554.433734 kJ/mol
# GULP energy per Si atom -5579.826054 kJ/mol
# Density = 1.829292 g / cm^3
# Si number density = 18.334654 Si / 1000 Ang^3
#
#
#
# Elastic Constant Matrix: (Units=GPa)
#
#
# Indices 1 2 3 4 5 6 
#
# 1 32.7829 13.8981 1.1738 0.0000 -6.1239 0.0000
# 2 13.8981 1.4301 16.3551 0.0000 -0.5492 0.0000
# 3 1.1738 16.3551 59.4133 0.0000 -10.0970 0.0000
# 4 0.0000 0.0000 0.0000 44.5606 0.0000 14.7870
# 5 -6.1239 -0.5492 -10.0970 0.0000 32.4197 0.0000
# 6 0.0000 0.0000 0.0000 14.7870 0.0000 24.0809
#
#
#
# Elastic Compliance Matrix: (Units=1/GPa)
#
#
# Indices 1 2 3 4 5 6 
#
# 1 0.010838 0.046935 -0.013358 0.000000 -0.001318 0.000000
# 2 0.046935 -0.105954 0.031086 0.000000 0.016752 0.000000
# 3 -0.013358 0.031086 0.008657 0.000000 0.000699 0.000000
# 4 0.000000 0.000000 0.000000 0.028184 0.000000 -0.017307
# 5 -0.001318 0.016752 0.000699 0.000000 0.031098 0.000000
# 6 0.000000 0.000000 0.000000 -0.017307 0.000000 0.052154
#
#
# Mechanical properties :
#
#
# Convention : Reuss Voigt Hill
#
# Bulk Modulus (GPa) = 23.32813 17.38670 20.35742
# Shear Modulus (GPa) = -55.51853 24.35888 -15.57982
#
# Velocity S-wave (km/s) = -5.50876 3.64891 -2.91820
# Velocity P-wave (km/s) = 5.26410 5.22076 0.47667
#
# Compressibility (1/GPa) = 0.04286671
#
# Stress axis : x y z
#
# Youngs Moduli (GPa) = 92.26632 -9.43805 115.51840
#
# Poissons Ratio (x) = 0.44297 1.54311
# Poissons Ratio (y) = -4.33049 -3.59106
# Poissons Ratio (z) = 1.23251 0.29340
#
# Static dielectric constant tensor:
#      x y z
#    x 1.614630 0.000000 -0.007840 
#    y 0.000000 1.613660 0.000000 
#    z -0.007840 0.000000 1.635880 
# 
# From -- ./inp_files/86961.got.cif
#   From: 2010.05.17/outbox.ucp.g08.bks.cvg/sg10_44_cif.got.tgz:86961.got - 2010.06.11 11:31:16.
