data_PCOD9155445
_publ_section_title
;
Structure prediction by ZEFSAII (Michael W. Deem and Ramdas Pophale) SiO2 
 PCOD9155445
Probable space group: P 2/M
;
_chemical_formula_sum "Si O2"
_cell_formula_units_Z 28
_cell_length_a 9.000000
_cell_length_b 9.000000
_cell_length_c 27.000000
_cell_angle_alpha 90.000000
_cell_angle_beta 40.000000
_cell_angle_gamma 90.000000
_cell_volume 1405.776502
_symmetry_space_group_name_H-M "P 2/M"
_symmetry_group_IT_number 10
_symmetry_cell_setting 'monoclinic'
loop_
_space_group_symop_operation_xyz
x,y,z
-x,y,-z
-x,-y,-z
x,-y,z
loop_
_atom_site_type_symbol
_atom_site_label
_atom_site_fract_x
_atom_site_fract_y
_atom_site_fract_z
Si Si1 0.983437 0.679425 0.823323
Si Si2 0.089925 0.177701 0.373624
Si Si3 0.117639 0.179605 0.047448
Si Si4 0.538544 0.819079 0.324387
Si Si5 0.586760 0.820478 0.532258
Si Si6 0.833949 0.326250 0.749860
Si Si7 0.303993 0.676548 0.904492
O O1 0.967085 0.500000 0.832171
O O2 0.862219 0.755209 0.902081
O O3 0.245807 0.738035 0.755813
O O4 0.897805 0.722623 0.789646
O O5 0.311807 0.219588 0.349952
O O6 0.072834 0.243918 0.322571
O O7 0.858423 0.214567 0.462861
O O8 0.097332 0.000000 0.365807
O O9 0.876345 0.238206 0.084841
O O10 0.127530 0.000000 0.045123
O O11 0.292775 0.250282 0.962205
O O12 0.519846 0.773054 0.387519
O O13 0.565511 0.000000 0.316094
O O14 0.500000 0.767189 0.500000
O O15 0.557968 0.000000 0.539037
O O16 0.898535 0.500000 0.730049
O O17 0.557997 0.311032 0.817809
O O18 0.249334 0.500000 0.921675
#
# Coordination Sequence:
#
# PCOD9155445 Si02
#       7
#     4   4   4   4   4   4   4
#     4  11  23  39  56  78 110 147 185 226 276 328
#     4  10  20  34  56  83 111 144 182 227 275 325
#     4  11  22  37  58  86 114 142 181 227 273 324
#     4  10  20  35  56  83 112 143 184 229 273 325
#     4   9  17  31  53  81 113 147 181 221 273 328
#     4  10  23  39  56  79 109 145 185 228 273 326
#     4  10  20  38  61  83 110 147 185 223 272 326
#
# _framework density 19.917818
#
# number of rings (size 3 to 8) (size 9 to 14) (size 15 to 20)
#    0.000    1.857    0.000    5.143    0.000    8.571 
#    0.000    3.571    0.000    4.286    0.000    0.000 
#    0.000    0.000    0.000    0.000    0.000    0.000 
#
# Total GULP energy -156278.740181 kJ/mol
# GULP energy per Si atom -5581.383578 kJ/mol
# Density = 1.987248 g / cm^3
# Si number density = 19.917818 Si / 1000 Ang^3
#
#
#
# Elastic Constant Matrix: (Units=GPa)
#
#
# Indices 1 2 3 4 5 6 
#
# 1 52.9399 3.0494 -11.2706 0.0000 22.3894 0.0000
# 2 3.0494 64.8254 11.1341 0.0000 11.8359 0.0000
# 3 -11.2706 11.1341 61.5115 0.0000 24.9674 0.0000
# 4 0.0000 0.0000 0.0000 41.0602 0.0000 7.7377
# 5 22.3894 11.8359 24.9674 0.0000 43.7153 0.0000
# 6 0.0000 0.0000 0.0000 7.7377 0.0000 30.0008
#
#
#
# Elastic Compliance Matrix: (Units=1/GPa)
#
#
# Indices 1 2 3 4 5 6 
#
# 1 0.034231 0.000439 0.017388 0.000000 -0.027581 0.000000
# 2 0.000439 0.016341 -0.001289 0.000000 -0.003913 0.000000
# 3 0.017388 -0.001289 0.030135 0.000000 -0.025768 0.000000
# 4 0.000000 0.000000 0.000000 0.025599 0.000000 -0.006602
# 5 -0.027581 -0.003913 -0.025768 0.000000 0.052778 0.000000
# 6 0.000000 0.000000 0.000000 -0.006602 0.000000 0.035035
#
#
# Mechanical properties :
#
#
# Convention : Reuss Voigt Hill
#
# Bulk Modulus (GPa) = 8.78867 20.56695 14.67781
# Shear Modulus (GPa) = 25.12928 34.71286 29.92107
#
# Velocity S-wave (km/s) = 3.55582 4.17922 3.88006
# Velocity P-wave (km/s) = 4.61308 5.79967 5.24007
#
# Compressibility (1/GPa) = 0.11378281
#
# Stress axis : x y z
#
# Youngs Moduli (GPa) = 29.21366 61.19480 33.18351
#
# Poissons Ratio (x) = -0.02688 -0.57698
# Poissons Ratio (y) = -0.01283 0.04278
# Poissons Ratio (z) = -0.50796 0.07889
#
# Static dielectric constant tensor:
#      x y z
#    x 1.725590 0.000000 -0.026120 
#    y 0.000000 1.676470 0.000000 
#    z -0.026120 0.000000 1.704710 
# 
# From -- ./inp_files/91987.got.cif
#   From: 2010.05.17/outbox.ucp.g08.bks.cvg/sg10_46_cif.got.tgz:91987.got - 2010.06.11 11:31:16.
