data_PCOD9155848
_publ_section_title
;
Structure prediction by ZEFSAII (Michael W. Deem and Ramdas Pophale) SiO2 
 PCOD9155848
Probable space group: P 21/M
;
_chemical_formula_sum "Si O2"
_cell_formula_units_Z 24
_cell_length_a 15.386522
_cell_length_b 13.915308
_cell_length_c 8.298321
_cell_angle_alpha 90.000000
_cell_angle_beta 150.325967
_cell_angle_gamma 90.000000
_cell_volume 879.600954
_symmetry_space_group_name_H-M "P 21/M"
_symmetry_group_IT_number 11
_symmetry_cell_setting 'monoclinic'
loop_
_space_group_symop_operation_xyz
x,y,z
-x,1/2+y,-z
-x,-y,-z
x,1/2-y,z
loop_
_atom_site_type_symbol
_atom_site_label
_atom_site_fract_x
_atom_site_fract_y
_atom_site_fract_z
Si Si1 0.175063 0.355989 0.648609
Si Si2 0.390814 0.406314 0.689636
Si Si3 0.330692 0.381090 0.245604
Si Si4 0.854248 0.080324 0.732778
Si Si5 0.266655 0.611076 0.134520
Si Si6 0.810058 0.416517 0.326886
O O1 0.099693 0.250000 0.487182
O O2 0.330180 0.362388 0.760423
O O3 0.126332 0.472040 0.560315
O O4 0.231144 0.348547 0.926297
O O5 0.301261 0.358118 0.387063
O O6 0.322693 0.516612 0.574966
O O7 0.598157 0.408048 0.993223
O O8 0.296093 0.495805 0.183498
O O9 0.534314 0.354142 0.546597
O O10 0.830480 0.137835 0.858043
O O11 0.884551 0.129708 0.609942
O O12 0.000000 0.000000 0.000000
O O13 0.157845 0.630043 0.795865
#
# Coordination Sequence:
#
# PCOD9155848 Si02
#       6
#     4   4   4   4   4   4
#     4  10  17  24  40  67  92 111 139 181 223 259
#     4   9  17  31  47  62  87 119 146 175 219 262
#     4   8  14  26  43  59  80 112 144 170 202 254
#     4  10  17  24  40  67  91 106 135 182 219 249
#     4   8  14  26  43  60  81 112 141 167 210 255
#     4   9  17  31  47  61  86 121 148 175 216 264
#
# _framework density 27.285098999999999
#
# number of rings (size 3 to 8) (size 9 to 14) (size 15 to 20)
#    0.000    3.000    0.000    6.000    0.000    1.333 
#    0.000    0.000    0.000    0.000    0.000   42.000 
#    0.000   80.000    0.000    0.000    0.000    0.000 
#
# Total GULP energy -133911.468533 kJ/mol
# GULP energy per Si atom -5579.644522 kJ/mol
# Density = 2.722300 g / cm^3
# Si number density = 27.285099 Si / 1000 Ang^3
#
#
#
# Elastic Constant Matrix: (Units=GPa)
#
#
# Indices 1 2 3 4 5 6 
#
# 1 170.1925 31.0524 46.5533 0.0000 -56.2148 0.0000
# 2 31.0524 146.4037 11.6077 0.0000 -1.7538 0.0000
# 3 46.5533 11.6077 126.1913 0.0000 -39.3697 0.0000
# 4 0.0000 0.0000 0.0000 -9.6077 0.0000 2.3575
# 5 -56.2148 -1.7538 -39.3697 0.0000 73.0274 0.0000
# 6 0.0000 0.0000 0.0000 2.3575 0.0000 -24.1468
#
#
#
# Elastic Compliance Matrix: (Units=1/GPa)
#
#
# Indices 1 2 3 4 5 6 
#
# 1 0.008404 -0.001623 -0.001136 0.000000 0.005818 0.000000
# 2 -0.001623 0.007197 -0.000480 0.000000 -0.001335 0.000000
# 3 -0.001136 -0.000480 0.009751 0.000000 0.004371 0.000000
# 4 0.000000 0.000000 0.000000 -0.106638 0.000000 -0.010411
# 5 0.005818 -0.001335 0.004371 0.000000 0.020496 0.000000
# 6 0.000000 0.000000 0.000000 -0.010411 0.000000 -0.042430
#
#
# Mechanical properties :
#
#
# Convention : Reuss Voigt Hill
#
# Bulk Modulus (GPa) = 52.98007 69.02383 61.00195
# Shear Modulus (GPa) = -55.27931 31.42617 -11.92657
#
# Velocity S-wave (km/s) = -4.50598 3.39746 -2.09298
# Velocity P-wave (km/s) = 2.75907 6.38298 4.07001
#
# Compressibility (1/GPa) = 0.01887502
#
# Stress axis : x y z
#
# Youngs Moduli (GPa) = 118.98815 138.95307 102.54929
#
# Poissons Ratio (x) = 0.22549 0.11650
# Poissons Ratio (y) = 0.19309 0.04921
# Poissons Ratio (z) = 0.13517 0.06667
#
# Static dielectric constant tensor:
#      x y z
#    x 2.242430 0.000000 -0.001270 
#    y 0.000000 2.065600 0.000000 
#    z -0.001270 0.000000 2.173260 
# 
# From -- ./inp_files/25245.got.cif
#   From: 2010.05.17/outbox.cif.g08.bks.cpg/sg11_13_cif.got.tgz:25245.got - 2010.06.03 12:22:45.
