data_PCOD9155785
_publ_section_title
;
Structure prediction by ZEFSAII (Michael W. Deem and Ramdas Pophale) SiO2 
 PCOD9155785
Probable space group: P 21/M
;
_chemical_formula_sum "Si O2"
_cell_formula_units_Z 30
_cell_length_a 11.496347
_cell_length_b 14.190733
_cell_length_c 9.322630
_cell_angle_alpha 90.000000
_cell_angle_beta 137.637387
_cell_angle_gamma 90.000000
_cell_volume 1024.819274
_symmetry_space_group_name_H-M "P 21/M"
_symmetry_group_IT_number 11
_symmetry_cell_setting 'monoclinic'
loop_
_space_group_symop_operation_xyz
x,y,z
-x,1/2+y,-z
-x,-y,-z
x,1/2-y,z
loop_
_atom_site_type_symbol
_atom_site_label
_atom_site_fract_x
_atom_site_fract_y
_atom_site_fract_z
Si Si1 0.380418 0.860512 0.474452
Si Si2 0.876197 0.250000 0.287334
Si Si3 0.245948 0.856435 0.062579
Si Si4 0.070877 0.137065 0.938862
Si Si5 0.947962 0.096708 0.528547
Si Si6 0.269350 0.363287 0.382623
Si Si7 0.589898 0.549651 0.890349
Si Si8 0.305706 0.353349 0.742134
O O1 0.382069 0.750000 0.514047
O O2 0.227664 0.873205 0.216593
O O3 0.546532 0.883862 0.524464
O O4 0.418632 0.922582 0.647953
O O5 0.807053 0.164833 0.331851
O O6 0.907189 0.331724 0.186293
O O7 0.332609 0.750000 0.135191
O O8 0.343915 0.945030 0.085817
O O9 0.040253 0.250000 0.913934
O O10 0.953111 0.093309 0.704734
O O11 0.118549 0.098880 0.141451
O O12 0.261522 0.118766 0.040342
O O13 0.111657 0.159568 0.624522
O O14 0.000000 0.000000 0.500000
O O15 0.252461 0.250000 0.363846
O O16 0.283876 0.388821 0.561334
O O17 0.600741 0.576438 0.066443
O O18 0.387897 0.250000 0.818866
#
# Coordination Sequence:
#
# PCOD9155785 Si02
#       8
#     4   2   4   4   4   4   4   4
#     4   9  16  31  50  76 100 130 161 196 243 297
#     4  10  18  32  44  68 104 130 154 204 242 278
#     4   9  20  30  45  70 102 134 169 194 239 295
#     4   9  16  30  49  76  96 122 161 202 250 290
#     4  11  19  30  50  73  98 125 165 206 246 286
#     4   8  16  29  51  72 101 122 146 203 253 291
#     4  10  16  28  50  75 101 122 160 210 243 280
#     4  10  18  31  49  80  98 116 156 207 256 288
#
# _framework density 29.273457000000001
#
# number of rings (size 3 to 8) (size 9 to 14) (size 15 to 20)
#    0.400    2.133    1.333    4.800    0.000    0.000 
#    0.000    1.333    0.000    0.000    0.000    7.467 
#    0.000    0.000    0.000    0.000    0.000    0.000 
#
# Total GULP energy -167335.535082 kJ/mol
# GULP energy per Si atom -5577.851169 kJ/mol
# Density = 2.920683 g / cm^3
# Si number density = 29.273457 Si / 1000 Ang^3
#
#
#
# Elastic Constant Matrix: (Units=GPa)
#
#
# Indices 1 2 3 4 5 6 
#
# 1 43.5155 14.7629 19.9999 0.0000 -22.1429 0.0000
# 2 14.7629 232.9074 93.6222 0.0000 -16.6561 0.0000
# 3 19.9999 93.6222 234.1833 0.0000 -46.0761 0.0000
# 4 0.0000 0.0000 0.0000 29.9848 0.0000 -1.2103
# 5 -22.1429 -16.6561 -46.0761 0.0000 63.3228 0.0000
# 6 0.0000 0.0000 0.0000 -1.2103 0.0000 31.1861
#
#
#
# Elastic Compliance Matrix: (Units=1/GPa)
#
#
# Indices 1 2 3 4 5 6 
#
# 1 0.028233 -0.001063 -0.000115 0.000000 0.009509 0.000000
# 2 -0.001063 0.005157 -0.002074 0.000000 -0.000524 0.000000
# 3 -0.000115 -0.002074 0.005828 0.000000 0.003655 0.000000
# 4 0.000000 0.000000 0.000000 0.033403 0.000000 0.001296
# 5 0.009509 -0.000524 0.003655 0.000000 0.021639 0.000000
# 6 0.000000 0.000000 0.000000 0.001296 0.000000 0.032116
#
#
# Mechanical properties :
#
#
# Convention : Reuss Voigt Hill
#
# Bulk Modulus (GPa) = 30.56883 85.26404 57.91643
# Shear Modulus (GPa) = 34.77420 50.38016 42.57718
#
# Velocity S-wave (km/s) = 3.45034 4.15302 3.81788
# Velocity P-wave (km/s) = 5.13209 7.22404 6.26598
#
# Compressibility (1/GPa) = 0.03271306
#
# Stress axis : x y z
#
# Youngs Moduli (GPa) = 35.42004 193.90428 171.57531
#
# Poissons Ratio (x) = 0.20616 0.01976
# Poissons Ratio (y) = 0.03766 0.35587
# Poissons Ratio (z) = 0.00408 0.40219
#
# Static dielectric constant tensor:
#      x y z
#    x 2.586000 0.000000 0.257940 
#    y 0.000000 2.053900 0.000000 
#    z 0.257940 0.000000 2.993090 
# 
# From -- ./inp_files/21928.got.cif
#   From: 2010.05.17/outbox.cif.g08.bks.cpg/sg11_11_cif.got.tgz:21928.got - 2010.06.03 12:22:45.
