data_PCOD9155426
_publ_section_title
;
Structure prediction by ZEFSAII (Michael W. Deem and Ramdas Pophale) SiO2 
 PCOD9155426
Probable space group: P 2/M
;
_chemical_formula_sum "Si O2"
_cell_formula_units_Z 26
_cell_length_a 21.000000
_cell_length_b 15.000000
_cell_length_c 24.000000
_cell_angle_alpha 90.000000
_cell_angle_beta 170.000000
_cell_angle_gamma 90.000000
_cell_volume 1312.780223
_symmetry_space_group_name_H-M "P 2/M"
_symmetry_group_IT_number 10
_symmetry_cell_setting 'monoclinic'
loop_
_space_group_symop_operation_xyz
x,y,z
-x,y,-z
-x,-y,-z
x,-y,z
loop_
_atom_site_type_symbol
_atom_site_label
_atom_site_fract_x
_atom_site_fract_y
_atom_site_fract_z
Si Si1 0.063034 0.500000 0.619067
Si Si2 0.935610 0.602499 0.172216
Si Si3 0.615945 0.105239 0.535157
Si Si4 0.254297 0.712197 0.543117
Si Si5 0.067357 0.696853 0.623758
Si Si6 0.136396 0.398056 0.224116
Si Si7 0.710914 0.788614 0.847971
O O1 0.921299 0.596977 0.514048
O O2 0.000000 0.500000 0.500000
O O3 0.500000 0.500000 0.000000
O O4 0.813636 0.500000 0.070141
O O5 0.056427 0.633337 0.337646
O O6 0.208444 0.606642 0.353307
O O7 0.631132 0.671040 0.889647
O O8 0.500000 0.113789 0.500000
O O9 0.378971 0.163912 0.287934
O O10 0.600986 0.000000 0.507778
O O11 0.016222 0.148763 0.881912
O O12 0.349629 0.778598 0.574759
O O13 0.066494 0.750521 0.437037
O O14 0.000000 0.717136 0.500000
O O15 0.500000 0.693690 0.000000
O O16 0.500000 0.392922 0.500000
O O17 0.978626 0.500000 0.079588
O O18 0.893039 0.310551 0.999569
#
# Coordination Sequence:
#
# PCOD9155426 Si02
#       7
#     2   4   4   4   4   4   4
#     4   8  16  28  42  64  90 126 175 228 279 312
#     4  10  21  34  50  72 103 148 196 242 290 327
#     4  11  24  42  66  93 120 152 192 243 304 360
#     4  11  22  36  53  77 109 146 187 239 291 350
#     4  10  20  34  50  72 103 140 190 242 287 341
#     4   9  19  37  58  82 116 162 212 247 277 328
#     4  11  22  39  62  89 122 155 195 243 294 350
#
# _framework density 19.805295000000001
#
# number of rings (size 3 to 8) (size 9 to 14) (size 15 to 20)
#    0.000    1.846    0.000    4.615    2.154    3.077 
#    2.769    3.077    0.000   23.538    0.000    0.000 
#    0.000   12.308    0.000    0.000    0.000    0.000 
#
# Total GULP energy -144826.661509 kJ/mol
# GULP energy per Si atom -5570.256212 kJ/mol
# Density = 1.976022 g / cm^3
# Si number density = 19.805295 Si / 1000 Ang^3
#
#
#
# Elastic Constant Matrix: (Units=GPa)
#
#
# Indices 1 2 3 4 5 6 
#
# 1 152.6934 43.3755 49.1505 0.0000 -7.1056 0.0000
# 2 43.3755 99.1429 22.4217 0.0000 -8.0121 0.0000
# 3 49.1505 22.4217 56.7464 0.0000 -14.5292 0.0000
# 4 0.0000 0.0000 0.0000 -685.0648 0.0000 -508.9352
# 5 -7.1056 -8.0121 -14.5292 0.0000 39.1813 0.0000
# 6 0.0000 0.0000 0.0000 -508.9352 0.0000 -331.0084
#
#
#
# Elastic Compliance Matrix: (Units=1/GPa)
#
#
# Indices 1 2 3 4 5 6 
#
# 1 0.009735 -0.002625 -0.007823 0.000000 -0.001672 0.000000
# 2 -0.002625 0.011802 -0.002092 0.000000 0.001161 0.000000
# 3 -0.007823 -0.002092 0.027348 0.000000 0.008295 0.000000
# 4 0.000000 0.000000 0.000000 0.010263 0.000000 -0.015780
# 5 -0.001672 0.001161 0.008295 0.000000 0.028533 0.000000
# 6 0.000000 0.000000 0.000000 -0.015780 0.000000 0.021240
#
#
# Mechanical properties :
#
#
# Convention : Reuss Voigt Hill
#
# Bulk Modulus (GPa) = 42.00749 59.83090 50.91919
# Shear Modulus (GPa) = 35.22703 -182.46936 -73.62117
#
# Velocity S-wave (km/s) = 4.22200 -9.60893 -6.10354
# Velocity P-wave (km/s) = 6.70994 9.63502 4.88929
#
# Compressibility (1/GPa) = 0.02380528
#
# Stress axis : x y z
#
# Youngs Moduli (GPa) = 102.72147 84.73182 36.56522
#
# Poissons Ratio (x) = 0.22243 0.28604
# Poissons Ratio (y) = 0.26965 0.07650
# Poissons Ratio (z) = 0.80358 0.17727
#
# Static dielectric constant tensor:
#      x y z
#    x 1.781890 0.000000 0.018310 
#    y 0.000000 1.762530 0.000000 
#    z 0.018310 0.000000 1.778210 
# 
# From -- ./inp_files/90473.got.cif
#   From: 2010.05.17/outbox.ucp.g08.bks.cvg/sg10_46_cif.got.tgz:90473.got - 2010.06.11 11:31:16.
