data_PCOD9155269
_publ_section_title
;
Structure prediction by ZEFSAII (Michael W. Deem and Ramdas Pophale) SiO2 
 PCOD9155269
Probable space group: P 2/M
;
_chemical_formula_sum "Si O2"
_cell_formula_units_Z 24
_cell_length_a 12.000000
_cell_length_b 9.000000
_cell_length_c 12.000000
_cell_angle_alpha 90.000000
_cell_angle_beta 90.000000
_cell_angle_gamma 90.000000
_cell_volume 1296.000000
_symmetry_space_group_name_H-M "P 2/M"
_symmetry_group_IT_number 10
_symmetry_cell_setting 'monoclinic'
loop_
_space_group_symop_operation_xyz
x,y,z
-x,y,-z
-x,-y,-z
x,-y,z
loop_
_atom_site_type_symbol
_atom_site_label
_atom_site_fract_x
_atom_site_fract_y
_atom_site_fract_z
Si Si1 0.664100 0.823935 0.748606
Si Si2 0.160159 0.678591 0.091977
Si Si3 0.371752 0.178663 0.495904
Si Si4 0.726077 0.674704 0.288072
Si Si5 0.917098 0.319569 0.149686
Si Si6 0.526589 0.674307 0.128461
O O1 0.741070 0.749320 0.840548
O O2 0.681047 0.771541 0.621622
O O3 0.541786 0.776541 0.787613
O O4 0.676978 0.000000 0.751911
O O5 0.173863 0.500000 0.089896
O O6 0.045404 0.719069 0.152799
O O7 0.138936 0.730243 0.965859
O O8 0.500000 0.227859 0.500000
O O9 0.317103 0.238838 0.606597
O O10 0.370157 0.000000 0.496047
O O11 0.727300 0.500000 0.315689
O O12 0.847172 0.730442 0.253979
O O13 0.651441 0.686445 0.175491
O O14 0.912273 0.500000 0.145616
O O15 0.494041 0.500000 0.140035
O O16 0.500000 0.714174 0.000000
#
# Coordination Sequence:
#
# PCOD9155269 Si02
#       6
#     4   4   4   4   4   4
#     4  11  22  35  52  75 105 139 178 218 257 306
#     4   9  17  34  59  80 106 140 172 208 260 316
#     4  10  21  38  53  68 101 147 182 212 260 311
#     4  10  19  32  54  81 104 129 175 222 256 305
#     4   8  16  33  57  83 107 136 169 210 264 316
#     4  10  20  33  52  79 108 134 164 210 265 318
#
# _framework density 18.518519000000001
#
# number of rings (size 3 to 8) (size 9 to 14) (size 15 to 20)
#    0.000    2.333    1.667    2.500    0.000    4.667 
#    0.000    5.833    0.000    5.000    0.000    0.000 
#    0.000    0.000    0.000    0.000    0.000    0.000 
#
# Total GULP energy -133661.189143 kJ/mol
# GULP energy per Si atom -5569.216214 kJ/mol
# Density = 1.847637 g / cm^3
# Si number density = 18.518519 Si / 1000 Ang^3
#
#
#
# Elastic Constant Matrix: (Units=GPa)
#
#
# Indices 1 2 3 4 5 6 
#
# 1 42.2120 3.3516 -19.7944 0.0000 -19.5372 0.0000
# 2 3.3516 -2.9342 -9.4964 0.0000 0.3757 0.0000
# 3 -19.7944 -9.4964 -21.4551 0.0000 -21.2183 0.0000
# 4 0.0000 0.0000 0.0000 -0.2756 0.0000 -19.2850
# 5 -19.5372 0.3757 -21.2183 0.0000 28.7702 0.0000
# 6 0.0000 0.0000 0.0000 -19.2850 0.0000 47.2940
#
#
#
# Elastic Compliance Matrix: (Units=1/GPa)
#
#
# Indices 1 2 3 4 5 6 
#
# 1 0.003490 0.065172 -0.019411 0.000000 -0.012797 0.000000
# 2 0.065172 -0.325578 0.020820 0.000000 0.063863 0.000000
# 3 -0.019411 0.020820 -0.014231 0.000000 -0.023949 0.000000
# 4 0.000000 0.000000 0.000000 -0.122860 0.000000 -0.050098
# 5 -0.012797 0.063863 -0.023949 0.000000 0.007572 0.000000
# 6 0.000000 0.000000 0.000000 -0.050098 0.000000 0.000716
#
#
# Mechanical properties :
#
#
# Convention : Reuss Voigt Hill
#
# Bulk Modulus (GPa) = -4.92232 -3.78396 -4.35314
# Shear Modulus (GPa) = -7.67140 18.07518 5.20189
#
# Velocity S-wave (km/s) = -2.03753 3.12758 1.67783
# Velocity P-wave (km/s) = 2.86343 3.31581 1.18224
#
# Compressibility (1/GPa) = -0.20315604
#
# Stress axis : x y z
#
# Youngs Moduli (GPa) = 286.50312 -3.07147 -70.26844
#
# Poissons Ratio (x) = 0.20017 -1.36398
# Poissons Ratio (y) = -18.67193 1.46301
# Poissons Ratio (z) = 5.56130 0.06395
#
# Static dielectric constant tensor:
#      x y z
#    x 1.678150 0.000000 -0.030200 
#    y 0.000000 1.618120 0.000000 
#    z -0.030200 0.000000 1.618180 
# 
# From -- ./inp_files/45119.got.cif
#   From: 2010.05.17/outbox.ucp.g08.bks.cvg/sg10_23_cif.got.tgz:45119.got - 2010.06.11 11:31:16.
