data_PCOD9155402
_publ_section_title
;
Structure prediction by ZEFSAII (Michael W. Deem and Ramdas Pophale) SiO2 
 PCOD9155402
Probable space group: P 2/M
;
_chemical_formula_sum "Si O2"
_cell_formula_units_Z 30
_cell_length_a 30.000000
_cell_length_b 9.000000
_cell_length_c 12.000000
_cell_angle_alpha 90.000000
_cell_angle_beta 30.000000
_cell_angle_gamma 90.000000
_cell_volume 1620.000000
_symmetry_space_group_name_H-M "P 2/M"
_symmetry_group_IT_number 10
_symmetry_cell_setting 'monoclinic'
loop_
_space_group_symop_operation_xyz
x,y,z
-x,y,-z
-x,-y,-z
x,-y,z
loop_
_atom_site_type_symbol
_atom_site_label
_atom_site_fract_x
_atom_site_fract_y
_atom_site_fract_z
Si Si1 0.723600 0.175300 0.305790
Si Si2 0.592138 0.326056 0.748214
Si Si3 0.744053 0.671763 0.608200
Si Si4 0.982372 0.838287 0.285389
Si Si5 0.228714 0.169091 0.235907
Si Si6 0.793694 0.667107 0.939752
Si Si7 0.869013 0.675299 0.149324
Si Si8 0.000000 0.251790 0.500000
O O1 0.633390 0.243590 0.552636
O O2 0.803834 0.237562 0.207889
O O3 0.719889 0.000000 0.321116
O O4 0.750497 0.227244 0.124976
O O5 0.579564 0.500000 0.747264
O O6 0.667271 0.317788 0.681701
O O7 0.500000 0.268709 0.000000
O O8 0.751347 0.500000 0.628648
O O9 0.723853 0.773766 0.756462
O O10 0.835776 0.713048 0.345303
O O11 0.876589 0.827021 0.507552
O O12 0.003752 0.828364 0.371614
O O13 0.012252 0.000000 0.179985
O O14 0.032891 0.716627 0.103319
O O15 0.238160 0.277182 0.111186
O O16 0.251808 0.000000 0.156563
O O17 0.765857 0.500000 0.024147
O O18 0.902522 0.671193 0.706656
O O19 0.853312 0.500000 0.169494
#
# Coordination Sequence:
#
# PCOD9155402 Si02
#       8
#     4   4   4   4   4   4   4   2
#     4  11  21  33  53  82 115 144 176 222 276 327
#     4   9  19  38  64  90 113 138 172 217 270 329
#     4   9  19  36  55  77 105 138 175 216 264 321
#     4  10  20  32  47  69 102 141 184 229 274 318
#     4  10  22  36  50  73 105 145 186 222 267 320
#     4  11  21  34  53  77 107 144 189 232 272 317
#     4  10  20  33  51  74 102 138 184 230 273 317
#     4  10  20  30  50  74 104 140 188 236 274 316
#
# _framework density 18.518519000000001
#
# number of rings (size 3 to 8) (size 9 to 14) (size 15 to 20)
#    0.000    2.000    1.333    3.600    0.000    7.200 
#    0.000    2.667    0.000    0.800    0.000    5.600 
#    0.000    0.000    0.000    0.000    0.000    0.000 
#
# Total GULP energy -167238.122902 kJ/mol
# GULP energy per Si atom -5574.604097 kJ/mol
# Density = 1.847637 g / cm^3
# Si number density = 18.518519 Si / 1000 Ang^3
#
#
#
# Elastic Constant Matrix: (Units=GPa)
#
#
# Indices 1 2 3 4 5 6 
#
# 1 33.0961 12.7175 4.9259 0.0000 16.4320 0.0000
# 2 12.7175 59.6810 17.4062 0.0000 10.9027 0.0000
# 3 4.9259 17.4062 67.4137 0.0000 12.2652 0.0000
# 4 0.0000 0.0000 0.0000 27.4871 0.0000 5.7659
# 5 16.4320 10.9027 12.2652 0.0000 13.6104 0.0000
# 6 0.0000 0.0000 0.0000 5.7659 0.0000 22.7264
#
#
#
# Elastic Compliance Matrix: (Units=1/GPa)
#
#
# Indices 1 2 3 4 5 6 
#
# 1 0.086887 -0.001538 0.015441 0.000000 -0.117584 0.000000
# 2 -0.001538 0.020056 -0.002967 0.000000 -0.011535 0.000000
# 3 0.015441 -0.002967 0.020849 0.000000 -0.035055 0.000000
# 4 0.000000 0.000000 0.000000 0.038426 0.000000 -0.009749
# 5 -0.117584 -0.011535 -0.035055 0.000000 0.256265 0.000000
# 6 0.000000 0.000000 0.000000 -0.009749 0.000000 0.046475
#
#
# Mechanical properties :
#
#
# Convention : Reuss Voigt Hill
#
# Bulk Modulus (GPa) = 6.68156 25.58777 16.13466
# Shear Modulus (GPa) = 10.06087 21.10754 15.58420
#
# Velocity S-wave (km/s) = 2.33338 3.37977 2.90409
# Velocity P-wave (km/s) = 3.29779 5.39238 4.46952
#
# Compressibility (1/GPa) = 0.14966562
#
# Stress axis : x y z
#
# Youngs Moduli (GPa) = 11.50915 49.85985 47.96280
#
# Poissons Ratio (x) = 0.07668 -0.74062
# Poissons Ratio (y) = 0.01770 0.14232
# Poissons Ratio (z) = -0.17772 0.14795
#
# Static dielectric constant tensor:
#      x y z
#    x 1.631920 0.000000 -0.002510 
#    y 0.000000 1.666130 0.000000 
#    z -0.002510 0.000000 1.635610 
# 
# From -- ./inp_files/58004.got.cif
#   From: 2010.05.17/outbox.ucp.g08.bks.cvg/sg10_30_cif.got.tgz:58004.got - 2010.06.11 11:31:16.
