data_PCOD9155421
_publ_section_title
;
Structure prediction by ZEFSAII (Michael W. Deem and Ramdas Pophale) SiO2 
 PCOD9155421
Probable space group: P 2/M
;
_chemical_formula_sum "Si O2"
_cell_formula_units_Z 32
_cell_length_a 21.000000
_cell_length_b 9.000000
_cell_length_c 27.000000
_cell_angle_alpha 90.000000
_cell_angle_beta 160.000000
_cell_angle_gamma 90.000000
_cell_volume 1745.328791
_symmetry_space_group_name_H-M "P 2/M"
_symmetry_group_IT_number 10
_symmetry_cell_setting 'monoclinic'
loop_
_space_group_symop_operation_xyz
x,y,z
-x,y,-z
-x,-y,-z
x,-y,z
loop_
_atom_site_type_symbol
_atom_site_label
_atom_site_fract_x
_atom_site_fract_y
_atom_site_fract_z
Si Si1 0.969001 0.677758 0.734119
Si Si2 0.642264 0.321525 0.147295
Si Si3 0.617047 0.678945 0.950392
Si Si4 0.428773 0.177800 0.719781
Si Si5 0.204677 0.171342 0.302122
Si Si6 0.011580 0.821759 0.450938
Si Si7 0.597005 0.677835 0.405042
Si Si8 0.596240 0.828045 0.647948
O O1 0.962413 0.500000 0.727144
O O2 0.923279 0.730418 0.756440
O O3 0.801785 0.729492 0.575555
O O4 0.181669 0.724382 0.880309
O O5 0.662079 0.500000 0.157726
O O6 0.541561 0.285156 0.125549
O O7 0.846095 0.250274 0.298166
O O8 0.500000 0.273970 0.000000
O O9 0.620014 0.500000 0.946114
O O10 0.566285 0.755281 0.861560
O O11 0.451402 0.247159 0.682180
O O12 0.216798 0.214278 0.581276
O O13 0.448435 0.000000 0.732657
O O14 0.247052 0.220785 0.276974
O O15 0.403523 0.171791 0.475821
O O16 0.140312 0.000000 0.253908
O O17 0.000000 0.772941 0.500000
O O18 0.988559 0.000000 0.433041
O O19 0.601036 0.500000 0.403305
O O20 0.447262 0.727607 0.336852
O O21 0.632000 0.000000 0.688173
#
# Coordination Sequence:
#
# PCOD9155421 Si02
#       8
#     4   4   4   4   4   4   4   4
#     4   9  19  33  51  77 110 141 173 217 265 314
#     4  10  22  37  58  84 108 138 175 217 264 315
#     4  10  21  38  55  76 107 142 177 215 263 316
#     4  11  23  38  56  77 104 141 180 220 265 313
#     4   8  14  26  47  74 104 140 177 213 257 308
#     4  10  21  39  58  78 106 137 176 222 264 312
#     4  10  20  33  53  81 109 140 176 218 264 313
#     4   8  14  27  47  73 107 140 173 216 259 305
#
# _framework density 18.334654
#
# number of rings (size 3 to 8) (size 9 to 14) (size 15 to 20)
#    0.000    2.500    1.250    1.500    1.750    3.000 
#    0.000    2.500    0.000    0.750    0.000    5.250 
#    0.000    0.000    0.000    0.000    0.000    0.000 
#
# Total GULP energy -178393.190456 kJ/mol
# GULP energy per Si atom -5574.787202 kJ/mol
# Density = 1.829292 g / cm^3
# Si number density = 18.334654 Si / 1000 Ang^3
#
#
#
# Elastic Constant Matrix: (Units=GPa)
#
#
# Indices 1 2 3 4 5 6 
#
# 1 61.5299 13.9049 -7.6267 0.0000 -25.3252 0.0000
# 2 13.9049 10.9128 2.5236 0.0000 -8.7617 0.0000
# 3 -7.6267 2.5236 35.7427 0.0000 -18.7142 0.0000
# 4 0.0000 0.0000 0.0000 21.1951 0.0000 1.6354
# 5 -25.3252 -8.7617 -18.7142 0.0000 26.8189 0.0000
# 6 0.0000 0.0000 0.0000 1.6354 0.0000 21.2950
#
#
#
# Elastic Compliance Matrix: (Units=1/GPa)
#
#
# Indices 1 2 3 4 5 6 
#
# 1 0.110535 -0.024038 0.119471 0.000000 0.179892 0.000000
# 2 -0.024038 0.138880 -0.004828 0.000000 0.019304 0.000000
# 3 0.119471 -0.004828 0.176562 0.000000 0.234444 0.000000
# 4 0.000000 0.000000 0.000000 0.047462 0.000000 -0.003645
# 5 0.179892 0.019304 0.234444 0.000000 0.377061 0.000000
# 6 0.000000 0.000000 0.000000 -0.003645 0.000000 0.047239
#
#
# Mechanical properties :
#
#
# Convention : Reuss Voigt Hill
#
# Bulk Modulus (GPa) = 1.64694 13.97657 7.81175
# Shear Modulus (GPa) = 5.44115 20.48737 12.96426
#
# Velocity S-wave (km/s) = 1.72457 3.34640 2.66200
# Velocity P-wave (km/s) = 2.20584 4.75087 3.70381
#
# Compressibility (1/GPa) = 0.60718692
#
# Stress axis : x y z
#
# Youngs Moduli (GPa) = 9.04690 7.20048 5.66375
#
# Poissons Ratio (x) = 0.17308 -0.67665
# Poissons Ratio (y) = 0.21747 0.02734
# Poissons Ratio (z) = -1.08084 0.03476
#
# Static dielectric constant tensor:
#      x y z
#    x 1.649480 0.000000 0.017850 
#    y 0.000000 1.612860 0.000000 
#    z 0.017850 0.000000 1.621970 
# 
# From -- ./inp_files/93622.got.cif
#   From: 2010.05.17/outbox.ucp.g08.bks.cvg/sg10_47_cif.got.tgz:93622.got - 2010.06.11 11:31:16.
