data_PCOD9155133
_publ_section_title
;
Structure prediction by ZEFSAII (Michael W. Deem and Ramdas Pophale) SiO2 
 PCOD9155133
Probable space group: P 2/M
;
_chemical_formula_sum "Si O2"
_cell_formula_units_Z 24
_cell_length_a 18.000000
_cell_length_b 9.000000
_cell_length_c 24.000000
_cell_angle_alpha 90.000000
_cell_angle_beta 20.000000
_cell_angle_gamma 90.000000
_cell_volume 1329.774317
_symmetry_space_group_name_H-M "P 2/M"
_symmetry_group_IT_number 10
_symmetry_cell_setting 'monoclinic'
loop_
_space_group_symop_operation_xyz
x,y,z
-x,y,-z
-x,-y,-z
x,-y,z
loop_
_atom_site_type_symbol
_atom_site_label
_atom_site_fract_x
_atom_site_fract_y
_atom_site_fract_z
Si Si1 0.341642 0.670264 0.165857
Si Si2 0.754192 0.320908 0.938820
Si Si3 0.366142 0.819310 0.648373
Si Si4 0.500666 0.819368 0.675943
Si Si5 0.867903 0.820091 0.976645
Si Si6 0.992474 0.177664 0.343388
O O1 0.272079 0.500000 0.223913
O O2 0.503695 0.718934 0.100514
O O3 0.138792 0.770063 0.292122
O O4 0.500000 0.670457 0.000000
O O5 0.769811 0.500000 0.925958
O O6 0.819149 0.255429 0.952191
O O7 0.905370 0.252388 0.783854
O O8 0.500000 0.766935 0.500000
O O9 0.460595 0.767709 0.640888
O O10 0.380116 0.000000 0.638460
O O11 0.112500 0.781942 0.822508
O O12 0.309326 0.773389 0.852487
O O13 0.741454 0.777122 0.525712
O O14 0.494163 0.000000 0.679329
O O15 0.857409 0.000000 0.978101
O O16 0.004936 0.000000 0.328504
#
# Coordination Sequence:
#
# PCOD9155133 Si02
#       6
#     4   4   4   4   4   4
#     4   8  16  31  49  70  98 131 166 206 251 295
#     4  10  20  34  51  72 101 134 168 208 251 296
#     4   9  16  28  50  78 103 128 162 204 248 295
#     4   9  18  31  48  76 108 132 160 202 252 300
#     4  10  19  32  52  75 101 134 168 204 246 293
#     4  10  18  30  52  78 101 128 166 210 250 293
#
# _framework density 18.048175000000001
#
# number of rings (size 3 to 8) (size 9 to 14) (size 15 to 20)
#    0.000    2.667    0.000    3.500    0.000    8.333 
#    0.000    2.500    0.000   12.500    0.000    0.000 
#    0.000    0.000    0.000    0.000    0.000    0.000 
#
# Total GULP energy -133812.252148 kJ/mol
# GULP energy per Si atom -5575.510506 kJ/mol
# Density = 1.800710 g / cm^3
# Si number density = 18.048175 Si / 1000 Ang^3
#
#
#
# Elastic Constant Matrix: (Units=GPa)
#
#
# Indices 1 2 3 4 5 6 
#
# 1 16.4025 12.0696 28.1214 0.0000 -28.1644 0.0000
# 2 12.0696 26.7717 28.1677 0.0000 -10.8132 0.0000
# 3 28.1214 28.1677 132.5972 0.0000 -20.2458 0.0000
# 4 0.0000 0.0000 0.0000 -8.7533 0.0000 1.2677
# 5 -28.1644 -10.8132 -20.2458 0.0000 29.3522 0.0000
# 6 0.0000 0.0000 0.0000 1.2677 0.0000 16.6847
#
#
#
# Elastic Compliance Matrix: (Units=1/GPa)
#
#
# Indices 1 2 3 4 5 6 
#
# 1 -0.088802 0.000816 0.006366 0.000000 -0.080517 0.000000
# 2 0.000816 0.052149 -0.009163 0.000000 0.013674 0.000000
# 3 0.006366 -0.009163 0.009562 0.000000 0.009328 0.000000
# 4 0.000000 0.000000 0.000000 -0.112999 0.000000 0.008586
# 5 -0.080517 0.013674 0.009328 0.000000 -0.031718 0.000000
# 6 0.000000 0.000000 0.000000 0.008586 0.000000 0.059283
#
#
# Mechanical properties :
#
#
# Convention : Reuss Voigt Hill
#
# Bulk Modulus (GPa) = -32.20291 34.72097 1.25903
# Shear Modulus (GPa) = -42.04766 14.61754 -13.71506
#
# Velocity S-wave (km/s) = -4.83198 2.84899 -2.75964
# Velocity P-wave (km/s) = 7.00087 5.48653 3.07491
#
# Compressibility (1/GPa) = -0.03105309
#
# Stress axis : x y z
#
# Youngs Moduli (GPa) = -11.26098 19.17573 104.57618
#
# Poissons Ratio (x) = -0.01565 -0.66574
# Poissons Ratio (y) = 0.00919 0.95826
# Poissons Ratio (z) = 0.07169 0.17571
#
# Static dielectric constant tensor:
#      x y z
#    x 1.617800 0.000000 -0.018530 
#    y 0.000000 1.603330 0.000000 
#    z -0.018530 0.000000 1.610640 
# 
# From -- ./inp_files/33441.got.cif
#   From: 2010.05.17/outbox.ucp.g08.bks.cvg/sg10_17_cif.got.tgz:33441.got - 2010.06.11 11:31:16.
