data_PCOD9155881
_publ_section_title
;
Structure prediction by ZEFSAII (Michael W. Deem and Ramdas Pophale) SiO2 
 PCOD9155881
Probable space group: P 21/M
;
_chemical_formula_sum "Si O2"
_cell_formula_units_Z 28
_cell_length_a 14.636172
_cell_length_b 8.670333
_cell_length_c 29.856890
_cell_angle_alpha 90.000000
_cell_angle_beta 151.105235
_cell_angle_gamma 90.000000
_cell_volume 1830.783230
_symmetry_space_group_name_H-M "P 21/M"
_symmetry_group_IT_number 11
_symmetry_cell_setting 'monoclinic'
loop_
_space_group_symop_operation_xyz
x,y,z
-x,1/2+y,-z
-x,-y,-z
x,1/2-y,z
loop_
_atom_site_type_symbol
_atom_site_label
_atom_site_fract_x
_atom_site_fract_y
_atom_site_fract_z
Si Si1 0.194054 0.935502 0.563850
Si Si2 0.710839 0.435159 0.582721
Si Si3 0.768791 0.435222 0.705584
Si Si4 0.071681 0.065840 0.137849
Si Si5 0.324747 0.434861 0.525771
Si Si6 0.577694 0.562880 0.774937
Si Si7 0.836410 0.564991 0.962368
O O1 0.190103 0.750000 0.562480
O O2 0.373623 0.989378 0.670777
O O3 0.232594 0.993860 0.530207
O O4 0.000000 0.000000 0.500000
O O5 0.500000 0.500000 0.500000
O O6 0.704080 0.250000 0.576659
O O7 0.815710 0.476155 0.674143
O O8 0.770698 0.505337 0.561031
O O9 0.778441 0.250000 0.713711
O O10 0.898039 0.510400 0.798745
O O11 0.548432 0.479582 0.620038
O O12 0.065671 0.250000 0.133218
O O13 0.258736 0.013368 0.189968
O O14 0.890006 0.999822 0.033835
O O15 0.316090 0.250000 0.523378
O O16 0.576843 0.750000 0.773323
O O17 0.645564 0.518857 0.854016
O O18 0.846507 0.750000 0.967737
O O19 0.000000 0.500000 0.000000
#
# Coordination Sequence:
#
# PCOD9155881 Si02
#       7
#     4   4   4   4   4   4   4
#     4  11  21  34  48  65  87 116 153 193 227 263
#     4   9  17  28  42  62  86 115 148 182 220 263
#     4   9  17  27  41  63  89 116 148 180 213 259
#     4  10  17  26  41  63  87 117 147 175 216 261
#     4  10  19  31  45  63  85 115 151 186 227 266
#     4   8  16  29  43  58  81 113 146 180 222 261
#     4   9  16  27  41  60  82 110 144 178 216 261
#
# _framework density 15.294
#
# number of rings (size 3 to 8) (size 9 to 14) (size 15 to 20)
#    0.000    2.571    1.429    3.857    0.000    2.857 
#    0.000    2.143    0.000    0.000    0.000    0.000 
#    0.000    1.143    0.000    3.429    0.000    4.571 
#
# Total GULP energy -155902.576642 kJ/mol
# GULP energy per Si atom -5567.949166 kJ/mol
# Density = 1.525919 g / cm^3
# Si number density = 15.294000 Si / 1000 Ang^3
#
#
#
# Elastic Constant Matrix: (Units=GPa)
#
#
# Indices 1 2 3 4 5 6 
#
# 1 80.4586 31.2468 67.3064 0.0000 -25.6886 0.0000
# 2 31.2468 44.3642 33.7224 0.0000 -14.6165 0.0000
# 3 67.3064 33.7224 114.8842 0.0000 -36.8100 0.0000
# 4 0.0000 0.0000 0.0000 20.4313 0.0000 -6.4820
# 5 -25.6886 -14.6165 -36.8100 0.0000 31.2057 0.0000
# 6 0.0000 0.0000 0.0000 -6.4820 0.0000 22.2126
#
#
#
# Elastic Compliance Matrix: (Units=1/GPa)
#
#
# Indices 1 2 3 4 5 6 
#
# 1 0.027198 -0.008615 -0.012096 0.000000 0.004085 0.000000
# 2 -0.008615 0.032388 -0.003008 0.000000 0.004529 0.000000
# 3 -0.012096 -0.003008 0.020951 0.000000 0.013346 0.000000
# 4 0.000000 0.000000 0.000000 0.053938 0.000000 0.015740
# 5 0.004085 0.004529 0.013346 0.000000 0.053273 0.000000
# 6 0.000000 0.000000 0.000000 0.015740 0.000000 0.049613
#
#
# Mechanical properties :
#
#
# Convention : Reuss Voigt Hill
#
# Bulk Modulus (GPa) = 30.21500 56.02868 43.12184
# Shear Modulus (GPa) = 16.90147 21.93202 19.41675
#
# Velocity S-wave (km/s) = 3.32792 3.79096 3.56696
# Velocity P-wave (km/s) = 5.87926 7.47501 6.72464
#
# Compressibility (1/GPa) = 0.03309615
#
# Stress axis : x y z
#
# Youngs Moduli (GPa) = 36.76738 30.87603 47.73137
#
# Poissons Ratio (x) = 0.26601 0.57738
# Poissons Ratio (y) = 0.31677 0.14358
# Poissons Ratio (z) = 0.44476 0.09288
#
# Static dielectric constant tensor:
#      x y z
#    x 1.487910 0.000000 -0.041760 
#    y 0.000000 1.512690 0.000000 
#    z -0.041760 0.000000 1.533830 
# 
# From -- ./inp_files/50977.got.cif
#   From: 2010.05.17/outbox.cif.g08.bks.cpg/sg11_26_cif.got.tgz:50977.got - 2010.06.03 12:22:45.
