data_PCOD9155309
_publ_section_title
;
Structure prediction by ZEFSAII (Michael W. Deem and Ramdas Pophale) SiO2 
 PCOD9155309
Probable space group: P 2/M
;
_chemical_formula_sum "Si O2"
_cell_formula_units_Z 28
_cell_length_a 9.000000
_cell_length_b 9.000000
_cell_length_c 27.000000
_cell_angle_alpha 90.000000
_cell_angle_beta 40.000000
_cell_angle_gamma 90.000000
_cell_volume 1405.776502
_symmetry_space_group_name_H-M "P 2/M"
_symmetry_group_IT_number 10
_symmetry_cell_setting 'monoclinic'
loop_
_space_group_symop_operation_xyz
x,y,z
-x,y,-z
-x,-y,-z
x,-y,z
loop_
_atom_site_type_symbol
_atom_site_label
_atom_site_fract_x
_atom_site_fract_y
_atom_site_fract_z
Si Si1 0.528519 0.329222 0.918715
Si Si2 0.971968 0.330923 0.214310
Si Si3 0.779458 0.821733 0.666937
Si Si4 0.417836 0.672160 0.832622
Si Si5 0.726470 0.677991 0.474750
Si Si6 0.461237 0.679910 0.367654
Si Si7 0.946890 0.329965 0.921119
O O1 0.576376 0.500000 0.925226
O O2 0.778378 0.252594 0.847539
O O3 0.449009 0.337298 0.882888
O O4 0.312497 0.268491 0.005859
O O5 0.996011 0.500000 0.229023
O O6 0.955675 0.339072 0.159258
O O7 0.732389 0.272288 0.297546
O O8 0.618302 0.757533 0.752148
O O9 0.669052 0.758593 0.644177
O O10 0.042339 0.761224 0.601609
O O11 0.776717 0.000000 0.668042
O O12 0.416984 0.500000 0.813917
O O13 0.163419 0.743805 0.892214
O O14 0.500000 0.713920 0.500000
O O15 0.766697 0.500000 0.460298
O O16 0.661587 0.710226 0.548604
O O17 0.459213 0.500000 0.360543
O O18 0.923331 0.500000 0.946488
#
# Coordination Sequence:
#
# PCOD9155309 Si02
#       7
#     4   4   4   4   4   4   4
#     4   9  17  26  47  82 117 146 179 233 293 338
#     4   9  16  27  48  81 115 144 177 227 283 337
#     4  12  25  40  59  83 116 156 197 232 279 336
#     4  10  19  33  55  81 113 148 191 238 282 333
#     4  10  23  41  66  94 118 143 180 231 288 346
#     4  10  20  38  62  88 115 148 191 233 280 337
#     4   9  15  27  47  78 115 147 181 229 288 339
#
# _framework density 19.917818
#
# number of rings (size 3 to 8) (size 9 to 14) (size 15 to 20)
#    0.000    2.143    1.429    2.571    2.000    6.000 
#    0.000    0.000    0.000    1.714    0.000    1.000 
#    0.000    0.000    0.000    0.000    0.000    0.000 
#
# Total GULP energy -155940.580623 kJ/mol
# GULP energy per Si atom -5569.306451 kJ/mol
# Density = 1.987248 g / cm^3
# Si number density = 19.917818 Si / 1000 Ang^3
#
#
#
# Elastic Constant Matrix: (Units=GPa)
#
#
# Indices 1 2 3 4 5 6 
#
# 1 38.4021 0.8093 21.3686 0.0000 -16.9432 0.0000
# 2 0.8093 34.5707 27.5408 0.0000 -6.3616 0.0000
# 3 21.3686 27.5408 116.1398 0.0000 -32.5206 0.0000
# 4 0.0000 0.0000 0.0000 8.0510 0.0000 0.4608
# 5 -16.9432 -6.3616 -32.5206 0.0000 44.9980 0.0000
# 6 0.0000 0.0000 0.0000 0.4608 0.0000 1.1882
#
#
#
# Elastic Compliance Matrix: (Units=1/GPa)
#
#
# Indices 1 2 3 4 5 6 
#
# 1 0.032685 0.004491 -0.004331 0.000000 0.009811 0.000000
# 2 0.004491 0.036345 -0.009444 0.000000 0.000004 0.000000
# 3 -0.004331 -0.009444 0.013560 0.000000 0.006834 0.000000
# 4 0.000000 0.000000 0.000000 0.127027 0.000000 -0.049259
# 5 0.009811 0.000004 0.006834 0.000000 0.030857 0.000000
# 6 0.000000 0.000000 0.000000 -0.049259 0.000000 0.860689
#
#
# Mechanical properties :
#
#
# Convention : Reuss Voigt Hill
#
# Bulk Modulus (GPa) = 15.61970 32.06111 23.84041
# Shear Modulus (GPa) = 4.38184 20.14038 12.26111
#
# Velocity S-wave (km/s) = 1.48484 3.18335 2.48379
# Velocity P-wave (km/s) = 3.28615 5.44456 4.49678
#
# Compressibility (1/GPa) = 0.06402170
#
# Stress axis : x y z
#
# Youngs Moduli (GPa) = 30.59549 27.51388 73.74440
#
# Poissons Ratio (x) = -0.12356 0.31940
# Poissons Ratio (y) = -0.13740 0.69643
# Poissons Ratio (z) = 0.13252 0.25984
#
# Static dielectric constant tensor:
#      x y z
#    x 1.844810 0.000000 -0.044400 
#    y 0.000000 1.675880 0.000000 
#    z -0.044400 0.000000 1.697640 
# 
# From -- ./inp_files/91967.got.cif
#   From: 2010.05.17/outbox.ucp.g08.bks.cvg/sg10_46_cif.got.tgz:91967.got - 2010.06.11 11:31:16.
