data_PCOD9155905
_publ_section_title
;
Structure prediction by ZEFSAII (Michael W. Deem and Ramdas Pophale) SiO2 
 PCOD9155905
Probable space group: P 21/M
;
_chemical_formula_sum "Si O2"
_cell_formula_units_Z 32
_cell_length_a 21.283367
_cell_length_b 8.712316
_cell_length_c 29.036407
_cell_angle_alpha 90.000000
_cell_angle_beta 22.691331
_cell_angle_gamma 90.000000
_cell_volume 2077.022919
_symmetry_space_group_name_H-M "P 21/M"
_symmetry_group_IT_number 11
_symmetry_cell_setting 'monoclinic'
loop_
_space_group_symop_operation_xyz
x,y,z
-x,1/2+y,-z
-x,-y,-z
x,1/2-y,z
loop_
_atom_site_type_symbol
_atom_site_label
_atom_site_fract_x
_atom_site_fract_y
_atom_site_fract_z
Si Si1 0.297410 0.434742 0.441730
Si Si2 0.497987 0.070348 0.388392
Si Si3 0.674286 0.433937 0.868763
Si Si4 0.661147 0.064338 0.365789
Si Si5 0.842651 0.570712 0.323888
Si Si6 0.834633 0.065653 0.664405
Si Si7 0.803171 0.432547 0.582465
Si Si8 0.012336 0.067162 0.293813
O O1 0.290931 0.250000 0.448823
O O2 0.445984 0.492447 0.373743
O O3 0.301090 0.487418 0.386670
O O4 0.130850 0.498651 0.576973
O O5 0.534980 0.250000 0.356686
O O6 0.637271 0.010829 0.328861
O O7 0.329017 0.060737 0.531803
O O8 0.674111 0.250000 0.872932
O O9 0.722368 0.473348 0.783538
O O10 0.816908 0.502029 0.804090
O O11 0.500000 0.500000 0.000000
O O12 0.658394 0.250000 0.368959
O O13 0.500000 0.000000 0.500000
O O14 0.808614 0.002219 0.296999
O O15 0.882271 0.750000 0.293055
O O16 0.970074 0.485407 0.270498
O O17 0.863613 0.250000 0.645416
O O18 0.763152 0.026737 0.662483
O O19 0.009083 0.984122 0.551111
O O20 0.791653 0.250000 0.584805
O O21 0.009177 0.250000 0.299334
#
# Coordination Sequence:
#
# PCOD9155905 Si02
#       8
#     4   4   4   4   4   4   4   4
#     4  10  17  27  41  60  86 116 143 177 221 258
#     4   7  13  22  33  49  74 106 139 169 205 249
#     4  11  22  36  51  66  87 115 145 183 228 269
#     4   9  14  22  34  50  72 103 141 177 209 249
#     4   9  16  26  38  53  75 105 137 176 218 255
#     4   9  19  33  47  63  86 114 142 178 224 265
#     4  10  18  28  45  67  87 111 146 182 216 261
#     4  11  20  30  44  63  82 107 145 184 217 262
#
# _framework density 15.406667000000001
#
# number of rings (size 3 to 8) (size 9 to 14) (size 15 to 20)
#    0.000    2.500    1.250    4.500    0.000    1.000 
#    0.000    1.875    0.000    0.000    0.000    0.000 
#    0.000    0.000    0.000    1.125    0.000   13.625 
#
# Total GULP energy -178150.342517 kJ/mol
# GULP energy per Si atom -5567.198204 kJ/mol
# Density = 1.537160 g / cm^3
# Si number density = 15.406667 Si / 1000 Ang^3
#
#
#
# Elastic Constant Matrix: (Units=GPa)
#
#
# Indices 1 2 3 4 5 6 
#
# 1 176.1614 50.8151 39.1454 0.0000 -14.8257 0.0000
# 2 50.8151 63.6921 21.2183 0.0000 -1.5022 0.0000
# 3 39.1454 21.2183 39.3326 0.0000 0.0194 0.0000
# 4 0.0000 0.0000 0.0000 12.8601 0.0000 -3.2682
# 5 -14.8257 -1.5022 0.0194 0.0000 10.4216 0.0000
# 6 0.0000 0.0000 0.0000 -3.2682 0.0000 27.5167
#
#
#
# Elastic Compliance Matrix: (Units=1/GPa)
#
#
# Indices 1 2 3 4 5 6 
#
# 1 0.009855 -0.005217 -0.007000 0.000000 0.013280 0.000000
# 2 -0.005217 0.021983 -0.006665 0.000000 -0.004241 0.000000
# 3 -0.007000 -0.006665 0.035991 0.000000 -0.010986 0.000000
# 4 0.000000 0.000000 0.000000 0.080180 0.000000 0.009523
# 5 0.013280 -0.004241 -0.010986 0.000000 0.114256 0.000000
# 6 0.000000 0.000000 0.000000 0.009523 0.000000 0.037473
#
#
# Mechanical properties :
#
#
# Convention : Reuss Voigt Hill
#
# Bulk Modulus (GPa) = 33.26013 55.72708 44.49360
# Shear Modulus (GPa) = 14.38753 21.36017 17.87385
#
# Velocity S-wave (km/s) = 3.05921 3.72751 3.40977
# Velocity P-wave (km/s) = 5.84067 7.40102 6.66665
#
# Compressibility (1/GPa) = 0.03006603
#
# Stress axis : x y z
#
# Youngs Moduli (GPa) = 101.47480 45.48944 27.78436
#
# Poissons Ratio (x) = 0.23732 0.19449
# Poissons Ratio (y) = 0.52941 0.18517
# Poissons Ratio (z) = 0.71031 0.30317
#
# Static dielectric constant tensor:
#      x y z
#    x 1.584410 0.000000 -0.010840 
#    y 0.000000 1.525530 0.000000 
#    z -0.010840 0.000000 1.469290 
# 
# From -- ./inp_files/73611.got.cif
#   From: 2010.05.17/outbox.cif.g08.bks.cpg/sg11_37_cif.got.tgz:73611.got - 2010.06.03 12:22:45.
