data_PCOD9155359
_publ_section_title
;
Structure prediction by ZEFSAII (Michael W. Deem and Ramdas Pophale) SiO2 
 PCOD9155359
Probable space group: P 2/M
;
_chemical_formula_sum "Si O2"
_cell_formula_units_Z 28
_cell_length_a 12.000000
_cell_length_b 9.000000
_cell_length_c 15.000000
_cell_angle_alpha 90.000000
_cell_angle_beta 120.000000
_cell_angle_gamma 90.000000
_cell_volume 1402.961154
_symmetry_space_group_name_H-M "P 2/M"
_symmetry_group_IT_number 10
_symmetry_cell_setting 'monoclinic'
loop_
_space_group_symop_operation_xyz
x,y,z
-x,y,-z
-x,-y,-z
x,-y,z
loop_
_atom_site_type_symbol
_atom_site_label
_atom_site_fract_x
_atom_site_fract_y
_atom_site_fract_z
Si Si1 0.858947 0.823919 0.155078
Si Si2 0.340904 0.322322 0.274981
Si Si3 0.409923 0.822489 0.686329
Si Si4 0.410278 0.180688 0.884362
Si Si5 0.150118 0.674138 0.033407
Si Si6 0.858343 0.329088 0.466426
Si Si7 0.877952 0.330568 0.685381
O O1 0.737183 0.770609 0.163530
O O2 0.993149 0.754352 0.237817
O O3 0.868411 0.000000 0.166401
O O4 0.826732 0.777073 0.041759
O O5 0.361755 0.500000 0.288111
O O6 0.478506 0.244377 0.330057
O O7 0.250413 0.292930 0.152403
O O8 0.249830 0.271302 0.319031
O O9 0.454891 0.778600 0.804134
O O10 0.267192 0.758727 0.614874
O O11 0.405521 0.000000 0.677715
O O12 0.410313 0.000000 0.889394
O O13 0.500000 0.236185 0.000000
O O14 0.164808 0.500000 0.015440
O O15 0.000000 0.694672 0.000000
O O16 0.853053 0.500000 0.429933
O O17 0.856698 0.333134 0.572282
O O18 0.000000 0.266592 0.500000
O O19 0.895194 0.500000 0.725838
#
# Coordination Sequence:
#
# PCOD9155359 Si02
#       7
#     4   4   4   4   4   4   4
#     4  11  21  33  56  87 116 148 192 242 287 341
#     4  10  21  38  59  82 114 155 196 235 281 345
#     4  11  23  39  61  86 118 154 188 238 296 345
#     4   9  19  36  55  79 115 154 187 225 283 347
#     4  10  19  35  56  80 116 158 195 232 281 339
#     4  10  22  41  65  89 113 147 195 244 287 344
#     4  10  21  39  60  82 113 153 191 235 291 344
#
# _framework density 19.957787
#
# number of rings (size 3 to 8) (size 9 to 14) (size 15 to 20)
#    0.000    1.857    1.429    2.571    0.000    4.000 
#    0.000    5.000    0.000    5.143    0.000    0.000 
#    0.000    0.000    0.000    0.000    0.000    0.000 
#
# Total GULP energy -156290.286998 kJ/mol
# GULP energy per Si atom -5581.795964 kJ/mol
# Density = 1.991236 g / cm^3
# Si number density = 19.957787 Si / 1000 Ang^3
#
#
#
# Elastic Constant Matrix: (Units=GPa)
#
#
# Indices 1 2 3 4 5 6 
#
# 1 144.4307 33.5209 41.9582 0.0000 21.0970 0.0000
# 2 33.5209 34.1093 20.9606 0.0000 10.2069 0.0000
# 3 41.9582 20.9606 61.2633 0.0000 12.6014 0.0000
# 4 0.0000 0.0000 0.0000 21.5065 0.0000 10.9957
# 5 21.0970 10.2069 12.6014 0.0000 28.9079 0.0000
# 6 0.0000 0.0000 0.0000 10.9957 0.0000 18.4378
#
#
#
# Elastic Compliance Matrix: (Units=1/GPa)
#
#
# Indices 1 2 3 4 5 6 
#
# 1 0.010068 -0.006435 -0.004009 0.000000 -0.003328 0.000000
# 2 -0.006435 0.043149 -0.008995 0.000000 -0.006618 0.000000
# 3 -0.004009 -0.008995 0.022949 0.000000 -0.003902 0.000000
# 4 0.000000 0.000000 0.000000 0.066894 0.000000 -0.039893
# 5 -0.003328 -0.006618 -0.003902 0.000000 0.041059 0.000000
# 6 0.000000 0.000000 0.000000 -0.039893 0.000000 0.078027
#
#
# Mechanical properties :
#
#
# Convention : Reuss Voigt Hill
#
# Bulk Modulus (GPa) = 26.81785 48.07586 37.44686
# Shear Modulus (GPa) = 15.95137 23.32803 19.63970
#
# Velocity S-wave (km/s) = 2.83018 3.42258 3.14038
# Velocity P-wave (km/s) = 4.91389 6.30554 5.65270
#
# Compressibility (1/GPa) = 0.03728860
#
# Stress axis : x y z
#
# Youngs Moduli (GPa) = 99.32446 23.17547 43.57508
#
# Poissons Ratio (x) = 0.14913 0.17471
# Poissons Ratio (y) = 0.63912 0.39194
# Poissons Ratio (z) = 0.39822 0.20846
#
# Static dielectric constant tensor:
#      x y z
#    x 1.741370 0.000000 -0.040930 
#    y 0.000000 1.684560 0.000000 
#    z -0.040930 0.000000 1.690370 
# 
# From -- ./inp_files/63917.got.cif
#   From: 2010.05.17/outbox.ucp.g08.bks.cvg/sg10_32_cif.got.tgz:63917.got - 2010.06.11 11:31:16.
