data_PCOD9155795
_publ_section_title
;
Structure prediction by ZEFSAII (Michael W. Deem and Ramdas Pophale) SiO2 
 PCOD9155795
Probable space group: P 21/M
;
_chemical_formula_sum "Si O2"
_cell_formula_units_Z 28
_cell_length_a 12.394650
_cell_length_b 19.550825
_cell_length_c 13.132792
_cell_angle_alpha 90.000000
_cell_angle_beta 32.512213
_cell_angle_gamma 90.000000
_cell_volume 1710.480873
_symmetry_space_group_name_H-M "P 21/M"
_symmetry_group_IT_number 11
_symmetry_cell_setting 'monoclinic'
loop_
_space_group_symop_operation_xyz
x,y,z
-x,1/2+y,-z
-x,-y,-z
x,1/2-y,z
loop_
_atom_site_type_symbol
_atom_site_label
_atom_site_fract_x
_atom_site_fract_y
_atom_site_fract_z
Si Si1 0.737485 0.956799 0.909517
Si Si2 0.218150 0.830609 0.061007
Si Si3 0.908097 0.564843 0.378275
Si Si4 0.196802 0.068756 0.924018
Si Si5 0.209192 0.592743 0.860480
Si Si6 0.588650 0.921908 0.813591
Si Si7 0.402737 0.073998 0.557372
O O1 0.692856 0.917721 0.840685
O O2 0.745762 0.913825 0.006937
O O3 0.945607 0.999207 0.734711
O O4 0.558819 0.012198 0.065968
O O5 0.204354 0.750000 0.080780
O O6 0.056891 0.870245 0.259061
O O7 0.171127 0.857061 0.984307
O O8 0.439892 0.859083 0.909653
O O9 0.751417 0.567977 0.595322
O O10 0.781378 0.565604 0.374079
O O11 0.328325 0.098652 0.726606
O O12 0.218308 0.985413 0.897506
O O13 0.969766 0.088880 0.077913
O O14 0.418267 0.612937 0.641482
O O15 0.500000 0.000000 0.500000
#
# Coordination Sequence:
#
# PCOD9155795 Si02
#       7
#     4   4   4   4   4   4   4
#     4  10  19  31  51  78 107 135 161 204 265 318
#     4  11  22  36  52  72 103 141 179 213 244 292
#     4  11  18  33  49  78 108 131 169 209 258 305
#     4  10  16  29  49  76 107 130 157 205 261 310
#     4  10  17  31  47  75 105 132 166 206 253 301
#     4  10  20  34  50  74 106 135 171 211 253 302
#     4  10  17  25  50  76 107 135 156 200 261 314
#
# _framework density 16.369665999999999
#
# number of rings (size 3 to 8) (size 9 to 14) (size 15 to 20)
#    0.000    1.714    5.714    3.000    0.000    0.571 
#    0.000    0.000    0.000    0.857    0.000    2.000 
#    0.000    0.000    0.000    0.000    0.000    0.000 
#
# Total GULP energy -156077.446110 kJ/mol
# GULP energy per Si atom -5574.194504 kJ/mol
# Density = 1.633241 g / cm^3
# Si number density = 16.369666 Si / 1000 Ang^3
#
#
#
# Elastic Constant Matrix: (Units=GPa)
#
#
# Indices 1 2 3 4 5 6 
#
# 1 129.7996 15.0013 47.9514 0.0000 14.1668 0.0000
# 2 15.0013 33.9939 13.3086 0.0000 0.5247 0.0000
# 3 47.9514 13.3086 114.9838 0.0000 -2.4531 0.0000
# 4 0.0000 0.0000 0.0000 5.7678 0.0000 1.7901
# 5 14.1668 0.5247 -2.4531 0.0000 28.3728 0.0000
# 6 0.0000 0.0000 0.0000 1.7901 0.0000 9.4666
#
#
#
# Elastic Compliance Matrix: (Units=1/GPa)
#
#
# Indices 1 2 3 4 5 6 
#
# 1 0.010086 -0.002804 -0.003995 0.000000 -0.005330 0.000000
# 2 -0.002804 0.031615 -0.002477 0.000000 0.000601 0.000000
# 3 -0.003995 -0.002477 0.010713 0.000000 0.002967 0.000000
# 4 0.000000 0.000000 0.000000 0.184185 0.000000 -0.034829
# 5 -0.005330 0.000601 0.002967 0.000000 0.038152 0.000000
# 6 0.000000 0.000000 0.000000 -0.034829 0.000000 0.112221
#
#
# Mechanical properties :
#
#
# Convention : Reuss Voigt Hill
#
# Bulk Modulus (GPa) = 29.53262 47.92223 38.72742
# Shear Modulus (GPa) = 11.99583 22.22251 17.10917
#
# Velocity S-wave (km/s) = 2.70998 3.68848 3.23642
# Velocity P-wave (km/s) = 5.27941 6.89046 6.13802
#
# Compressibility (1/GPa) = 0.03386087
#
# Stress axis : x y z
#
# Youngs Moduli (GPa) = 99.14803 31.63049 93.34477
#
# Poissons Ratio (x) = 0.08871 0.37293
# Poissons Ratio (y) = 0.27806 0.23120
# Poissons Ratio (z) = 0.39612 0.07834
#
# Static dielectric constant tensor:
#      x y z
#    x 1.564060 0.000000 0.003390 
#    y 0.000000 1.521610 0.000000 
#    z 0.003390 0.000000 1.606070 
# 
# From -- ./inp_files/36253.got.cif
#   From: 2010.05.17/outbox.cif.g08.bks.cpg/sg11_19_cif.got.tgz:36253.got - 2010.06.03 12:22:45.
