data_PCOD9155070
_publ_section_title
;
Structure prediction by ZEFSAII (Michael W. Deem and Ramdas Pophale) SiO2 
 PCOD9155070
Probable space group: P 2/M
;
_chemical_formula_sum "Si O2"
_cell_formula_units_Z 20
_cell_length_a 9.401697
_cell_length_b 7.661015
_cell_length_c 27.140971
_cell_angle_alpha 90.000000
_cell_angle_beta 149.997645
_cell_angle_gamma 90.000000
_cell_volume 977.504725
_symmetry_space_group_name_H-M "P 2/M"
_symmetry_group_IT_number 10
_symmetry_cell_setting 'monoclinic'
loop_
_space_group_symop_operation_xyz
x,y,z
-x,y,-z
-x,-y,-z
x,-y,z
loop_
_atom_site_type_symbol
_atom_site_label
_atom_site_fract_x
_atom_site_fract_y
_atom_site_fract_z
Si Si1 0.337760 0.707441 0.999999
Si Si2 0.197868 0.791909 0.214112
Si Si3 0.828757 0.213790 0.596886
Si Si4 0.844326 0.213790 0.403114
Si Si5 0.872689 0.208092 0.214111
O O1 0.345255 0.500000 0.999997
O O2 0.537616 0.760545 0.105097
O O3 0.500000 0.780893 0.000000
O O4 0.012132 0.760551 0.894903
O O5 0.517404 0.725987 0.304042
O O6 0.042759 0.721713 0.217103
O O7 0.218667 0.000000 0.226407
O O8 0.500000 0.267522 0.500000
O O9 0.982933 0.270095 0.593173
O O10 0.997192 0.274012 0.695958
O O11 0.831047 0.000000 0.597611
O O12 0.000000 0.267521 0.500000
O O13 0.842991 0.000000 0.402388
O O14 0.913355 0.000000 0.226403
#
# Coordination Sequence:
#
# PCOD9155070 Si02
#       5
#     4   4   4   4   4
#     4   9  17  29  46  67  90 118 152 187 222 262
#     4   9  16  27  45  68  92 118 149 184 220 260
#     4   9  16  26  42  66  94 120 146 180 223 267
#     4   9  16  26  42  66  94 120 146 180 223 267
#     4   9  16  27  45  68  92 118 149 184 220 260
#
# _framework density 20.460260999999999
#
# number of rings (size 3 to 8) (size 9 to 14) (size 15 to 20)
#    0.000    3.000    0.000    1.800    0.000    7.200 
#    0.000    1.000    0.000    8.400    0.000    0.000 
#    0.000    0.000    0.000    0.000    0.000    0.000 
#
# Total GULP energy -111523.638326 kJ/mol
# GULP energy per Si atom -5576.181916 kJ/mol
# Density = 2.041369 g / cm^3
# Si number density = 20.460261 Si / 1000 Ang^3
#
#
#
# Elastic Constant Matrix: (Units=GPa)
#
#
# Indices 1 2 3 4 5 6 
#
# 1 121.2904 6.1357 114.0821 0.0000 -1.5737 0.0000
# 2 6.1357 36.9044 1.4017 0.0000 0.1594 0.0000
# 3 114.0821 1.4017 252.5856 0.0000 -2.7991 0.0000
# 4 0.0000 0.0000 0.0000 -46.2305 0.0000 1.5264
# 5 -1.5737 0.1594 -2.7991 0.0000 27.2655 0.0000
# 6 0.0000 0.0000 0.0000 1.5264 0.0000 -0.4618
#
#
#
# Elastic Compliance Matrix: (Units=1/GPa)
#
#
# Indices 1 2 3 4 5 6 
#
# 1 0.014505 -0.002164 -0.006537 0.000000 0.000179 0.000000
# 2 -0.002164 0.027426 0.000823 0.000000 -0.000201 0.000000
# 3 -0.006537 0.000823 0.006911 0.000000 0.000327 0.000000
# 4 0.000000 0.000000 0.000000 -0.024280 0.000000 -0.080252
# 5 0.000179 -0.000201 0.000327 0.000000 0.036721 0.000000
# 6 0.000000 0.000000 0.000000 -0.080252 0.000000 -2.430592
#
#
# Mechanical properties :
#
#
# Convention : Reuss Voigt Hill
#
# Bulk Modulus (GPa) = 30.22472 72.66881 51.44676
# Shear Modulus (GPa) = -2.13445 15.39203 6.62879
#
# Velocity S-wave (km/s) = -1.02249 2.74576 1.80191
# Velocity P-wave (km/s) = 3.66203 6.75622 5.43401
#
# Compressibility (1/GPa) = 0.03308550
#
# Stress axis : x y z
#
# Youngs Moduli (GPa) = 68.93965 36.46116 144.70061
#
# Poissons Ratio (x) = 0.07891 0.94598
# Poissons Ratio (y) = 0.14919 -0.11909
# Poissons Ratio (z) = 0.45069 -0.03001
#
# Static dielectric constant tensor:
#      x y z
#    x 1.710160 0.000000 -0.000870 
#    y 0.000000 1.737310 0.000000 
#    z -0.000870 0.000000 1.736190 
# 
# From -- ./inp_files/22129.got.cif
#   From: 2010.05.17/outbox.cif.g08.bks.cpg/sg10_12_cif.got.tgz:22129.got - 2010.06.03 11:33:40.
