data_PCOD9155967
_publ_section_title
;
Structure prediction by ZEFSAII (Michael W. Deem and Ramdas Pophale) SiO2 
 PCOD9155967
Probable space group: P 21/M
;
_chemical_formula_sum "Si O2"
_cell_formula_units_Z 24
_cell_length_a 12.189288
_cell_length_b 8.175942
_cell_length_c 14.162365
_cell_angle_alpha 90.000000
_cell_angle_beta 109.080756
_cell_angle_gamma 90.000000
_cell_volume 1333.861496
_symmetry_space_group_name_H-M "P 21/M"
_symmetry_group_IT_number 11
_symmetry_cell_setting 'monoclinic'
loop_
_space_group_symop_operation_xyz
x,y,z
-x,1/2+y,-z
-x,-y,-z
x,1/2-y,z
loop_
_atom_site_type_symbol
_atom_site_label
_atom_site_fract_x
_atom_site_fract_y
_atom_site_fract_z
Si Si1 0.540241 0.440655 0.613175
Si Si2 0.606513 0.439930 0.257392
Si Si3 0.604430 0.059551 0.919700
Si Si4 0.994417 0.446540 0.107705
Si Si5 0.249839 0.057498 0.207798
Si Si6 0.757342 0.450540 0.136272
O O1 0.500000 0.500000 0.500000
O O2 0.566780 0.250000 0.617819
O O3 0.439442 0.470494 0.662626
O O4 0.655776 0.529772 0.684006
O O5 0.622694 0.250000 0.286113
O O6 0.500595 0.456865 0.152909
O O7 0.717275 0.501955 0.229475
O O8 0.570137 0.250000 0.917886
O O9 0.705056 0.043693 0.869364
O O10 0.659719 0.999806 0.032512
O O11 0.985577 0.250000 0.105144
O O12 0.117265 0.490357 0.190188
O O13 0.881212 0.507970 0.131692
O O14 0.000000 0.500000 0.000000
O O15 0.251298 0.250000 0.183059
O O16 0.756857 0.250000 0.136285
#
# Coordination Sequence:
#
# PCOD9155967 Si02
#       6
#     4   4   4   4   4   4
#     4  11  22  38  59  79 100 125 161 213 265 313
#     4  10  19  32  49  72 102 133 169 209 255 306
#     4  10  17  28  46  68 101 139 174 210 248 294
#     4  10  19  32  49  72 105 144 181 211 243 289
#     4  10  19  31  50  77 105 135 173 213 251 297
#     4   9  18  30  46  69 103 143 174 206 248 293
#
# _framework density 17.992874
#
# number of rings (size 3 to 8) (size 9 to 14) (size 15 to 20)
#    0.000    2.000    1.667    5.500    0.000    0.667 
#    0.000    4.167    0.000    1.000    0.000    0.000 
#    0.000    0.000    0.000    0.000    0.000    0.000 
#
# Total GULP energy -133870.637388 kJ/mol
# GULP energy per Si atom -5577.943225 kJ/mol
# Density = 1.795192 g / cm^3
# Si number density = 17.992874 Si / 1000 Ang^3
#
#
#
# Elastic Constant Matrix: (Units=GPa)
#
#
# Indices 1 2 3 4 5 6 
#
# 1 108.5725 -3.5665 41.8426 0.0000 -20.7043 0.0000
# 2 -3.5665 27.8792 -1.9291 0.0000 -0.7778 0.0000
# 3 41.8426 -1.9291 90.8496 0.0000 -11.7461 0.0000
# 4 0.0000 0.0000 0.0000 21.5212 0.0000 -1.9066
# 5 -20.7043 -0.7778 -11.7461 0.0000 12.6412 0.0000
# 6 0.0000 0.0000 0.0000 -1.9066 0.0000 17.1903
#
#
#
# Elastic Compliance Matrix: (Units=1/GPa)
#
#
# Indices 1 2 3 4 5 6 
#
# 1 0.014778 0.002179 -0.004107 0.000000 0.020523 0.000000
# 2 0.002179 0.036366 0.000590 0.000000 0.006355 0.000000
# 3 -0.004107 0.000590 0.013691 0.000000 0.006032 0.000000
# 4 0.000000 0.000000 0.000000 0.046927 0.000000 0.005205
# 5 0.020523 0.006355 0.006032 0.000000 0.118715 0.000000
# 6 0.000000 0.000000 0.000000 0.005205 0.000000 0.058750
#
#
# Mechanical properties :
#
#
# Convention : Reuss Voigt Hill
#
# Bulk Modulus (GPa) = 16.08750 33.33282 24.71016
# Shear Modulus (GPa) = 15.99377 23.00082 19.49730
#
# Velocity S-wave (km/s) = 2.98467 3.57925 3.29540
# Velocity P-wave (km/s) = 4.56488 5.97053 5.31438
#
# Compressibility (1/GPa) = 0.06216006
#
# Stress axis : x y z
#
# Youngs Moduli (GPa) = 67.66697 27.49827 73.04048
#
# Poissons Ratio (x) = -0.05992 0.29996
# Poissons Ratio (y) = -0.14744 -0.04311
# Poissons Ratio (z) = 0.27789 -0.01623
#
# Static dielectric constant tensor:
#      x y z
#    x 1.676100 0.000000 0.000480 
#    y 0.000000 1.607090 0.000000 
#    z 0.000480 0.000000 1.603810 
# 
# From -- ./inp_files/44549.got.cif
#   From: 2010.05.17/outbox.cif.g08.bks.cpg/sg11_23_cif.got.tgz:44549.got - 2010.06.03 12:22:45.
