data_PCOD9155313
_publ_section_title
;
Structure prediction by ZEFSAII (Michael W. Deem and Ramdas Pophale) SiO2 
 PCOD9155313
Probable space group: P 2/M
;
_chemical_formula_sum "Si O2"
_cell_formula_units_Z 32
_cell_length_a 27.000000
_cell_length_b 9.000000
_cell_length_c 21.000000
_cell_angle_alpha 90.000000
_cell_angle_beta 20.000000
_cell_angle_gamma 90.000000
_cell_volume 1745.328791
_symmetry_space_group_name_H-M "P 2/M"
_symmetry_group_IT_number 10
_symmetry_cell_setting 'monoclinic'
loop_
_space_group_symop_operation_xyz
x,y,z
-x,y,-z
-x,-y,-z
x,-y,z
loop_
_atom_site_type_symbol
_atom_site_label
_atom_site_fract_x
_atom_site_fract_y
_atom_site_fract_z
Si Si1 0.342023 0.678051 0.222167
Si Si2 0.466169 0.321264 0.207101
Si Si3 0.055776 0.821864 0.504403
Si Si4 0.231943 0.322810 0.099395
Si Si5 0.657594 0.828291 0.159836
Si Si6 0.669048 0.325193 0.278176
Si Si7 0.829125 0.669073 0.212123
Si Si8 0.348131 0.829771 0.474660
O O1 0.314387 0.500000 0.255052
O O2 0.375813 0.728233 0.254134
O O3 0.207711 0.753370 0.346826
O O4 0.500000 0.702276 0.000000
O O5 0.469766 0.500000 0.200430
O O6 0.387262 0.265451 0.365697
O O7 0.636311 0.274905 0.011405
O O8 0.000000 0.784609 0.500000
O O9 0.920236 0.757972 0.707243
O O10 0.066659 0.000000 0.495725
O O11 0.215132 0.500000 0.126044
O O12 0.282965 0.276774 0.967515
O O13 0.697848 0.768907 0.180355
O O14 0.484558 0.822263 0.358097
O O15 0.702172 0.000000 0.096329
O O16 0.500000 0.312923 0.500000
O O17 0.700359 0.500000 0.228206
O O18 0.760208 0.276403 0.229355
O O19 0.772716 0.500000 0.289923
O O20 0.784259 0.766302 0.326104
O O21 0.000000 0.664182 0.000000
O O22 0.329197 0.000000 0.478265
#
# Coordination Sequence:
#
# PCOD9155313 Si02
#       8
#     4   4   4   4   4   4   4   4
#     4  10  21  39  63  90 117 149 195 240 279 330
#     4   9  19  36  60  87 113 146 188 237 284 333
#     4  11  24  40  59  87 123 157 188 229 284 339
#     4  10  20  37  62  87 114 150 193 237 283 335
#     4  10  20  34  55  84 115 146 184 233 286 338
#     4  10  19  33  56  81 105 140 190 237 279 334
#     4  10  21  37  55  77 106 142 184 235 287 334
#     4  10  20  34  55  81 111 147 186 228 277 340
#
# _framework density 18.334654
#
# number of rings (size 3 to 8) (size 9 to 14) (size 15 to 20)
#    0.000    2.000    1.250    2.250    0.000    5.250 
#    2.250    0.000    0.000    0.000    0.000    0.000 
#    0.000    0.000    0.000    0.000    0.000    0.000 
#
# Total GULP energy -178418.652167 kJ/mol
# GULP energy per Si atom -5575.582880 kJ/mol
# Density = 1.829292 g / cm^3
# Si number density = 18.334654 Si / 1000 Ang^3
#
#
#
# Elastic Constant Matrix: (Units=GPa)
#
#
# Indices 1 2 3 4 5 6 
#
# 1 127.4808 28.1642 41.1842 0.0000 -19.8705 0.0000
# 2 28.1642 21.6790 19.5802 0.0000 -9.3836 0.0000
# 3 41.1842 19.5802 81.9029 0.0000 -15.5303 0.0000
# 4 0.0000 0.0000 0.0000 5.8088 0.0000 -6.6375
# 5 -19.8705 -9.3836 -15.5303 0.0000 24.1312 0.0000
# 6 0.0000 0.0000 0.0000 -6.6375 0.0000 24.8339
#
#
#
# Elastic Compliance Matrix: (Units=1/GPa)
#
#
# Indices 1 2 3 4 5 6 
#
# 1 0.011738 -0.011442 -0.002480 0.000000 0.003620 0.000000
# 2 -0.011442 0.075753 -0.009747 0.000000 0.013763 0.000000
# 3 -0.002480 -0.009747 0.016722 0.000000 0.004929 0.000000
# 4 0.000000 0.000000 0.000000 0.247846 0.000000 0.066244
# 5 0.003620 0.013763 0.004929 0.000000 0.052944 0.000000
# 6 0.000000 0.000000 0.000000 0.066244 0.000000 0.057973
#
#
# Mechanical properties :
#
#
# Convention : Reuss Voigt Hill
#
# Bulk Modulus (GPa) = 17.58289 45.43555 31.50922
# Shear Modulus (GPa) = 9.44695 20.43039 14.93867
#
# Velocity S-wave (km/s) = 2.27238 3.34174 2.85753
# Velocity P-wave (km/s) = 4.06149 6.30275 5.30191
#
# Compressibility (1/GPa) = 0.05687346
#
# Stress axis : x y z
#
# Youngs Moduli (GPa) = 85.19543 13.20088 59.80279
#
# Poissons Ratio (x) = 0.15104 0.14834
# Poissons Ratio (y) = 0.97480 0.58288
# Poissons Ratio (z) = 0.21133 0.12867
#
# Static dielectric constant tensor:
#      x y z
#    x 1.630160 0.000000 0.015060 
#    y 0.000000 1.630630 0.000000 
#    z 0.015060 0.000000 1.638190 
# 
# From -- ./inp_files/86836.got.cif
#   From: 2010.05.17/outbox.ucp.g08.bks.cvg/sg10_44_cif.got.tgz:86836.got - 2010.06.11 11:31:16.
