data_PCOD9155667
_publ_section_title
;
Structure prediction by ZEFSAII (Michael W. Deem and Ramdas Pophale) SiO2 
 PCOD9155667
Probable space group: P 2/M
;
_chemical_formula_sum "Si O2"
_cell_formula_units_Z 32
_cell_length_a 18.000000
_cell_length_b 15.000000
_cell_length_c 12.000000
_cell_angle_alpha 90.000000
_cell_angle_beta 30.000000
_cell_angle_gamma 90.000000
_cell_volume 1620.000000
_symmetry_space_group_name_H-M "P 2/M"
_symmetry_group_IT_number 10
_symmetry_cell_setting 'monoclinic'
loop_
_space_group_symop_operation_xyz
x,y,z
-x,y,-z
-x,-y,-z
x,-y,z
loop_
_atom_site_type_symbol
_atom_site_label
_atom_site_fract_x
_atom_site_fract_y
_atom_site_fract_z
Si Si1 0.339546 0.395710 0.412809
Si Si2 0.165059 0.299266 0.827982
Si Si3 0.899894 0.604474 0.862797
Si Si4 0.688314 0.403560 0.928920
Si Si5 0.174000 0.893746 0.308267
Si Si6 0.377328 0.105786 0.830987
Si Si7 0.187941 0.717209 0.419415
Si Si8 0.294166 0.108214 0.680439
O O1 0.291733 0.500000 0.457511
O O2 0.278253 0.356207 0.606932
O O3 0.284735 0.323442 0.393622
O O4 0.516048 0.396216 0.178079
O O5 0.190537 0.192365 0.784217
O O6 0.169032 0.341277 0.945222
O O7 0.000000 0.318558 0.000000
O O8 0.943627 0.500000 0.832580
O O9 0.779568 0.597627 0.922909
O O10 0.030951 0.668483 0.646735
O O11 0.714972 0.500000 0.836883
O O12 0.745449 0.326207 0.777337
O O13 0.189085 0.823221 0.391403
O O14 0.000000 0.888401 0.500000
O O15 0.203821 0.000000 0.294846
O O16 0.279573 0.864175 0.065332
O O17 0.312712 0.121299 0.790450
O O18 0.551862 0.128278 0.586739
O O19 0.375594 0.000000 0.846846
O O20 0.260073 0.000000 0.708409
#
# Coordination Sequence:
#
# PCOD9155667 Si02
#       8
#     4   4   4   4   4   4   4   4
#     4  11  25  45  66  92 129 173 217 269 330 393
#     4  12  26  41  64  93 126 170 217 260 336 394
#     4  11  24  43  67  95 128 166 218 278 323 385
#     4  10  23  41  65  98 127 161 216 276 324 374
#     4  10  22  37  60  98 140 173 211 265 321 380
#     4   8  17  37  63  92 125 165 212 263 323 380
#     4  12  23  39  68  94 128 176 220 254 321 389
#     4   9  20  38  64  93 124 164 213 268 322 380
#
# _framework density 19.753086
#
# number of rings (size 3 to 8) (size 9 to 14) (size 15 to 20)
#    0.000    1.625    1.250    3.750    5.250    4.250 
#    0.000    2.500    0.000    1.500    0.000    0.000 
#    0.000    0.000    0.000    0.000    0.000    0.000 
#
# Total GULP energy -178296.516554 kJ/mol
# GULP energy per Si atom -5571.766142 kJ/mol
# Density = 1.970813 g / cm^3
# Si number density = 19.753086 Si / 1000 Ang^3
#
#
#
# Elastic Constant Matrix: (Units=GPa)
#
#
# Indices 1 2 3 4 5 6 
#
# 1 84.7815 46.9016 14.1721 0.0000 9.8257 0.0000
# 2 46.9016 144.6305 38.7016 0.0000 15.6155 0.0000
# 3 14.1721 38.7016 121.0706 0.0000 16.9876 0.0000
# 4 0.0000 0.0000 0.0000 52.1316 0.0000 6.3403
# 5 9.8257 15.6155 16.9876 0.0000 27.4666 0.0000
# 6 0.0000 0.0000 0.0000 6.3403 0.0000 31.6140
#
#
#
# Elastic Compliance Matrix: (Units=1/GPa)
#
#
# Indices 1 2 3 4 5 6 
#
# 1 0.014559 -0.004453 0.000104 0.000000 -0.002741 0.000000
# 2 -0.004453 0.009167 -0.002082 0.000000 -0.002331 0.000000
# 3 0.000104 -0.002082 0.009584 0.000000 -0.004781 0.000000
# 4 0.000000 0.000000 0.000000 0.019662 0.000000 -0.003943
# 5 -0.002741 -0.002331 -0.004781 0.000000 0.041670 0.000000
# 6 0.000000 0.000000 0.000000 -0.003943 0.000000 0.032422
#
#
# Mechanical properties :
#
#
# Convention : Reuss Voigt Hill
#
# Bulk Modulus (GPa) = 48.90665 61.11480 55.01072
# Shear Modulus (GPa) = 34.07328 38.95626 36.51477
#
# Velocity S-wave (km/s) = 4.15777 4.44572 4.30415
# Velocity P-wave (km/s) = 6.91825 7.57358 7.25332
#
# Compressibility (1/GPa) = 0.02044712
#
# Stress axis : x y z
#
# Youngs Moduli (GPa) = 68.68716 109.08648 104.34222
#
# Poissons Ratio (x) = 0.48577 -0.01083
# Poissons Ratio (y) = 0.30587 0.21724
# Poissons Ratio (z) = -0.00713 0.22712
#
# Static dielectric constant tensor:
#      x y z
#    x 1.679340 0.000000 -0.030230 
#    y 0.000000 1.692370 0.000000 
#    z -0.030230 0.000000 1.705990 
# 
# From -- ./inp_files/53986.got.cif
#   From: 2010.05.17/outbox.ucp.g08.bks.cvg/sg10_27_cif.got.tgz:53986.got - 2010.06.11 11:31:16.
