data_PCOD9155148
_publ_section_title
;
Structure prediction by ZEFSAII (Michael W. Deem and Ramdas Pophale) SiO2 
 PCOD9155148
Probable space group: P 2/M
;
_chemical_formula_sum "Si O2"
_cell_formula_units_Z 32
_cell_length_a 30.000000
_cell_length_b 9.000000
_cell_length_c 12.000000
_cell_angle_alpha 90.000000
_cell_angle_beta 30.000000
_cell_angle_gamma 90.000000
_cell_volume 1620.000000
_symmetry_space_group_name_H-M "P 2/M"
_symmetry_group_IT_number 10
_symmetry_cell_setting 'monoclinic'
loop_
_space_group_symop_operation_xyz
x,y,z
-x,y,-z
-x,-y,-z
x,-y,z
loop_
_atom_site_type_symbol
_atom_site_label
_atom_site_fract_x
_atom_site_fract_y
_atom_site_fract_z
Si Si1 0.414787 0.174092 0.482603
Si Si2 0.413959 0.675582 0.955328
Si Si3 0.223297 0.319351 0.441030
Si Si4 0.649808 0.674816 0.160635
Si Si5 0.106261 0.675031 0.899322
Si Si6 0.208927 0.169700 0.861134
Si Si7 0.840644 0.827069 0.781484
Si Si8 0.927574 0.321601 0.403167
O O1 0.491966 0.241904 0.238249
O O2 0.410039 0.254501 0.612690
O O3 0.314467 0.190120 0.652368
O O4 0.431627 0.000000 0.462870
O O5 0.425620 0.500000 0.953009
O O6 0.388040 0.692299 0.881162
O O7 0.325934 0.731400 0.211855
O O8 0.228447 0.500000 0.437479
O O9 0.160490 0.263223 0.676670
O O10 0.165797 0.287115 0.455673
O O11 0.658924 0.500000 0.163313
O O12 0.746434 0.750137 0.957410
O O13 0.093737 0.500000 0.904247
O O14 0.170680 0.707977 0.862443
O O15 0.009348 0.731471 0.148440
O O16 0.195412 0.000000 0.848706
O O17 0.156854 0.182505 0.090603
O O18 0.919241 0.750724 0.542164
O O19 0.836630 0.000000 0.759822
O O20 0.935147 0.500000 0.397038
#
# Coordination Sequence:
#
# PCOD9155148 Si02
#       8
#     4   4   4   4   4   4   4   4
#     4  10  21  35  52  77 109 147 183 221 268 322
#     4  10  19  32  53  80 109 143 177 217 273 327
#     4   9  18  36  57  82 114 142 174 222 279 328
#     4  10  18  31  52  80 112 145 177 217 273 327
#     4  10  21  36  60  84 103 140 190 230 268 321
#     4   9  21  40  55  72 109 150 183 222 272 320
#     4  10  20  34  54  81 112 149 183 219 270 325
#     4  10  19  35  58  85 113 140 174 224 280 330
#
# _framework density 19.753086
#
# number of rings (size 3 to 8) (size 9 to 14) (size 15 to 20)
#    0.000    2.250    1.250    2.625    0.000    8.000 
#    0.000    4.375    0.000    5.250    0.000    0.000 
#    0.000    0.000    0.000    0.000    0.000    0.000 
#
# Total GULP energy -178430.220040 kJ/mol
# GULP energy per Si atom -5575.944376 kJ/mol
# Density = 1.970813 g / cm^3
# Si number density = 19.753086 Si / 1000 Ang^3
#
#
#
# Elastic Constant Matrix: (Units=GPa)
#
#
# Indices 1 2 3 4 5 6 
#
# 1 15.7475 10.2558 13.8237 0.0000 1.1036 0.0000
# 2 10.2558 18.5916 21.8949 0.0000 -0.8108 0.0000
# 3 13.8237 21.8949 178.3515 0.0000 13.5666 0.0000
# 4 0.0000 0.0000 0.0000 11.8400 0.0000 -5.5240
# 5 1.1036 -0.8108 13.5666 0.0000 12.0009 0.0000
# 6 0.0000 0.0000 0.0000 -5.5240 0.0000 38.6226
#
#
#
# Elastic Compliance Matrix: (Units=1/GPa)
#
#
# Indices 1 2 3 4 5 6 
#
# 1 0.101124 -0.056481 0.000102 0.000000 -0.013231 0.000000
# 2 -0.056481 0.096716 -0.009177 0.000000 0.022102 0.000000
# 3 0.000102 -0.009177 0.007411 0.000000 -0.009007 0.000000
# 4 0.000000 0.000000 0.000000 0.090499 0.000000 0.012943
# 5 -0.013231 0.022102 -0.009007 0.000000 0.096219 0.000000
# 6 0.000000 0.000000 0.000000 0.012943 0.000000 0.027743
#
#
# Mechanical properties :
#
#
# Convention : Reuss Voigt Hill
#
# Bulk Modulus (GPa) = 13.48806 33.84880 23.66843
# Shear Modulus (GPa) = 8.68758 23.60711 16.14735
#
# Velocity S-wave (km/s) = 2.09944 3.46079 2.86223
# Velocity P-wave (km/s) = 3.56651 5.75696 4.78866
#
# Compressibility (1/GPa) = 0.07413964
#
# Stress axis : x y z
#
# Youngs Moduli (GPa) = 9.88887 10.33957 134.94112
#
# Poissons Ratio (x) = 0.58399 -0.01380
# Poissons Ratio (y) = 0.55853 1.23830
# Poissons Ratio (z) = -0.00101 0.09488
#
# Static dielectric constant tensor:
#      x y z
#    x 1.721180 0.000000 0.012340 
#    y 0.000000 1.670760 0.000000 
#    z 0.012340 0.000000 1.725230 
# 
# From -- ./inp_files/58118.got.cif
#   From: 2010.05.17/outbox.ucp.g08.bks.cvg/sg10_30_cif.got.tgz:58118.got - 2010.06.11 11:31:16.
