data_PCOD9155353
_publ_section_title
;
Structure prediction by ZEFSAII (Michael W. Deem and Ramdas Pophale) SiO2 
 PCOD9155353
Probable space group: P 2/M
;
_chemical_formula_sum "Si O2"
_cell_formula_units_Z 32
_cell_length_a 12.000000
_cell_length_b 15.000000
_cell_length_c 18.000000
_cell_angle_alpha 90.000000
_cell_angle_beta 150.000000
_cell_angle_gamma 90.000000
_cell_volume 1620.000000
_symmetry_space_group_name_H-M "P 2/M"
_symmetry_group_IT_number 10
_symmetry_cell_setting 'monoclinic'
loop_
_space_group_symop_operation_xyz
x,y,z
-x,y,-z
-x,-y,-z
x,-y,z
loop_
_atom_site_type_symbol
_atom_site_label
_atom_site_fract_x
_atom_site_fract_y
_atom_site_fract_z
Si Si1 0.081321 0.599894 0.900650
Si Si2 0.557621 0.598435 0.620294
Si Si3 0.345948 0.215585 0.836951
Si Si4 0.864264 0.105391 0.765229
Si Si5 0.081663 0.896487 0.381300
Si Si6 0.489667 0.789227 0.347271
Si Si7 0.239365 0.401802 0.825952
Si Si8 0.277948 0.216511 0.066866
O O1 0.170499 0.500000 0.967707
O O2 0.103070 0.612445 0.823911
O O3 0.825930 0.602537 0.778477
O O4 0.205602 0.681292 0.010453
O O5 0.500000 0.603515 0.500000
O O6 0.484348 0.500000 0.604991
O O7 0.467857 0.686010 0.608349
O O8 0.231019 0.313810 0.771143
O O9 0.507679 0.201711 0.861188
O O10 0.155309 0.142568 0.732526
O O11 0.500000 0.211866 0.000000
O O12 0.893769 0.113108 0.693775
O O13 0.650125 0.160817 0.669004
O O14 0.843630 0.000000 0.771771
O O15 0.079062 0.151550 0.926668
O O16 0.279994 0.839931 0.530949
O O17 0.102767 0.000000 0.412203
O O18 0.339507 0.795542 0.187520
O O19 0.179123 0.500000 0.760742
O O20 0.500000 0.406791 0.000000
#
# Coordination Sequence:
#
# PCOD9155353 Si02
#       8
#     4   4   4   4   4   4   4   4
#     4  10  19  34  59  91 125 161 205 253 303 365
#     4  10  22  38  61  92 127 169 212 254 308 371
#     4  11  21  39  66  91 126 158 217 264 307 360
#     4  11  23  42  68  93 118 156 209 261 312 372
#     4  11  25  45  69  92 116 162 215 264 317 373
#     4  12  26  40  62  90 136 166 200 251 321 383
#     4   9  16  29  55  91 118 147 196 251 295 343
#     4  12  24  40  60  97 129 167 201 256 317 373
#
# _framework density 19.753086
#
# number of rings (size 3 to 8) (size 9 to 14) (size 15 to 20)
#    0.000    1.250    5.000    1.875    1.750    4.250 
#    0.000    1.875    0.000    0.000    0.000    2.625 
#    0.000    0.000    0.000    0.000    0.000    0.000 
#
# Total GULP energy -178837.917804 kJ/mol
# GULP energy per Si atom -5588.684931 kJ/mol
# Density = 1.970813 g / cm^3
# Si number density = 19.753086 Si / 1000 Ang^3
#
#
#
# Elastic Constant Matrix: (Units=GPa)
#
#
# Indices 1 2 3 4 5 6 
#
# 1 30.6978 29.9024 10.0694 0.0000 10.3432 0.0000
# 2 29.9024 119.8190 31.9946 0.0000 17.0008 0.0000
# 3 10.0694 31.9946 50.1184 0.0000 11.9466 0.0000
# 4 0.0000 0.0000 0.0000 120.8893 0.0000 -168.9210
# 5 10.3432 17.0008 11.9466 0.0000 21.8450 0.0000
# 6 0.0000 0.0000 0.0000 -168.9210 0.0000 330.4414
#
#
#
# Elastic Compliance Matrix: (Units=1/GPa)
#
#
# Indices 1 2 3 4 5 6 
#
# 1 0.046907 -0.009679 0.000291 0.000000 -0.014836 0.000000
# 2 -0.009679 0.012549 -0.005555 0.000000 -0.002146 0.000000
# 3 0.000291 -0.005555 0.025807 0.000000 -0.009928 0.000000
# 4 0.000000 0.000000 0.000000 0.028954 0.000000 0.014801
# 5 -0.014836 -0.002146 -0.009928 0.000000 0.059901 0.000000
# 6 0.000000 0.000000 0.000000 0.014801 0.000000 0.010593
#
#
# Mechanical properties :
#
#
# Convention : Reuss Voigt Hill
#
# Bulk Modulus (GPa) = 18.05790 38.28531 28.17160
# Shear Modulus (GPa) = 21.45408 103.21308 62.33358
#
# Velocity S-wave (km/s) = 3.29920 7.23637 5.62360
# Velocity P-wave (km/s) = 4.86565 9.44691 7.51394
#
# Compressibility (1/GPa) = 0.05537744
#
# Stress axis : x y z
#
# Youngs Moduli (GPa) = 21.31878 79.68632 38.74913
#
# Poissons Ratio (x) = 0.77128 -0.01128
# Poissons Ratio (y) = 0.20634 0.21526
# Poissons Ratio (z) = -0.00621 0.44267
#
# Static dielectric constant tensor:
#      x y z
#    x 1.682430 0.000000 0.011500 
#    y 0.000000 1.709060 0.000000 
#    z 0.011500 0.000000 1.685010 
# 
# From -- ./inp_files/77054.got.cif
#   From: 2010.05.17/outbox.ucp.g08.bks.cvg/sg10_39_cif.got.tgz:77054.got - 2010.06.11 11:31:16.
