data_PCOD9155347
_publ_section_title
;
Structure prediction by ZEFSAII (Michael W. Deem and Ramdas Pophale) SiO2 
 PCOD9155347
Probable space group: P 2/M
;
_chemical_formula_sum "Si O2"
_cell_formula_units_Z 32
_cell_length_a 12.000000
_cell_length_b 9.000000
_cell_length_c 30.000000
_cell_angle_alpha 90.000000
_cell_angle_beta 30.000000
_cell_angle_gamma 90.000000
_cell_volume 1620.000000
_symmetry_space_group_name_H-M "P 2/M"
_symmetry_group_IT_number 10
_symmetry_cell_setting 'monoclinic'
loop_
_space_group_symop_operation_xyz
x,y,z
-x,y,-z
-x,-y,-z
x,-y,z
loop_
_atom_site_type_symbol
_atom_site_label
_atom_site_fract_x
_atom_site_fract_y
_atom_site_fract_z
Si Si1 0.333824 0.830588 0.683080
Si Si2 0.394954 0.825400 0.790196
Si Si3 0.348389 0.326811 0.899669
Si Si4 0.115002 0.673860 0.147899
Si Si5 0.752390 0.179286 0.596283
Si Si6 0.898821 0.827981 0.934938
Si Si7 0.835390 0.675188 0.770370
Si Si8 0.278993 0.168758 0.596694
O O1 0.577476 0.794397 0.617074
O O2 0.327958 0.837830 0.632116
O O3 0.148764 0.709816 0.759405
O O4 0.275744 0.000000 0.719065
O O5 0.340845 0.739346 0.853491
O O6 0.612696 0.769545 0.688116
O O7 0.167647 0.813624 0.840681
O O8 0.427644 0.000000 0.788719
O O9 0.294002 0.500000 0.918448
O O10 0.602864 0.306046 0.826885
O O11 0.190830 0.246735 0.989431
O O12 0.161073 0.500000 0.128374
O O13 0.203697 0.753527 0.073369
O O14 0.192757 0.731945 0.169076
O O15 0.000000 0.237012 0.500000
O O16 0.771417 0.000000 0.594486
O O17 0.843015 0.000000 0.955358
O O18 0.886750 0.500000 0.756133
O O19 0.042288 0.752057 0.674424
O O20 0.500000 0.241743 0.500000
O O21 0.260428 0.000000 0.585218
#
# Coordination Sequence:
#
# PCOD9155347 Si02
#       8
#     4   4   4   4   4   4   4   4
#     4   9  16  31  51  75 109 144 179 226 277 325
#     4  10  21  38  58  82 113 148 188 233 280 335
#     4  11  24  40  57  81 114 152 190 232 282 335
#     4  10  19  34  58  82 106 143 186 227 274 330
#     4   9  17  31  54  82 109 144 184 223 275 334
#     4  11  22  38  60  86 113 145 186 232 284 337
#     4   9  21  39  55  77 113 152 187 228 281 338
#     4   9  18  31  53  84 111 141 187 238 279 325
#
# _framework density 19.753086
#
# number of rings (size 3 to 8) (size 9 to 14) (size 15 to 20)
#    0.000    2.250    1.250    1.500    0.000    5.750 
#    0.000    5.000    0.000    1.500    0.000    0.000 
#    0.000    0.000    0.000    0.000    0.000    0.000 
#
# Total GULP energy -178371.983837 kJ/mol
# GULP energy per Si atom -5574.124495 kJ/mol
# Density = 1.970813 g / cm^3
# Si number density = 19.753086 Si / 1000 Ang^3
#
#
#
# Elastic Constant Matrix: (Units=GPa)
#
#
# Indices 1 2 3 4 5 6 
#
# 1 -2.8951 40.7266 -22.1495 0.0000 14.9915 0.0000
# 2 40.7266 29.4706 24.1501 0.0000 5.9845 0.0000
# 3 -22.1495 24.1501 57.2989 0.0000 22.1657 0.0000
# 4 0.0000 0.0000 0.0000 19.5480 0.0000 2.5107
# 5 14.9915 5.9845 22.1657 0.0000 12.4509 0.0000
# 6 0.0000 0.0000 0.0000 2.5107 0.0000 22.2157
#
#
#
# Elastic Compliance Matrix: (Units=1/GPa)
#
#
# Indices 1 2 3 4 5 6 
#
# 1 -0.002184 0.009396 -0.013090 0.000000 0.021417 0.000000
# 2 0.009396 0.020621 0.010124 0.000000 -0.039247 0.000000
# 3 -0.013090 0.010124 0.012562 0.000000 -0.011470 0.000000
# 4 0.000000 0.000000 0.000000 0.051910 0.000000 -0.005866
# 5 0.021417 -0.039247 -0.011470 0.000000 0.093811 0.000000
# 6 0.000000 0.000000 0.000000 -0.005866 0.000000 0.045676
#
#
# Mechanical properties :
#
#
# Convention : Reuss Voigt Hill
#
# Bulk Modulus (GPa) = 22.80005 18.81428 20.80717
# Shear Modulus (GPa) = 22.30598 13.58607 17.94602
#
# Velocity S-wave (km/s) = 3.36406 2.62543 3.01743
# Velocity P-wave (km/s) = 5.16302 4.32850 4.76407
#
# Compressibility (1/GPa) = 0.04385954
#
# Stress axis : x y z
#
# Youngs Moduli (GPa) = -457.78014 48.49457 79.60235
#
# Poissons Ratio (x) = -0.45567 1.04196
# Poissons Ratio (y) = 4.30144 -0.80587
# Poissons Ratio (z) = -5.99217 -0.49094
#
# Static dielectric constant tensor:
#      x y z
#    x 1.725040 0.000000 0.018060 
#    y 0.000000 1.689390 0.000000 
#    z 0.018060 0.000000 1.695910 
# 
# From -- ./inp_files/49857.got.cif
#   From: 2010.05.17/outbox.ucp.g08.bks.cvg/sg10_25_cif.got.tgz:49857.got - 2010.06.11 11:31:16.
