data_PCOD9155161
_publ_section_title
;
Structure prediction by ZEFSAII (Michael W. Deem and Ramdas Pophale) SiO2 
 PCOD9155161
Probable space group: P 2/M
;
_chemical_formula_sum "Si O2"
_cell_formula_units_Z 28
_cell_length_a 27.000000
_cell_length_b 9.000000
_cell_length_c 9.000000
_cell_angle_alpha 90.000000
_cell_angle_beta 140.000000
_cell_angle_gamma 90.000000
_cell_volume 1405.776502
_symmetry_space_group_name_H-M "P 2/M"
_symmetry_group_IT_number 10
_symmetry_cell_setting 'monoclinic'
loop_
_space_group_symop_operation_xyz
x,y,z
-x,y,-z
-x,-y,-z
x,-y,z
loop_
_atom_site_type_symbol
_atom_site_label
_atom_site_fract_x
_atom_site_fract_y
_atom_site_fract_z
Si Si1 0.704478 0.168520 0.425576
Si Si2 0.419835 0.167177 0.595914
Si Si3 0.982373 0.673283 0.636953
Si Si4 0.140781 0.178038 0.049861
Si Si5 0.662191 0.328333 0.859019
Si Si6 0.577501 0.329862 0.960996
Si Si7 0.175893 0.177161 0.783342
O O1 0.642103 0.159248 0.414834
O O2 0.787716 0.217914 0.678549
O O3 0.712729 0.000000 0.383440
O O4 0.659429 0.277952 0.214582
O O5 0.378093 0.269260 0.380682
O O6 0.503329 0.231715 0.830592
O O7 0.430715 0.000000 0.562399
O O8 0.976762 0.500000 0.662307
O O9 0.899659 0.752365 0.468265
O O10 0.000000 0.685193 0.500000
O O11 0.057959 0.745983 0.885853
O O12 0.131014 0.000000 0.036695
O O13 0.166924 0.210925 0.939905
O O14 0.684771 0.500000 0.896900
O O15 0.595403 0.317458 0.828239
O O16 0.740871 0.238857 0.072865
O O17 0.561891 0.500000 0.966676
O O18 0.173774 0.000000 0.760530
#
# Coordination Sequence:
#
# PCOD9155161 Si02
#       7
#     4   4   4   4   4   4   4
#     4  10  21  38  58  82 111 144 184 230 274 324
#     4  11  22  39  61  84 107 140 187 233 277 326
#     4   9  17  28  46  78 113 143 177 218 269 323
#     4   9  17  32  52  78 110 141 178 224 271 320
#     4  11  23  38  56  80 114 147 182 229 276 327
#     4  11  25  40  54  80 113 148 185 225 278 331
#     4  10  18  32  54  80 109 143 183 224 272 323
#
# _framework density 19.917818
#
# number of rings (size 3 to 8) (size 9 to 14) (size 15 to 20)
#    0.000    1.857    1.429    3.000    0.000    9.714 
#    0.000    0.000    0.000    0.857    0.000    6.000 
#    0.000    0.000    0.000    0.000    0.000    0.000 
#
# Total GULP energy -156236.440593 kJ/mol
# GULP energy per Si atom -5579.872878 kJ/mol
# Density = 1.987248 g / cm^3
# Si number density = 19.917818 Si / 1000 Ang^3
#
#
#
# Elastic Constant Matrix: (Units=GPa)
#
#
# Indices 1 2 3 4 5 6 
#
# 1 23.4048 18.5284 19.7657 0.0000 12.7093 0.0000
# 2 18.5284 16.9564 -2.6079 0.0000 11.4454 0.0000
# 3 19.7657 -2.6079 70.8880 0.0000 42.7477 0.0000
# 4 0.0000 0.0000 0.0000 34.6407 0.0000 12.3194
# 5 12.7093 11.4454 42.7477 0.0000 34.2802 0.0000
# 6 0.0000 0.0000 0.0000 12.3194 0.0000 18.7927
#
#
#
# Elastic Compliance Matrix: (Units=1/GPa)
#
#
# Indices 1 2 3 4 5 6 
#
# 1 0.008077 0.047438 0.043748 0.000000 -0.073387 0.000000
# 2 0.047438 -0.046844 -0.055547 0.000000 0.067320 0.000000
# 3 0.043748 -0.055547 -0.006200 0.000000 0.010058 0.000000
# 4 0.000000 0.000000 0.000000 0.037644 0.000000 -0.024677
# 5 -0.073387 0.067320 0.010058 0.000000 0.021360 0.000000
# 6 0.000000 0.000000 0.000000 -0.024677 0.000000 0.069389
#
#
# Mechanical properties :
#
#
# Convention : Reuss Voigt Hill
#
# Bulk Modulus (GPa) = 38.00710 20.29130 29.14920
# Shear Modulus (GPa) = 239.05835 22.58025 130.81930
#
# Velocity S-wave (km/s) = 10.96736 3.37066 8.11308
# Velocity P-wave (km/s) = 13.39778 5.03568 10.12074
#
# Compressibility (1/GPa) = 0.02631087
#
# Stress axis : x y z
#
# Youngs Moduli (GPa) = 123.81481 -21.34725 -161.27931
#
# Poissons Ratio (x) = 1.01268 7.05562
# Poissons Ratio (y) = -5.87356 -8.95851
# Poissons Ratio (z) = -5.41663 -1.18577
#
# Static dielectric constant tensor:
#      x y z
#    x 1.701710 0.000000 -0.044960 
#    y 0.000000 1.699010 0.000000 
#    z -0.044960 0.000000 1.700730 
# 
# From -- ./inp_files/37249.got.cif
#   From: 2010.05.17/outbox.ucp.g08.bks.cvg/sg10_19_cif.got.tgz:37249.got - 2010.06.11 11:31:16.
