data_PCOD9155159
_publ_section_title
;
Structure prediction by ZEFSAII (Michael W. Deem and Ramdas Pophale) SiO2 
 PCOD9155159
Probable space group: P 2/M
;
_chemical_formula_sum "Si O2"
_cell_formula_units_Z 32
_cell_length_a 27.000000
_cell_length_b 9.000000
_cell_length_c 21.000000
_cell_angle_alpha 90.000000
_cell_angle_beta 20.000000
_cell_angle_gamma 90.000000
_cell_volume 1745.328791
_symmetry_space_group_name_H-M "P 2/M"
_symmetry_group_IT_number 10
_symmetry_cell_setting 'monoclinic'
loop_
_space_group_symop_operation_xyz
x,y,z
-x,y,-z
-x,-y,-z
x,-y,z
loop_
_atom_site_type_symbol
_atom_site_label
_atom_site_fract_x
_atom_site_fract_y
_atom_site_fract_z
Si Si1 0.911097 0.821510 0.901166
Si Si2 0.475429 0.177201 0.927002
Si Si3 0.383043 0.668565 0.775452
Si Si4 0.267640 0.178916 0.295828
Si Si5 0.939779 0.175296 0.006343
Si Si6 0.980253 0.678194 0.683969
Si Si7 0.328451 0.327700 0.988718
Si Si8 0.601434 0.163819 0.439214
O O1 0.979073 0.748100 0.756205
O O2 0.922950 0.000000 0.883815
O O3 0.741863 0.775384 0.100814
O O4 0.974250 0.768927 0.893244
O O5 0.629780 0.224044 0.768976
O O6 0.480166 0.000000 0.916738
O O7 0.356691 0.213321 0.124458
O O8 0.426179 0.243323 0.920425
O O9 0.342039 0.500000 0.808486
O O10 0.537435 0.711667 0.561549
O O11 0.386676 0.681838 0.846758
O O12 0.119586 0.265573 0.479057
O O13 0.245778 0.000000 0.324746
O O14 0.766678 0.183851 0.221027
O O15 0.981877 0.000000 0.954962
O O16 0.000000 0.240185 0.000000
O O17 0.973441 0.500000 0.698007
O O18 0.836245 0.728192 0.820169
O O19 0.322971 0.500000 0.014425
O O20 0.500000 0.165878 0.500000
O O21 0.586987 0.000000 0.486940
#
# Coordination Sequence:
#
# PCOD9155159 Si02
#       8
#     4   4   4   4   4   4   4   4
#     4  10  18  33  56  77 103 138 176 218 263 309
#     4   9  19  36  58  81 107 137 176 222 263 305
#     4  10  20  34  52  77 108 139 174 215 264 313
#     4   9  19  37  57  80 108 139 176 218 261 312
#     4   9  18  33  52  75 104 133 168 217 266 310
#     4  10  21  36  54  80 110 142 178 216 260 317
#     4   9  20  36  52  75 110 143 175 216 263 315
#     4  10  18  32  54  79 100 130 178 220 257 309
#
# _framework density 18.334654
#
# number of rings (size 3 to 8) (size 9 to 14) (size 15 to 20)
#    0.000    2.500    1.250    2.625    0.000    4.750 
#    2.250    3.750    0.000    2.625    0.000    0.000 
#    0.000    0.000    0.000    0.000    0.000    0.000 
#
# Total GULP energy -178261.489611 kJ/mol
# GULP energy per Si atom -5570.671550 kJ/mol
# Density = 1.829292 g / cm^3
# Si number density = 18.334654 Si / 1000 Ang^3
#
#
#
# Elastic Constant Matrix: (Units=GPa)
#
#
# Indices 1 2 3 4 5 6 
#
# 1 13.9881 -0.9836 -21.6347 0.0000 -20.7760 0.0000
# 2 -0.9836 19.5624 10.0240 0.0000 0.7147 0.0000
# 3 -21.6347 10.0240 4.0134 0.0000 1.9863 0.0000
# 4 0.0000 0.0000 0.0000 6.1345 0.0000 -12.6483
# 5 -20.7760 0.7147 1.9863 0.0000 1.6230 0.0000
# 6 0.0000 0.0000 0.0000 -12.6483 0.0000 54.8031
#
#
#
# Elastic Compliance Matrix: (Units=1/GPa)
#
#
# Indices 1 2 3 4 5 6 
#
# 1 -0.003915 0.001600 0.000127 0.000000 -0.050977 0.000000
# 2 0.001600 -0.030374 0.171767 0.000000 -0.176351 0.000000
# 3 0.000127 0.171767 -0.361462 0.000000 0.368356 0.000000
# 4 0.000000 0.000000 0.000000 0.311013 0.000000 0.071780
# 5 -0.050977 -0.176351 0.368356 0.000000 -0.409554 0.000000
# 6 0.000000 0.000000 0.000000 0.071780 0.000000 0.034814
#
#
# Mechanical properties :
#
#
# Convention : Reuss Voigt Hill
#
# Bulk Modulus (GPa) = -20.50791 1.37503 -9.56644
# Shear Modulus (GPa) = -6.07740 15.85599 4.88929
#
# Velocity S-wave (km/s) = -1.82261 2.94396 1.63477
# Velocity P-wave (km/s) = 3.95459 3.50819 1.29062
#
# Compressibility (1/GPa) = -0.04876166
#
# Stress axis : x y z
#
# Youngs Moduli (GPa) = -255.42492 -32.92327 -2.76654
#
# Poissons Ratio (x) = 0.05269 0.00035
# Poissons Ratio (y) = 0.40876 0.47520
# Poissons Ratio (z) = 0.03253 5.65512
#
# Static dielectric constant tensor:
#      x y z
#    x 1.637990 0.000000 0.029070 
#    y 0.000000 1.629880 0.000000 
#    z 0.029070 0.000000 1.672800 
# 
# From -- ./inp_files/83347.got.cif
#   From: 2010.05.17/outbox.ucp.g08.bks.cvg/sg10_42_cif.got.tgz:83347.got - 2010.06.11 11:31:16.
