data_PCOD9155789
_publ_section_title
;
Structure prediction by ZEFSAII (Michael W. Deem and Ramdas Pophale) SiO2 
 PCOD9155789
Probable space group: P 21/M
;
_chemical_formula_sum "Si O2"
_cell_formula_units_Z 24
_cell_length_a 8.600297
_cell_length_b 18.292242
_cell_length_c 15.294555
_cell_angle_alpha 90.000000
_cell_angle_beta 38.461327
_cell_angle_gamma 90.000000
_cell_volume 1496.573401
_symmetry_space_group_name_H-M "P 21/M"
_symmetry_group_IT_number 11
_symmetry_cell_setting 'monoclinic'
loop_
_space_group_symop_operation_xyz
x,y,z
-x,1/2+y,-z
-x,-y,-z
x,1/2-y,z
loop_
_atom_site_type_symbol
_atom_site_label
_atom_site_fract_x
_atom_site_fract_y
_atom_site_fract_z
Si Si1 0.754231 0.970374 0.230158
Si Si2 0.816858 0.929640 0.011104
Si Si3 0.606860 0.553053 0.827861
Si Si4 0.503321 0.164283 0.969352
Si Si5 0.985204 0.423872 0.709568
Si Si6 0.759400 0.955100 0.573364
O O1 0.812968 0.922838 0.117582
O O2 0.848486 0.934298 0.277552
O O3 0.463500 0.991217 0.358615
O O4 0.915761 0.044212 0.141730
O O5 0.699210 0.861436 0.013402
O O6 0.630566 0.998268 0.072651
O O7 0.831812 0.500099 0.761287
O O8 0.661362 0.581376 0.706027
O O9 0.556458 0.616593 0.918369
O O10 0.497400 0.250000 0.987282
O O11 0.773800 0.136874 0.817012
O O12 0.149208 0.410340 0.550758
O O13 0.000000 0.000000 0.500000
#
# Coordination Sequence:
#
# PCOD9155789 Si02
#       6
#     4   4   4   4   4   4
#     4  10  16  28  55  78 102 126 165 220 263 285
#     4   9  17  30  52  78 100 130 169 215 256 292
#     4   9  16  33  51  74 103 129 166 212 250 304
#     4  11  20  33  52  73 102 140 170 205 255 314
#     4  10  17  32  52  79 102 128 170 213 253 301
#     4   9  19  29  50  82 104 126 165 213 262 301
#
# _framework density 16.036635
#
# number of rings (size 3 to 8) (size 9 to 14) (size 15 to 20)
#    0.000    2.333    3.333    2.500    0.000    0.000 
#    0.000    1.667    0.000    1.000    0.000    0.000 
#    0.000    0.000    0.000    0.000    0.000    0.000 
#
# Total GULP energy -133695.702274 kJ/mol
# GULP energy per Si atom -5570.654261 kJ/mol
# Density = 1.600013 g / cm^3
# Si number density = 16.036635 Si / 1000 Ang^3
#
#
#
# Elastic Constant Matrix: (Units=GPa)
#
#
# Indices 1 2 3 4 5 6 
#
# 1 98.7976 15.9315 21.5860 0.0000 6.3867 0.0000
# 2 15.9315 68.8355 24.3547 0.0000 13.6056 0.0000
# 3 21.5860 24.3547 74.1623 0.0000 8.6803 0.0000
# 4 0.0000 0.0000 0.0000 8.8032 0.0000 -0.2843
# 5 6.3867 13.6056 8.6803 0.0000 39.9672 0.0000
# 6 0.0000 0.0000 0.0000 -0.2843 0.0000 10.1570
#
#
#
# Elastic Compliance Matrix: (Units=1/GPa)
#
#
# Indices 1 2 3 4 5 6 
#
# 1 0.010979 -0.001475 -0.002631 0.000000 -0.000681 0.000000
# 2 -0.001475 0.017479 -0.004763 0.000000 -0.004680 0.000000
# 3 -0.002631 -0.004763 0.015981 0.000000 -0.001429 0.000000
# 4 0.000000 0.000000 0.000000 0.113697 0.000000 0.003183
# 5 -0.000681 -0.004680 -0.001429 0.000000 0.027033 0.000000
# 6 0.000000 0.000000 0.000000 0.003183 0.000000 0.098543
#
#
# Mechanical properties :
#
#
# Convention : Reuss Voigt Hill
#
# Bulk Modulus (GPa) = 37.45367 40.61554 39.03460
# Shear Modulus (GPa) = 16.11078 23.78036 19.94557
#
# Velocity S-wave (km/s) = 3.17302 3.85499 3.53051
# Velocity P-wave (km/s) = 6.06876 6.72282 6.40415
#
# Compressibility (1/GPa) = 0.02669965
#
# Stress axis : x y z
#
# Youngs Moduli (GPa) = 91.08701 57.21140 62.57351
#
# Poissons Ratio (x) = 0.08441 0.16465
# Poissons Ratio (y) = 0.13439 0.29803
# Poissons Ratio (z) = 0.23968 0.27249
#
# Static dielectric constant tensor:
#      x y z
#    x 1.573290 0.000000 0.007890 
#    y 0.000000 1.481520 0.000000 
#    z 0.007890 0.000000 1.580200 
# 
# From -- ./inp_files/18275.got.cif
#   From: 2010.05.17/outbox.cif.g08.bks.cpg/sg11_10_cif.got.tgz:18275.got - 2010.06.03 12:22:45.
