data_PCOD9155804
_publ_section_title
;
Structure prediction by ZEFSAII (Michael W. Deem and Ramdas Pophale) SiO2 
 PCOD9155804
Probable space group: P 21/M
;
_chemical_formula_sum "Si O2"
_cell_formula_units_Z 26
_cell_length_a 13.845933
_cell_length_b 7.388424
_cell_length_c 11.321313
_cell_angle_alpha 90.000000
_cell_angle_beta 119.313755
_cell_angle_gamma 90.000000
_cell_volume 1009.864935
_symmetry_space_group_name_H-M "P 21/M"
_symmetry_group_IT_number 11
_symmetry_cell_setting 'monoclinic'
loop_
_space_group_symop_operation_xyz
x,y,z
-x,1/2+y,-z
-x,-y,-z
x,1/2-y,z
loop_
_atom_site_type_symbol
_atom_site_label
_atom_site_fract_x
_atom_site_fract_y
_atom_site_fract_z
Si Si1 0.580134 0.030687 0.781780
Si Si2 0.848052 0.961892 0.695396
Si Si3 0.290570 0.457213 0.750773
Si Si4 0.500000 0.500000 0.000000
Si Si5 0.629268 0.532830 0.464631
Si Si6 0.926785 0.469299 0.251507
Si Si7 0.830544 0.031936 0.942391
O O1 0.581739 0.250000 0.778463
O O2 0.527233 0.981337 0.875964
O O3 0.496191 0.965077 0.629082
O O4 0.704628 0.964122 0.854146
O O5 0.837864 0.750000 0.660297
O O6 0.723926 0.039835 0.608539
O O7 0.946034 0.033447 0.670703
O O8 0.887365 0.975741 0.854209
O O9 0.332389 0.250000 0.792373
O O10 0.313520 0.502404 0.629235
O O11 0.162028 0.469256 0.705532
O O12 0.368529 0.553420 0.892695
O O13 0.619435 0.750000 0.474104
O O14 0.927433 0.250000 0.254964
O O15 0.878971 0.529232 0.095679
O O16 0.830787 0.250000 0.944744
#
# Coordination Sequence:
#
# PCOD9155804 Si02
#       7
#     4   4   4   2   4   4   4
#     4   9  17  31  52  76 106 141 169 208 272 323
#     4  10  21  37  55  75 105 144 185 222 258 309
#     4  10  20  33  56  84 108 139 178 217 264 323
#     4  10  16  30  52  78 106 132 166 210 258 310
#     4   8  17  34  53  77 108 142 175 213 266 320
#     4  10  21  36  54  78 109 143 175 221 274 311
#     4  10  20  35  54  77 105 141 178 219 272 316
#
# _framework density 25.746017999999999
#
# number of rings (size 3 to 8) (size 9 to 14) (size 15 to 20)
#    0.000    2.462    1.538    1.846    0.000    3.077 
#    0.000    0.769    0.000    1.846    0.000    0.000 
#    0.000    0.000    0.000    0.000    0.000    0.000 
#
# Total GULP energy -144814.522767 kJ/mol
# GULP energy per Si atom -5569.789337 kJ/mol
# Density = 2.568742 g / cm^3
# Si number density = 25.746018 Si / 1000 Ang^3
#
#
#
# Elastic Constant Matrix: (Units=GPa)
#
#
# Indices 1 2 3 4 5 6 
#
# 1 95.5066 -2.6751 -16.4191 0.0000 16.5066 0.0000
# 2 -2.6751 86.7720 2.1518 0.0000 9.3696 0.0000
# 3 -16.4191 2.1518 80.2755 0.0000 4.7191 0.0000
# 4 0.0000 0.0000 0.0000 -15.8251 0.0000 -30.6042
# 5 16.5066 9.3696 4.7191 0.0000 42.5692 0.0000
# 6 0.0000 0.0000 0.0000 -30.6042 0.0000 -27.7012
#
#
#
# Elastic Compliance Matrix: (Units=1/GPa)
#
#
# Indices 1 2 3 4 5 6 
#
# 1 0.011835 0.000846 0.002696 0.000000 -0.005074 0.000000
# 2 0.000846 0.011868 0.000028 0.000000 -0.002943 0.000000
# 3 0.002696 0.000028 0.013155 0.000000 -0.002510 0.000000
# 4 0.000000 0.000000 0.000000 0.055598 0.000000 -0.061424
# 5 -0.005074 -0.002943 -0.002510 0.000000 0.026385 0.000000
# 6 0.000000 0.000000 0.000000 -0.061424 0.000000 0.031762
#
#
# Mechanical properties :
#
#
# Convention : Reuss Voigt Hill
#
# Bulk Modulus (GPa) = 22.72847 25.40771 24.06809
# Shear Modulus (GPa) = 31.61998 18.44168 25.03083
#
# Velocity S-wave (km/s) = 3.50830 2.67927 3.12143
# Velocity P-wave (km/s) = 5.02573 4.41150 4.72860
#
# Compressibility (1/GPa) = 0.04399768
#
# Stress axis : x y z
#
# Youngs Moduli (GPa) = 84.49752 84.26269 76.01458
#
# Poissons Ratio (x) = -0.07128 -0.20495
# Poissons Ratio (y) = -0.07147 -0.00212
# Poissons Ratio (z) = -0.22782 -0.00235
#
# Static dielectric constant tensor:
#      x y z
#    x 2.046490 0.000000 0.094160 
#    y 0.000000 2.054780 0.000000 
#    z 0.094160 0.000000 1.975490 
# 
# From -- ./inp_files/37782.got.cif
#   From: 2010.05.17/outbox.cif.g08.bks.cpg/sg11_19_cif.got.tgz:37782.got - 2010.06.03 12:22:45.
