data_PCOD9155072
_publ_section_title
;
Structure prediction by ZEFSAII (Michael W. Deem and Ramdas Pophale) SiO2 
 PCOD9155072
Probable space group: P 2/M
;
_chemical_formula_sum "Si O2"
_cell_formula_units_Z 32
_cell_length_a 24.591018
_cell_length_b 11.363617
_cell_length_c 5.293276
_cell_angle_alpha 90.000000
_cell_angle_beta 92.728165
_cell_angle_gamma 90.000000
_cell_volume 1477.491958
_symmetry_space_group_name_H-M "P 2/M"
_symmetry_group_IT_number 10
_symmetry_cell_setting 'monoclinic'
loop_
_space_group_symop_operation_xyz
x,y,z
-x,y,-z
-x,-y,-z
x,-y,z
loop_
_atom_site_type_symbol
_atom_site_label
_atom_site_fract_x
_atom_site_fract_y
_atom_site_fract_z
Si Si1 0.734272 0.626749 0.021266
Si Si2 0.962857 0.374532 0.243918
Si Si3 0.623714 0.859733 0.489223
Si Si4 0.808175 0.626488 0.532855
Si Si5 0.159560 0.873792 0.306570
Si Si6 0.939428 0.874428 0.105390
Si Si7 0.718617 0.868788 0.859649
Si Si8 0.562659 0.143769 0.979235
O O1 0.704250 0.500000 0.027450
O O2 0.775992 0.626584 0.263244
O O3 0.766524 0.627224 0.761304
O O4 0.705676 0.753651 0.019865
O O5 0.932030 0.500000 0.224639
O O6 0.933173 0.249615 0.242274
O O7 0.000000 0.376582 0.500000
O O8 0.000000 0.373262 0.000000
O O9 0.686629 0.847240 0.588817
O O10 0.598550 0.814729 0.224461
O O11 0.615482 0.000000 0.474948
O O12 0.588856 0.816141 0.721711
O O13 0.837990 0.500000 0.564129
O O14 0.839787 0.748973 0.555138
O O15 0.216522 0.873379 0.163880
O O16 0.161675 0.000000 0.449964
O O17 0.107148 0.875369 0.116420
O O18 0.936123 0.000000 0.247387
O O19 0.000000 0.873409 0.000000
O O20 0.701162 0.000000 0.948733
O O21 0.563403 0.000000 0.973474
O O22 0.500000 0.178682 0.000000
#
# Coordination Sequence:
#
# PCOD9155072 Si02
#       8
#     4   4   4   4   4   4   4   4
#     4   9  18  33  52  74 102 136 174 212 252 305
#     4   9  18  34  56  80 104 130 164 209 260 313
#     4   9  17  27  42  66  96 131 168 206 249 297
#     4   9  18  33  52  73  98 131 169 210 257 308
#     4   9  18  33  53  77 105 138 175 215 262 316
#     4   9  18  34  55  78 104 136 175 218 263 313
#     4   9  18  32  50  74 105 138 172 213 262 312
#     4   9  16  27  43  65  97 135 170 204 246 296
#
# _framework density 21.658325000000001
#
# number of rings (size 3 to 8) (size 9 to 14) (size 15 to 20)
#    0.000    3.000    0.000    0.375    0.000    4.750 
#    0.000    8.750    0.000   27.000    0.000    0.000 
#    0.000    3.000    0.000    0.000    0.000    0.000 
#
# Total GULP energy -178253.392189 kJ/mol
# GULP energy per Si atom -5570.418506 kJ/mol
# Density = 2.160903 g / cm^3
# Si number density = 21.658325 Si / 1000 Ang^3
#
#
#
# Elastic Constant Matrix: (Units=GPa)
#
#
# Indices 1 2 3 4 5 6 
#
# 1 110.8229 3.7065 37.1457 0.0000 6.4226 0.0000
# 2 3.7065 244.1730 26.8517 0.0000 15.3614 0.0000
# 3 37.1457 26.8517 101.0660 0.0000 2.1552 0.0000
# 4 0.0000 0.0000 0.0000 73.4617 0.0000 2.4546
# 5 6.4226 15.3614 2.1552 0.0000 28.3604 0.0000
# 6 0.0000 0.0000 0.0000 2.4546 0.0000 -8.7422
#
#
#
# Elastic Compliance Matrix: (Units=1/GPa)
#
#
# Indices 1 2 3 4 5 6 
#
# 1 0.010450 0.000415 -0.003902 0.000000 -0.002295 0.000000
# 2 0.000415 0.004377 -0.001265 0.000000 -0.002369 0.000000
# 3 -0.003902 -0.001265 0.011650 0.000000 0.000684 0.000000
# 4 0.000000 0.000000 0.000000 0.013486 0.000000 0.003787
# 5 -0.002295 -0.002369 0.000684 0.000000 0.037011 0.000000
# 6 0.000000 0.000000 0.000000 0.003787 0.000000 -0.113325
#
#
# Mechanical properties :
#
#
# Convention : Reuss Voigt Hill
#
# Bulk Modulus (GPa) = 58.91580 65.71885 62.31733
# Shear Modulus (GPa) = -235.99451 44.50652 -95.74400
#
# Velocity S-wave (km/s) = -10.44983 4.53806 -6.65601
# Velocity P-wave (km/s) = 10.87829 7.60710 5.49860
#
# Compressibility (1/GPa) = 0.01697337
#
# Stress axis : x y z
#
# Youngs Moduli (GPa) = 95.68940 228.45188 85.83509
#
# Poissons Ratio (x) = -0.09478 0.33495
# Poissons Ratio (y) = -0.03970 0.10858
# Poissons Ratio (z) = 0.37340 0.28898
#
# Static dielectric constant tensor:
#      x y z
#    x 1.798090 0.000000 -0.024090 
#    y 0.000000 1.881890 0.000000 
#    z -0.024090 0.000000 1.784380 
# 
# From -- ./inp_files/13255.got.cif
#   From: 2010.05.17/outbox.cif.g08.bks.cpg/sg10_7_cif.got.tgz:13255.got - 2010.06.03 11:33:40.
