data_PCOD9155818
_publ_section_title
;
Structure prediction by ZEFSAII (Michael W. Deem and Ramdas Pophale) SiO2 
 PCOD9155818
Probable space group: P 21/M
;
_chemical_formula_sum "Si O2"
_cell_formula_units_Z 32
_cell_length_a 12.795665
_cell_length_b 28.033379
_cell_length_c 8.831670
_cell_angle_alpha 90.000000
_cell_angle_beta 24.898678
_cell_angle_gamma 90.000000
_cell_volume 1333.762779
_symmetry_space_group_name_H-M "P 21/M"
_symmetry_group_IT_number 11
_symmetry_cell_setting 'monoclinic'
loop_
_space_group_symop_operation_xyz
x,y,z
-x,1/2+y,-z
-x,-y,-z
x,1/2-y,z
loop_
_atom_site_type_symbol
_atom_site_label
_atom_site_fract_x
_atom_site_fract_y
_atom_site_fract_z
Si Si1 0.309861 0.803125 0.043044
Si Si2 0.260320 0.023227 0.469078
Si Si3 0.766792 0.448487 0.263037
Si Si4 0.193811 0.302613 0.088574
Si Si5 0.472517 0.153236 0.967822
Si Si6 0.126006 0.435463 0.356999
Si Si7 0.995019 0.106376 0.226388
Si Si8 0.393552 0.593736 0.821901
O O1 0.335260 0.750000 0.944158
O O2 0.041892 0.804214 0.483149
O O3 0.515834 0.812899 0.902707
O O4 0.346764 0.849592 0.890847
O O5 0.253450 0.024196 0.295510
O O6 0.386778 0.071463 0.366126
O O7 0.365561 0.980636 0.435541
O O8 0.971043 0.022647 0.899374
O O9 0.931091 0.412167 0.145542
O O10 0.590560 0.424058 0.372020
O O11 0.197129 0.250000 0.017436
O O12 0.436905 0.313937 0.867708
O O13 0.155446 0.345696 0.023176
O O14 0.262606 0.113518 0.225466
O O15 0.725479 0.123306 0.640312
O O16 0.101793 0.431573 0.207503
O O17 0.849574 0.429888 0.784098
#
# Coordination Sequence:
#
# PCOD9155818 Si02
#       8
#     4   4   4   4   4   4   4   4
#     4  10  18  30  54  86 110 137 183 228 272 322
#     4  10  21  40  61  77 105 150 196 232 278 328
#     4  10  24  38  56  82 107 151 190 227 282 342
#     4   9  18  32  55  83 112 146 184 221 267 335
#     4  10  16  32  54  82 112 144 173 224 274 324
#     4  10  18  34  59  80 110 140 183 231 274 323
#     4  10  20  35  54  84 116 142 179 230 283 323
#     4  11  19  37  57  80 114 144 184 234 272 330
#
# _framework density 23.992273000000001
#
# number of rings (size 3 to 8) (size 9 to 14) (size 15 to 20)
#    0.000    2.000    5.000    0.750    0.000    3.000 
#    0.000    3.125    0.000    2.250    0.000    0.000 
#    0.000    0.000    0.000    0.000    0.000    0.000 
#
# Total GULP energy -178642.629014 kJ/mol
# GULP energy per Si atom -5582.582157 kJ/mol
# Density = 2.393767 g / cm^3
# Si number density = 23.992273 Si / 1000 Ang^3
#
#
#
# Elastic Constant Matrix: (Units=GPa)
#
#
# Indices 1 2 3 4 5 6 
#
# 1 127.3749 51.3346 8.1398 0.0000 2.4530 0.0000
# 2 51.3346 119.0741 -2.8144 0.0000 -2.4537 0.0000
# 3 8.1398 -2.8144 63.1927 0.0000 1.6524 0.0000
# 4 0.0000 0.0000 0.0000 13.5177 0.0000 1.5738
# 5 2.4530 -2.4537 1.6524 0.0000 23.9615 0.0000
# 6 0.0000 0.0000 0.0000 1.5738 0.0000 38.4954
#
#
#
# Elastic Compliance Matrix: (Units=1/GPa)
#
#
# Indices 1 2 3 4 5 6 
#
# 1 0.009670 -0.004229 -0.001399 0.000000 -0.001327 0.000000
# 2 -0.004229 0.010274 0.000965 0.000000 0.001418 0.000000
# 3 -0.001399 0.000965 0.016071 0.000000 -0.000866 0.000000
# 4 0.000000 0.000000 0.000000 0.074331 0.000000 -0.003039
# 5 -0.001327 0.001418 -0.000866 0.000000 0.042074 0.000000
# 6 0.000000 0.000000 0.000000 -0.003039 0.000000 0.026101
#
#
# Mechanical properties :
#
#
# Convention : Reuss Voigt Hill
#
# Bulk Modulus (GPa) = 37.47085 46.99574 42.23329
# Shear Modulus (GPa) = 25.41379 32.06038 28.73708
#
# Velocity S-wave (km/s) = 3.25814 3.65948 3.46463
# Velocity P-wave (km/s) = 5.45947 6.12259 5.80051
#
# Compressibility (1/GPa) = 0.02668741
#
# Stress axis : x y z
#
# Youngs Moduli (GPa) = 103.40881 97.33735 62.22579
#
# Poissons Ratio (x) = 0.41168 0.08707
# Poissons Ratio (y) = 0.43736 -0.06006
# Poissons Ratio (z) = 0.14470 -0.09396
#
# Static dielectric constant tensor:
#      x y z
#    x 1.937330 0.000000 -0.002930 
#    y 0.000000 1.955240 0.000000 
#    z -0.002930 0.000000 1.928910 
# 
# From -- ./inp_files/19872.got.cif
#   From: 2010.05.17/outbox.cif.g08.bks.cpg/sg11_10_cif.got.tgz:19872.got - 2010.06.03 12:22:45.
