data_PCOD9155094
_publ_section_title
;
Structure prediction by ZEFSAII (Michael W. Deem and Ramdas Pophale) SiO2 
 PCOD9155094
Probable space group: P 2/M
;
_chemical_formula_sum "Si O2"
_cell_formula_units_Z 26
_cell_length_a 15.000000
_cell_length_b 9.000000
_cell_length_c 12.000000
_cell_angle_alpha 90.000000
_cell_angle_beta 120.000000
_cell_angle_gamma 90.000000
_cell_volume 1402.961154
_symmetry_space_group_name_H-M "P 2/M"
_symmetry_group_IT_number 10
_symmetry_cell_setting 'monoclinic'
loop_
_space_group_symop_operation_xyz
x,y,z
-x,y,-z
-x,-y,-z
x,-y,z
loop_
_atom_site_type_symbol
_atom_site_label
_atom_site_fract_x
_atom_site_fract_y
_atom_site_fract_z
Si Si1 0.678953 0.819672 0.924431
Si Si2 0.086275 0.180388 0.335145
Si Si3 0.466437 0.330987 0.736299
Si Si4 0.856636 0.675622 0.189296
Si Si5 0.728422 0.174592 0.707336
Si Si6 0.226090 0.324978 0.610231
Si Si7 0.500000 0.264772 0.500000
O O1 0.559796 0.760970 0.852536
O O2 0.717781 0.769208 0.826225
O O3 0.677153 0.000000 0.930530
O O4 0.764652 0.753859 0.061544
O O5 0.171163 0.232104 0.295277
O O6 0.146857 0.233369 0.484005
O O7 0.971316 0.250300 0.251159
O O8 0.077082 0.000000 0.327853
O O9 0.470350 0.500000 0.781693
O O10 0.347389 0.277153 0.678207
O O11 0.489089 0.335184 0.616782
O O12 0.864087 0.500000 0.164745
O O13 0.817284 0.685146 0.292102
O O14 0.614377 0.191155 0.581382
O O15 0.746495 0.000000 0.726420
O O16 0.224565 0.500000 0.575048
#
# Coordination Sequence:
#
# PCOD9155094 Si02
#       7
#     4   4   4   4   4   4   2
#     4  10  22  40  60  85 117 155 194 236 286 345
#     4  11  22  38  61  90 117 148 192 243 289 338
#     4  10  20  35  58  89 119 149 188 237 289 341
#     4  11  24  42  60  79 114 160 200 238 283 341
#     4   9  19  34  57  87 119 151 184 231 294 348
#     4  10  22  40  60  85 118 155 192 234 290 345
#     4  10  16  32  58  86 117 152 185 232 279 346
#
# _framework density 18.532230999999999
#
# number of rings (size 3 to 8) (size 9 to 14) (size 15 to 20)
#    0.000    1.846    1.538    2.308    0.000    5.538 
#    0.000    8.462    0.000    0.000    0.000    0.000 
#    0.000    0.000    0.000    0.000    0.000    0.000 
#
# Total GULP energy -144762.041919 kJ/mol
# GULP energy per Si atom -5567.770843 kJ/mol
# Density = 1.849005 g / cm^3
# Si number density = 18.532231 Si / 1000 Ang^3
#
#
#
# Elastic Constant Matrix: (Units=GPa)
#
#
# Indices 1 2 3 4 5 6 
#
# 1 130.1652 32.8271 38.9838 0.0000 32.1999 0.0000
# 2 32.8271 75.5857 44.9004 0.0000 18.3182 0.0000
# 3 38.9838 44.9004 106.7860 0.0000 33.3198 0.0000
# 4 0.0000 0.0000 0.0000 28.8990 0.0000 8.9124
# 5 32.1999 18.3182 33.3198 0.0000 38.5500 0.0000
# 6 0.0000 0.0000 0.0000 8.9124 0.0000 31.4868
#
#
#
# Elastic Compliance Matrix: (Units=1/GPa)
#
#
# Indices 1 2 3 4 5 6 
#
# 1 0.010154 -0.002422 -0.000549 0.000000 -0.006856 0.000000
# 2 -0.002422 0.018420 -0.006519 0.000000 -0.001095 0.000000
# 3 -0.000549 -0.006519 0.015331 0.000000 -0.009694 0.000000
# 4 0.000000 0.000000 0.000000 0.037913 0.000000 -0.010731
# 5 -0.006856 -0.001095 -0.009694 0.000000 0.040566 0.000000
# 6 0.000000 0.000000 0.000000 -0.010731 0.000000 0.034797
#
#
# Mechanical properties :
#
#
# Convention : Reuss Voigt Hill
#
# Bulk Modulus (GPa) = 40.12246 60.66217 50.39231
# Shear Modulus (GPa) = 27.10476 32.84220 29.97348
#
# Velocity S-wave (km/s) = 3.82851 4.21428 4.02602
# Velocity P-wave (km/s) = 6.42187 7.51562 6.99017
#
# Compressibility (1/GPa) = 0.02492369
#
# Stress axis : x y z
#
# Youngs Moduli (GPa) = 98.48537 54.28912 65.22699
#
# Poissons Ratio (x) = 0.13149 0.03583
# Poissons Ratio (y) = 0.23854 0.42522
# Poissons Ratio (z) = 0.05410 0.35392
#
# Static dielectric constant tensor:
#      x y z
#    x 1.656240 0.000000 -0.031900 
#    y 0.000000 1.653780 0.000000 
#    z -0.031900 0.000000 1.643240 
# 
# From -- ./inp_files/49483.got.cif
#   From: 2010.05.17/outbox.ucp.g08.bks.cvg/sg10_25_cif.got.tgz:49483.got - 2010.06.11 11:31:16.
