data_PCOD9155961
_publ_section_title
;
Structure prediction by ZEFSAII (Michael W. Deem and Ramdas Pophale) SiO2 
 PCOD9155961
Probable space group: P 21/M
;
_chemical_formula_sum "Si O2"
_cell_formula_units_Z 28
_cell_length_a 14.038359
_cell_length_b 7.393182
_cell_length_c 13.241419
_cell_angle_alpha 90.000000
_cell_angle_beta 60.612008
_cell_angle_gamma 90.000000
_cell_volume 1197.452502
_symmetry_space_group_name_H-M "P 21/M"
_symmetry_group_IT_number 11
_symmetry_cell_setting 'monoclinic'
loop_
_space_group_symop_operation_xyz
x,y,z
-x,1/2+y,-z
-x,-y,-z
x,1/2-y,z
loop_
_atom_site_type_symbol
_atom_site_label
_atom_site_fract_x
_atom_site_fract_y
_atom_site_fract_z
Si Si1 0.164048 0.033976 0.966192
Si Si2 0.032289 0.027643 0.233401
Si Si3 0.226895 0.046367 0.259566
Si Si4 0.187221 0.543225 0.730196
Si Si5 0.440087 0.027768 0.237222
Si Si6 0.364614 0.538550 0.994058
Si Si7 0.428891 0.534148 0.635343
O O1 0.156475 0.250000 0.963239
O O2 0.139714 0.956493 0.869104
O O3 0.089086 0.972260 0.098239
O O4 0.286461 0.982233 0.936686
O O5 0.033995 0.250000 0.234042
O O6 0.112142 0.965566 0.281997
O O7 0.907064 0.966389 0.292759
O O8 0.203259 0.250000 0.306684
O O9 0.315317 0.964303 0.289967
O O10 0.299579 0.054815 0.118434
O O11 0.203164 0.750000 0.688505
O O12 0.307053 0.459370 0.679812
O O13 0.437610 0.250000 0.237338
O O14 0.502341 0.966509 0.304784
O O15 0.516874 0.972669 0.102992
O O16 0.369843 0.750000 0.015761
O O17 0.500000 0.500000 0.500000
O O18 0.416532 0.750000 0.658466
#
# Coordination Sequence:
#
# PCOD9155961 Si02
#       7
#     4   4   4   4   4   4   4
#     4  10  18  28  44  71 102 131 166 200 232 280
#     4   8  16  28  45  71  99 130 161 191 229 283
#     4   9  17  30  47  71 101 129 162 196 229 284
#     4  10  18  32  51  68  95 128 160 199 247 294
#     4   9  17  31  50  69  95 129 161 198 244 290
#     4  10  17  28  45  69 101 136 166 194 234 286
#     4  10  21  37  54  73  93 122 163 209 254 293
#
# _framework density 23.382974000000001
#
# number of rings (size 3 to 8) (size 9 to 14) (size 15 to 20)
#    0.000    2.571    1.429    2.571    0.000    0.571 
#    0.000    4.286    0.000    0.857    0.000    0.000 
#    0.000    0.000    0.000    0.000    0.000    0.000 
#
# Total GULP energy -156291.175133 kJ/mol
# GULP energy per Si atom -5581.827683 kJ/mol
# Density = 2.332975 g / cm^3
# Si number density = 23.382974 Si / 1000 Ang^3
#
#
#
# Elastic Constant Matrix: (Units=GPa)
#
#
# Indices 1 2 3 4 5 6 
#
# 1 248.7766 7.1439 38.0890 0.0000 -35.0689 0.0000
# 2 7.1439 92.8744 -2.7191 0.0000 -3.3961 0.0000
# 3 38.0890 -2.7191 31.1093 0.0000 -1.4130 0.0000
# 4 0.0000 0.0000 0.0000 11.5487 0.0000 3.2976
# 5 -35.0689 -3.3961 -1.4130 0.0000 19.3582 0.0000
# 6 0.0000 0.0000 0.0000 3.2976 0.0000 1.3258
#
#
#
# Elastic Compliance Matrix: (Units=1/GPa)
#
#
# Indices 1 2 3 4 5 6 
#
# 1 0.006929 -0.000331 -0.007971 0.000000 0.011912 0.000000
# 2 -0.000331 0.010886 0.001421 0.000000 0.001414 0.000000
# 3 -0.007971 0.001421 0.041522 0.000000 -0.011160 0.000000
# 4 0.000000 0.000000 0.000000 0.298793 0.000000 -0.743163
# 5 0.011912 0.001414 -0.011160 0.000000 0.072671 0.000000
# 6 0.000000 0.000000 0.000000 -0.743163 0.000000 2.602654
#
#
# Mechanical properties :
#
#
# Convention : Reuss Voigt Hill
#
# Bulk Modulus (GPa) = 21.94237 50.86531 36.40384
# Shear Modulus (GPa) = 1.63270 28.46300 15.04785
#
# Velocity S-wave (km/s) = 0.83652 3.49270 2.53956
# Velocity P-wave (km/s) = 3.21517 6.16974 4.91950
#
# Compressibility (1/GPa) = 0.04557393
#
# Stress axis : x y z
#
# Youngs Moduli (GPa) = 144.32509 91.86130 24.08383
#
# Poissons Ratio (x) = 0.03038 0.19198
# Poissons Ratio (y) = 0.04774 -0.03422
# Poissons Ratio (z) = 1.15044 -0.13051
#
# Static dielectric constant tensor:
#      x y z
#    x 1.989450 0.000000 -0.018300 
#    y 0.000000 1.850490 0.000000 
#    z -0.018300 0.000000 1.824580 
# 
# From -- ./inp_files/49176.got.cif
#   From: 2010.05.17/outbox.cif.g08.bks.cpg/sg11_25_cif.got.tgz:49176.got - 2010.06.03 12:22:45.
