data_PCOD9155017
_publ_section_title
;
Structure prediction by ZEFSAII (Michael W. Deem and Ramdas Pophale) SiO2 
 PCOD9155017
Probable space group: P 2/M
;
_chemical_formula_sum "Si O2"
_cell_formula_units_Z 28
_cell_length_a 21.822948
_cell_length_b 7.334123
_cell_length_c 24.387908
_cell_angle_alpha 90.000000
_cell_angle_beta 162.242979
_cell_angle_gamma 90.000000
_cell_volume 1190.443926
_symmetry_space_group_name_H-M "P 2/M"
_symmetry_group_IT_number 10
_symmetry_cell_setting 'monoclinic'
loop_
_space_group_symop_operation_xyz
x,y,z
-x,y,-z
-x,-y,-z
x,-y,z
loop_
_atom_site_type_symbol
_atom_site_label
_atom_site_fract_x
_atom_site_fract_y
_atom_site_fract_z
Si Si1 0.805726 0.206492 0.107520
Si Si2 0.671456 0.777580 0.103581
Si Si3 0.108034 0.222777 0.036615
Si Si4 0.078654 0.705162 0.510880
Si Si5 0.040697 0.223602 0.208062
Si Si6 0.778126 0.717833 0.475877
Si Si7 0.550846 0.783428 0.386914
O O1 0.660948 0.284366 0.031303
O O2 0.863948 0.288129 0.098607
O O3 0.025393 0.203572 0.325413
O O4 0.738736 0.000000 0.040558
O O5 0.875690 0.701810 0.302500
O O6 0.681499 0.000000 0.111489
O O7 0.500000 0.725328 0.000000
O O8 0.337838 0.285441 0.226203
O O9 0.109510 0.000000 0.038592
O O10 0.000000 0.282543 0.000000
O O11 0.994668 0.276656 0.884400
O O12 0.147137 0.500000 0.583842
O O13 0.000000 0.795150 0.500000
O O14 0.229922 0.784589 0.594077
O O15 0.254200 0.285703 0.414226
O O16 0.037430 0.000000 0.207800
O O17 0.804626 0.500000 0.495608
O O18 0.593097 0.754266 0.358388
O O19 0.548151 0.000000 0.392982
#
# Coordination Sequence:
#
# PCOD9155017 Si02
#       7
#     4   4   4   4   4   4   4
#     4   8  14  27  46  64  89 121 152 189 232 277
#     4   9  17  29  44  66  94 121 153 194 239 286
#     4   9  17  28  44  71 101 123 152 193 231 277
#     4   9  18  32  47  64  90 124 159 196 238 283
#     4   8  14  26  44  65  91 123 153 188 232 271
#     4   9  16  28  48  68  88 118 156 195 232 272
#     4   9  17  30  48  70  94 123 156 189 235 284
#
# _framework density 23.520637000000001
#
# number of rings (size 3 to 8) (size 9 to 14) (size 15 to 20)
#    0.000    3.286    0.000    1.286    0.000    1.714 
#    2.571    2.857    0.000    3.857    0.000    4.000 
#    0.000    0.000    0.000    0.000    0.000    0.000 
#
# Total GULP energy -156135.136554 kJ/mol
# GULP energy per Si atom -5576.254877 kJ/mol
# Density = 2.346710 g / cm^3
# Si number density = 23.520637 Si / 1000 Ang^3
#
#
#
# Elastic Constant Matrix: (Units=GPa)
#
#
# Indices 1 2 3 4 5 6 
#
# 1 288.4176 3.0898 77.5587 0.0000 19.2202 0.0000
# 2 3.0898 99.7011 1.6837 0.0000 1.6706 0.0000
# 3 77.5587 1.6837 79.6100 0.0000 13.5923 0.0000
# 4 0.0000 0.0000 0.0000 2.1720 0.0000 -9.8895
# 5 19.2202 1.6706 13.5923 0.0000 38.6173 0.0000
# 6 0.0000 0.0000 0.0000 -9.8895 0.0000 16.1115
#
#
#
# Elastic Compliance Matrix: (Units=1/GPa)
#
#
# Indices 1 2 3 4 5 6 
#
# 1 0.004720 -0.000058 -0.004465 0.000000 -0.000775 0.000000
# 2 -0.000058 0.010040 -0.000092 0.000000 -0.000373 0.000000
# 3 -0.004465 -0.000092 0.017590 0.000000 -0.003965 0.000000
# 4 0.000000 0.000000 0.000000 -0.256523 0.000000 -0.157458
# 5 -0.000775 -0.000373 -0.003965 0.000000 0.027693 0.000000
# 6 0.000000 0.000000 0.000000 -0.157458 0.000000 -0.034582
#
#
# Mechanical properties :
#
#
# Convention : Reuss Voigt Hill
#
# Bulk Modulus (GPa) = 43.25329 70.26590 56.75959
# Shear Modulus (GPa) = -23.35074 37.07325 6.86126
#
# Velocity S-wave (km/s) = -3.15425 3.97445 1.70981
# Velocity P-wave (km/s) = 2.27237 7.14147 5.29926
#
# Compressibility (1/GPa) = 0.02311963
#
# Stress axis : x y z
#
# Youngs Moduli (GPa) = 211.85771 99.60570 56.85029
#
# Poissons Ratio (x) = 0.00577 0.25383
# Poissons Ratio (y) = 0.01226 0.00524
# Poissons Ratio (z) = 0.94593 0.00919
#
# Static dielectric constant tensor:
#      x y z
#    x 1.942270 0.000000 0.025440 
#    y 0.000000 1.924060 0.000000 
#    z 0.025440 0.000000 1.870410 
# 
# From -- ./inp_files/86463.got.cif
#   From: 2010.05.17/outbox.cif.g08.bks.cpg/sg10_44_cif.got.tgz:86463.got - 2010.06.03 11:33:40.
