data_PCOD9155286
_publ_section_title
;
Structure prediction by ZEFSAII (Michael W. Deem and Ramdas Pophale) SiO2 
 PCOD9155286
Probable space group: P 2/M
;
_chemical_formula_sum "Si O2"
_cell_formula_units_Z 28
_cell_length_a 9.000000
_cell_length_b 9.000000
_cell_length_c 27.000000
_cell_angle_alpha 90.000000
_cell_angle_beta 140.000000
_cell_angle_gamma 90.000000
_cell_volume 1405.776502
_symmetry_space_group_name_H-M "P 2/M"
_symmetry_group_IT_number 10
_symmetry_cell_setting 'monoclinic'
loop_
_space_group_symop_operation_xyz
x,y,z
-x,y,-z
-x,-y,-z
x,-y,z
loop_
_atom_site_type_symbol
_atom_site_label
_atom_site_fract_x
_atom_site_fract_y
_atom_site_fract_z
Si Si1 0.181959 0.324788 0.085723
Si Si2 0.207607 0.831179 0.666863
Si Si3 0.677090 0.676282 0.770431
Si Si4 0.881334 0.328359 0.517919
Si Si5 0.104663 0.829576 0.265826
Si Si6 0.618361 0.328352 0.581843
Si Si7 0.383373 0.163177 0.823484
O O1 0.136537 0.500000 0.078468
O O2 0.205769 0.265914 0.148251
O O3 0.432130 0.292047 0.126652
O O4 0.000000 0.260883 0.000000
O O5 0.420536 0.739978 0.699614
O O6 0.262879 0.831555 0.738963
O O7 0.973250 0.754944 0.589670
O O8 0.209060 0.000000 0.649706
O O9 0.664587 0.500000 0.770880
O O10 0.809328 0.727717 0.756110
O O11 0.954163 0.500000 0.541588
O O12 0.608667 0.327651 0.441474
O O13 0.000000 0.261401 0.500000
O O14 0.199193 0.769105 0.342346
O O15 0.828315 0.825918 0.193835
O O16 0.181711 0.000000 0.279500
O O17 0.500000 0.280297 0.500000
O O18 0.697646 0.500000 0.595425
O O19 0.496351 0.000000 0.856619
#
# Coordination Sequence:
#
# PCOD9155286 Si02
#       7
#     4   4   4   4   4   4   4
#     4   9  19  37  61  87 110 135 173 217 260 313
#     4  10  19  33  53  75 100 133 177 222 263 314
#     4  10  20  35  56  80 108 141 175 217 269 319
#     4  10  20  32  46  67  97 132 172 219 266 312
#     4  11  22  36  54  78 110 144 182 224 263 314
#     4  10  21  35  51  73 103 141 183 225 271 319
#     4   9  20  36  54  79 108 139 173 210 257 313
#
# _framework density 19.917818
#
# number of rings (size 3 to 8) (size 9 to 14) (size 15 to 20)
#    0.000    2.143    0.000    3.000    0.000    4.857 
#    0.000    0.714    0.000    4.286    0.000    0.000 
#    0.000    0.000    0.000    0.000    0.000    0.000 
#
# Total GULP energy -155977.165278 kJ/mol
# GULP energy per Si atom -5570.613046 kJ/mol
# Density = 1.987248 g / cm^3
# Si number density = 19.917818 Si / 1000 Ang^3
#
#
#
# Elastic Constant Matrix: (Units=GPa)
#
#
# Indices 1 2 3 4 5 6 
#
# 1 42.4899 2.2860 -0.9647 0.0000 6.2000 0.0000
# 2 2.2860 31.0379 25.2068 0.0000 -0.5583 0.0000
# 3 -0.9647 25.2068 84.0157 0.0000 1.0975 0.0000
# 4 0.0000 0.0000 0.0000 20.9023 0.0000 5.2383
# 5 6.2000 -0.5583 1.0975 0.0000 6.9657 0.0000
# 6 0.0000 0.0000 0.0000 5.2383 0.0000 -1.8617
#
#
#
# Elastic Compliance Matrix: (Units=1/GPa)
#
#
# Indices 1 2 3 4 5 6 
#
# 1 0.027442 -0.003957 0.001829 0.000000 -0.025031 0.000000
# 2 -0.003957 0.043375 -0.013178 0.000000 0.009075 0.000000
# 3 0.001829 -0.013178 0.015945 0.000000 -0.005197 0.000000
# 4 0.000000 0.000000 0.000000 0.028057 0.000000 0.078946
# 5 -0.025031 0.009075 -0.005197 0.000000 0.167385 0.000000
# 6 0.000000 0.000000 0.000000 0.078946 0.000000 -0.315017
#
#
# Mechanical properties :
#
#
# Convention : Reuss Voigt Hill
#
# Bulk Modulus (GPa) = 17.80898 23.39996 20.60447
# Shear Modulus (GPa) = 302.76253 13.93563 158.34908
#
# Velocity S-wave (km/s) = 12.34244 2.64797 8.92602
# Velocity P-wave (km/s) = 14.56280 4.59595 10.79810
#
# Compressibility (1/GPa) = 0.05615144
#
# Stress axis : x y z
#
# Youngs Moduli (GPa) = 36.44073 23.05461 62.71543
#
# Poissons Ratio (x) = 0.09123 -0.11472
# Poissons Ratio (y) = 0.14420 0.82644
# Poissons Ratio (z) = -0.06666 0.30380
#
# Static dielectric constant tensor:
#      x y z
#    x 1.838120 0.000000 -0.012500 
#    y 0.000000 1.709100 0.000000 
#    z -0.012500 0.000000 1.680350 
# 
# From -- ./inp_files/37280.got.cif
#   From: 2010.05.17/outbox.ucp.g08.bks.cvg/sg10_19_cif.got.tgz:37280.got - 2010.06.11 11:31:16.
