data_PCOD9155806
_publ_section_title
;
Structure prediction by ZEFSAII (Michael W. Deem and Ramdas Pophale) SiO2 
 PCOD9155806
Probable space group: P 21/M
;
_chemical_formula_sum "Si O2"
_cell_formula_units_Z 24
_cell_length_a 10.581818
_cell_length_b 19.282338
_cell_length_c 9.719374
_cell_angle_alpha 90.000000
_cell_angle_beta 137.638601
_cell_angle_gamma 90.000000
_cell_volume 1336.264178
_symmetry_space_group_name_H-M "P 21/M"
_symmetry_group_IT_number 11
_symmetry_cell_setting 'monoclinic'
loop_
_space_group_symop_operation_xyz
x,y,z
-x,1/2+y,-z
-x,-y,-z
x,1/2-y,z
loop_
_atom_site_type_symbol
_atom_site_label
_atom_site_fract_x
_atom_site_fract_y
_atom_site_fract_z
Si Si1 0.964549 0.487273 0.743178
Si Si2 0.453246 0.965033 0.608382
Si Si3 0.415578 0.171412 0.405634
Si Si4 0.012288 0.384593 0.024943
Si Si5 0.652567 0.469823 0.019582
Si Si6 0.366373 0.669498 0.148067
O O1 0.756744 0.482739 0.514872
O O2 0.964931 0.550655 0.852416
O O3 0.995953 0.418006 0.860199
O O4 0.135744 0.505583 0.780275
O O5 0.476979 0.883782 0.601572
O O6 0.500000 0.000000 0.500000
O O7 0.604036 0.994416 0.834657
O O8 0.473749 0.250000 0.426540
O O9 0.197079 0.160758 0.196725
O O10 0.466752 0.156676 0.607031
O O11 0.823827 0.345259 0.918338
O O12 0.633372 0.387685 0.972952
O O13 0.500000 0.500000 0.000000
O O14 0.372556 0.750000 0.109357
#
# Coordination Sequence:
#
# PCOD9155806 Si02
#       6
#     4   4   4   4   4   4
#     4  10  18  30  56  79 107 142 186 228 273 323
#     4  12  18  36  58  80 110 141 182 237 280 325
#     4  11  20  30  52  85 112 138 173 225 289 335
#     4  10  16  30  52  84 107 136 175 228 287 327
#     4  11  23  37  56  81 111 155 198 224 272 333
#     4  10  20  34  54  82 112 140 182 236 284 331
#
# _framework density 17.960519999999999
#
# number of rings (size 3 to 8) (size 9 to 14) (size 15 to 20)
#    0.000    1.333    6.667    1.500    0.000    0.667 
#    0.000    0.833    0.000    0.000    0.000    0.000 
#    0.000    0.000    0.000    0.000    0.000    0.000 
#
# Total GULP energy -133886.495572 kJ/mol
# GULP energy per Si atom -5578.603982 kJ/mol
# Density = 1.791964 g / cm^3
# Si number density = 17.960520 Si / 1000 Ang^3
#
#
#
# Elastic Constant Matrix: (Units=GPa)
#
#
# Indices 1 2 3 4 5 6 
#
# 1 57.0984 28.4488 2.7043 0.0000 12.5634 0.0000
# 2 28.4488 112.3448 8.0653 0.0000 3.7941 0.0000
# 3 2.7043 8.0653 48.0355 0.0000 23.0586 0.0000
# 4 0.0000 0.0000 0.0000 24.2107 0.0000 4.8781
# 5 12.5634 3.7941 23.0586 0.0000 26.8148 0.0000
# 6 0.0000 0.0000 0.0000 4.8781 0.0000 16.9500
#
#
#
# Elastic Compliance Matrix: (Units=1/GPa)
#
#
# Indices 1 2 3 4 5 6 
#
# 1 0.023925 -0.006046 0.007899 0.000000 -0.017147 0.000000
# 2 -0.006046 0.010538 -0.003530 0.000000 0.004378 0.000000
# 3 0.007899 -0.003530 0.038322 0.000000 -0.036155 0.000000
# 4 0.000000 0.000000 0.000000 0.043847 0.000000 -0.012619
# 5 -0.017147 0.004378 -0.036155 0.000000 0.075798 0.000000
# 6 0.000000 0.000000 0.000000 -0.012619 0.000000 0.062629
#
#
# Mechanical properties :
#
#
# Convention : Reuss Voigt Hill
#
# Bulk Modulus (GPa) = 14.40319 32.87949 23.64134
# Shear Modulus (GPa) = 17.75851 25.47914 21.61882
#
# Velocity S-wave (km/s) = 3.14785 3.77054 3.47318
# Velocity P-wave (km/s) = 4.60964 6.10756 5.41068
#
# Compressibility (1/GPa) = 0.06942907
#
# Stress axis : x y z
#
# Youngs Moduli (GPa) = 41.79757 94.89566 26.09496
#
# Poissons Ratio (x) = 0.57378 -0.20613
# Poissons Ratio (y) = 0.25273 0.09213
# Poissons Ratio (z) = -0.33017 0.33502
#
# Static dielectric constant tensor:
#      x y z
#    x 1.626130 0.000000 0.023330 
#    y 0.000000 1.624260 0.000000 
#    z 0.023330 0.000000 1.633480 
# 
# From -- ./inp_files/14394.got.cif
#   From: 2010.05.17/outbox.cif.g08.bks.cpg/sg11_8_cif.got.tgz:14394.got - 2010.06.03 12:22:45.
