data_PCOD9155461
_publ_section_title
;
Structure prediction by ZEFSAII (Michael W. Deem and Ramdas Pophale) SiO2 
 PCOD9155461
Probable space group: P 2/M
;
_chemical_formula_sum "Si O2"
_cell_formula_units_Z 32
_cell_length_a 12.000000
_cell_length_b 9.000000
_cell_length_c 21.000000
_cell_angle_alpha 90.000000
_cell_angle_beta 130.000000
_cell_angle_gamma 90.000000
_cell_volume 1737.388797
_symmetry_space_group_name_H-M "P 2/M"
_symmetry_group_IT_number 10
_symmetry_cell_setting 'monoclinic'
loop_
_space_group_symop_operation_xyz
x,y,z
-x,y,-z
-x,-y,-z
x,-y,z
loop_
_atom_site_type_symbol
_atom_site_label
_atom_site_fract_x
_atom_site_fract_y
_atom_site_fract_z
Si Si1 0.241342 0.180738 0.568400
Si Si2 0.908133 0.327091 0.031147
Si Si3 0.434596 0.179790 0.279815
Si Si4 0.139423 0.321242 0.219416
Si Si5 0.964812 0.820386 0.392551
Si Si6 0.592326 0.320681 0.870000
Si Si7 0.929605 0.821938 0.234406
Si Si8 0.604298 0.823873 0.098701
O O1 0.409805 0.226100 0.632370
O O2 0.155466 0.229405 0.600657
O O3 0.128344 0.228474 0.471688
O O4 0.244810 0.000000 0.569059
O O5 0.886362 0.500000 0.041086
O O6 0.018480 0.263810 0.123844
O O7 0.746506 0.268095 0.957912
O O8 0.000000 0.322285 0.000000
O O9 0.294463 0.246266 0.264019
O O10 0.426656 0.244402 0.205362
O O11 0.427398 0.000000 0.275795
O O12 0.153456 0.500000 0.218909
O O13 0.063706 0.269519 0.256123
O O14 0.918739 0.785098 0.304773
O O15 0.966766 0.000000 0.398173
O O16 0.598518 0.500000 0.865031
O O17 0.463040 0.270199 0.868667
O O18 0.772227 0.784998 0.146381
O O19 0.954076 0.000000 0.235962
O O20 0.602615 0.000000 0.115042
O O21 0.500000 0.802200 0.000000
#
# Coordination Sequence:
#
# PCOD9155461 Si02
#       8
#     4   4   4   4   4   4   4   4
#     4   8  15  29  53  82 107 131 166 215 265 311
#     4   9  17  33  52  70  97 135 179 218 251 294
#     4  11  21  34  53  80 109 134 169 220 275 318
#     4  11  22  37  55  74 103 142 182 221 260 311
#     4   8  14  29  54  81 105 133 171 213 257 308
#     4  11  21  34  55  79 105 139 180 220 261 314
#     4  10  20  35  55  78 107 142 178 216 262 313
#     4  10  21  36  53  78 113 143 171 217 271 316
#
# _framework density 18.418444999999998
#
# number of rings (size 3 to 8) (size 9 to 14) (size 15 to 20)
#    0.000    2.250    1.250    3.375    0.000    2.750 
#    0.000    3.125    0.000    5.250    0.000    5.250 
#    0.000    0.000    0.000    0.000    0.000    0.000 
#
# Total GULP energy -178390.566286 kJ/mol
# GULP energy per Si atom -5574.705196 kJ/mol
# Density = 1.837652 g / cm^3
# Si number density = 18.418445 Si / 1000 Ang^3
#
#
#
# Elastic Constant Matrix: (Units=GPa)
#
#
# Indices 1 2 3 4 5 6 
#
# 1 92.0215 26.9130 36.6341 0.0000 32.4435 0.0000
# 2 26.9130 39.3461 16.3859 0.0000 8.2348 0.0000
# 3 36.6341 16.3859 83.5016 0.0000 25.7287 0.0000
# 4 0.0000 0.0000 0.0000 13.8545 0.0000 2.1803
# 5 32.4435 8.2348 25.7287 0.0000 32.2679 0.0000
# 6 0.0000 0.0000 0.0000 2.1803 0.0000 19.3575
#
#
#
# Elastic Compliance Matrix: (Units=1/GPa)
#
#
# Indices 1 2 3 4 5 6 
#
# 1 0.020197 -0.009589 -0.001957 0.000000 -0.016300 0.000000
# 2 -0.009589 0.032553 -0.003436 0.000000 0.004073 0.000000
# 3 -0.001957 -0.003436 0.016747 0.000000 -0.010508 0.000000
# 4 0.000000 0.000000 0.000000 0.073481 0.000000 -0.008276
# 5 -0.016300 0.004073 -0.010508 0.000000 0.054718 0.000000
# 6 0.000000 0.000000 0.000000 -0.008276 0.000000 0.052592
#
#
# Mechanical properties :
#
#
# Convention : Reuss Voigt Hill
#
# Bulk Modulus (GPa) = 25.29560 41.63726 33.46643
# Shear Modulus (GPa) = 17.03993 22.09172 19.56582
#
# Velocity S-wave (km/s) = 3.04494 3.46704 3.26282
# Velocity P-wave (km/s) = 5.11134 6.21953 5.69247
#
# Compressibility (1/GPa) = 0.03953256
#
# Stress axis : x y z
#
# Youngs Moduli (GPa) = 49.51212 30.71948 59.71381
#
# Poissons Ratio (x) = 0.29455 0.11687
# Poissons Ratio (y) = 0.47475 0.20519
# Poissons Ratio (z) = 0.09690 0.10556
#
# Static dielectric constant tensor:
#      x y z
#    x 1.634230 0.000000 -0.013180 
#    y 0.000000 1.625300 0.000000 
#    z -0.013180 0.000000 1.670020 
# 
# From -- ./inp_files/83627.got.cif
#   From: 2010.05.17/outbox.ucp.g08.bks.cvg/sg10_42_cif.got.tgz:83627.got - 2010.06.11 11:31:16.
