data_PCOD9155983
_publ_section_title
;
Structure prediction by ZEFSAII (Michael W. Deem and Ramdas Pophale) SiO2 
 PCOD9155983
Probable space group: P 21/M
;
_chemical_formula_sum "Si O2"
_cell_formula_units_Z 28
_cell_length_a 15.544513
_cell_length_b 9.796207
_cell_length_c 11.969749
_cell_angle_alpha 90.000000
_cell_angle_beta 52.954179
_cell_angle_gamma 90.000000
_cell_volume 1454.811729
_symmetry_space_group_name_H-M "P 21/M"
_symmetry_group_IT_number 11
_symmetry_cell_setting 'monoclinic'
loop_
_space_group_symop_operation_xyz
x,y,z
-x,1/2+y,-z
-x,-y,-z
x,1/2-y,z
loop_
_atom_site_type_symbol
_atom_site_label
_atom_site_fract_x
_atom_site_fract_y
_atom_site_fract_z
Si Si1 0.920011 0.395563 0.510940
Si Si2 0.046897 0.593716 0.777851
Si Si3 0.194783 0.410089 0.060838
Si Si4 0.376627 0.091621 0.734692
Si Si5 0.719092 0.416302 0.379816
Si Si6 0.704243 0.408393 0.821674
Si Si7 0.590860 0.084917 0.699908
O O1 0.966532 0.250000 0.506577
O O2 0.920838 0.403237 0.377740
O O3 0.803933 0.405171 0.656702
O O4 0.000000 0.500000 0.500000
O O5 0.036340 0.750000 0.827561
O O6 0.157624 0.536745 0.742900
O O7 0.925742 0.535293 0.873829
O O8 0.182985 0.250000 0.106412
O O9 0.255172 0.497883 0.108771
O O10 0.269835 0.411728 0.893944
O O11 0.395065 0.250000 0.684541
O O12 0.475813 0.050308 0.736693
O O13 0.359401 0.989839 0.645756
O O14 0.715685 0.250000 0.374532
O O15 0.678086 0.453715 0.536484
O O16 0.683888 0.250000 0.872917
O O17 0.611120 0.463468 0.811090
O O18 0.596133 0.250000 0.704433
#
# Coordination Sequence:
#
# PCOD9155983 Si02
#       7
#     4   4   4   4   4   4   4
#     4  10  17  28  49  76 104 133 167 208 255 302
#     4   9  17  31  52  76 102 134 168 202 253 312
#     4  10  21  36  52  74 109 145 168 199 257 317
#     4  10  22  38  53  73 105 141 173 210 258 306
#     4  10  19  35  59  79  97 131 177 219 256 298
#     4  10  19  32  54  81 104 132 174 215 251 301
#     4   9  18  35  57  78 102 133 170 214 263 306
#
# _framework density 19.246476999999999
#
# number of rings (size 3 to 8) (size 9 to 14) (size 15 to 20)
#    0.000    2.286    2.857    0.429    0.000    1.714 
#    0.000    2.857    0.000    0.000    0.000    0.000 
#    0.000    0.000    0.000    0.000    0.000    0.000 
#
# Total GULP energy -155892.135455 kJ/mol
# GULP energy per Si atom -5567.576266 kJ/mol
# Density = 1.920267 g / cm^3
# Si number density = 19.246477 Si / 1000 Ang^3
#
#
#
# Elastic Constant Matrix: (Units=GPa)
#
#
# Indices 1 2 3 4 5 6 
#
# 1 107.5785 26.5817 0.2746 0.0000 -6.8742 0.0000
# 2 26.5817 39.9184 1.8724 0.0000 4.2784 0.0000
# 3 0.2746 1.8724 32.4017 0.0000 -8.1625 0.0000
# 4 0.0000 0.0000 0.0000 12.1155 0.0000 5.7508
# 5 -6.8742 4.2784 -8.1625 0.0000 11.8609 0.0000
# 6 0.0000 0.0000 0.0000 5.7508 0.0000 29.8045
#
#
#
# Elastic Compliance Matrix: (Units=1/GPa)
#
#
# Indices 1 2 3 4 5 6 
#
# 1 0.012646 -0.010068 0.003914 0.000000 0.013655 0.000000
# 2 -0.010068 0.034676 -0.007911 0.000000 -0.023787 0.000000
# 3 0.003914 -0.007911 0.039409 0.000000 0.032243 0.000000
# 4 0.000000 0.000000 0.000000 0.090860 0.000000 -0.017532
# 5 0.013655 -0.023787 0.032243 0.000000 0.122993 0.000000
# 6 0.000000 0.000000 0.000000 -0.017532 0.000000 0.036935
#
#
# Mechanical properties :
#
#
# Convention : Reuss Voigt Hill
#
# Bulk Modulus (GPa) = 17.06431 26.37289 21.71860
# Shear Modulus (GPa) = 12.98089 20.83419 16.90754
#
# Velocity S-wave (km/s) = 2.59985 3.29370 2.96712
# Velocity P-wave (km/s) = 4.23057 5.31009 4.80077
#
# Compressibility (1/GPa) = 0.05860184
#
# Stress axis : x y z
#
# Youngs Moduli (GPa) = 79.07794 28.83852 25.37500
#
# Poissons Ratio (x) = 0.29034 -0.09933
# Poissons Ratio (y) = 0.79615 0.20074
# Poissons Ratio (z) = -0.30954 0.22814
#
# Static dielectric constant tensor:
#      x y z
#    x 1.737180 0.000000 -0.044290 
#    y 0.000000 1.665230 0.000000 
#    z -0.044290 0.000000 1.633740 
# 
# From -- ./inp_files/37888.got.cif
#   From: 2010.05.17/outbox.cif.g08.bks.cpg/sg11_19_cif.got.tgz:37888.got - 2010.06.03 12:22:45.
