data_PCOD9155725
_publ_section_title
;
Structure prediction by ZEFSAII (Michael W. Deem and Ramdas Pophale) SiO2 
 PCOD9155725
Probable space group: P 21/M
;
_chemical_formula_sum "Si O2"
_cell_formula_units_Z 30
_cell_length_a 6.972199
_cell_length_b 21.060911
_cell_length_c 14.291928
_cell_angle_alpha 90.000000
_cell_angle_beta 37.926677
_cell_angle_gamma 90.000000
_cell_volume 1289.933798
_symmetry_space_group_name_H-M "P 21/M"
_symmetry_group_IT_number 11
_symmetry_cell_setting 'monoclinic'
loop_
_space_group_symop_operation_xyz
x,y,z
-x,1/2+y,-z
-x,-y,-z
x,1/2-y,z
loop_
_atom_site_type_symbol
_atom_site_label
_atom_site_fract_x
_atom_site_fract_y
_atom_site_fract_z
Si Si1 0.273061 0.472271 0.960600
Si Si2 0.968316 0.326756 0.816941
Si Si3 0.070686 0.678368 0.573373
Si Si4 0.833281 0.128982 0.184567
Si Si5 0.642392 0.822394 0.497730
Si Si6 0.486691 0.858673 0.246676
Si Si7 0.494680 0.391742 0.119121
Si Si8 0.235001 0.250000 0.994876
O O1 0.486600 0.425661 0.816207
O O2 0.459977 0.534214 0.920365
O O3 0.000000 0.500000 0.000000
O O4 0.073541 0.428572 0.108818
O O5 0.975215 0.250000 0.820575
O O6 0.059821 0.344889 0.676323
O O7 0.225817 0.354794 0.788590
O O8 0.636118 0.350650 0.980211
O O9 0.935986 0.750000 0.621291
O O10 0.379065 0.682019 0.517959
O O11 0.184591 0.656091 0.426899
O O12 0.836866 0.631472 0.716022
O O13 0.517217 0.132151 0.365958
O O14 0.719354 0.124906 0.121237
O O15 0.014276 0.194585 0.127117
O O16 0.691977 0.750000 0.512765
O O17 0.574394 0.804684 0.138564
#
# Coordination Sequence:
#
# PCOD9155725 Si02
#       8
#     4   4   4   4   4   4   4   2
#     4   9  18  31  52  80 104 134 178 220 247 300
#     4  10  16  29  53  73  99 136 175 210 254 309
#     4  10  21  32  52  78 109 131 170 218 269 309
#     4  10  18  31  57  79 101 131 181 220 255 299
#     4   9  19  33  51  77 105 130 170 216 269 309
#     4  10  15  30  51  76 102 132 176 210 253 306
#     4  11  20  33  54  77 106 136 178 215 254 303
#     4  10  14  26  54  80  92 130 178 218 248 294
#
# _framework density 23.257007999999999
#
# number of rings (size 3 to 8) (size 9 to 14) (size 15 to 20)
#    0.000    2.133    6.000    1.200    0.933    0.533 
#    0.000    1.333    5.867    0.000    0.000    0.000 
#    0.000    0.000    0.000    0.000    0.000    0.000 
#
# Total GULP energy -167272.515085 kJ/mol
# GULP energy per Si atom -5575.750503 kJ/mol
# Density = 2.320407 g / cm^3
# Si number density = 23.257008 Si / 1000 Ang^3
#
#
#
# Elastic Constant Matrix: (Units=GPa)
#
#
# Indices 1 2 3 4 5 6 
#
# 1 66.8960 0.9377 4.7103 0.0000 3.9713 0.0000
# 2 0.9377 47.5916 16.9050 0.0000 -1.7612 0.0000
# 3 4.7103 16.9050 152.9999 0.0000 20.3238 0.0000
# 4 0.0000 0.0000 0.0000 32.0189 0.0000 -2.5033
# 5 3.9713 -1.7612 20.3238 0.0000 39.0881 0.0000
# 6 0.0000 0.0000 0.0000 -2.5033 0.0000 -8.8560
#
#
#
# Elastic Compliance Matrix: (Units=1/GPa)
#
#
# Indices 1 2 3 4 5 6 
#
# 1 0.015053 -0.000261 -0.000247 0.000000 -0.001413 0.000000
# 2 -0.000261 0.022088 -0.002759 0.000000 0.002456 0.000000
# 3 -0.000247 -0.002759 0.007371 0.000000 -0.003932 0.000000
# 4 0.000000 0.000000 0.000000 0.030556 0.000000 -0.008637
# 5 -0.001413 0.002456 -0.003932 0.000000 0.027882 0.000000
# 6 0.000000 0.000000 0.000000 -0.008637 0.000000 -0.110477
#
#
# Mechanical properties :
#
#
# Convention : Reuss Voigt Hill
#
# Bulk Modulus (GPa) = 26.33067 34.73262 30.53164
# Shear Modulus (GPa) = 428.57707 28.77917 228.67812
#
# Velocity S-wave (km/s) = 13.58966 3.52154 9.92673
# Velocity P-wave (km/s) = 16.04944 5.61264 12.02261
#
# Compressibility (1/GPa) = 0.03797853
#
# Stress axis : x y z
#
# Youngs Moduli (GPa) = 66.42977 45.27326 135.67377
#
# Poissons Ratio (x) = 0.01182 0.03350
# Poissons Ratio (y) = 0.01735 0.37429
# Poissons Ratio (z) = 0.01640 0.12490
#
# Static dielectric constant tensor:
#      x y z
#    x 2.020580 0.000000 -0.023630 
#    y 0.000000 1.853530 0.000000 
#    z -0.023630 0.000000 1.884120 
# 
# From -- ./inp_files/58402.got.cif
#   From: 2010.05.17/outbox.cif.g08.bks.cpg/sg11_30_cif.got.tgz:58402.got - 2010.06.03 12:22:45.
