data_PCOD9155008
_publ_section_title
;
Structure prediction by ZEFSAII (Michael W. Deem and Ramdas Pophale) SiO2 
 PCOD9155008
Probable space group: P 2/M
;
_chemical_formula_sum "Si O2"
_cell_formula_units_Z 32
_cell_length_a 21.041255
_cell_length_b 10.415065
_cell_length_c 21.041544
_cell_angle_alpha 90.000000
_cell_angle_beta 159.489698
_cell_angle_gamma 90.000000
_cell_volume 1615.642699
_symmetry_space_group_name_H-M "P 2/M"
_symmetry_group_IT_number 10
_symmetry_cell_setting 'monoclinic'
loop_
_space_group_symop_operation_xyz
x,y,z
-x,y,-z
-x,-y,-z
x,-y,z
loop_
_atom_site_type_symbol
_atom_site_label
_atom_site_fract_x
_atom_site_fract_y
_atom_site_fract_z
Si Si1 0.051364 0.854697 0.876198
Si Si2 0.573135 0.354691 0.498865
Si Si3 0.001157 0.645306 0.926889
Si Si4 0.197696 0.854512 0.874150
Si Si5 0.625983 0.145490 0.302423
Si Si6 0.623893 0.854694 0.448716
Si Si7 0.680959 0.353867 0.254783
Si Si8 0.754743 0.353868 0.180899
O O1 0.095783 0.750068 0.971067
O O2 0.833531 0.860487 0.666549
O O3 0.122864 0.818217 0.873390
O O4 0.115854 0.000000 0.950517
O O5 0.500000 0.318847 0.500000
O O6 0.509589 0.500000 0.425006
O O7 0.790979 0.360046 0.709047
O O8 0.528997 0.249930 0.404272
O O9 0.075022 0.500000 0.990439
O O10 0.000000 0.681150 0.000000
O O11 0.156319 0.750778 0.781489
O O12 0.134965 0.000000 0.801152
O O13 0.415329 0.859206 0.084794
O O14 0.626758 0.181791 0.377269
O O15 0.718609 0.249225 0.343755
O O16 0.698978 0.000000 0.365148
O O17 0.549571 0.000000 0.384213
O O18 0.728321 0.500000 0.317482
O O19 0.770957 0.324882 0.270945
O O20 0.462623 0.353158 0.037427
O O21 0.817435 0.500000 0.228248
#
# Coordination Sequence:
#
# PCOD9155008 Si02
#       8
#     4   4   4   4   4   4   4   4
#     4   9  18  32  47  63  87 118 146 172 209 257
#     4   9  18  32  48  66  88 113 142 176 213 253
#     4   9  18  32  48  66  88 113 142 176 213 253
#     4   9  17  28  43  65  89 111 141 181 217 249
#     4   9  17  28  43  65  89 111 141 181 217 249
#     4   9  18  32  47  63  87 118 146 172 209 257
#     4   8  14  25  41  62  88 115 142 175 216 258
#     4   8  14  25  41  62  88 115 142 175 216 258
#
# _framework density 19.806357999999999
#
# number of rings (size 3 to 8) (size 9 to 14) (size 15 to 20)
#    0.000    3.250    0.000    0.750    0.000    3.000 
#    0.000    2.500    0.000    0.750    0.000    5.250 
#    0.000    0.000    0.000    0.000    0.000    0.000 
#
# Total GULP energy -178450.621074 kJ/mol
# GULP energy per Si atom -5576.581909 kJ/mol
# Density = 1.976128 g / cm^3
# Si number density = 19.806358 Si / 1000 Ang^3
#
#
#
# Elastic Constant Matrix: (Units=GPa)
#
#
# Indices 1 2 3 4 5 6 
#
# 1 166.5885 154.7957 11.8234 0.0000 -38.1033 0.0000
# 2 154.7957 167.5238 16.7119 0.0000 -39.8785 0.0000
# 3 11.8234 16.7119 51.6251 0.0000 4.8630 0.0000
# 4 0.0000 0.0000 0.0000 -1.6288 0.0000 -10.7569
# 5 -38.1033 -39.8785 4.8630 0.0000 23.8392 0.0000
# 6 0.0000 0.0000 0.0000 -10.7569 0.0000 35.6181
#
#
#
# Elastic Compliance Matrix: (Units=1/GPa)
#
#
# Indices 1 2 3 4 5 6 
#
# 1 0.042988 -0.039504 0.002748 0.000000 0.002066 0.000000
# 2 -0.039504 0.047587 -0.008063 0.000000 0.018107 0.000000
# 3 0.002748 -0.008063 0.022643 0.000000 -0.013714 0.000000
# 4 0.000000 0.000000 0.000000 -0.205027 0.000000 -0.061919
# 5 0.002066 0.018107 -0.013714 0.000000 0.078337 0.000000
# 6 0.000000 0.000000 0.000000 -0.061919 0.000000 0.009376
#
#
# Mechanical properties :
#
#
# Convention : Reuss Voigt Hill
#
# Bulk Modulus (GPa) = 42.40878 83.59995 63.00436
# Shear Modulus (GPa) = 53.53211 25.05947 39.29579
#
# Velocity S-wave (km/s) = 5.20446 3.56086 4.45904
# Velocity P-wave (km/s) = 7.58771 7.69458 7.64133
#
# Compressibility (1/GPa) = 0.02358003
#
# Stress axis : x y z
#
# Youngs Moduli (GPa) = 23.26217 21.01416 44.16403
#
# Poissons Ratio (x) = 0.83015 -0.12137
# Poissons Ratio (y) = 0.91896 0.35609
# Poissons Ratio (z) = -0.06393 0.16943
#
# Static dielectric constant tensor:
#      x y z
#    x 1.658980 0.000000 0.032990 
#    y 0.000000 1.703260 0.000000 
#    z 0.032990 0.000000 1.773230 
# 
# From -- ./inp_files/86140.got.cif
#   From: 2010.05.17/outbox.cif.g08.bks.cpg/sg10_44_cif.got.tgz:86140.got - 2010.06.03 11:33:40.
