data_PCOD9155042
_publ_section_title
;
Structure prediction by ZEFSAII (Michael W. Deem and Ramdas Pophale) SiO2 
 PCOD9155042
Probable space group: P 2/M
;
_chemical_formula_sum "Si O2"
_cell_formula_units_Z 32
_cell_length_a 14.405245
_cell_length_b 9.285449
_cell_length_c 15.206855
_cell_angle_alpha 90.000000
_cell_angle_beta 88.629207
_cell_angle_gamma 90.000000
_cell_volume 2033.474152
_symmetry_space_group_name_H-M "P 2/M"
_symmetry_group_IT_number 10
_symmetry_cell_setting 'monoclinic'
loop_
_space_group_symop_operation_xyz
x,y,z
-x,y,-z
-x,-y,-z
x,-y,z
loop_
_atom_site_type_symbol
_atom_site_label
_atom_site_fract_x
_atom_site_fract_y
_atom_site_fract_z
Si Si1 0.026820 0.826837 0.098478
Si Si2 0.320454 0.832974 0.308141
Si Si3 0.492136 0.176034 0.602844
Si Si4 0.892329 0.826831 0.260169
Si Si5 0.823101 0.335241 0.796666
Si Si6 0.964441 0.335477 0.626380
Si Si7 0.820837 0.166326 0.523366
Si Si8 0.712121 0.825472 0.349756
O O1 0.119925 0.751379 0.131143
O O2 0.944372 0.787714 0.168769
O O3 0.038668 0.000000 0.102529
O O4 0.000000 0.787418 0.000000
O O5 0.419367 0.778672 0.341679
O O6 0.270429 0.741764 0.233855
O O7 0.251451 0.831754 0.393778
O O8 0.329474 0.000000 0.280356
O O9 0.500000 0.219403 0.500000
O O10 0.393729 0.225393 0.644732
O O11 0.494107 0.000000 0.602237
O O12 0.784774 0.782709 0.272356
O O13 0.950604 0.757724 0.338599
O O14 0.897390 0.000000 0.268460
O O15 0.807137 0.500000 0.822892
O O16 0.891471 0.335675 0.709976
O O17 0.991118 0.500000 0.608319
O O18 0.907308 0.263987 0.548573
O O19 0.763362 0.213516 0.439608
O O20 0.850787 0.000000 0.510259
O O21 0.706772 0.000000 0.348781
#
# Coordination Sequence:
#
# PCOD9155042 Si02
#       8
#     4   4   4   4   4   4   4   4
#     4   9  17  30  48  68  88 109 135 169 211 260
#     4   9  15  24  42  63  85 113 144 178 210 241
#     4   9  14  23  40  64  87 109 144 186 217 241
#     4   9  17  29  43  60  83 109 136 169 209 252
#     4   9  17  28  43  64  89 113 139 173 211 252
#     4   9  17  28  40  55  80 113 145 174 204 241
#     4   9  15  24  39  58  79 108 144 176 204 237
#     4   9  16  25  39  60  84 109 141 178 211 244
#
# _framework density 15.736615
#
# number of rings (size 3 to 8) (size 9 to 14) (size 15 to 20)
#    0.000    3.000    1.250    0.750    0.000    3.750 
#    0.000    3.125    0.000    1.875    0.000    0.875 
#    0.000    7.000    0.000    0.000    0.000    0.000 
#
# Total GULP energy -178240.247364 kJ/mol
# GULP energy per Si atom -5570.007730 kJ/mol
# Density = 1.570080 g / cm^3
# Si number density = 15.736615 Si / 1000 Ang^3
#
#
#
# Elastic Constant Matrix: (Units=GPa)
#
#
# Indices 1 2 3 4 5 6 
#
# 1 136.9084 36.2191 51.2635 0.0000 14.9609 0.0000
# 2 36.2191 32.0141 28.3884 0.0000 9.8613 0.0000
# 3 51.2635 28.3884 78.8766 0.0000 18.6494 0.0000
# 4 0.0000 0.0000 0.0000 4.7631 0.0000 -4.6186
# 5 14.9609 9.8613 18.6494 0.0000 20.1919 0.0000
# 6 0.0000 0.0000 0.0000 -4.6186 0.0000 -0.6661
#
#
#
# Elastic Compliance Matrix: (Units=1/GPa)
#
#
# Indices 1 2 3 4 5 6 
#
# 1 0.011223 -0.009120 -0.003964 0.000000 -0.000200 0.000000
# 2 -0.009120 0.054652 -0.011552 0.000000 -0.009264 0.000000
# 3 -0.003964 -0.011552 0.022241 0.000000 -0.011963 0.000000
# 4 0.000000 0.000000 0.000000 0.027184 0.000000 -0.188481
# 5 -0.000200 -0.009264 -0.011963 0.000000 0.065246 0.000000
# 6 0.000000 0.000000 0.000000 -0.188481 0.000000 -0.194378
#
#
# Mechanical properties :
#
#
# Convention : Reuss Voigt Hill
#
# Bulk Modulus (GPa) = 25.74514 53.28234 39.51374
# Shear Modulus (GPa) = 103.33151 13.65299 58.49225
#
# Velocity S-wave (km/s) = 8.11207 2.94869 6.10330
# Velocity P-wave (km/s) = 10.20473 6.74725 8.65049
#
# Compressibility (1/GPa) = 0.03884228
#
# Stress axis : x y z
#
# Youngs Moduli (GPa) = 89.10100 18.29774 44.96282
#
# Poissons Ratio (x) = 0.16688 0.17825
# Poissons Ratio (y) = 0.81263 0.51940
# Poissons Ratio (z) = 0.35324 0.21137
#
# Static dielectric constant tensor:
#      x y z
#    x 1.540820 0.000000 -0.023380 
#    y 0.000000 1.524510 0.000000 
#    z -0.023380 0.000000 1.519280 
# 
# From -- ./inp_files/66056.got.cif
#   From: 2010.05.17/outbox.cif.g08.bks.cpg/sg10_34_cif.got.tgz:66056.got - 2010.06.03 11:33:40.
