data_PCOD9155547
_publ_section_title
;
Structure prediction by ZEFSAII (Michael W. Deem and Ramdas Pophale) SiO2 
 PCOD9155547
Probable space group: P 2/M
;
_chemical_formula_sum "Si O2"
_cell_formula_units_Z 32
_cell_length_a 12.000000
_cell_length_b 9.000000
_cell_length_c 30.000000
_cell_angle_alpha 90.000000
_cell_angle_beta 30.000000
_cell_angle_gamma 90.000000
_cell_volume 1620.000000
_symmetry_space_group_name_H-M "P 2/M"
_symmetry_group_IT_number 10
_symmetry_cell_setting 'monoclinic'
loop_
_space_group_symop_operation_xyz
x,y,z
-x,y,-z
-x,-y,-z
x,-y,z
loop_
_atom_site_type_symbol
_atom_site_label
_atom_site_fract_x
_atom_site_fract_y
_atom_site_fract_z
Si Si1 0.044344 0.176681 0.214530
Si Si2 0.607973 0.178373 0.833931
Si Si3 0.839871 0.170647 0.661779
Si Si4 0.234130 0.325914 0.476055
Si Si5 0.577394 0.176729 0.422613
Si Si6 0.446304 0.170028 0.324315
Si Si7 0.128937 0.679242 0.999747
Si Si8 0.915887 0.677087 0.167329
O O1 0.834346 0.202987 0.320451
O O2 0.022537 0.256996 0.175048
O O3 0.263044 0.219863 0.165935
O O4 0.048001 0.000000 0.205117
O O5 0.760135 0.212082 0.738333
O O6 0.377301 0.261542 0.910589
O O7 0.574332 0.000000 0.845223
O O8 0.635306 0.172266 0.698142
O O9 0.020741 0.278301 0.578253
O O10 0.927820 0.000000 0.632442
O O11 0.237486 0.500000 0.465529
O O12 0.438714 0.273999 0.436002
O O13 0.258107 0.233811 0.422200
O O14 0.500000 0.210447 0.500000
O O15 0.533595 0.000000 0.430973
O O16 0.661384 0.270090 0.255828
O O17 0.496193 0.000000 0.319830
O O18 0.126001 0.500000 0.000878
O O19 0.000000 0.729857 0.000000
O O20 0.022137 0.729300 0.083696
O O21 0.928774 0.500000 0.164331
#
# Coordination Sequence:
#
# PCOD9155547 Si02
#       8
#     4   4   4   4   4   4   4   4
#     4  10  21  38  61  88 121 160 200 247 303 359
#     4  10  22  41  65  93 120 153 202 253 300 354
#     4  10  22  40  61  86 118 158 204 253 307 364
#     4  12  24  36  55  87 123 159 203 250 301 364
#     4  10  20  37  61  84 115 163 210 252 300 354
#     4  11  22  38  61  87 118 158 204 253 306 363
#     4  10  23  43  65  91 124 161 198 242 306 372
#     4  11  23  39  62  90 122 160 202 250 304 366
#
# _framework density 19.753086
#
# number of rings (size 3 to 8) (size 9 to 14) (size 15 to 20)
#    0.000    1.500    1.250    3.750    0.000    7.500 
#    0.000    3.750    0.000    0.000    0.000    0.000 
#    0.000    0.000    0.000    0.000    0.000    0.000 
#
# Total GULP energy -178808.455104 kJ/mol
# GULP energy per Si atom -5587.764222 kJ/mol
# Density = 1.970813 g / cm^3
# Si number density = 19.753086 Si / 1000 Ang^3
#
#
#
# Elastic Constant Matrix: (Units=GPa)
#
#
# Indices 1 2 3 4 5 6 
#
# 1 116.3823 38.3084 57.3340 0.0000 2.1507 0.0000
# 2 38.3084 16.4530 5.3331 0.0000 9.8854 0.0000
# 3 57.3340 5.3331 40.9571 0.0000 15.4622 0.0000
# 4 0.0000 0.0000 0.0000 32.4504 0.0000 1.1938
# 5 2.1507 9.8854 15.4622 0.0000 32.5491 0.0000
# 6 0.0000 0.0000 0.0000 1.1938 0.0000 13.2390
#
#
#
# Elastic Compliance Matrix: (Units=1/GPa)
#
#
# Indices 1 2 3 4 5 6 
#
# 1 -0.012867 0.035032 0.020893 0.000000 -0.019714 0.000000
# 2 0.035032 -0.020965 -0.058294 0.000000 0.031745 0.000000
# 3 0.020893 -0.058294 -0.004148 0.000000 0.018294 0.000000
# 4 0.000000 0.000000 0.000000 0.030919 0.000000 -0.002788
# 5 -0.019714 0.031745 0.018294 0.000000 0.013694 0.000000
# 6 0.000000 0.000000 0.000000 -0.002788 0.000000 0.075786
#
#
# Mechanical properties :
#
#
# Convention : Reuss Voigt Hill
#
# Bulk Modulus (GPa) = -23.40949 41.74927 9.16989
# Shear Modulus (GPa) = 68.57148 20.50216 44.53682
#
# Velocity S-wave (km/s) = 5.89828 3.22517 4.75349
# Velocity P-wave (km/s) = 5.87447 5.92034 5.89745
#
# Compressibility (1/GPa) = -0.04271772
#
# Stress axis : x y z
#
# Youngs Moduli (GPa) = -77.71664 -47.69806 -241.09904
#
# Poissons Ratio (x) = 1.67096 5.03737
# Poissons Ratio (y) = 2.72257 -14.05467
# Poissons Ratio (z) = 1.62376 -2.78052
#
# Static dielectric constant tensor:
#      x y z
#    x 1.710890 0.000000 -0.003240 
#    y 0.000000 1.663040 0.000000 
#    z -0.003240 0.000000 1.690360 
# 
# From -- ./inp_files/94996.got.cif
#   From: 2010.05.17/outbox.ucp.g08.bks.cvg/sg10_48_cif.got.tgz:94996.got - 2010.06.11 11:31:16.
