data_PCOD9155386
_publ_section_title
;
Structure prediction by ZEFSAII (Michael W. Deem and Ramdas Pophale) SiO2 
 PCOD9155386
Probable space group: P 2/M
;
_chemical_formula_sum "Si O2"
_cell_formula_units_Z 32
_cell_length_a 15.000000
_cell_length_b 9.000000
_cell_length_c 24.000000
_cell_angle_alpha 90.000000
_cell_angle_beta 30.000000
_cell_angle_gamma 90.000000
_cell_volume 1620.000000
_symmetry_space_group_name_H-M "P 2/M"
_symmetry_group_IT_number 10
_symmetry_cell_setting 'monoclinic'
loop_
_space_group_symop_operation_xyz
x,y,z
-x,y,-z
-x,-y,-z
x,-y,z
loop_
_atom_site_type_symbol
_atom_site_label
_atom_site_fract_x
_atom_site_fract_y
_atom_site_fract_z
Si Si1 0.015318 0.823475 0.236975
Si Si2 0.408921 0.824110 0.718946
Si Si3 0.735205 0.676074 0.590310
Si Si4 0.957652 0.675707 0.660823
Si Si5 0.351013 0.180282 0.624965
Si Si6 0.365654 0.679672 0.230126
Si Si7 0.179559 0.667051 0.936935
Si Si8 0.240261 0.677842 0.023144
O O1 0.986525 0.760224 0.314176
O O2 0.840056 0.784253 0.296677
O O3 0.033372 0.000000 0.229770
O O4 0.176733 0.755410 0.113625
O O5 0.610454 0.774736 0.619221
O O6 0.359718 0.765503 0.684035
O O7 0.308304 0.759376 0.827426
O O8 0.384865 0.000000 0.732340
O O9 0.688630 0.500000 0.612187
O O10 0.927178 0.690598 0.458052
O O11 0.700890 0.724692 0.672467
O O12 0.955698 0.500000 0.675123
O O13 0.764807 0.732474 0.747335
O O14 0.500000 0.233279 0.500000
O O15 0.369719 0.000000 0.617395
O O16 0.354671 0.500000 0.236320
O O17 0.563704 0.719869 0.105076
O O18 0.257937 0.500000 0.900637
O O19 0.132710 0.718938 0.024788
O O20 0.000000 0.657994 0.000000
O O21 0.230211 0.500000 0.037498
#
# Coordination Sequence:
#
# PCOD9155386 Si02
#       8
#     4   4   4   4   4   4   4   4
#     4  11  23  39  58  81 115 152 190 237 284 336
#     4  11  21  33  55  84 113 148 188 229 279 341
#     4  10  19  36  60  87 117 145 185 237 289 342
#     4  10  21  37  61  87 110 145 193 241 286 339
#     4   9  19  36  55  76 108 152 193 226 271 333
#     4   9  18  36  61  86 112 147 189 234 285 340
#     4  10  20  35  56  82 112 146 185 235 287 332
#     4  10  20  37  59  81 113 151 189 231 277 339
#
# _framework density 19.753086
#
# number of rings (size 3 to 8) (size 9 to 14) (size 15 to 20)
#    0.000    2.000    1.250    2.625    0.000    4.250 
#    0.000    5.625    0.000    6.000    0.000    0.000 
#    0.000    0.000    0.000    0.000    0.000    0.000 
#
# Total GULP energy -178283.291446 kJ/mol
# GULP energy per Si atom -5571.352858 kJ/mol
# Density = 1.970813 g / cm^3
# Si number density = 19.753086 Si / 1000 Ang^3
#
#
#
# Elastic Constant Matrix: (Units=GPa)
#
#
# Indices 1 2 3 4 5 6 
#
# 1 17.6012 18.5187 13.0049 0.0000 -5.9727 0.0000
# 2 18.5187 21.8305 21.9855 0.0000 -0.7356 0.0000
# 3 13.0049 21.9855 69.4978 0.0000 17.6545 0.0000
# 4 0.0000 0.0000 0.0000 78.6790 0.0000 -52.2055
# 5 -5.9727 -0.7356 17.6545 0.0000 19.1373 0.0000
# 6 0.0000 0.0000 0.0000 -52.2055 0.0000 -22.2721
#
#
#
# Elastic Compliance Matrix: (Units=1/GPa)
#
#
# Indices 1 2 3 4 5 6 
#
# 1 2.585541 -2.213989 0.043361 0.000000 0.681841 0.000000
# 2 -2.213989 1.978142 -0.072188 0.000000 -0.548352 0.000000
# 3 0.043361 -0.072188 0.034453 0.000000 -0.021025 0.000000
# 4 0.000000 0.000000 0.000000 0.004974 0.000000 -0.011659
# 5 0.681841 -0.548352 -0.021025 0.000000 0.263374 0.000000
# 6 0.000000 0.000000 0.000000 -0.011659 0.000000 -0.017571
#
#
# Mechanical properties :
#
#
# Convention : Reuss Voigt Hill
#
# Bulk Modulus (GPa) = 8.88871 23.99418 16.44145
# Shear Modulus (GPa) = 0.53350 18.80354 9.66852
#
# Velocity S-wave (km/s) = 0.52026 3.08868 2.21479
# Velocity P-wave (km/s) = 2.20694 4.98933 3.85772
#
# Compressibility (1/GPa) = 0.11250223
#
# Stress axis : x y z
#
# Youngs Moduli (GPa) = 0.38677 0.50552 29.02540
#
# Poissons Ratio (x) = 1.11923 -1.25856
# Poissons Ratio (y) = 0.85630 2.09529
# Poissons Ratio (z) = -0.01677 0.03649
#
# Static dielectric constant tensor:
#      x y z
#    x 1.724500 0.000000 -0.043450 
#    y 0.000000 1.678190 0.000000 
#    z -0.043450 0.000000 1.743430 
# 
# From -- ./inp_files/89503.got.cif
#   From: 2010.05.17/outbox.ucp.g08.bks.cvg/sg10_45_cif.got.tgz:89503.got - 2010.06.11 11:31:16.
