data_PCOD9155047
_publ_section_title
;
Structure prediction by ZEFSAII (Michael W. Deem and Ramdas Pophale) SiO2 
 PCOD9155047
Probable space group: P 2/M
;
_chemical_formula_sum "Si O2"
_cell_formula_units_Z 24
_cell_length_a 24.020318
_cell_length_b 7.455949
_cell_length_c 32.934505
_cell_angle_alpha 90.000000
_cell_angle_beta 11.716581
_cell_angle_gamma 90.000000
_cell_volume 1197.788164
_symmetry_space_group_name_H-M "P 2/M"
_symmetry_group_IT_number 10
_symmetry_cell_setting 'monoclinic'
loop_
_space_group_symop_operation_xyz
x,y,z
-x,y,-z
-x,-y,-z
x,-y,z
loop_
_atom_site_type_symbol
_atom_site_label
_atom_site_fract_x
_atom_site_fract_y
_atom_site_fract_z
Si Si1 0.725161 0.718828 0.219918
Si Si2 0.367891 0.715728 0.864323
Si Si3 0.668887 0.716467 0.567506
Si Si4 0.922168 0.787267 0.511378
Si Si5 0.217878 0.788985 0.219133
Si Si6 0.240693 0.719471 0.711240
O O1 0.726206 0.500000 0.219697
O O2 0.465387 0.776493 0.378635
O O3 0.730063 0.776494 0.262887
O O4 0.000000 0.773445 0.000000
O O5 0.360696 0.500000 0.868092
O O6 0.479331 0.776920 0.740684
O O7 0.601701 0.765024 0.729475
O O8 0.057057 0.777355 0.092565
O O9 0.664492 0.500000 0.570768
O O10 0.975419 0.772657 0.359390
O O11 0.000000 0.713806 0.500000
O O12 0.095224 0.714245 0.349173
O O13 0.975566 0.000000 0.474324
O O14 0.265699 0.000000 0.192283
O O15 0.500000 0.712157 0.000000
O O16 0.500000 0.778892 0.500000
O O17 0.241160 0.500000 0.710525
#
# Coordination Sequence:
#
# PCOD9155047 Si02
#       6
#     4   4   4   4   4   4
#     4   9  14  24  43  64  87 118 151 177 209 263
#     4   9  16  28  47  69  92 118 148 185 225 260
#     4   9  16  27  47  71  91 116 151 186 219 259
#     4   9  18  33  51  67  85 117 156 185 217 270
#     4   9  18  33  50  66  89 119 148 183 228 271
#     4   9  16  26  41  64  94 121 145 178 220 262
#
# _framework density 20.036932
#
# number of rings (size 3 to 8) (size 9 to 14) (size 15 to 20)
#    0.000    3.000    1.667    0.000    0.000    0.667 
#    3.000    0.000    0.000    2.000    0.000    0.000 
#    0.000    0.000    0.000    0.000    0.000    0.000 
#
# Total GULP energy -133841.430375 kJ/mol
# GULP energy per Si atom -5576.726266 kJ/mol
# Density = 1.999133 g / cm^3
# Si number density = 20.036932 Si / 1000 Ang^3
#
#
#
# Elastic Constant Matrix: (Units=GPa)
#
#
# Indices 1 2 3 4 5 6 
#
# 1 164.4767 2.7131 108.1932 0.0000 -14.5279 0.0000
# 2 2.7131 57.4800 1.4372 0.0000 3.6834 0.0000
# 3 108.1932 1.4372 197.3483 0.0000 0.5967 0.0000
# 4 0.0000 0.0000 0.0000 17.4603 0.0000 -14.1913
# 5 -14.5279 3.6834 0.5967 0.0000 26.0232 0.0000
# 6 0.0000 0.0000 0.0000 -14.1913 0.0000 3.3269
#
#
#
# Elastic Compliance Matrix: (Units=1/GPa)
#
#
# Indices 1 2 3 4 5 6 
#
# 1 0.010374 -0.000733 -0.005700 0.000000 0.006026 0.000000
# 2 -0.000733 0.017611 0.000283 0.000000 -0.002909 0.000000
# 3 -0.005700 0.000283 0.008200 0.000000 -0.003410 0.000000
# 4 0.000000 0.000000 0.000000 -0.023216 0.000000 -0.099029
# 5 0.006026 -0.002909 -0.003410 0.000000 0.042281 0.000000
# 6 0.000000 0.000000 0.000000 -0.099029 0.000000 -0.121842
#
#
# Mechanical properties :
#
#
# Convention : Reuss Voigt Hill
#
# Bulk Modulus (GPa) = 41.86940 71.55466 56.71203
# Shear Modulus (GPa) = -107.92720 29.82619 -39.05050
#
# Velocity S-wave (km/s) = -7.34718 3.86237 -4.41945
# Velocity P-wave (km/s) = 7.14376 7.46187 1.52417
#
# Compressibility (1/GPa) = 0.02388379
#
# Stress axis : x y z
#
# Youngs Moduli (GPa) = 96.39640 56.78174 121.94420
#
# Poissons Ratio (x) = 0.04164 0.69510
# Poissons Ratio (y) = 0.07069 -0.03446
# Poissons Ratio (z) = 0.54948 -0.01604
#
# Static dielectric constant tensor:
#      x y z
#    x 1.695500 0.000000 0.002010 
#    y 0.000000 1.764400 0.000000 
#    z 0.002010 0.000000 1.690570 
# 
# From -- ./inp_files/27772.got.cif
#   From: 2010.05.17/outbox.cif.g08.bks.cpg/sg10_14_cif.got.tgz:27772.got - 2010.06.03 11:33:40.
