data_PCOD9155653
_publ_section_title
;
Structure prediction by ZEFSAII (Michael W. Deem and Ramdas Pophale) SiO2 
 PCOD9155653
Probable space group: P 2/M
;
_chemical_formula_sum "Si O2"
_cell_formula_units_Z 26
_cell_length_a 15.000000
_cell_length_b 12.000000
_cell_length_c 9.000000
_cell_angle_alpha 90.000000
_cell_angle_beta 120.000000
_cell_angle_gamma 90.000000
_cell_volume 1402.961154
_symmetry_space_group_name_H-M "P 2/M"
_symmetry_group_IT_number 10
_symmetry_cell_setting 'monoclinic'
loop_
_space_group_symop_operation_xyz
x,y,z
-x,y,-z
-x,-y,-z
x,-y,z
loop_
_atom_site_type_symbol
_atom_site_label
_atom_site_fract_x
_atom_site_fract_y
_atom_site_fract_z
Si Si1 0.933122 0.235646 0.666143
Si Si2 0.854183 0.366168 0.195785
Si Si3 0.918679 0.000000 0.804495
Si Si4 0.385315 0.232777 0.466184
Si Si5 0.191083 0.368902 0.192416
Si Si6 0.374258 0.000000 0.942930
Si Si7 0.722212 0.779640 0.301399
Si Si8 0.316879 0.000000 0.259312
O O1 0.892369 0.308767 0.771863
O O2 0.834162 0.218999 0.475759
O O3 0.037656 0.296226 0.694221
O O4 0.944931 0.110073 0.732869
O O5 0.867134 0.500000 0.239738
O O6 0.756228 0.314789 0.206606
O O7 0.831354 0.354130 0.000750
O O8 0.804596 0.000000 0.788364
O O9 0.000000 0.000000 0.000000
O O10 0.500000 0.261202 0.500000
O O11 0.300699 0.314962 0.324612
O O12 0.358109 0.236075 0.623504
O O13 0.362103 0.109987 0.378000
O O14 0.190295 0.500000 0.225275
O O15 0.320059 0.110247 0.822134
O O16 0.500000 0.000000 0.000000
O O17 0.347526 0.000000 0.103836
#
# Coordination Sequence:
#
# PCOD9155653 Si02
#       8
#     4   4   2   4   4   2   4   2
#     4  11  23  40  64  92 133 170 210 249 309 381
#     4  11  24  42  64  94 131 172 210 257 317 377
#     4  12  23  36  63  97 125 165 205 254 303 371
#     4  11  23  42  67  91 122 165 215 266 318 374
#     4  10  21  39  63  90 124 167 218 261 302 373
#     4  12  26  43  68  96 127 168 212 262 329 379
#     4  11  24  40  63  94 130 160 209 267 315 376
#     4  12  22  43  66  90 126 168 209 262 309 384
#
# _framework density 18.532230999999999
#
# number of rings (size 3 to 8) (size 9 to 14) (size 15 to 20)
#    0.000    0.923    3.077    5.308    2.154    5.231 
#    0.000    1.538    0.000    2.308    0.000    0.000 
#    0.000    0.000    0.000    0.000    0.000    0.000 
#
# Total GULP energy -144856.966441 kJ/mol
# GULP energy per Si atom -5571.421786 kJ/mol
# Density = 1.849005 g / cm^3
# Si number density = 18.532231 Si / 1000 Ang^3
#
#
#
# Elastic Constant Matrix: (Units=GPa)
#
#
# Indices 1 2 3 4 5 6 
#
# 1 167.0706 54.6247 29.9645 0.0000 -9.0523 0.0000
# 2 54.6247 151.0405 43.1484 0.0000 -9.0736 0.0000
# 3 29.9645 43.1484 72.3722 0.0000 -16.0092 0.0000
# 4 0.0000 0.0000 0.0000 29.2027 0.0000 2.2053
# 5 -9.0523 -9.0736 -16.0092 0.0000 38.1674 0.0000
# 6 0.0000 0.0000 0.0000 2.2053 0.0000 28.1068
#
#
#
# Elastic Compliance Matrix: (Units=1/GPa)
#
#
# Indices 1 2 3 4 5 6 
#
# 1 0.006959 -0.002043 -0.001549 0.000000 0.000515 0.000000
# 2 -0.002043 0.008580 -0.004327 0.000000 -0.000260 0.000000
# 3 -0.001549 -0.004327 0.018441 0.000000 0.006339 0.000000
# 4 0.000000 0.000000 0.000000 0.034447 0.000000 -0.002703
# 5 0.000515 -0.000260 0.006339 0.000000 0.028920 0.000000
# 6 0.000000 0.000000 0.000000 -0.002703 0.000000 0.035791
#
#
# Mechanical properties :
#
#
# Convention : Reuss Voigt Hill
#
# Bulk Modulus (GPa) = 55.12295 71.77317 63.44806
# Shear Modulus (GPa) = 32.25300 36.61178 34.43239
#
# Velocity S-wave (km/s) = 4.17630 4.44956 4.31510
# Velocity P-wave (km/s) = 7.28452 8.07534 7.69010
#
# Compressibility (1/GPa) = 0.01814126
#
# Stress axis : x y z
#
# Youngs Moduli (GPa) = 143.69165 116.54675 54.22746
#
# Poissons Ratio (x) = 0.23815 0.08401
# Poissons Ratio (y) = 0.29362 0.23464
# Poissons Ratio (z) = 0.22261 0.50430
#
# Static dielectric constant tensor:
#      x y z
#    x 1.683440 0.000000 -0.042120 
#    y 0.000000 1.639020 0.000000 
#    z -0.042120 0.000000 1.712060 
# 
# From -- ./inp_files/28439.got.cif
#   From: 2010.05.17/outbox.ucp.g08.bks.cvg/sg10_15_cif.got.tgz:28439.got - 2010.06.11 11:31:16.
