data_PCOD9155040
_publ_section_title
;
Structure prediction by ZEFSAII (Michael W. Deem and Ramdas Pophale) SiO2 
 PCOD9155040
Probable space group: P 2/M
;
_chemical_formula_sum "Si O2"
_cell_formula_units_Z 20
_cell_length_a 10.665815
_cell_length_b 14.230963
_cell_length_c 7.508625
_cell_angle_alpha 90.000000
_cell_angle_beta 139.213303
_cell_angle_gamma 90.000000
_cell_volume 744.500048
_symmetry_space_group_name_H-M "P 2/M"
_symmetry_group_IT_number 10
_symmetry_cell_setting 'monoclinic'
loop_
_space_group_symop_operation_xyz
x,y,z
-x,y,-z
-x,-y,-z
x,-y,z
loop_
_atom_site_type_symbol
_atom_site_label
_atom_site_fract_x
_atom_site_fract_y
_atom_site_fract_z
Si Si1 0.183238 0.299972 0.458676
Si Si2 0.681677 0.100449 0.322646
Si Si3 0.234212 0.299849 0.088663
Si Si4 0.787315 0.500000 0.439812
Si Si5 0.225560 0.896556 0.175677
Si Si6 0.787641 0.500000 0.018484
O O1 0.233513 0.204440 0.611564
O O2 0.208085 0.290962 0.273055
O O3 0.294569 0.395480 0.621765
O O4 0.955966 0.312308 0.234442
O O5 0.658678 0.100032 0.513858
O O6 0.788578 0.000000 0.405205
O O7 0.500000 0.096988 0.000000
O O8 0.288793 0.190571 0.118902
O O9 0.316965 0.404552 0.155172
O O10 0.805628 0.500000 0.248489
O O11 0.979947 0.500000 0.774835
O O12 0.237176 0.000000 0.103415
O O13 0.000000 0.884806 0.000000
#
# Coordination Sequence:
#
# PCOD9155040 Si02
#       6
#     4   4   4   2   4   2
#     4   9  15  25  41  60  83 110 140 169 205 249
#     4   9  16  25  39  63  90 111 134 169 211 249
#     4   9  14  24  40  63  83 108 138 172 206 244
#     4   9  17  27  38  58  86 116 137 168 214 253
#     4   9  14  23  39  62  85 105 133 169 208 246
#     4   9  17  25  39  60  87 110 138 176 209 244
#
# _framework density 26.863667
#
# number of rings (size 3 to 8) (size 9 to 14) (size 15 to 20)
#    0.000    3.000    4.000    0.600    0.000    2.400 
#    0.000    0.500    0.000    1.200    0.000   16.800 
#    0.000   14.400    0.000    0.000    0.000    0.000 
#
# Total GULP energy -111351.400954 kJ/mol
# GULP energy per Si atom -5567.570048 kJ/mol
# Density = 2.680252 g / cm^3
# Si number density = 26.863667 Si / 1000 Ang^3
#
#
#
# Elastic Constant Matrix: (Units=GPa)
#
#
# Indices 1 2 3 4 5 6 
#
# 1 34.9987 33.2094 20.4981 0.0000 2.8184 0.0000
# 2 33.2094 374.6052 54.3527 0.0000 11.1826 0.0000
# 3 20.4981 54.3527 116.4414 0.0000 -7.2296 0.0000
# 4 0.0000 0.0000 0.0000 75.8589 0.0000 -4.9818
# 5 2.8184 11.1826 -7.2296 0.0000 31.0244 0.0000
# 6 0.0000 0.0000 0.0000 -4.9818 0.0000 -18.9403
#
#
#
# Elastic Compliance Matrix: (Units=1/GPa)
#
#
# Indices 1 2 3 4 5 6 
#
# 1 0.033935 -0.002151 -0.005188 0.000000 -0.003517 0.000000
# 2 -0.002151 0.003058 -0.001121 0.000000 -0.001168 0.000000
# 3 -0.005188 -0.001121 0.010227 0.000000 0.003259 0.000000
# 4 0.000000 0.000000 0.000000 0.012959 0.000000 -0.003408
# 5 -0.003517 -0.001168 0.003259 0.000000 0.033733 0.000000
# 6 0.000000 0.000000 0.000000 -0.003408 0.000000 -0.051901
#
#
# Mechanical properties :
#
#
# Convention : Reuss Voigt Hill
#
# Bulk Modulus (GPa) = 33.00385 82.46286 57.73335
# Shear Modulus (GPa) = 72.43212 45.45428 58.94320
#
# Velocity S-wave (km/s) = 5.19821 4.11790 4.68927
# Velocity P-wave (km/s) = 6.95276 7.30568 7.13140
#
# Compressibility (1/GPa) = 0.03029950
#
# Stress axis : x y z
#
# Youngs Moduli (GPa) = 29.46799 327.04542 97.78010
#
# Poissons Ratio (x) = 0.70335 0.50732
# Poissons Ratio (y) = 0.06337 0.10963
# Poissons Ratio (z) = 0.15289 0.36668
#
# Static dielectric constant tensor:
#      x y z
#    x 2.212080 0.000000 0.097750 
#    y 0.000000 2.325320 0.000000 
#    z 0.097750 0.000000 2.015780 
# 
# From -- ./inp_files/32702.got.cif
#   From: 2010.05.17/outbox.cif.g08.bks.cpg/sg10_17_cif.got.tgz:32702.got - 2010.06.03 11:33:40.
