data_PCOD9155613
_publ_section_title
;
Structure prediction by ZEFSAII (Michael W. Deem and Ramdas Pophale) SiO2 
 PCOD9155613
Probable space group: P 2/M
;
_chemical_formula_sum "Si O2"
_cell_formula_units_Z 32
_cell_length_a 15.000000
_cell_length_b 9.000000
_cell_length_c 24.000000
_cell_angle_alpha 90.000000
_cell_angle_beta 30.000000
_cell_angle_gamma 90.000000
_cell_volume 1620.000000
_symmetry_space_group_name_H-M "P 2/M"
_symmetry_group_IT_number 10
_symmetry_cell_setting 'monoclinic'
loop_
_space_group_symop_operation_xyz
x,y,z
-x,y,-z
-x,-y,-z
x,-y,z
loop_
_atom_site_type_symbol
_atom_site_label
_atom_site_fract_x
_atom_site_fract_y
_atom_site_fract_z
Si Si1 0.070609 0.327674 0.712609
Si Si2 0.575718 0.825829 0.898227
Si Si3 0.331993 0.673612 0.677560
Si Si4 0.048958 0.179180 0.909929
Si Si5 0.689829 0.175834 0.505731
Si Si6 0.190550 0.172884 0.065213
Si Si7 0.229007 0.322874 0.425493
Si Si8 0.191400 0.676563 0.320977
O O1 0.045940 0.500000 0.711710
O O2 0.214008 0.315686 0.685442
O O3 0.145623 0.243399 0.618317
O O4 0.895870 0.261717 0.836655
O O5 0.730541 0.750096 0.777415
O O6 0.622260 0.000000 0.881207
O O7 0.500000 0.772436 0.000000
O O8 0.401669 0.812942 0.953217
O O9 0.373258 0.500000 0.664479
O O10 0.218558 0.739455 0.790629
O O11 0.510961 0.766079 0.573299
O O12 0.892953 0.214600 0.949342
O O13 0.077120 0.000000 0.894158
O O14 0.000000 0.221271 0.000000
O O15 0.675696 0.236893 0.576392
O O16 0.702167 0.000000 0.499073
O O17 0.144012 0.000000 0.099712
O O18 0.263236 0.500000 0.410267
O O19 0.269041 0.274918 0.339956
O O20 0.019652 0.301160 0.554208
O O21 0.221773 0.500000 0.299733
#
# Coordination Sequence:
#
# PCOD9155613 Si02
#       8
#     4   4   4   4   4   4   4   4
#     4  10  21  37  57  80 111 148 186 232 282 334
#     4  10  22  37  55  83 120 155 191 237 285 339
#     4  10  21  37  55  79 112 148 187 231 279 330
#     4   9  18  34  56  80 109 146 187 231 281 337
#     4  12  24  35  55  85 113 146 188 229 278 340
#     4   9  19  36  54  77 111 149 186 230 283 337
#     4   9  20  40  61  84 114 148 188 237 291 340
#     4   9  20  40  63  84 112 149 190 238 289 342
#
# _framework density 19.753086
#
# number of rings (size 3 to 8) (size 9 to 14) (size 15 to 20)
#    0.000    2.250    0.000    3.000    1.750    6.000 
#    0.000    2.500    0.000    0.000    0.000    0.000 
#    0.000    0.000    0.000    0.000    0.000    0.000 
#
# Total GULP energy -178560.021758 kJ/mol
# GULP energy per Si atom -5580.000680 kJ/mol
# Density = 1.970813 g / cm^3
# Si number density = 19.753086 Si / 1000 Ang^3
#
#
#
# Elastic Constant Matrix: (Units=GPa)
#
#
# Indices 1 2 3 4 5 6 
#
# 1 50.0802 21.4706 23.8425 0.0000 18.4799 0.0000
# 2 21.4706 60.7371 31.9131 0.0000 7.7736 0.0000
# 3 23.8425 31.9131 83.0652 0.0000 28.6182 0.0000
# 4 0.0000 0.0000 0.0000 29.0293 0.0000 1.2104
# 5 18.4799 7.7736 28.6182 0.0000 37.7863 0.0000
# 6 0.0000 0.0000 0.0000 1.2104 0.0000 3.8410
#
#
#
# Elastic Compliance Matrix: (Units=1/GPa)
#
#
# Indices 1 2 3 4 5 6 
#
# 1 0.028029 -0.007863 -0.001162 0.000000 -0.011210 0.000000
# 2 -0.007863 0.022994 -0.008487 0.000000 0.005543 0.000000
# 3 -0.001162 -0.008487 0.020073 0.000000 -0.012889 0.000000
# 4 0.000000 0.000000 0.000000 0.034907 0.000000 -0.011000
# 5 -0.011210 0.005543 -0.012889 0.000000 0.040568 0.000000
# 6 0.000000 0.000000 0.000000 -0.011000 0.000000 0.263814
#
#
# Mechanical properties :
#
#
# Convention : Reuss Voigt Hill
#
# Bulk Modulus (GPa) = 27.72196 38.70389 33.21292
# Shear Modulus (GPa) = 10.93057 21.90841 16.41949
#
# Velocity S-wave (km/s) = 2.35491 3.33395 2.88625
# Velocity P-wave (km/s) = 4.63237 5.86998 5.28751
#
# Compressibility (1/GPa) = 0.03607249
#
# Stress axis : x y z
#
# Youngs Moduli (GPa) = 35.67748 43.49023 49.81731
#
# Poissons Ratio (x) = 0.34195 0.05790
# Poissons Ratio (y) = 0.28052 0.42278
# Poissons Ratio (z) = 0.04146 0.36909
#
# Static dielectric constant tensor:
#      x y z
#    x 1.777360 0.000000 -0.054140 
#    y 0.000000 1.675910 0.000000 
#    z -0.054140 0.000000 1.693490 
# 
# From -- ./inp_files/89531.got.cif
#   From: 2010.05.17/outbox.ucp.g08.bks.cvg/sg10_45_cif.got.tgz:89531.got - 2010.06.11 11:31:16.
