data_PCOD9155336
_publ_section_title
;
Structure prediction by ZEFSAII (Michael W. Deem and Ramdas Pophale) SiO2 
 PCOD9155336
Probable space group: P 2/M
;
_chemical_formula_sum "Si O2"
_cell_formula_units_Z 28
_cell_length_a 30.000000
_cell_length_b 9.000000
_cell_length_c 30.000000
_cell_angle_alpha 90.000000
_cell_angle_beta 170.000000
_cell_angle_gamma 90.000000
_cell_volume 1406.550239
_symmetry_space_group_name_H-M "P 2/M"
_symmetry_group_IT_number 10
_symmetry_cell_setting 'monoclinic'
loop_
_space_group_symop_operation_xyz
x,y,z
-x,y,-z
-x,-y,-z
x,-y,z
loop_
_atom_site_type_symbol
_atom_site_label
_atom_site_fract_x
_atom_site_fract_y
_atom_site_fract_z
Si Si1 0.416292 0.828535 0.468897
Si Si2 0.559534 0.321050 0.945850
Si Si3 0.261435 0.820971 0.072164
Si Si4 0.881329 0.322054 0.973669
Si Si5 0.907140 0.678129 0.569480
Si Si6 0.209120 0.320423 0.442348
Si Si7 0.739870 0.832446 0.269303
O O1 0.500000 0.841305 0.500000
O O2 0.633953 0.717184 0.700771
O O3 0.426340 0.000000 0.496987
O O4 0.136915 0.758953 0.205700
O O5 0.576929 0.500000 0.965596
O O6 0.847335 0.264778 0.217372
O O7 0.370910 0.271427 0.720822
O O8 0.389966 0.267681 0.820723
O O9 0.210848 0.751489 0.070852
O O10 0.509467 0.745095 0.292481
O O11 0.291142 0.000000 0.102408
O O12 0.000068 0.770365 0.791103
O O13 0.923864 0.500000 0.019433
O O14 0.913770 0.500000 0.569439
O O15 0.895261 0.702576 0.610192
O O16 0.209740 0.500000 0.434506
O O17 0.000000 0.778271 0.500000
O O18 0.802607 0.000000 0.347696
O O19 0.500000 0.844967 0.000000
#
# Coordination Sequence:
#
# PCOD9155336 Si02
#       7
#     4   4   4   4   4   4   4
#     4  11  24  43  66  93 127 165 202 247 308 366
#     4  10  19  34  56  82 108 139 182 229 280 334
#     4  12  25  42  62  90 127 161 199 252 308 355
#     4  12  25  42  65  93 124 162 209 254 299 357
#     4   9  19  35  57  83 112 144 181 232 286 338
#     4  11  22  41  66  90 119 160 205 244 295 363
#     4  10  21  36  52  73 105 143 180 221 274 332
#
# _framework density 19.906860999999999
#
# number of rings (size 3 to 8) (size 9 to 14) (size 15 to 20)
#    0.000    1.286    0.000    6.429    0.000    5.714 
#    0.000    4.286    0.000    0.000    0.000    0.000 
#    0.000    0.000    0.000    0.000    0.000    0.000 
#
# Total GULP energy -156020.418156 kJ/mol
# GULP energy per Si atom -5572.157791 kJ/mol
# Density = 1.986155 g / cm^3
# Si number density = 19.906861 Si / 1000 Ang^3
#
#
#
# Elastic Constant Matrix: (Units=GPa)
#
#
# Indices 1 2 3 4 5 6 
#
# 1 47.6358 17.5256 16.3640 0.0000 23.0880 0.0000
# 2 17.5256 107.5099 22.5070 0.0000 13.6260 0.0000
# 3 16.3640 22.5070 140.2616 0.0000 42.0507 0.0000
# 4 0.0000 0.0000 0.0000 -65.5306 0.0000 -28.0668
# 5 23.0880 13.6260 42.0507 0.0000 49.8108 0.0000
# 6 0.0000 0.0000 0.0000 -28.0668 0.0000 13.3817
#
#
#
# Elastic Compliance Matrix: (Units=1/GPa)
#
#
# Indices 1 2 3 4 5 6 
#
# 1 0.028134 -0.003163 0.001172 0.000000 -0.013165 0.000000
# 2 -0.003163 0.010100 -0.001155 0.000000 -0.000321 0.000000
# 3 0.001172 -0.001155 0.009702 0.000000 -0.008418 0.000000
# 4 0.000000 0.000000 0.000000 -0.008039 0.000000 -0.016860
# 5 -0.013165 -0.000321 -0.008418 0.000000 0.033372 0.000000
# 6 0.000000 0.000000 0.000000 -0.016860 0.000000 0.039366
#
#
# Mechanical properties :
#
#
# Convention : Reuss Voigt Hill
#
# Bulk Modulus (GPa) = 24.01351 45.35561 34.68456
# Shear Modulus (GPa) = 37.64809 15.46644 26.55726
#
# Velocity S-wave (km/s) = 4.35352 2.79039 3.65646
# Velocity P-wave (km/s) = 6.11228 5.76325 5.94033
#
# Compressibility (1/GPa) = 0.04164322
#
# Stress axis : x y z
#
# Youngs Moduli (GPa) = 35.54365 99.01297 103.07396
#
# Poissons Ratio (x) = 0.31319 -0.12081
# Poissons Ratio (y) = 0.11243 0.11908
# Poissons Ratio (z) = -0.04166 0.11438
#
# Static dielectric constant tensor:
#      x y z
#    x 0.800880 0.000000 0.325970 
#    y 0.000000 1.702540 0.000000 
#    z 0.325970 0.000000 1.535710 
# 
# From -- ./inp_files/96038.got.cif
#   From: 2010.05.17/outbox.ucp.g08.bks.cvg/sg10_49_cif.got.tgz:96038.got - 2010.06.11 11:31:16.
