data_PCOD9155132
_publ_section_title
;
Structure prediction by ZEFSAII (Michael W. Deem and Ramdas Pophale) SiO2 
 PCOD9155132
Probable space group: P 2/M
;
_chemical_formula_sum "Si O2"
_cell_formula_units_Z 32
_cell_length_a 27.000000
_cell_length_b 9.000000
_cell_length_c 21.000000
_cell_angle_alpha 90.000000
_cell_angle_beta 20.000000
_cell_angle_gamma 90.000000
_cell_volume 1745.328791
_symmetry_space_group_name_H-M "P 2/M"
_symmetry_group_IT_number 10
_symmetry_cell_setting 'monoclinic'
loop_
_space_group_symop_operation_xyz
x,y,z
-x,y,-z
-x,-y,-z
x,-y,z
loop_
_atom_site_type_symbol
_atom_site_label
_atom_site_fract_x
_atom_site_fract_y
_atom_site_fract_z
Si Si1 0.107225 0.176433 0.233637
Si Si2 0.727998 0.822079 0.393377
Si Si3 0.654431 0.678104 0.964109
Si Si4 0.637503 0.678445 0.378567
Si Si5 0.053211 0.821476 0.030065
Si Si6 0.879879 0.667912 0.588997
Si Si7 0.034392 0.179361 0.719512
Si Si8 0.350518 0.178672 0.364264
O O1 0.953946 0.217577 0.451917
O O2 0.080178 0.229972 0.194463
O O3 0.237613 0.256454 0.112624
O O4 0.132208 0.000000 0.206166
O O5 0.630266 0.739773 0.459516
O O6 0.674897 0.793147 0.529523
O O7 0.721144 0.000000 0.391601
O O8 0.794363 0.743632 0.168384
O O9 0.652592 0.500000 0.971455
O O10 0.732277 0.713635 0.802468
O O11 0.495221 0.744154 0.164761
O O12 0.500000 0.723249 0.500000
O O13 0.643098 0.500000 0.371471
O O14 0.900052 0.780395 0.180687
O O15 0.018020 0.789466 0.146310
O O16 0.070014 0.000000 0.000986
O O17 0.865914 0.500000 0.579257
O O18 0.000000 0.658202 0.500000
O O19 0.200939 0.230459 0.511587
O O20 0.040896 0.000000 0.705956
O O21 0.363797 0.000000 0.340806
#
# Coordination Sequence:
#
# PCOD9155132 Si02
#       8
#     4   4   4   4   4   4   4   4
#     4  10  18  30  52  78 100 128 169 211 252 298
#     4   9  19  36  58  79  97 127 170 209 247 295
#     4  10  20  33  49  72 103 136 169 206 250 299
#     4  11  24  37  49  74 110 138 163 202 248 292
#     4   9  18  36  59  77  97 130 170 206 245 298
#     4   8  16  31  47  66  98 136 170 206 248 294
#     4   8  17  34  54  77 103 128 160 208 256 296
#     4   9  18  35  56  76 100 129 165 208 250 295
#
# _framework density 18.334654
#
# number of rings (size 3 to 8) (size 9 to 14) (size 15 to 20)
#    0.000    2.750    0.000    3.750    0.000    7.250 
#    0.000    8.750    0.000    3.750    0.000    0.000 
#    0.000    0.000    0.000    0.000    0.000    0.000 
#
# Total GULP energy -178279.004599 kJ/mol
# GULP energy per Si atom -5571.218894 kJ/mol
# Density = 1.829292 g / cm^3
# Si number density = 18.334654 Si / 1000 Ang^3
#
#
#
# Elastic Constant Matrix: (Units=GPa)
#
#
# Indices 1 2 3 4 5 6 
#
# 1 32.8212 -0.3947 -27.2991 0.0000 -14.7687 0.0000
# 2 -0.3947 25.0143 2.7443 0.0000 -6.7830 0.0000
# 3 -27.2991 2.7443 57.3057 0.0000 -6.1035 0.0000
# 4 0.0000 0.0000 0.0000 147.4755 0.0000 52.0145
# 5 -14.7687 -6.7830 -6.1035 0.0000 18.7825 0.0000
# 6 0.0000 0.0000 0.0000 52.0145 0.0000 33.8118
#
#
#
# Elastic Compliance Matrix: (Units=1/GPa)
#
#
# Indices 1 2 3 4 5 6 
#
# 1 0.777978 0.186731 0.449563 0.000000 0.825248 0.000000
# 2 0.186731 0.089147 0.107472 0.000000 0.213944 0.000000
# 3 0.449563 0.107472 0.277865 0.000000 0.482597 0.000000
# 4 0.000000 0.000000 0.000000 0.014824 0.000000 -0.022804
# 5 0.825248 0.213944 0.482597 0.000000 0.936219 0.000000
# 6 0.000000 0.000000 0.000000 -0.022804 0.000000 0.064657
#
#
# Mechanical properties :
#
#
# Convention : Reuss Voigt Hill
#
# Bulk Modulus (GPa) = 0.37986 7.24916 3.81451
# Shear Modulus (GPa) = 3.22442 49.35334 26.28888
#
# Velocity S-wave (km/s) = 1.32758 5.19389 3.79071
# Velocity P-wave (km/s) = 1.59925 6.31910 4.60916
#
# Compressibility (1/GPa) = 2.63252024
#
# Stress axis : x y z
#
# Youngs Moduli (GPa) = 1.28538 11.21748 3.59887
#
# Poissons Ratio (x) = -2.09465 -1.61792
# Poissons Ratio (y) = -0.24002 -0.38678
# Poissons Ratio (z) = -0.57786 -1.20556
#
# Static dielectric constant tensor:
#      x y z
#    x 1.680780 0.000000 0.032710 
#    y 0.000000 1.613940 0.000000 
#    z 0.032710 0.000000 1.635800 
# 
# From -- ./inp_files/86888.got.cif
#   From: 2010.05.17/outbox.ucp.g08.bks.cvg/sg10_44_cif.got.tgz:86888.got - 2010.06.11 11:31:16.
