data_PCOD9155998
_publ_section_title
;
Structure prediction by ZEFSAII (Michael W. Deem and Ramdas Pophale) SiO2 
 PCOD9155998
Probable space group: P 21/M
;
_chemical_formula_sum "Si O2"
_cell_formula_units_Z 28
_cell_length_a 24.957930
_cell_length_b 12.145794
_cell_length_c 5.488869
_cell_angle_alpha 90.000000
_cell_angle_beta 109.261868
_cell_angle_gamma 90.000000
_cell_volume 1570.720315
_symmetry_space_group_name_H-M "P 21/M"
_symmetry_group_IT_number 11
_symmetry_cell_setting 'monoclinic'
loop_
_space_group_symop_operation_xyz
x,y,z
-x,1/2+y,-z
-x,-y,-z
x,1/2-y,z
loop_
_atom_site_type_symbol
_atom_site_label
_atom_site_fract_x
_atom_site_fract_y
_atom_site_fract_z
Si Si1 0.466618 0.750000 0.449938
Si Si2 0.923785 0.998590 0.635677
Si Si3 0.432127 0.991482 0.898199
Si Si4 0.736553 0.382495 0.854829
Si Si5 0.956774 0.880617 0.185162
Si Si6 0.196881 0.882277 0.545322
Si Si7 0.538920 0.250000 0.058369
Si Si8 0.389868 0.972522 0.334810
O O1 0.497526 0.750000 0.752371
O O2 0.428388 0.860376 0.392595
O O3 0.497526 0.750000 0.240231
O O4 0.930226 0.929242 0.394958
O O5 0.864179 0.060835 0.546268
O O6 0.930226 0.929242 0.895721
O O7 0.977225 0.082128 0.715838
O O8 0.422019 0.858303 0.883041
O O9 0.406788 0.033538 0.608527
O O10 0.406790 0.033539 0.111863
O O11 0.500000 0.000000 0.000000
O O12 0.728529 0.250000 0.842793
O O13 0.769709 0.410778 0.654483
O O14 0.675265 0.438649 0.762896
O O15 0.769708 0.410778 0.154644
O O16 0.952059 0.750000 0.178089
O O17 0.189886 0.750000 0.534829
#
# Coordination Sequence:
#
# PCOD9155998 Si02
#       8
#     2   4   4   4   4   4   2   4
#     4   8  14  24  40  58  80 118 142 170 212 259
#     4  10  20  34  52  76 109 142 171 216 260 309
#     4  10  19  29  44  66  93 120 152 189 232 289
#     4  10  19  30  47  71  99 135 167 196 241 304
#     4  10  20  34  54  77 104 140 180 216 260 306
#     4  10  20  32  48  73 108 140 168 201 248 310
#     4   8  16  26  40  58  84 114 138 176 220 257
#     4  10  17  29  44  63  94 123 153 189 229 281
#
# _framework density 17.826215999999999
#
# number of rings (size 3 to 8) (size 9 to 14) (size 15 to 20)
#    0.000    2.286    0.714    3.000    0.000    0.000 
#    0.000    4.286    0.000    0.000    0.000    0.000 
#   42.857    0.000    0.000    0.000    0.000    0.000 
#
# Total GULP energy -155998.079235 kJ/mol
# GULP energy per Si atom -5571.359973 kJ/mol
# Density = 1.778564 g / cm^3
# Si number density = 17.826216 Si / 1000 Ang^3
#
#
#
# Elastic Constant Matrix: (Units=GPa)
#
#
# Indices 1 2 3 4 5 6 
#
# 1 134.1439 26.9963 99.2652 0.0000 -7.3354 0.0000
# 2 26.9963 32.9065 27.3829 0.0000 -0.1903 0.0000
# 3 99.2652 27.3829 216.1756 0.0000 -33.0739 0.0000
# 4 0.0000 0.0000 0.0000 9.3610 0.0000 4.3668
# 5 -7.3354 -0.1903 -33.0739 0.0000 37.5663 0.0000
# 6 0.0000 0.0000 0.0000 4.3668 0.0000 18.2267
#
#
#
# Elastic Compliance Matrix: (Units=1/GPa)
#
#
# Indices 1 2 3 4 5 6 
#
# 1 0.012436 -0.005781 -0.005329 0.000000 -0.002293 0.000000
# 2 -0.005781 0.037235 -0.002549 0.000000 -0.003184 0.000000
# 3 -0.005329 -0.002549 0.008361 0.000000 0.006307 0.000000
# 4 0.000000 0.000000 0.000000 0.120267 0.000000 -0.028814
# 5 -0.002293 -0.003184 0.006307 0.000000 0.031709 0.000000
# 6 0.000000 0.000000 0.000000 -0.028814 0.000000 0.061768
#
#
# Mechanical properties :
#
#
# Convention : Reuss Voigt Hill
#
# Bulk Modulus (GPa) = 32.55938 76.72386 54.64162
# Shear Modulus (GPa) = 16.16382 28.33624 22.25003
#
# Velocity S-wave (km/s) = 3.01449 3.99128 3.53677
# Velocity P-wave (km/s) = 5.51550 8.02333 6.88457
#
# Compressibility (1/GPa) = 0.03071311
#
# Stress axis : x y z
#
# Youngs Moduli (GPa) = 80.41031 26.85654 119.60617
#
# Poissons Ratio (x) = 0.15527 0.63738
# Poissons Ratio (y) = 0.46488 0.30488
# Poissons Ratio (z) = 0.42851 0.06846
#
# Static dielectric constant tensor:
#      x y z
#    x 1.586180 0.000000 -0.060870 
#    y 0.000000 1.619120 0.000000 
#    z -0.060870 0.000000 1.709740 
# 
# From -- ./inp_files/8859.got.cif
#   From: 2010.05.17/outbox.cif.g08.bks.cpg/sg11_5_cif.got.tgz:8859.got - 2010.06.03 12:22:45.
