data_PCOD9155236
_publ_section_title
;
Structure prediction by ZEFSAII (Michael W. Deem and Ramdas Pophale) SiO2 
 PCOD9155236
Probable space group: P 2/M
;
_chemical_formula_sum "Si O2"
_cell_formula_units_Z 32
_cell_length_a 15.000000
_cell_length_b 15.000000
_cell_length_c 21.000000
_cell_angle_alpha 90.000000
_cell_angle_beta 160.000000
_cell_angle_gamma 90.000000
_cell_volume 1616.045177
_symmetry_space_group_name_H-M "P 2/M"
_symmetry_group_IT_number 10
_symmetry_cell_setting 'monoclinic'
loop_
_space_group_symop_operation_xyz
x,y,z
-x,y,-z
-x,-y,-z
x,-y,z
loop_
_atom_site_type_symbol
_atom_site_label
_atom_site_fract_x
_atom_site_fract_y
_atom_site_fract_z
Si Si1 0.449686 0.598232 0.071313
Si Si2 0.602504 0.098595 0.891661
Si Si3 0.764221 0.720144 0.969787
Si Si4 0.287950 0.862154 0.806994
Si Si5 0.140220 0.659153 0.738903
Si Si6 0.169644 0.397893 0.180299
Si Si7 0.705083 0.905097 0.449055
Si Si8 0.571443 0.285077 0.382818
O O1 0.380745 0.500000 0.048342
O O2 0.733736 0.598320 0.230317
O O3 0.428217 0.670030 0.111749
O O4 0.256401 0.627486 0.884353
O O5 0.398758 0.118361 0.811526
O O6 0.451257 0.099214 0.722741
O O7 0.714240 0.000000 0.976547
O O8 0.803031 0.180495 0.022236
O O9 0.012511 0.658148 0.126928
O O10 0.626332 0.723980 0.808885
O O11 0.246681 0.757183 0.792344
O O12 0.006862 0.902361 0.632031
O O13 0.500000 0.894510 0.000000
O O14 0.832541 0.666413 0.535278
O O15 0.211492 0.500000 0.226570
O O16 0.431124 0.344344 0.340772
O O17 0.000000 0.399231 0.000000
O O18 0.643584 0.816747 0.447989
O O19 0.642589 0.000000 0.438124
#
# Coordination Sequence:
#
# PCOD9155236 Si02
#       8
#     4   4   4   4   4   4   4   4
#     4  11  21  35  53  74 106 143 168 209 269 317
#     4  10  19  32  49  72 105 139 171 211 257 305
#     4  10  19  36  54  78 103 134 178 217 258 310
#     4  11  18  30  49  74 104 139 175 210 246 300
#     4  10  19  35  50  75 109 139 169 208 259 314
#     4   9  18  34  55  78 102 130 171 224 270 303
#     4   9  19  32  48  74 106 138 171 209 257 305
#     4   9  20  34  57  76 102 138 174 217 259 305
#
# _framework density 19.801427
#
# number of rings (size 3 to 8) (size 9 to 14) (size 15 to 20)
#    0.000    2.125    2.500    1.875    0.000    4.000 
#    0.000    1.875    0.000    5.250    0.000    0.000 
#    0.000    6.000    0.000    0.000    0.000    0.000 
#
# Total GULP energy -178351.797468 kJ/mol
# GULP energy per Si atom -5573.493671 kJ/mol
# Density = 1.975636 g / cm^3
# Si number density = 19.801427 Si / 1000 Ang^3
#
#
#
# Elastic Constant Matrix: (Units=GPa)
#
#
# Indices 1 2 3 4 5 6 
#
# 1 1271.0871 559.8405 -575.1097 0.0000 -159.0193 0.0000
# 2 559.8405 395.6241 -211.4021 0.0000 -47.9270 0.0000
# 3 -575.1097 -211.4021 300.5310 0.0000 110.7195 0.0000
# 4 0.0000 0.0000 0.0000 4.9913 0.0000 -3.8597
# 5 -159.0193 -47.9270 110.7195 0.0000 46.1139 0.0000
# 6 0.0000 0.0000 0.0000 -3.8597 0.0000 11.1927
#
#
#
# Elastic Compliance Matrix: (Units=1/GPa)
#
#
# Indices 1 2 3 4 5 6 
#
# 1 -0.001633 -0.002964 -0.017329 0.000000 0.032894 0.000000
# 2 -0.002964 0.007387 0.003997 0.000000 -0.012140 0.000000
# 3 -0.017329 0.003997 -0.056629 0.000000 0.080365 0.000000
# 4 0.000000 0.000000 0.000000 0.273197 0.000000 0.094210
# 5 0.032894 -0.012140 0.080365 0.000000 -0.070456 0.000000
# 6 0.000000 0.000000 0.000000 0.094210 0.000000 0.121832
#
#
# Mechanical properties :
#
#
# Convention : Reuss Voigt Hill
#
# Bulk Modulus (GPa) = -11.98097 168.21107 78.11505
# Shear Modulus (GPa) = 17.95557 158.72047 88.33802
#
# Velocity S-wave (km/s) = 3.01455 8.96271 6.68646
# Velocity P-wave (km/s) = 2.46028 13.86507 9.95724
#
# Compressibility (1/GPa) = -0.08346567
#
# Stress axis : x y z
#
# Youngs Moduli (GPa) = -612.28294 135.38020 -17.65875
#
# Poissons Ratio (x) = 0.40121 -0.30600
# Poissons Ratio (y) = -1.81453 0.07059
# Poissons Ratio (z) = -10.61004 -0.54115
#
# Static dielectric constant tensor:
#      x y z
#    x 1.664140 0.000000 0.009200 
#    y 0.000000 1.752720 0.000000 
#    z 0.009200 0.000000 1.685640 
# 
# From -- ./inp_files/51655.got.cif
#   From: 2010.05.17/outbox.ucp.g08.bks.cvg/sg10_26_cif.got.tgz:51655.got - 2010.06.11 11:31:16.
