data_PCOD9155310
_publ_section_title
;
Structure prediction by ZEFSAII (Michael W. Deem and Ramdas Pophale) SiO2 
 PCOD9155310
Probable space group: P 2/M
;
_chemical_formula_sum "Si O2"
_cell_formula_units_Z 32
_cell_length_a 30.000000
_cell_length_b 9.000000
_cell_length_c 12.000000
_cell_angle_alpha 90.000000
_cell_angle_beta 150.000000
_cell_angle_gamma 90.000000
_cell_volume 1620.000000
_symmetry_space_group_name_H-M "P 2/M"
_symmetry_group_IT_number 10
_symmetry_cell_setting 'monoclinic'
loop_
_space_group_symop_operation_xyz
x,y,z
-x,y,-z
-x,-y,-z
x,-y,z
loop_
_atom_site_type_symbol
_atom_site_label
_atom_site_fract_x
_atom_site_fract_y
_atom_site_fract_z
Si Si1 0.206305 0.677559 0.908355
Si Si2 0.093559 0.828106 0.853133
Si Si3 0.394705 0.330555 0.012014
Si Si4 0.791438 0.320903 0.489751
Si Si5 0.599788 0.671030 0.714379
Si Si6 0.915868 0.677625 0.565204
Si Si7 0.451048 0.822171 0.777216
Si Si8 0.752455 0.827064 0.630218
O O1 0.211029 0.500000 0.935481
O O2 0.132459 0.744967 0.830027
O O3 0.165166 0.702565 0.697042
O O4 0.309089 0.734448 0.143038
O O5 0.005521 0.755827 0.716551
O O6 0.074339 0.000000 0.785677
O O7 0.177418 0.821734 0.118447
O O8 0.405700 0.500000 0.995408
O O9 0.377722 0.335587 0.106370
O O10 0.485596 0.246852 0.179337
O O11 0.305316 0.265777 0.763347
O O12 0.789629 0.500000 0.477653
O O13 0.874668 0.271796 0.594126
O O14 0.794333 0.267371 0.621634
O O15 0.500000 0.740135 0.500000
O O16 0.588909 0.500000 0.647945
O O17 0.932801 0.500000 0.605498
O O18 0.347652 0.773639 0.555680
O O19 0.451557 0.000000 0.766143
O O20 0.500000 0.784798 0.000000
O O21 0.743033 0.000000 0.574533
#
# Coordination Sequence:
#
# PCOD9155310 Si02
#       8
#     4   4   4   4   4   4   4   4
#     4  10  20  38  63  87 115 151 188 228 280 342
#     4  11  25  41  57  82 116 150 189 240 287 331
#     4  10  19  33  55  85 114 142 183 233 276 322
#     4  10  20  36  60  87 115 144 186 240 283 329
#     4   9  18  33  55  86 119 148 179 221 278 336
#     4  10  21  40  63  86 112 145 187 237 289 340
#     4  10  20  35  55  77 107 150 189 218 263 332
#     4  10  23  41  56  78 117 156 189 230 283 338
#
# _framework density 19.753086
#
# number of rings (size 3 to 8) (size 9 to 14) (size 15 to 20)
#    0.000    2.000    2.500    0.750    1.750    4.750 
#    0.000    3.125    0.000    0.750    0.000    0.000 
#    0.000    0.000    0.000    0.000    0.000    0.000 
#
# Total GULP energy -178444.288538 kJ/mol
# GULP energy per Si atom -5576.384017 kJ/mol
# Density = 1.970813 g / cm^3
# Si number density = 19.753086 Si / 1000 Ang^3
#
#
#
# Elastic Constant Matrix: (Units=GPa)
#
#
# Indices 1 2 3 4 5 6 
#
# 1 113.4524 24.5158 16.9796 0.0000 37.8563 0.0000
# 2 24.5158 14.2703 18.9164 0.0000 12.3340 0.0000
# 3 16.9796 18.9164 56.7330 0.0000 30.6561 0.0000
# 4 0.0000 0.0000 0.0000 22.9211 0.0000 1.7580
# 5 37.8563 12.3340 30.6561 0.0000 43.9340 0.0000
# 6 0.0000 0.0000 0.0000 1.7580 0.0000 83.2787
#
#
#
# Elastic Compliance Matrix: (Units=1/GPa)
#
#
# Indices 1 2 3 4 5 6 
#
# 1 0.023357 -0.049831 0.020773 0.000000 -0.020631 0.000000
# 2 -0.049831 0.234513 -0.081716 0.000000 0.034120 0.000000
# 3 0.020773 -0.081716 0.057679 0.000000 -0.035205 0.000000
# 4 0.000000 0.000000 0.000000 0.043699 0.000000 -0.000922
# 5 -0.020631 0.034120 -0.035205 0.000000 0.055525 0.000000
# 6 0.000000 0.000000 0.000000 -0.000922 0.000000 0.012027
#
#
# Mechanical properties :
#
#
# Convention : Reuss Voigt Hill
#
# Bulk Modulus (GPa) = 10.63817 33.91991 22.27904
# Shear Modulus (GPa) = 7.35636 38.29637 22.82636
#
# Velocity S-wave (km/s) = 1.93190 4.40790 3.40308
# Velocity P-wave (km/s) = 3.22081 6.56623 5.17151
#
# Compressibility (1/GPa) = 0.09400112
#
# Stress axis : x y z
#
# Youngs Moduli (GPa) = 42.81280 4.26415 17.33725
#
# Poissons Ratio (x) = 0.21249 -0.36014
# Poissons Ratio (y) = 2.13340 1.41674
# Poissons Ratio (z) = -0.88934 0.34845
#
# Static dielectric constant tensor:
#      x y z
#    x 1.695730 0.000000 -0.017750 
#    y 0.000000 1.687050 0.000000 
#    z -0.017750 0.000000 1.723520 
# 
# From -- ./inp_files/58223.got.cif
#   From: 2010.05.17/outbox.ucp.g08.bks.cvg/sg10_30_cif.got.tgz:58223.got - 2010.06.11 11:31:16.
