data_PCOD9155673
_publ_section_title
;
Structure prediction by ZEFSAII (Michael W. Deem and Ramdas Pophale) SiO2 
 PCOD9155673
Probable space group: P 2/M
;
_chemical_formula_sum "Si O2"
_cell_formula_units_Z 32
_cell_length_a 18.000000
_cell_length_b 15.000000
_cell_length_c 12.000000
_cell_angle_alpha 90.000000
_cell_angle_beta 30.000000
_cell_angle_gamma 90.000000
_cell_volume 1620.000000
_symmetry_space_group_name_H-M "P 2/M"
_symmetry_group_IT_number 10
_symmetry_cell_setting 'monoclinic'
loop_
_space_group_symop_operation_xyz
x,y,z
-x,y,-z
-x,-y,-z
x,-y,z
loop_
_atom_site_type_symbol
_atom_site_label
_atom_site_fract_x
_atom_site_fract_y
_atom_site_fract_z
Si Si1 0.841708 0.206151 0.139883
Si Si2 0.177342 0.603341 0.768563
Si Si3 0.595816 0.106807 0.609105
Si Si4 0.078659 0.105105 0.190965
Si Si5 0.697535 0.797306 0.948639
Si Si6 0.686632 0.604498 0.640519
Si Si7 0.670565 0.393440 0.911596
Si Si8 0.726420 0.897568 0.687081
O O1 0.790497 0.310405 0.195680
O O2 0.720345 0.149680 0.367200
O O3 0.871039 0.158059 0.984549
O O4 0.000000 0.205951 0.000000
O O5 0.234778 0.500000 0.714636
O O6 0.231959 0.637891 0.575634
O O7 0.000000 0.594511 0.000000
O O8 0.650335 0.115991 0.666401
O O9 0.575582 0.000000 0.613914
O O10 0.444396 0.164062 0.799910
O O11 0.161364 0.150876 0.186515
O O12 0.902143 0.111170 0.437425
O O13 0.116779 0.000000 0.133073
O O14 0.717169 0.689990 0.927750
O O15 0.677478 0.829969 0.846861
O O16 0.720324 0.500000 0.595444
O O17 0.727759 0.631110 0.712594
O O18 0.509170 0.613507 0.858395
O O19 0.704276 0.500000 0.890948
O O20 0.695307 0.000000 0.764530
#
# Coordination Sequence:
#
# PCOD9155673 Si02
#       8
#     4   4   4   4   4   4   4   4
#     4  11  22  38  63  85 113 159 211 242 292 361
#     4   9  18  31  51  82 116 145 188 247 296 338
#     4  11  23  38  60  92 120 151 198 258 302 340
#     4  11  24  43  62  84 118 164 205 243 298 369
#     4  12  24  36  61  91 125 155 194 246 308 355
#     4   8  15  30  51  78 113 150 189 236 287 342
#     4   9  19  33  55  85 119 157 194 234 291 356
#     4  10  22  40  62  85 117 158 200 243 297 361
#
# _framework density 19.753086
#
# number of rings (size 3 to 8) (size 9 to 14) (size 15 to 20)
#    0.000    1.875    1.250    3.750    5.250    3.000 
#    0.000    1.875    0.000    1.500    0.000    4.375 
#    0.000    0.000    0.000    0.000    0.000    0.000 
#
# Total GULP energy -178521.866639 kJ/mol
# GULP energy per Si atom -5578.808332 kJ/mol
# Density = 1.970813 g / cm^3
# Si number density = 19.753086 Si / 1000 Ang^3
#
#
#
# Elastic Constant Matrix: (Units=GPa)
#
#
# Indices 1 2 3 4 5 6 
#
# 1 19.0505 18.0931 -2.2039 0.0000 -5.1121 0.0000
# 2 18.0931 150.8026 27.3307 0.0000 5.4030 0.0000
# 3 -2.2039 27.3307 83.0963 0.0000 13.1165 0.0000
# 4 0.0000 0.0000 0.0000 19.2782 0.0000 6.0670
# 5 -5.1121 5.4030 13.1165 0.0000 25.8155 0.0000
# 6 0.0000 0.0000 0.0000 6.0670 0.0000 26.8330
#
#
#
# Elastic Compliance Matrix: (Units=1/GPa)
#
#
# Indices 1 2 3 4 5 6 
#
# 1 0.064600 -0.008675 0.002458 0.000000 0.013359 0.000000
# 2 -0.008675 0.008219 -0.002599 0.000000 -0.002117 0.000000
# 3 0.002458 -0.002599 0.013907 0.000000 -0.006035 0.000000
# 4 0.000000 0.000000 0.000000 0.055846 0.000000 -0.012627
# 5 0.013359 -0.002117 -0.006035 0.000000 0.044891 0.000000
# 6 0.000000 0.000000 0.000000 -0.012627 0.000000 0.040122
#
#
# Mechanical properties :
#
#
# Convention : Reuss Voigt Hill
#
# Bulk Modulus (GPa) = 14.47312 37.70991 26.09152
# Shear Modulus (GPa) = 18.63946 28.36732 23.50339
#
# Velocity S-wave (km/s) = 3.07518 3.79370 3.45318
# Velocity P-wave (km/s) = 4.46675 6.19044 5.39785
#
# Compressibility (1/GPa) = 0.06909358
#
# Stress axis : x y z
#
# Youngs Moduli (GPa) = 15.47995 121.67139 71.90680
#
# Poissons Ratio (x) = 1.05546 -0.17673
# Poissons Ratio (y) = 0.13428 0.18689
# Poissons Ratio (z) = -0.03805 0.31623
#
# Static dielectric constant tensor:
#      x y z
#    x 1.717170 0.000000 0.003150 
#    y 0.000000 1.725040 0.000000 
#    z 0.003150 0.000000 1.750150 
# 
# From -- ./inp_files/53983.got.cif
#   From: 2010.05.17/outbox.ucp.g08.bks.cvg/sg10_27_cif.got.tgz:53983.got - 2010.06.11 11:31:16.
