data_PCOD9155860
_publ_section_title
;
Structure prediction by ZEFSAII (Michael W. Deem and Ramdas Pophale) SiO2 
 PCOD9155860
Probable space group: P 21/M
;
_chemical_formula_sum "Si O2"
_cell_formula_units_Z 28
_cell_length_a 18.456387
_cell_length_b 7.809999
_cell_length_c 16.858796
_cell_angle_alpha 90.000000
_cell_angle_beta 154.539507
_cell_angle_gamma 90.000000
_cell_volume 1044.672561
_symmetry_space_group_name_H-M "P 21/M"
_symmetry_group_IT_number 11
_symmetry_cell_setting 'monoclinic'
loop_
_space_group_symop_operation_xyz
x,y,z
-x,1/2+y,-z
-x,-y,-z
x,1/2-y,z
loop_
_atom_site_type_symbol
_atom_site_label
_atom_site_fract_x
_atom_site_fract_y
_atom_site_fract_z
Si Si1 0.840769 0.540176 0.536087
Si Si2 0.352206 0.444046 0.796302
Si Si3 0.437008 0.453695 0.557736
Si Si4 0.654169 0.548214 0.909848
Si Si5 0.176826 0.548799 0.768491
Si Si6 0.016121 0.950074 0.861394
Si Si7 0.767231 0.043949 0.787576
O O1 0.826011 0.750000 0.528814
O O2 0.698907 0.468572 0.336619
O O3 0.009485 0.506882 0.651677
O O4 0.884394 0.475230 0.667280
O O5 0.386566 0.250000 0.809393
O O6 0.197732 0.453464 0.706280
O O7 0.500000 0.500000 0.000000
O O8 0.440972 0.250000 0.561742
O O9 0.482999 0.507722 0.692547
O O10 0.273426 0.502556 0.344058
O O11 0.598396 0.520660 0.666694
O O12 0.684608 0.750000 0.935294
O O13 0.674827 0.492690 0.021263
O O14 0.806044 0.454330 0.012489
O O15 0.180642 0.750000 0.755276
O O16 0.973119 0.750000 0.831520
O O17 0.078238 0.027992 0.006751
O O18 0.772214 0.250000 0.799024
#
# Coordination Sequence:
#
# PCOD9155860 Si02
#       7
#     4   4   4   4   4   4   4
#     4   8  16  31  52  73  95 124 160 199 239 284
#     4  11  22  36  52  73  99 127 158 194 238 287
#     4   9  15  22  32  49  79 118 154 186 224 271
#     4  10  17  25  39  61  87 116 152 192 232 277
#     4  10  19  34  53  72  94 123 159 200 243 285
#     4   8  14  26  41  59  84 116 153 193 234 275
#     4   8  13  20  32  51  78 112 149 187 228 272
#
# _framework density 26.802658000000001
#
# number of rings (size 3 to 8) (size 9 to 14) (size 15 to 20)
#    0.000    2.857    0.000    4.714    0.000    3.429 
#    0.000    6.429    0.000    0.000    0.000    0.000 
#    0.000    1.143    0.000    3.143    0.000   10.000 
#
# Total GULP energy -156535.501330 kJ/mol
# GULP energy per Si atom -5590.553619 kJ/mol
# Density = 2.674165 g / cm^3
# Si number density = 26.802658 Si / 1000 Ang^3
#
#
#
# Elastic Constant Matrix: (Units=GPa)
#
#
# Indices 1 2 3 4 5 6 
#
# 1 129.3846 -8.5039 65.9729 0.0000 -50.7231 0.0000
# 2 -8.5039 63.6231 17.3565 0.0000 3.1294 0.0000
# 3 65.9729 17.3565 275.9659 0.0000 -55.8297 0.0000
# 4 0.0000 0.0000 0.0000 21.8021 0.0000 -7.4201
# 5 -50.7231 3.1294 -55.8297 0.0000 62.3865 0.0000
# 6 0.0000 0.0000 0.0000 -7.4201 0.0000 18.4427
#
#
#
# Elastic Compliance Matrix: (Units=1/GPa)
#
#
# Indices 1 2 3 4 5 6 
#
# 1 0.011725 0.001482 -0.001200 0.000000 0.008385 0.000000
# 2 0.001482 0.016403 -0.001598 0.000000 -0.001048 0.000000
# 3 -0.001200 -0.001598 0.004676 0.000000 0.003290 0.000000
# 4 0.000000 0.000000 0.000000 0.053144 0.000000 0.021382
# 5 0.008385 -0.001048 0.003290 0.000000 0.025843 0.000000
# 6 0.000000 0.000000 0.000000 0.021382 0.000000 0.062825
#
#
# Mechanical properties :
#
#
# Convention : Reuss Voigt Hill
#
# Bulk Modulus (GPa) = 33.14165 68.73608 50.93886
# Shear Modulus (GPa) = 26.69426 46.80279 36.74853
#
# Velocity S-wave (km/s) = 3.15930 4.18329 3.70682
# Velocity P-wave (km/s) = 5.06953 7.00244 6.11287
#
# Compressibility (1/GPa) = 0.03017351
#
# Stress axis : x y z
#
# Youngs Moduli (GPa) = 85.28495 60.96401 213.83534
#
# Poissons Ratio (x) = -0.09036 0.25659
# Poissons Ratio (y) = -0.12640 0.34170
# Poissons Ratio (z) = 0.10234 0.09742
#
# Static dielectric constant tensor:
#      x y z
#    x 2.198150 0.000000 0.054110 
#    y 0.000000 1.918360 0.000000 
#    z 0.054110 0.000000 2.229190 
# 
# From -- ./inp_files/66889.got.cif
#   From: 2010.05.17/outbox.cif.g08.bks.cpg/sg11_34_cif.got.tgz:66889.got - 2010.06.03 12:22:45.
