data_PCOD9155496
_publ_section_title
;
Structure prediction by ZEFSAII (Michael W. Deem and Ramdas Pophale) SiO2 
 PCOD9155496
Probable space group: P 2/M
;
_chemical_formula_sum "Si O2"
_cell_formula_units_Z 32
_cell_length_a 27.000000
_cell_length_b 9.000000
_cell_length_c 21.000000
_cell_angle_alpha 90.000000
_cell_angle_beta 20.000000
_cell_angle_gamma 90.000000
_cell_volume 1745.328791
_symmetry_space_group_name_H-M "P 2/M"
_symmetry_group_IT_number 10
_symmetry_cell_setting 'monoclinic'
loop_
_space_group_symop_operation_xyz
x,y,z
-x,y,-z
-x,-y,-z
x,-y,z
loop_
_atom_site_type_symbol
_atom_site_label
_atom_site_fract_x
_atom_site_fract_y
_atom_site_fract_z
Si Si1 0.542423 0.682272 0.519062
Si Si2 0.623098 0.325236 0.163155
Si Si3 0.198819 0.325038 0.377541
Si Si4 0.692128 0.331466 0.521215
Si Si5 0.135875 0.320671 0.222111
Si Si6 0.654221 0.830091 0.687562
Si Si7 0.844651 0.324117 0.204861
Si Si8 0.685101 0.825971 0.884504
O O1 0.500000 0.719993 0.500000
O O2 0.545455 0.500000 0.521805
O O3 0.423513 0.738301 0.712770
O O4 0.702902 0.737516 0.341312
O O5 0.655990 0.500000 0.132353
O O6 0.472814 0.318661 0.305340
O O7 0.759247 0.262238 0.960767
O O8 0.205634 0.500000 0.355062
O O9 0.270472 0.285906 0.357404
O O10 0.287715 0.233365 0.218519
O O11 0.031016 0.277395 0.580846
O O12 0.705751 0.500000 0.530788
O O13 0.713686 0.204810 0.546256
O O14 0.802624 0.316953 0.329579
O O15 0.140767 0.500000 0.216060
O O16 0.208007 0.263325 0.199184
O O17 0.679320 0.000000 0.677351
O O18 0.481879 0.803570 0.895266
O O19 0.850307 0.500000 0.180961
O O20 0.000000 0.258859 0.000000
O O21 0.716781 0.000000 0.850774
#
# Coordination Sequence:
#
# PCOD9155496 Si02
#       8
#     4   4   4   4   4   4   4   4
#     4   8  13  22  38  64  98 134 164 194 245 302
#     4   8  14  27  48  71 100 135 169 207 250 302
#     4  11  24  38  54  80 109 138 172 214 270 320
#     4   9  16  30  54  76 101 139 176 212 261 310
#     4  10  20  36  56  79 107 137 174 217 261 312
#     4  11  23  38  55  77 106 138 178 222 263 310
#     4   8  14  25  42  70 103 132 165 208 254 303
#     4  11  23  38  58  80 102 136 179 217 263 316
#
# _framework density 18.334654
#
# number of rings (size 3 to 8) (size 9 to 14) (size 15 to 20)
#    0.000    2.500    1.250    3.375    0.000    5.500 
#    2.250    0.000    0.000    0.375    0.000    0.000 
#    0.000    3.000    0.000    0.000    0.000    0.000 
#
# Total GULP energy -178212.953991 kJ/mol
# GULP energy per Si atom -5569.154812 kJ/mol
# Density = 1.829292 g / cm^3
# Si number density = 18.334654 Si / 1000 Ang^3
#
#
#
# Elastic Constant Matrix: (Units=GPa)
#
#
# Indices 1 2 3 4 5 6 
#
# 1 34.4380 17.3759 -16.9430 0.0000 2.7264 0.0000
# 2 17.3759 -12.8109 34.2147 0.0000 6.9640 0.0000
# 3 -16.9430 34.2147 8.2664 0.0000 0.4261 0.0000
# 4 0.0000 0.0000 0.0000 17.4356 0.0000 13.4684
# 5 2.7264 6.9640 0.4261 0.0000 10.5848 0.0000
# 6 0.0000 0.0000 0.0000 13.4684 0.0000 2.3054
#
#
#
# Elastic Compliance Matrix: (Units=1/GPa)
#
#
# Indices 1 2 3 4 5 6 
#
# 1 0.022074 0.012055 -0.003957 0.000000 -0.013458 0.000000
# 2 0.012055 0.000213 0.024043 0.000000 -0.004213 0.000000
# 3 -0.003957 0.024043 0.014140 0.000000 -0.015368 0.000000
# 4 0.000000 0.000000 0.000000 -0.016327 0.000000 0.095384
# 5 -0.013458 -0.004213 -0.015368 0.000000 0.101332 0.000000
# 6 0.000000 0.000000 0.000000 0.095384 0.000000 -0.123479
#
#
# Mechanical properties :
#
#
# Convention : Reuss Voigt Hill
#
# Bulk Modulus (GPa) = 9.92985 11.02095 10.47540
# Shear Modulus (GPa) = -152.63455 5.74822 -73.44317
#
# Velocity S-wave (km/s) = -9.13400 1.77256 -6.33593
# Velocity P-wave (km/s) = 10.28651 3.19583 6.91372
#
# Compressibility (1/GPa) = 0.10070647
#
# Stress axis : x y z
#
# Youngs Moduli (GPa) = 45.30242 4692.39521 70.72141
#
# Poissons Ratio (x) = -56.56509 0.27988
# Poissons Ratio (y) = -0.54610 -1.70032
# Poissons Ratio (z) = 0.17928 -112.81719
#
# Static dielectric constant tensor:
#      x y z
#    x 1.639340 0.000000 0.031450 
#    y 0.000000 1.608510 0.000000 
#    z 0.031450 0.000000 1.641310 
# 
# From -- ./inp_files/86725.got.cif
#   From: 2010.05.17/outbox.ucp.g08.bks.cvg/sg10_44_cif.got.tgz:86725.got - 2010.06.11 11:31:16.
