data_PCOD9155248
_publ_section_title
;
Structure prediction by ZEFSAII (Michael W. Deem and Ramdas Pophale) SiO2 
 PCOD9155248
Probable space group: P 2/M
;
_chemical_formula_sum "Si O2"
_cell_formula_units_Z 28
_cell_length_a 15.000000
_cell_length_b 9.000000
_cell_length_c 21.000000
_cell_angle_alpha 90.000000
_cell_angle_beta 150.000000
_cell_angle_gamma 90.000000
_cell_volume 1417.500000
_symmetry_space_group_name_H-M "P 2/M"
_symmetry_group_IT_number 10
_symmetry_cell_setting 'monoclinic'
loop_
_space_group_symop_operation_xyz
x,y,z
-x,y,-z
-x,-y,-z
x,-y,z
loop_
_atom_site_type_symbol
_atom_site_label
_atom_site_fract_x
_atom_site_fract_y
_atom_site_fract_z
Si Si1 0.083068 0.668018 0.482166
Si Si2 0.293884 0.677328 0.442599
Si Si3 0.745040 0.179663 0.029792
Si Si4 0.898004 0.675868 0.806205
Si Si5 0.627551 0.825426 0.721132
Si Si6 0.932500 0.178340 0.273707
Si Si7 0.454745 0.175018 0.748967
O O1 0.108447 0.500000 0.472636
O O2 0.940770 0.754597 0.349594
O O3 0.275109 0.744402 0.613411
O O4 0.000000 0.659366 0.500000
O O5 0.302452 0.500000 0.458151
O O6 0.253184 0.698869 0.342502
O O7 0.463435 0.752651 0.580381
O O8 0.118250 0.752930 0.363526
O O9 0.918227 0.247882 0.101855
O O10 0.780148 0.217133 0.126781
O O11 0.752550 0.000000 0.029974
O O12 0.563803 0.225390 0.880030
O O13 0.925902 0.500000 0.829477
O O14 0.809899 0.747273 0.813478
O O15 0.588353 0.810310 0.771764
O O16 0.634577 0.000000 0.709903
O O17 0.941188 0.000000 0.282014
O O18 0.411795 0.000000 0.730657
#
# Coordination Sequence:
#
# PCOD9155248 Si02
#       7
#     4   4   4   4   4   4   4
#     4  11  24  41  63  91 119 147 182 229 286 345
#     4  10  19  32  51  77 112 150 192 241 287 337
#     4   9  20  39  60  83 116 154 195 238 282 336
#     4  10  21  34  50  77 113 156 199 239 286 334
#     4  11  21  32  51  79 112 151 197 244 289 333
#     4  10  19  35  61  88 113 149 190 232 285 340
#     4  10  22  40  61  86 115 151 192 237 289 341
#
# _framework density 19.753086
#
# number of rings (size 3 to 8) (size 9 to 14) (size 15 to 20)
#    0.000    1.857    1.429    2.571    0.000    6.857 
#    0.000    3.571    0.000    4.286    0.000    0.000 
#    0.000    0.000    0.000    0.000    0.000    0.000 
#
# Total GULP energy -156161.786678 kJ/mol
# GULP energy per Si atom -5577.206667 kJ/mol
# Density = 1.970813 g / cm^3
# Si number density = 19.753086 Si / 1000 Ang^3
#
#
#
# Elastic Constant Matrix: (Units=GPa)
#
#
# Indices 1 2 3 4 5 6 
#
# 1 42.9716 12.6958 -5.7764 0.0000 -10.7666 0.0000
# 2 12.6958 61.8894 31.5619 0.0000 -18.8514 0.0000
# 3 -5.7764 31.5619 83.8594 0.0000 -18.7921 0.0000
# 4 0.0000 0.0000 0.0000 25.5844 0.0000 -4.3028
# 5 -10.7666 -18.8514 -18.7921 0.0000 14.5794 0.0000
# 6 0.0000 0.0000 0.0000 -4.3028 0.0000 22.4141
#
#
#
# Elastic Compliance Matrix: (Units=1/GPa)
#
#
# Indices 1 2 3 4 5 6 
#
# 1 0.035080 -0.001119 0.011697 0.000000 0.039537 0.000000
# 2 -0.001119 0.027336 -0.003698 0.000000 0.029753 0.000000
# 3 0.011697 -0.003698 0.021073 0.000000 0.031019 0.000000
# 4 0.000000 0.000000 0.000000 0.040390 0.000000 0.007754
# 5 0.039537 0.029753 0.031019 0.000000 0.176241 0.000000
# 6 0.000000 0.000000 0.000000 0.007754 0.000000 0.046103
#
#
# Mechanical properties :
#
#
# Convention : Reuss Voigt Hill
#
# Bulk Modulus (GPa) = 10.28269 29.52032 19.90151
# Shear Modulus (GPa) = 13.70314 22.53152 18.11733
#
# Velocity S-wave (km/s) = 2.63672 3.38103 3.03180
# Velocity P-wave (km/s) = 3.80613 5.49717 4.72787
#
# Compressibility (1/GPa) = 0.09725079
#
# Stress axis : x y z
#
# Youngs Moduli (GPa) = 28.50616 36.58184 47.45319
#
# Poissons Ratio (x) = 0.04092 -0.55507
# Poissons Ratio (y) = 0.03189 0.17548
# Poissons Ratio (z) = -0.33344 0.13528
#
# Static dielectric constant tensor:
#      x y z
#    x 1.775320 0.000000 -0.047040 
#    y 0.000000 1.672860 0.000000 
#    z -0.047040 0.000000 1.686160 
# 
# From -- ./inp_files/54689.got.cif
#   From: 2010.05.17/outbox.ucp.g08.bks.cvg/sg10_28_cif.got.tgz:54689.got - 2010.06.11 11:31:16.
