data_PCOD9155405
_publ_section_title
;
Structure prediction by ZEFSAII (Michael W. Deem and Ramdas Pophale) SiO2 
 PCOD9155405
Probable space group: P 2/M
;
_chemical_formula_sum "Si O2"
_cell_formula_units_Z 32
_cell_length_a 21.000000
_cell_length_b 9.000000
_cell_length_c 12.000000
_cell_angle_alpha 90.000000
_cell_angle_beta 50.000000
_cell_angle_gamma 90.000000
_cell_volume 1737.388797
_symmetry_space_group_name_H-M "P 2/M"
_symmetry_group_IT_number 10
_symmetry_cell_setting 'monoclinic'
loop_
_space_group_symop_operation_xyz
x,y,z
-x,y,-z
-x,-y,-z
x,-y,z
loop_
_atom_site_type_symbol
_atom_site_label
_atom_site_fract_x
_atom_site_fract_y
_atom_site_fract_z
Si Si1 0.376038 0.821774 0.306276
Si Si2 0.962711 0.679717 0.864779
Si Si3 0.563308 0.176989 0.080866
Si Si4 0.304046 0.821518 0.615286
Si Si5 0.874672 0.679084 0.199775
Si Si6 0.823438 0.679628 0.857743
Si Si7 0.672065 0.176487 0.162200
Si Si8 0.715511 0.322698 0.778717
O O1 0.468830 0.777158 0.164638
O O2 0.365536 0.781574 0.446807
O O3 0.300806 0.750636 0.321894
O O4 0.371839 0.000000 0.299139
O O5 0.966490 0.500000 0.853940
O O6 0.910027 0.731045 0.816557
O O7 0.056701 0.729197 0.786170
O O8 0.911146 0.714315 0.035527
O O9 0.589907 0.196030 0.180040
O O10 0.571202 0.000000 0.045608
O O11 0.633517 0.267399 0.937014
O O12 0.214475 0.752423 0.690890
O O13 0.334872 0.775874 0.702530
O O14 0.296069 0.000000 0.624648
O O15 0.867664 0.500000 0.214090
O O16 0.823391 0.500000 0.860177
O O17 0.794950 0.723708 0.764667
O O18 0.748832 0.738138 0.019444
O O19 0.691290 0.000000 0.136759
O O20 0.716456 0.500000 0.768060
#
# Coordination Sequence:
#
# PCOD9155405 Si02
#       8
#     4   4   4   4   4   4   4   4
#     4  10  21  35  49  65  91 130 165 191 228 278
#     4   8  14  26  47  73  96 120 153 186 224 277
#     4   9  18  33  52  70  90 121 158 195 236 280
#     4  10  20  32  46  68  99 128 155 191 231 274
#     4   9  16  28  48  71  95 125 155 184 224 279
#     4   9  16  29  49  71  96 122 149 188 236 279
#     4   9  17  29  46  70  96 120 152 192 232 275
#     4  10  20  32  50  74  95 117 153 202 242 270
#
# _framework density 18.418444999999998
#
# number of rings (size 3 to 8) (size 9 to 14) (size 15 to 20)
#    0.000    2.750    1.250    1.500    0.000    3.500 
#    0.000    4.375    0.000    0.750    0.000   10.500 
#    0.000    0.000    0.000    0.000    0.000    0.000 
#
# Total GULP energy -178210.747965 kJ/mol
# GULP energy per Si atom -5569.085874 kJ/mol
# Density = 1.837652 g / cm^3
# Si number density = 18.418445 Si / 1000 Ang^3
#
#
#
# Elastic Constant Matrix: (Units=GPa)
#
#
# Indices 1 2 3 4 5 6 
#
# 1 108.4867 2.0818 -0.1890 0.0000 16.6125 0.0000
# 2 2.0818 -2.5633 -0.5219 0.0000 3.7459 0.0000
# 3 -0.1890 -0.5219 20.7658 0.0000 10.2218 0.0000
# 4 0.0000 0.0000 0.0000 19.8233 0.0000 1.4978
# 5 16.6125 3.7459 10.2218 0.0000 22.5171 0.0000
# 6 0.0000 0.0000 0.0000 1.4978 0.0000 26.6858
#
#
#
# Elastic Compliance Matrix: (Units=1/GPa)
#
#
# Indices 1 2 3 4 5 6 
#
# 1 0.010707 -0.005356 0.004395 0.000000 -0.009003 0.000000
# 2 -0.005356 -0.283631 -0.041656 0.000000 0.070046 0.000000
# 3 0.004395 -0.041656 0.058379 0.000000 -0.022814 0.000000
# 4 0.000000 0.000000 0.000000 0.050661 0.000000 -0.002844
# 5 -0.009003 0.070046 -0.022814 0.000000 0.049757 0.000000
# 6 0.000000 0.000000 0.000000 -0.002844 0.000000 0.037633
#
#
# Mechanical properties :
#
#
# Convention : Reuss Voigt Hill
#
# Bulk Modulus (GPa) = -3.33577 14.38124 5.52273
# Shear Modulus (GPa) = -54.83277 22.15978 -16.33649
#
# Velocity S-wave (km/s) = -5.46216 3.47238 -2.98142
# Velocity P-wave (km/s) = 6.44944 4.88892 2.97437
#
# Compressibility (1/GPa) = -0.29978049
#
# Stress axis : x y z
#
# Youngs Moduli (GPa) = 93.39870 -3.52571 17.12941
#
# Poissons Ratio (x) = -0.01888 -0.07528
# Poissons Ratio (y) = 0.50023 0.71355
# Poissons Ratio (z) = -0.41044 -0.14687
#
# Static dielectric constant tensor:
#      x y z
#    x 1.678700 0.000000 0.046750 
#    y 0.000000 1.615180 0.000000 
#    z 0.046750 0.000000 1.640840 
# 
# From -- ./inp_files/52795.got.cif
#   From: 2010.05.17/outbox.ucp.g08.bks.cvg/sg10_27_cif.got.tgz:52795.got - 2010.06.11 11:31:16.
