data_PCOD9155139
_publ_section_title
;
Structure prediction by ZEFSAII (Michael W. Deem and Ramdas Pophale) SiO2 
 PCOD9155139
Probable space group: P 2/M
;
_chemical_formula_sum "Si O2"
_cell_formula_units_Z 30
_cell_length_a 15.000000
_cell_length_b 21.000000
_cell_length_c 15.000000
_cell_angle_alpha 90.000000
_cell_angle_beta 160.000000
_cell_angle_gamma 90.000000
_cell_volume 1616.045177
_symmetry_space_group_name_H-M "P 2/M"
_symmetry_group_IT_number 10
_symmetry_cell_setting 'monoclinic'
loop_
_space_group_symop_operation_xyz
x,y,z
-x,y,-z
-x,-y,-z
x,-y,z
loop_
_atom_site_type_symbol
_atom_site_label
_atom_site_fract_x
_atom_site_fract_y
_atom_site_fract_z
Si Si1 0.433690 0.338289 0.147523
Si Si2 0.613110 0.793351 0.783576
Si Si3 0.715699 0.742921 0.273507
Si Si4 0.124481 0.925893 0.712232
Si Si5 0.883197 0.620424 0.688320
Si Si6 0.787128 0.500000 0.723559
Si Si7 0.139639 0.246527 0.226817
Si Si8 0.617891 0.130403 0.283152
O O1 0.405062 0.271642 0.174897
O O2 0.573997 0.316161 0.188909
O O3 0.639955 0.380435 0.393829
O O4 0.153126 0.371977 0.887148
O O5 0.425368 0.780300 0.522056
O O6 0.507564 0.851609 0.741055
O O7 0.921252 0.800822 0.060580
O O8 0.740086 0.802538 0.363218
O O9 0.000000 0.728891 0.500000
O O10 0.500000 0.764381 0.000000
O O11 0.863277 0.916146 0.524744
O O12 0.000000 0.903049 0.500000
O O13 0.190795 0.000000 0.763805
O O14 0.382786 0.892830 0.996253
O O15 0.846938 0.561453 0.719520
O O16 0.866127 0.684977 0.730524
O O17 0.500000 0.500000 0.500000
O O18 0.000000 0.500000 0.000000
O O19 0.000000 0.258074 0.000000
#
# Coordination Sequence:
#
# PCOD9155139 Si02
#       8
#     4   4   4   4   4   2   4   4
#     4   9  19  34  50  71 102 135 168 204 256 311
#     4   9  19  31  48  72  98 132 166 201 249 308
#     4  11  20  31  52  80 102 129 171 216 260 301
#     4  11  22  34  49  71 101 140 178 206 239 290
#     4  10  20  35  51  72 104 141 168 201 249 300
#     4  12  24  36  54  82 106 132 178 214 236 288
#     4  10  18  31  50  73 103 132 160 198 252 307
#     4  11  20  34  50  70 106 137 166 210 254 297
#
# _framework density 18.563836999999999
#
# number of rings (size 3 to 8) (size 9 to 14) (size 15 to 20)
#    0.000    1.733    0.000    6.000    0.000    7.467 
#    0.000    0.000    0.000    0.000    0.000    9.333 
#    0.000   37.333    0.000    0.000    0.000    0.000 
#
# Total GULP energy -167043.573940 kJ/mol
# GULP energy per Si atom -5568.119131 kJ/mol
# Density = 1.852159 g / cm^3
# Si number density = 18.563837 Si / 1000 Ang^3
#
#
#
# Elastic Constant Matrix: (Units=GPa)
#
#
# Indices 1 2 3 4 5 6 
#
# 1 32.5767 15.7348 -14.4604 0.0000 8.1555 0.0000
# 2 15.7348 45.4934 3.2689 0.0000 6.3075 0.0000
# 3 -14.4604 3.2689 69.2605 0.0000 12.7884 0.0000
# 4 0.0000 0.0000 0.0000 22.8133 0.0000 0.3714
# 5 8.1555 6.3075 12.7884 0.0000 29.3700 0.0000
# 6 0.0000 0.0000 0.0000 0.3714 0.0000 11.1137
#
#
#
# Elastic Compliance Matrix: (Units=1/GPa)
#
#
# Indices 1 2 3 4 5 6 
#
# 1 0.048323 -0.015472 0.013792 0.000000 -0.016101 0.000000
# 2 -0.015472 0.027612 -0.004602 0.000000 0.000370 0.000000
# 3 0.013792 -0.004602 0.019639 0.000000 -0.011393 0.000000
# 4 0.000000 0.000000 0.000000 0.043858 0.000000 -0.001466
# 5 -0.016101 0.000370 -0.011393 0.000000 0.043400 0.000000
# 6 0.000000 0.000000 0.000000 -0.001466 0.000000 0.090028
#
#
# Mechanical properties :
#
#
# Convention : Reuss Voigt Hill
#
# Bulk Modulus (GPa) = 12.04679 17.37968 14.71324
# Shear Modulus (GPa) = 15.96968 22.17855 19.07411
#
# Velocity S-wave (km/s) = 2.93620 3.46022 3.20892
# Velocity P-wave (km/s) = 4.24246 5.03454 4.65538
#
# Compressibility (1/GPa) = 0.08300964
#
# Stress axis : x y z
#
# Youngs Moduli (GPa) = 20.69416 36.21627 50.92030
#
# Poissons Ratio (x) = 0.56034 -0.70230
# Poissons Ratio (y) = 0.32018 0.23433
# Poissons Ratio (z) = -0.28542 0.16666
#
# Static dielectric constant tensor:
#      x y z
#    x 1.803230 0.000000 0.016040 
#    y 0.000000 1.608360 0.000000 
#    z 0.016040 0.000000 1.629520 
# 
# From -- ./inp_files/67863.got.cif
#   From: 2010.05.17/outbox.ucp.g08.bks.cvg/sg10_34_cif.got.tgz:67863.got - 2010.06.11 11:31:16.
