data_PCOD9155754
_publ_section_title
;
Structure prediction by ZEFSAII (Michael W. Deem and Ramdas Pophale) SiO2 
 PCOD9155754
Probable space group: P 21/M
;
_chemical_formula_sum "Si O2"
_cell_formula_units_Z 32
_cell_length_a 24.988177
_cell_length_b 8.572144
_cell_length_c 12.476879
_cell_angle_alpha 90.000000
_cell_angle_beta 50.116106
_cell_angle_gamma 90.000000
_cell_volume 2050.788666
_symmetry_space_group_name_H-M "P 21/M"
_symmetry_group_IT_number 11
_symmetry_cell_setting 'monoclinic'
loop_
_space_group_symop_operation_xyz
x,y,z
-x,1/2+y,-z
-x,-y,-z
x,1/2-y,z
loop_
_atom_site_type_symbol
_atom_site_label
_atom_site_fract_x
_atom_site_fract_y
_atom_site_fract_z
Si Si1 0.119393 0.435466 0.674149
Si Si2 0.538328 0.062635 0.555328
Si Si3 0.018787 0.064570 0.094827
Si Si4 0.257390 0.936909 0.426497
Si Si5 0.304818 0.939477 0.605022
Si Si6 0.508864 0.436948 0.158054
Si Si7 0.387982 0.063219 0.144459
Si Si8 0.841538 0.436130 0.140951
O O1 0.120163 0.250000 0.688387
O O2 0.040573 0.491499 0.753110
O O3 0.180807 0.487843 0.515907
O O4 0.139897 0.519564 0.759851
O O5 0.538302 0.250000 0.554218
O O6 0.619089 0.007621 0.456944
O O7 0.500000 0.000000 0.500000
O O8 0.501538 0.004290 0.710797
O O9 0.012864 0.250000 0.101875
O O10 0.000000 0.000000 0.000000
O O11 0.098977 0.014397 0.007737
O O12 0.251062 0.750000 0.435177
O O13 0.288512 0.987279 0.503198
O O14 0.313241 0.991411 0.267711
O O15 0.304932 0.750000 0.604414
O O16 0.239225 0.986839 0.763329
O O17 0.511811 0.250000 0.157772
O O18 0.441948 0.482600 0.170651
O O19 0.576143 0.501737 0.009602
O O20 0.383690 0.250000 0.147886
O O21 0.846403 0.250000 0.122754
#
# Coordination Sequence:
#
# PCOD9155754 Si02
#       8
#     4   4   4   4   4   4   4   4
#     4  10  17  24  34  52  77 107 140 176 210 253
#     4  11  21  35  50  67  89 118 151 190 233 275
#     4  10  16  23  33  49  72 103 137 173 210 252
#     4  10  17  28  43  61  84 114 145 181 221 262
#     4   8  16  28  43  59  80 108 143 181 222 265
#     4  10  20  33  48  68  89 115 148 184 226 272
#     4  10  19  30  47  69  91 115 145 185 226 268
#     4   9  15  25  38  53  71 101 138 177 216 255
#
# _framework density 15.603752999999999
#
# number of rings (size 3 to 8) (size 9 to 14) (size 15 to 20)
#    0.000    2.250    1.250    6.375    0.000    1.000 
#    0.000    1.875    0.000    0.000    0.000    0.000 
#    0.000    0.000    0.000    1.125    0.000   14.375 
#
# Total GULP energy -178287.616353 kJ/mol
# GULP energy per Si atom -5571.488011 kJ/mol
# Density = 1.556824 g / cm^3
# Si number density = 15.603753 Si / 1000 Ang^3
#
#
#
# Elastic Constant Matrix: (Units=GPa)
#
#
# Indices 1 2 3 4 5 6 
#
# 1 49.8498 15.7941 58.5395 0.0000 -15.7748 0.0000
# 2 15.7941 59.4550 33.2079 0.0000 -8.4867 0.0000
# 3 58.5395 33.2079 125.3297 0.0000 -36.8095 0.0000
# 4 0.0000 0.0000 0.0000 26.4384 0.0000 -5.8524
# 5 -15.7748 -8.4867 -36.8095 0.0000 30.9655 0.0000
# 6 0.0000 0.0000 0.0000 -5.8524 0.0000 16.0641
#
#
#
# Elastic Compliance Matrix: (Units=1/GPa)
#
#
# Indices 1 2 3 4 5 6 
#
# 1 0.044630 -0.000171 -0.021720 0.000000 -0.003130 0.000000
# 2 -0.000171 0.019773 -0.005520 0.000000 -0.001230 0.000000
# 3 -0.021720 -0.005520 0.024417 0.000000 0.016448 0.000000
# 4 0.000000 0.000000 0.000000 0.041142 0.000000 0.014988
# 5 -0.003130 -0.001230 0.016448 0.000000 0.049914 0.000000
# 6 0.000000 0.000000 0.000000 0.014988 0.000000 0.067711
#
#
# Mechanical properties :
#
#
# Convention : Reuss Voigt Hill
#
# Bulk Modulus (GPa) = 29.41439 49.96860 39.69150
# Shear Modulus (GPa) = 15.93662 23.16646 19.55154
#
# Velocity S-wave (km/s) = 3.19930 3.85732 3.54362
# Velocity P-wave (km/s) = 5.70431 7.20636 6.49887
#
# Compressibility (1/GPa) = 0.03399697
#
# Stress axis : x y z
#
# Youngs Moduli (GPa) = 22.40640 50.57485 40.95434
#
# Poissons Ratio (x) = 0.00867 0.88952
# Poissons Ratio (y) = 0.00384 0.22608
# Poissons Ratio (z) = 0.48666 0.27919
#
# Static dielectric constant tensor:
#      x y z
#    x 1.520200 0.000000 -0.058930 
#    y 0.000000 1.522100 0.000000 
#    z -0.058930 0.000000 1.548890 
# 
# From -- ./inp_files/44392.got.cif
#   From: 2010.05.17/outbox.cif.g08.bks.cpg/sg11_23_cif.got.tgz:44392.got - 2010.06.03 12:22:45.
