data_PCOD9155865
_publ_section_title
;
Structure prediction by ZEFSAII (Michael W. Deem and Ramdas Pophale) SiO2 
 PCOD9155865
Probable space group: P 21/M
;
_chemical_formula_sum "Si O2"
_cell_formula_units_Z 32
_cell_length_a 14.025611
_cell_length_b 8.505916
_cell_length_c 17.826466
_cell_angle_alpha 90.000000
_cell_angle_beta 101.780039
_cell_angle_gamma 90.000000
_cell_volume 2081.917786
_symmetry_space_group_name_H-M "P 21/M"
_symmetry_group_IT_number 11
_symmetry_cell_setting 'monoclinic'
loop_
_space_group_symop_operation_xyz
x,y,z
-x,1/2+y,-z
-x,-y,-z
x,1/2-y,z
loop_
_atom_site_type_symbol
_atom_site_label
_atom_site_fract_x
_atom_site_fract_y
_atom_site_fract_z
Si Si1 0.740104 0.062137 0.326699
Si Si2 0.281112 0.937399 0.444959
Si Si3 0.374254 0.064290 0.320831
Si Si4 0.345598 0.061168 0.831064
Si Si5 0.435332 0.440880 0.166974
Si Si6 0.108446 0.938388 0.525352
Si Si7 0.575996 0.565374 0.409197
Si Si8 0.608486 0.560817 0.000926
O O1 0.725980 0.250000 0.332268
O O2 0.837711 0.018583 0.387872
O O3 0.730131 0.013708 0.238995
O O4 0.652686 0.975156 0.355969
O O5 0.288410 0.750000 0.454281
O O6 0.181743 0.989875 0.470312
O O7 0.294372 0.984047 0.360919
O O8 0.369247 0.012834 0.506669
O O9 0.356645 0.250000 0.317377
O O10 0.386423 0.008215 0.236958
O O11 0.478404 0.028386 0.375631
O O12 0.341061 0.250000 0.825415
O O13 0.455049 0.007603 0.824572
O O14 0.331348 0.011115 0.915861
O O15 0.444141 0.250000 0.170484
O O16 0.374332 0.486536 0.082594
O O17 0.104740 0.750000 0.522162
O O18 0.000000 0.000000 0.500000
O O19 0.554106 0.750000 0.407733
O O20 0.608037 0.750000 0.001913
O O21 0.500000 0.500000 0.000000
#
# Coordination Sequence:
#
# PCOD9155865 Si02
#       8
#     4   4   4   4   4   4   4   4
#     4  10  19  31  45  65  91 118 147 178 221 268
#     4  10  21  35  47  63  87 114 144 178 219 263
#     4  11  20  29  43  63  88 120 154 184 215 255
#     4  10  17  25  41  63  86 114 154 190 217 253
#     4   9  17  28  41  56  85 123 153 185 223 254
#     4   9  20  36  53  68  85 110 139 178 224 270
#     4  11  20  30  44  62  86 116 150 187 220 251
#     4   8  15  26  38  56  81 114 152 187 219 253
#
# _framework density 15.370444000000001
#
# number of rings (size 3 to 8) (size 9 to 14) (size 15 to 20)
#    0.000    2.250    1.250    3.750    0.000    4.000 
#    0.000    0.000    0.000    0.000    0.000    0.000 
#    0.000    1.000    0.000    2.250    0.000    3.500 
#
# Total GULP energy -178302.484321 kJ/mol
# GULP energy per Si atom -5571.952635 kJ/mol
# Density = 1.533546 g / cm^3
# Si number density = 15.370444 Si / 1000 Ang^3
#
#
#
# Elastic Constant Matrix: (Units=GPa)
#
#
# Indices 1 2 3 4 5 6 
#
# 1 55.0040 1.1760 51.3290 0.0000 5.5718 0.0000
# 2 1.1760 16.7875 14.5986 0.0000 0.9501 0.0000
# 3 51.3290 14.5986 142.0208 0.0000 -4.2976 0.0000
# 4 0.0000 0.0000 0.0000 20.9970 0.0000 -0.0873
# 5 5.5718 0.9501 -4.2976 0.0000 12.7972 0.0000
# 6 0.0000 0.0000 0.0000 -0.0873 0.0000 18.8224
#
#
#
# Elastic Compliance Matrix: (Units=1/GPa)
#
#
# Indices 1 2 3 4 5 6 
#
# 1 0.032394 0.010452 -0.013368 0.000000 -0.019370 0.000000
# 2 0.010452 0.069449 -0.011325 0.000000 -0.013510 0.000000
# 3 -0.013368 -0.011325 0.013374 0.000000 0.011153 0.000000
# 4 0.000000 0.000000 0.000000 0.047627 0.000000 0.000221
# 5 -0.019370 -0.013510 0.011153 0.000000 0.091323 0.000000
# 6 0.000000 0.000000 0.000000 0.000221 0.000000 0.053129
#
#
# Mechanical properties :
#
#
# Convention : Reuss Voigt Hill
#
# Bulk Modulus (GPa) = 11.52931 38.66883 25.09907
# Shear Modulus (GPa) = 13.71019 20.30393 17.00706
#
# Velocity S-wave (km/s) = 2.98985 3.63846 3.32999
# Velocity P-wave (km/s) = 4.40865 6.54704 5.58121
#
# Compressibility (1/GPa) = 0.08673545
#
# Stress axis : x y z
#
# Youngs Moduli (GPa) = 30.86953 14.39896 74.76920
#
# Poissons Ratio (x) = -0.15050 0.99955
# Poissons Ratio (y) = -0.32266 0.84679
# Poissons Ratio (z) = 0.41268 0.16307
#
# Static dielectric constant tensor:
#      x y z
#    x 1.473000 0.000000 -0.008550 
#    y 0.000000 1.517590 0.000000 
#    z -0.008550 0.000000 1.584800 
# 
# From -- ./inp_files/42432.got.cif
#   From: 2010.05.17/outbox.cif.g08.bks.cpg/sg11_22_cif.got.tgz:42432.got - 2010.06.03 12:22:45.
