data_PCOD9155691
_publ_section_title
;
Structure prediction by ZEFSAII (Michael W. Deem and Ramdas Pophale) SiO2 
 PCOD9155691
Probable space group: P 2/M
;
_chemical_formula_sum "Si O2"
_cell_formula_units_Z 32
_cell_length_a 15.000000
_cell_length_b 9.000000
_cell_length_c 24.000000
_cell_angle_alpha 90.000000
_cell_angle_beta 150.000000
_cell_angle_gamma 90.000000
_cell_volume 1620.000000
_symmetry_space_group_name_H-M "P 2/M"
_symmetry_group_IT_number 10
_symmetry_cell_setting 'monoclinic'
loop_
_space_group_symop_operation_xyz
x,y,z
-x,y,-z
-x,-y,-z
x,-y,z
loop_
_atom_site_type_symbol
_atom_site_label
_atom_site_fract_x
_atom_site_fract_y
_atom_site_fract_z
Si Si1 0.486362 0.822585 0.288355
Si Si2 0.119159 0.176492 0.786237
Si Si3 0.213009 0.676266 0.618620
Si Si4 0.636816 0.820957 0.188119
Si Si5 0.833937 0.677971 0.950481
Si Si6 0.224452 0.327606 0.376294
Si Si7 0.246794 0.677735 0.969567
Si Si8 0.603584 0.327548 0.644253
O O1 0.672928 0.747788 0.370165
O O2 0.338808 0.765266 0.164560
O O3 0.416651 0.766676 0.310820
O O4 0.502060 0.000000 0.295769
O O5 0.247652 0.218061 0.804432
O O6 0.916379 0.227602 0.667587
O O7 0.132215 0.000000 0.800177
O O8 0.167251 0.255994 0.870119
O O9 0.253804 0.500000 0.642928
O O10 0.273743 0.756707 0.708015
O O11 0.000000 0.693692 0.500000
O O12 0.442413 0.748853 0.079895
O O13 0.624275 0.000000 0.184175
O O14 0.802157 0.500000 0.928346
O O15 0.858045 0.710486 0.029324
O O16 0.000000 0.714267 0.000000
O O17 0.164399 0.500000 0.342271
O O18 0.411996 0.325350 0.509889
O O19 0.260566 0.280386 0.331501
O O20 0.258690 0.500000 0.971506
O O21 0.645413 0.500000 0.681460
#
# Coordination Sequence:
#
# PCOD9155691 Si02
#       8
#     4   4   4   4   4   4   4   4
#     4  12  25  40  64  97 131 167 204 253 318 383
#     4  11  25  40  60  91 128 162 198 252 316 372
#     4  11  25  44  67  94 124 165 215 263 308 366
#     4  11  24  43  64  90 126 164 199 251 319 374
#     4  10  23  43  66  92 125 165 212 261 309 367
#     4   9  20  40  64  90 119 161 211 257 303 356
#     4  11  23  41  66  92 119 161 211 255 305 366
#     4   9  20  40  64  88 122 163 207 256 303 358
#
# _framework density 19.753086
#
# number of rings (size 3 to 8) (size 9 to 14) (size 15 to 20)
#    0.000    1.500    1.250    3.750    3.500    6.250 
#    0.000    1.250    0.000    0.000    0.000    0.000 
#    0.000    0.000    0.000    0.000    0.000    0.000 
#
# Total GULP energy -178860.114208 kJ/mol
# GULP energy per Si atom -5589.378569 kJ/mol
# Density = 1.970813 g / cm^3
# Si number density = 19.753086 Si / 1000 Ang^3
#
#
#
# Elastic Constant Matrix: (Units=GPa)
#
#
# Indices 1 2 3 4 5 6 
#
# 1 119.1912 37.8120 -3.8610 0.0000 6.5085 0.0000
# 2 37.8120 68.7080 6.0089 0.0000 3.3391 0.0000
# 3 -3.8610 6.0089 24.6654 0.0000 3.3516 0.0000
# 4 0.0000 0.0000 0.0000 166.3119 0.0000 -131.4407
# 5 6.5085 3.3391 3.3516 0.0000 35.4545 0.0000
# 6 0.0000 0.0000 0.0000 -131.4407 0.0000 142.4675
#
#
#
# Elastic Compliance Matrix: (Units=1/GPa)
#
#
# Indices 1 2 3 4 5 6 
#
# 1 0.010486 -0.005980 0.003326 0.000000 -0.001676 0.000000
# 2 -0.005980 0.018322 -0.005384 0.000000 -0.000119 0.000000
# 3 0.003326 -0.005384 0.042940 0.000000 -0.004163 0.000000
# 4 0.000000 0.000000 0.000000 0.022200 0.000000 0.020482
# 5 -0.001676 -0.000119 -0.004163 0.000000 0.028918 0.000000
# 6 0.000000 0.000000 0.000000 0.020482 0.000000 0.025916
#
#
# Mechanical properties :
#
#
# Convention : Reuss Voigt Hill
#
# Bulk Modulus (GPa) = 17.96192 32.49829 25.23010
# Shear Modulus (GPa) = 27.26043 80.35375 53.80709
#
# Velocity S-wave (km/s) = 3.71895 6.38494 5.22484
# Velocity P-wave (km/s) = 5.24916 8.41692 7.01421
#
# Compressibility (1/GPa) = 0.05567333
#
# Stress axis : x y z
#
# Youngs Moduli (GPa) = 95.36191 54.57883 23.28807
#
# Poissons Ratio (x) = 0.32640 -0.07746
# Poissons Ratio (y) = 0.57030 0.12537
# Poissons Ratio (z) = -0.31719 0.29383
#
# Static dielectric constant tensor:
#      x y z
#    x 1.688220 0.000000 0.007800 
#    y 0.000000 1.658040 0.000000 
#    z 0.007800 0.000000 1.734330 
# 
# From -- ./inp_files/89614.got.cif
#   From: 2010.05.17/outbox.ucp.g08.bks.cvg/sg10_45_cif.got.tgz:89614.got - 2010.06.11 11:31:16.
