data_PCOD9155069
_publ_section_title
;
Structure prediction by ZEFSAII (Michael W. Deem and Ramdas Pophale) SiO2 
 PCOD9155069
Probable space group: P 2/M
;
_chemical_formula_sum "Si O2"
_cell_formula_units_Z 28
_cell_length_a 30.396679
_cell_length_b 7.427972
_cell_length_c 9.624986
_cell_angle_alpha 90.000000
_cell_angle_beta 37.663317
_cell_angle_gamma 90.000000
_cell_volume 1327.859641
_symmetry_space_group_name_H-M "P 2/M"
_symmetry_group_IT_number 10
_symmetry_cell_setting 'monoclinic'
loop_
_space_group_symop_operation_xyz
x,y,z
-x,y,-z
-x,-y,-z
x,-y,z
loop_
_atom_site_type_symbol
_atom_site_label
_atom_site_fract_x
_atom_site_fract_y
_atom_site_fract_z
Si Si1 0.297173 0.714954 0.415422
Si Si2 0.297173 0.285046 0.098713
Si Si3 0.000000 0.220616 0.340738
Si Si4 0.133901 0.215306 0.507257
Si Si5 0.430918 0.279911 0.262905
Si Si6 0.866099 0.215306 0.176763
Si Si7 0.430918 0.279911 0.582502
O O1 0.306216 0.500000 0.384864
O O2 0.304844 0.785139 0.237890
O O3 0.358445 0.781023 0.366212
O O4 0.215410 0.748628 0.666581
O O5 0.306216 0.500000 0.084056
O O6 0.215410 0.251372 0.256372
O O7 0.358445 0.218977 0.841565
O O8 0.928770 0.280709 0.436749
O O9 0.000000 0.278375 0.500000
O O10 0.000000 0.000000 0.340941
O O11 0.071230 0.280710 0.080600
O O12 0.126390 0.285183 0.684026
O O13 0.126013 0.000000 0.534199
O O14 0.430668 0.500000 0.265492
O O15 0.434959 0.221308 0.412603
O O16 0.500000 0.225317 0.000000
O O17 0.873987 0.000000 0.164264
O O18 0.500000 0.225317 0.500000
O O19 0.430668 0.500000 0.581167
#
# Coordination Sequence:
#
# PCOD9155069 Si02
#       7
#     4   4   4   4   4   4   4
#     4   9  17  29  45  66  91 116 143 178 219 260
#     4   9  17  29  45  66  91 116 143 178 219 260
#     4   9  17  29  46  67  88 112 146 185 218 252
#     4   9  17  30  48  67  87 114 147 180 215 258
#     4   9  16  26  42  64  89 117 148 181 216 255
#     4   9  17  30  48  67  87 114 147 180 215 258
#     4   9  16  26  42  64  89 117 148 181 216 255
#
# _framework density 21.086565
#
# number of rings (size 3 to 8) (size 9 to 14) (size 15 to 20)
#    0.000    3.000    0.000    1.286    0.000    6.286 
#    0.000    0.714    0.000    5.143    0.000    0.000 
#    0.000    0.000    0.000    0.000    0.000    0.000 
#
# Total GULP energy -156321.022870 kJ/mol
# GULP energy per Si atom -5582.893674 kJ/mol
# Density = 2.103857 g / cm^3
# Si number density = 21.086565 Si / 1000 Ang^3
#
#
#
# Elastic Constant Matrix: (Units=GPa)
#
#
# Indices 1 2 3 4 5 6 
#
# 1 218.8687 3.5683 151.7157 0.0000 -18.6674 0.0000
# 2 3.5683 66.6892 2.5583 0.0000 3.3811 0.0000
# 3 151.7157 2.5583 228.6663 0.0000 -14.1298 0.0000
# 4 0.0000 0.0000 0.0000 10.6410 0.0000 -10.9404
# 5 -18.6674 3.3811 -14.1298 0.0000 21.1750 0.0000
# 6 0.0000 0.0000 0.0000 -10.9404 0.0000 7.3726
#
#
#
# Elastic Compliance Matrix: (Units=1/GPa)
#
#
# Indices 1 2 3 4 5 6 
#
# 1 0.008790 -0.000465 -0.005573 0.000000 0.004104 0.000000
# 2 -0.000465 0.015166 -0.000038 0.000000 -0.002856 0.000000
# 3 -0.005573 -0.000038 0.008102 0.000000 0.000499 0.000000
# 4 0.000000 0.000000 0.000000 -0.178771 0.000000 -0.265283
# 5 0.004104 -0.002856 0.000499 0.000000 0.051633 0.000000
# 6 0.000000 0.000000 0.000000 -0.265283 0.000000 -0.258023
#
#
# Mechanical properties :
#
#
# Convention : Reuss Voigt Hill
#
# Bulk Modulus (GPa) = 50.23421 92.21209 71.22315
# Shear Modulus (GPa) = -14.95586 31.59651 8.32032
#
# Velocity S-wave (km/s) = -2.66608 3.87514 1.98856
# Velocity P-wave (km/s) = 3.79437 7.99046 6.25479
#
# Compressibility (1/GPa) = 0.01990675
#
# Stress axis : x y z
#
# Youngs Moduli (GPa) = 113.77030 65.93671 123.42596
#
# Poissons Ratio (x) = 0.03063 0.68785
# Poissons Ratio (y) = 0.05286 0.00468
# Poissons Ratio (z) = 0.63404 0.00250
#
# Static dielectric constant tensor:
#      x y z
#    x 1.722650 0.000000 0.001860 
#    y 0.000000 1.813180 0.000000 
#    z 0.001860 0.000000 1.722090 
# 
# From -- ./inp_files/28230.got.cif
#   From: 2010.05.17/outbox.cif.g08.bks.cpg/sg10_15_cif.got.tgz:28230.got - 2010.06.03 11:33:40.
