data_PCOD9155639
_publ_section_title
;
Structure prediction by ZEFSAII (Michael W. Deem and Ramdas Pophale) SiO2 
 PCOD9155639
Probable space group: P 2/M
;
_chemical_formula_sum "Si O2"
_cell_formula_units_Z 28
_cell_length_a 9.000000
_cell_length_b 9.000000
_cell_length_c 27.000000
_cell_angle_alpha 90.000000
_cell_angle_beta 140.000000
_cell_angle_gamma 90.000000
_cell_volume 1405.776502
_symmetry_space_group_name_H-M "P 2/M"
_symmetry_group_IT_number 10
_symmetry_cell_setting 'monoclinic'
loop_
_space_group_symop_operation_xyz
x,y,z
-x,y,-z
-x,-y,-z
x,-y,z
loop_
_atom_site_type_symbol
_atom_site_label
_atom_site_fract_x
_atom_site_fract_y
_atom_site_fract_z
Si Si1 0.835398 0.173382 0.006122
Si Si2 0.273022 0.670762 0.720794
Si Si3 0.807000 0.328096 0.829518
Si Si4 0.846056 0.179626 0.566962
Si Si5 0.122160 0.826529 0.246837
Si Si6 0.569007 0.319810 0.589317
Si Si7 0.342591 0.320194 0.851441
O O1 0.983478 0.272547 0.082358
O O2 0.804063 0.000000 0.014113
O O3 0.587459 0.246678 0.928833
O O4 0.000000 0.170775 0.000000
O O5 0.190856 0.500000 0.694156
O O6 0.550446 0.668077 0.786993
O O7 0.253460 0.717141 0.773023
O O8 0.112088 0.768149 0.643283
O O9 0.852085 0.500000 0.824318
O O10 0.770372 0.202841 0.778924
O O11 0.716385 0.250332 0.581594
O O12 0.690283 0.250818 0.482868
O O13 0.830010 0.000000 0.561999
O O14 0.286866 0.736949 0.326638
O O15 0.870625 0.751432 0.173927
O O16 0.104537 0.000000 0.255968
O O17 0.561731 0.500000 0.585165
O O18 0.357707 0.500000 0.859532
#
# Coordination Sequence:
#
# PCOD9155639 Si02
#       7
#     4   4   4   4   4   4   4
#     4  11  23  39  62  93 127 159 200 254 308 356
#     4  10  21  38  62  91 122 159 205 252 299 361
#     4  11  24  43  65  89 122 164 206 248 304 368
#     4  11  21  34  59  93 125 157 201 255 305 352
#     4  12  25  42  62  91 127 161 201 252 310 364
#     4  11  21  37  60  87 123 163 204 249 300 360
#     4  11  22  39  65  92 121 161 206 250 300 362
#
# _framework density 19.917818
#
# number of rings (size 3 to 8) (size 9 to 14) (size 15 to 20)
#    0.000    1.000    2.857    6.000    0.000    2.857 
#    0.000    3.571    0.000    4.286    0.000    0.000 
#    0.000    0.000    0.000    0.000    0.000    0.000 
#
# Total GULP energy -156141.596919 kJ/mol
# GULP energy per Si atom -5576.485604 kJ/mol
# Density = 1.987248 g / cm^3
# Si number density = 19.917818 Si / 1000 Ang^3
#
#
#
# Elastic Constant Matrix: (Units=GPa)
#
#
# Indices 1 2 3 4 5 6 
#
# 1 13.3692 0.2348 1.9030 0.0000 1.4946 0.0000
# 2 0.2348 155.0399 62.9559 0.0000 13.9673 0.0000
# 3 1.9030 62.9559 153.9537 0.0000 18.3976 0.0000
# 4 0.0000 0.0000 0.0000 40.8809 0.0000 5.9795
# 5 1.4946 13.9673 18.3976 0.0000 21.3368 0.0000
# 6 0.0000 0.0000 0.0000 5.9795 0.0000 23.7865
#
#
#
# Elastic Compliance Matrix: (Units=1/GPa)
#
#
# Indices 1 2 3 4 5 6 
#
# 1 0.075447 0.000576 -0.000548 0.000000 -0.005189 0.000000
# 2 0.000576 0.007871 -0.002904 0.000000 -0.002688 0.000000
# 3 -0.000548 -0.002904 0.008315 0.000000 -0.005230 0.000000
# 4 0.000000 0.000000 0.000000 0.025395 0.000000 -0.006384
# 5 -0.005189 -0.002688 -0.005230 0.000000 0.053500 0.000000
# 6 0.000000 0.000000 0.000000 -0.006384 0.000000 0.043645
#
#
# Mechanical properties :
#
#
# Convention : Reuss Voigt Hill
#
# Bulk Modulus (GPa) = 11.64429 50.28335 30.96382
# Shear Modulus (GPa) = 20.11652 34.35212 27.23432
#
# Velocity S-wave (km/s) = 3.18146 4.15745 3.70176
# Velocity P-wave (km/s) = 4.39937 6.95313 5.81810
#
# Compressibility (1/GPa) = 0.08587899
#
# Stress axis : x y z
#
# Youngs Moduli (GPa) = 13.25440 127.05478 120.26616
#
# Poissons Ratio (x) = -0.07315 0.06590
# Poissons Ratio (y) = -0.00763 0.34930
# Poissons Ratio (z) = 0.00726 0.36902
#
# Static dielectric constant tensor:
#      x y z
#    x 1.762660 0.000000 -0.007760 
#    y 0.000000 1.684070 0.000000 
#    z -0.007760 0.000000 1.698090 
# 
# From -- ./inp_files/92091.got.cif
#   From: 2010.05.17/outbox.ucp.g08.bks.cvg/sg10_47_cif.got.tgz:92091.got - 2010.06.11 11:31:16.
