data_PCOD9155563
_publ_section_title
;
Structure prediction by ZEFSAII (Michael W. Deem and Ramdas Pophale) SiO2 
 PCOD9155563
Probable space group: P 2/M
;
_chemical_formula_sum "Si O2"
_cell_formula_units_Z 28
_cell_length_a 9.000000
_cell_length_b 15.000000
_cell_length_c 21.000000
_cell_angle_alpha 90.000000
_cell_angle_beta 150.000000
_cell_angle_gamma 90.000000
_cell_volume 1417.500000
_symmetry_space_group_name_H-M "P 2/M"
_symmetry_group_IT_number 10
_symmetry_cell_setting 'monoclinic'
loop_
_space_group_symop_operation_xyz
x,y,z
-x,y,-z
-x,-y,-z
x,-y,z
loop_
_atom_site_type_symbol
_atom_site_label
_atom_site_fract_x
_atom_site_fract_y
_atom_site_fract_z
Si Si1 0.864694 0.272247 0.260394
Si Si2 0.714056 0.596181 0.517765
Si Si3 0.892411 0.903023 0.886558
Si Si4 0.193900 0.899662 0.420286
Si Si5 0.220202 0.679138 0.262939
Si Si6 0.840218 0.280622 0.009779
Si Si7 0.336407 0.838566 0.609787
O O1 0.038292 0.329117 0.378892
O O2 0.942996 0.170417 0.307167
O O3 0.017131 0.298393 0.249350
O O4 0.512942 0.290277 0.127890
O O5 0.500000 0.601057 0.500000
O O6 0.861406 0.500000 0.569762
O O7 0.471671 0.606839 0.372546
O O8 0.540567 0.883243 0.741466
O O9 0.083745 0.818716 0.934764
O O10 0.954865 0.000000 0.880509
O O11 0.000000 0.907916 0.000000
O O12 0.500000 0.870177 0.500000
O O13 0.270469 0.898811 0.523606
O O14 0.121932 0.000000 0.373303
O O15 0.439768 0.761920 0.329976
O O16 0.007264 0.659249 0.124179
O O17 0.000000 0.288672 0.000000
O O18 0.000000 0.807019 0.500000
#
# Coordination Sequence:
#
# PCOD9155563 Si02
#       7
#     4   4   4   4   4   4   4
#     4  11  20  39  60  85 118 154 191 238 294 343
#     4   9  18  35  65  95 115 142 191 242 286 343
#     4   9  20  36  50  73 109 146 194 245 281 322
#     4  11  22  36  56  87 120 153 196 246 296 344
#     4  10  20  38  60  85 118 151 189 237 296 346
#     4  10  23  37  57  82 113 157 197 235 287 343
#     4  11  22  36  58  84 113 153 199 243 290 343
#
# _framework density 19.753086
#
# number of rings (size 3 to 8) (size 9 to 14) (size 15 to 20)
#    0.000    1.857    2.857    1.286    6.000    1.714 
#    0.000    0.714    0.000   10.714    0.000    0.000 
#    0.000    0.000    0.000    0.000    0.000    0.000 
#
# Total GULP energy -155910.541683 kJ/mol
# GULP energy per Si atom -5568.233632 kJ/mol
# Density = 1.970813 g / cm^3
# Si number density = 19.753086 Si / 1000 Ang^3
#
#
#
# Elastic Constant Matrix: (Units=GPa)
#
#
# Indices 1 2 3 4 5 6 
#
# 1 73.3392 8.9800 50.1975 0.0000 11.2799 0.0000
# 2 8.9800 45.4158 31.2980 0.0000 5.0735 0.0000
# 3 50.1975 31.2980 186.3371 0.0000 9.2389 0.0000
# 4 0.0000 0.0000 0.0000 5.8623 0.0000 -4.7435
# 5 11.2799 5.0735 9.2389 0.0000 36.9027 0.0000
# 6 0.0000 0.0000 0.0000 -4.7435 0.0000 -0.1096
#
#
#
# Elastic Compliance Matrix: (Units=1/GPa)
#
#
# Indices 1 2 3 4 5 6 
#
# 1 0.017333 0.000131 -0.004483 0.000000 -0.004194 0.000000
# 2 0.000131 0.025115 -0.004132 0.000000 -0.002458 0.000000
# 3 -0.004483 -0.004132 0.007262 0.000000 0.000120 0.000000
# 4 0.000000 0.000000 0.000000 0.004735 0.000000 -0.204964
# 5 -0.004194 -0.002458 0.000120 0.000000 0.028688 0.000000
# 6 0.000000 0.000000 0.000000 -0.204964 0.000000 -0.253309
#
#
# Mechanical properties :
#
#
# Convention : Reuss Voigt Hill
#
# Bulk Modulus (GPa) = 30.54198 54.00480 42.27339
# Shear Modulus (GPa) = -35.13862 22.83886 -6.14988
#
# Velocity S-wave (km/s) = -4.22227 3.40401 -1.76639
# Velocity P-wave (km/s) = 2.87656 6.54591 4.15779
#
# Compressibility (1/GPa) = 0.03274182
#
# Stress axis : x y z
#
# Youngs Moduli (GPa) = 57.69364 39.81696 137.69478
#
# Poissons Ratio (x) = -0.00521 0.61734
# Poissons Ratio (y) = -0.00756 0.56893
# Poissons Ratio (z) = 0.25866 0.16452
#
# Static dielectric constant tensor:
#      x y z
#    x 1.731650 0.000000 -0.040250 
#    y 0.000000 1.767610 0.000000 
#    z -0.040250 0.000000 1.690870 
# 
# From -- ./inp_files/82946.got.cif
#   From: 2010.05.17/outbox.ucp.g08.bks.cvg/sg10_42_cif.got.tgz:82946.got - 2010.06.11 11:31:16.
