data_PCOD9155373
_publ_section_title
;
Structure prediction by ZEFSAII (Michael W. Deem and Ramdas Pophale) SiO2 
 PCOD9155373
Probable space group: P 2/M
;
_chemical_formula_sum "Si O2"
_cell_formula_units_Z 32
_cell_length_a 24.000000
_cell_length_b 9.000000
_cell_length_c 15.000000
_cell_angle_alpha 90.000000
_cell_angle_beta 30.000000
_cell_angle_gamma 90.000000
_cell_volume 1620.000000
_symmetry_space_group_name_H-M "P 2/M"
_symmetry_group_IT_number 10
_symmetry_cell_setting 'monoclinic'
loop_
_space_group_symop_operation_xyz
x,y,z
-x,y,-z
-x,-y,-z
x,-y,z
loop_
_atom_site_type_symbol
_atom_site_label
_atom_site_fract_x
_atom_site_fract_y
_atom_site_fract_z
Si Si1 0.964827 0.174417 0.189011
Si Si2 0.511616 0.323612 0.085090
Si Si3 0.410168 0.178824 0.394964
Si Si4 0.233520 0.676525 0.206935
Si Si5 0.821796 0.826108 0.206000
Si Si6 0.055599 0.322895 0.606922
Si Si7 0.814123 0.821961 0.914968
Si Si8 0.417344 0.820518 0.692120
O O1 0.890038 0.180057 0.204073
O O2 0.908313 0.264902 0.346219
O O3 0.974454 0.000000 0.200359
O O4 0.089207 0.232028 0.990041
O O5 0.487079 0.500000 0.119962
O O6 0.431965 0.246700 0.267890
O O7 0.500000 0.268560 0.000000
O O8 0.640733 0.303997 0.933084
O O9 0.300665 0.233988 0.600923
O O10 0.518443 0.211368 0.304925
O O11 0.398993 0.000000 0.402541
O O12 0.217663 0.500000 0.208555
O O13 0.142536 0.717525 0.408493
O O14 0.217550 0.773036 0.140999
O O15 0.805663 0.000000 0.203944
O O16 0.045736 0.500000 0.619817
O O17 0.934150 0.249954 0.764631
O O18 0.822239 0.000000 0.910783
O O19 0.711092 0.771139 0.121418
O O20 0.500000 0.764628 0.500000
O O21 0.412446 0.000000 0.688719
#
# Coordination Sequence:
#
# PCOD9155373 Si02
#       8
#     4   4   4   4   4   4   4   4
#     4   9  18  36  57  83 112 146 187 230 272 325
#     4  10  22  39  59  82 113 154 192 228 277 337
#     4  10  19  35  59  87 115 147 185 232 283 333
#     4  10  22  41  59  77 111 151 184 227 283 334
#     4   8  17  33  57  83 114 148 182 225 282 331
#     4  11  24  38  56  82 111 147 186 227 281 336
#     4  11  22  38  61  86 109 141 186 234 278 329
#     4   9  19  34  56  86 116 146 182 225 279 337
#
# _framework density 19.753086
#
# number of rings (size 3 to 8) (size 9 to 14) (size 15 to 20)
#    0.000    2.250    1.250    1.875    3.500    2.750 
#    0.000    1.875    0.000    1.875    0.000    0.000 
#    0.000    0.000    0.000    0.000    0.000    0.000 
#
# Total GULP energy -178541.782842 kJ/mol
# GULP energy per Si atom -5579.430714 kJ/mol
# Density = 1.970813 g / cm^3
# Si number density = 19.753086 Si / 1000 Ang^3
#
#
#
# Elastic Constant Matrix: (Units=GPa)
#
#
# Indices 1 2 3 4 5 6 
#
# 1 28.5200 9.0894 -6.0785 0.0000 12.7616 0.0000
# 2 9.0894 21.2411 16.1737 0.0000 2.8643 0.0000
# 3 -6.0785 16.1737 118.5753 0.0000 8.5791 0.0000
# 4 0.0000 0.0000 0.0000 140.1116 0.0000 109.6633
# 5 12.7616 2.8643 8.5791 0.0000 34.7387 0.0000
# 6 0.0000 0.0000 0.0000 109.6633 0.0000 120.0488
#
#
#
# Elastic Compliance Matrix: (Units=1/GPa)
#
#
# Indices 1 2 3 4 5 6 
#
# 1 0.053843 -0.026318 0.007763 0.000000 -0.019527 0.000000
# 2 -0.026318 0.065632 -0.010802 0.000000 0.006924 0.000000
# 3 0.007763 -0.010802 0.010637 0.000000 -0.004588 0.000000
# 4 0.000000 0.000000 0.000000 0.025040 0.000000 -0.022874
# 5 -0.019527 0.006924 -0.004588 0.000000 0.036522 0.000000
# 6 0.000000 0.000000 0.000000 -0.022874 0.000000 0.029225
#
#
# Mechanical properties :
#
#
# Convention : Reuss Voigt Hill
#
# Bulk Modulus (GPa) = 14.00630 22.96729 18.48679
# Shear Modulus (GPa) = 16.47919 68.92325 42.70122
#
# Velocity S-wave (km/s) = 2.89149 5.91339 4.65451
# Velocity P-wave (km/s) = 4.27243 7.63391 6.18588
#
# Compressibility (1/GPa) = 0.07139646
#
# Stress axis : x y z
#
# Youngs Moduli (GPa) = 18.57261 15.23647 94.01347
#
# Poissons Ratio (x) = 0.40099 -0.72980
# Poissons Ratio (y) = 0.48879 1.01556
# Poissons Ratio (z) = -0.14417 0.16459
#
# Static dielectric constant tensor:
#      x y z
#    x 1.739240 0.000000 -0.004960 
#    y 0.000000 1.662450 0.000000 
#    z -0.004960 0.000000 1.702520 
# 
# From -- ./inp_files/71467.got.cif
#   From: 2010.05.17/outbox.ucp.g08.bks.cvg/sg10_36_cif.got.tgz:71467.got - 2010.06.11 11:31:16.
