data_PCOD9155596
_publ_section_title
;
Structure prediction by ZEFSAII (Michael W. Deem and Ramdas Pophale) SiO2 
 PCOD9155596
Probable space group: P 2/M
;
_chemical_formula_sum "Si O2"
_cell_formula_units_Z 28
_cell_length_a 21.000000
_cell_length_b 9.000000
_cell_length_c 15.000000
_cell_angle_alpha 90.000000
_cell_angle_beta 150.000000
_cell_angle_gamma 90.000000
_cell_volume 1417.500000
_symmetry_space_group_name_H-M "P 2/M"
_symmetry_group_IT_number 10
_symmetry_cell_setting 'monoclinic'
loop_
_space_group_symop_operation_xyz
x,y,z
-x,y,-z
-x,-y,-z
x,-y,z
loop_
_atom_site_type_symbol
_atom_site_label
_atom_site_fract_x
_atom_site_fract_y
_atom_site_fract_z
Si Si1 0.827093 0.821136 0.553309
Si Si2 0.797518 0.670100 0.007411
Si Si3 0.564013 0.177641 0.306112
Si Si4 0.283724 0.177741 0.919534
Si Si5 0.499478 0.329349 0.597156
Si Si6 0.008654 0.320890 0.908798
Si Si7 0.101602 0.819928 0.551250
O O1 0.677440 0.789058 0.376363
O O2 0.893289 0.766075 0.543181
O O3 0.887983 0.740677 0.710580
O O4 0.843743 0.000000 0.579933
O O5 0.837637 0.500000 0.072621
O O6 0.647621 0.669599 0.803618
O O7 0.804322 0.761251 0.107295
O O8 0.874024 0.726355 0.013513
O O9 0.579531 0.247479 0.422683
O O10 0.558797 0.000000 0.309963
O O11 0.427367 0.230827 0.106071
O O12 0.233140 0.213624 0.760706
O O13 0.280901 0.000000 0.924886
O O14 0.500000 0.259659 0.500000
O O15 0.453456 0.500000 0.534503
O O16 0.011198 0.500000 0.914221
O O17 0.000000 0.267867 0.000000
O O18 0.000000 0.764687 0.500000
O O19 0.086694 0.000000 0.528124
#
# Coordination Sequence:
#
# PCOD9155596 Si02
#       7
#     4   4   4   4   4   4   4
#     4  10  21  36  53  77 108 137 173 218 260 307
#     4   9  18  33  50  74 102 128 167 216 259 303
#     4   9  19  33  49  75 108 137 169 213 259 303
#     4   9  17  32  54  77 103 138 173 207 256 309
#     4   9  18  31  52  75  96 131 174 212 253 306
#     4  10  22  37  54  74 101 137 174 214 260 312
#     4   9  17  30  52  79 104 135 176 216 253 303
#
# _framework density 19.753086
#
# number of rings (size 3 to 8) (size 9 to 14) (size 15 to 20)
#    0.000    2.714    0.000    0.857    2.000    3.429 
#    0.000    3.571    0.000    2.571    0.000    5.000 
#    0.000    0.000    0.000    0.000    0.000    0.000 
#
# Total GULP energy -155908.326984 kJ/mol
# GULP energy per Si atom -5568.154535 kJ/mol
# Density = 1.970813 g / cm^3
# Si number density = 19.753086 Si / 1000 Ang^3
#
#
#
# Elastic Constant Matrix: (Units=GPa)
#
#
# Indices 1 2 3 4 5 6 
#
# 1 106.2760 4.6204 52.4778 0.0000 -1.6082 0.0000
# 2 4.6204 -15.0290 6.6587 0.0000 2.4623 0.0000
# 3 52.4778 6.6587 50.1050 0.0000 -14.5570 0.0000
# 4 0.0000 0.0000 0.0000 17.4438 0.0000 -7.5433
# 5 -1.6082 2.4623 -14.5570 0.0000 27.6592 0.0000
# 6 0.0000 0.0000 0.0000 -7.5433 0.0000 30.5646
#
#
#
# Elastic Compliance Matrix: (Units=1/GPa)
#
#
# Indices 1 2 3 4 5 6 
#
# 1 0.022313 -0.006549 -0.025916 0.000000 -0.011759 0.000000
# 2 -0.006549 -0.057818 0.018803 0.000000 0.014662 0.000000
# 3 -0.025916 0.018803 0.051563 0.000000 0.023957 0.000000
# 4 0.000000 0.000000 0.000000 0.064176 0.000000 0.015839
# 5 -0.011759 0.014662 0.023957 0.000000 0.046774 0.000000
# 6 0.000000 0.000000 0.000000 0.015839 0.000000 0.036627
#
#
# Mechanical properties :
#
#
# Convention : Reuss Voigt Hill
#
# Bulk Modulus (GPa) = -88.75635 29.87398 -29.44118
# Shear Modulus (GPa) = 26.70906 20.30653 23.50779
#
# Velocity S-wave (km/s) = 3.68114 3.20975 3.45350
# Velocity P-wave (km/s) = 5.19256 5.37524 0.98247
#
# Compressibility (1/GPa) = -0.01126680
#
# Stress axis : x y z
#
# Youngs Moduli (GPa) = 44.81650 -17.29551 19.39390
#
# Poissons Ratio (x) = -0.11327 0.50261
# Poissons Ratio (y) = 0.29351 -0.36466
# Poissons Ratio (z) = 1.16146 0.32521
#
# Static dielectric constant tensor:
#      x y z
#    x 1.698830 0.000000 0.018140 
#    y 0.000000 1.674230 0.000000 
#    z 0.018140 0.000000 1.766630 
# 
# From -- ./inp_files/70296.got.cif
#   From: 2010.05.17/outbox.ucp.g08.bks.cvg/sg10_36_cif.got.tgz:70296.got - 2010.06.11 11:31:16.
