data_PCOD9155075
_publ_section_title
;
Structure prediction by ZEFSAII (Michael W. Deem and Ramdas Pophale) SiO2 
 PCOD9155075
Probable space group: P 2/M
;
_chemical_formula_sum "Si O2"
_cell_formula_units_Z 28
_cell_length_a 14.816267
_cell_length_b 10.060333
_cell_length_c 11.080123
_cell_angle_alpha 90.000000
_cell_angle_beta 51.303819
_cell_angle_gamma 90.000000
_cell_volume 1289.000558
_symmetry_space_group_name_H-M "P 2/M"
_symmetry_group_IT_number 10
_symmetry_cell_setting 'monoclinic'
loop_
_space_group_symop_operation_xyz
x,y,z
-x,y,-z
-x,-y,-z
x,-y,z
loop_
_atom_site_type_symbol
_atom_site_label
_atom_site_fract_x
_atom_site_fract_y
_atom_site_fract_z
Si Si1 0.296212 0.348615 0.472430
Si Si2 0.633155 0.859168 0.032753
Si Si3 0.105405 0.153350 0.080181
Si Si4 0.461480 0.745688 0.658190
Si Si5 0.207780 0.343177 0.799603
Si Si6 0.050521 0.349833 0.326252
Si Si7 0.687327 0.649483 0.806898
O O1 0.257314 0.500000 0.488569
O O2 0.430102 0.346513 0.400508
O O3 0.223247 0.297792 0.647461
O O4 0.292625 0.287699 0.342241
O O5 0.556443 0.842843 0.215507
O O6 0.614091 0.000000 0.987753
O O7 0.765679 0.857087 0.969408
O O8 0.615335 0.738751 0.957503
O O9 0.032842 0.239731 0.237990
O O10 0.066881 0.000000 0.091511
O O11 0.126955 0.245085 0.944142
O O12 0.500000 0.811292 0.500000
O O13 0.339033 0.671469 0.742770
O O14 0.175280 0.500000 0.833777
O O15 0.010590 0.500000 0.326334
O O16 0.187370 0.359751 0.235635
O O17 0.000000 0.315582 0.500000
O O18 0.640568 0.500000 0.832101
#
# Coordination Sequence:
#
# PCOD9155075 Si02
#       7
#     4   4   4   4   4   4   4
#     4   9  17  29  45  66  90 118 152 187 222 260
#     4   9  18  31  45  63  90 121 152 186 221 260
#     4   9  17  29  46  69  94 118 147 182 221 265
#     4   9  17  28  43  65  90 117 153 192 223 253
#     4   9  16  28  47  67  89 118 152 188 220 253
#     4   9  17  30  50  73  92 112 143 183 224 267
#     4   9  18  32  48  66  90 118 146 179 223 271
#
# _framework density 21.722256999999999
#
# number of rings (size 3 to 8) (size 9 to 14) (size 15 to 20)
#    0.000    3.000    0.000    0.857    0.000    6.857 
#    0.000    5.714    0.000    0.857    0.000    6.000 
#    0.000    0.000    0.000    0.000    0.000    0.000 
#
# Total GULP energy -156065.180798 kJ/mol
# GULP energy per Si atom -5573.756457 kJ/mol
# Density = 2.167282 g / cm^3
# Si number density = 21.722257 Si / 1000 Ang^3
#
#
#
# Elastic Constant Matrix: (Units=GPa)
#
#
# Indices 1 2 3 4 5 6 
#
# 1 67.8013 10.9853 5.6482 0.0000 -3.9070 0.0000
# 2 10.9853 122.9918 98.3057 0.0000 17.3286 0.0000
# 3 5.6482 98.3057 159.3319 0.0000 26.2049 0.0000
# 4 0.0000 0.0000 0.0000 26.0356 0.0000 22.5881
# 5 -3.9070 17.3286 26.2049 0.0000 30.6525 0.0000
# 6 0.0000 0.0000 0.0000 22.5881 0.0000 32.1433
#
#
#
# Elastic Compliance Matrix: (Units=1/GPa)
#
#
# Indices 1 2 3 4 5 6 
#
# 1 0.015207 -0.001883 0.000150 0.000000 0.002875 0.000000
# 2 -0.001883 0.016288 -0.009808 0.000000 -0.001063 0.000000
# 3 0.000150 -0.009808 0.013273 0.000000 -0.005784 0.000000
# 4 0.000000 0.000000 0.000000 0.098403 0.000000 -0.069151
# 5 0.002875 -0.001063 -0.005784 0.000000 0.038536 0.000000
# 6 0.000000 0.000000 0.000000 -0.069151 0.000000 0.079705
#
#
# Mechanical properties :
#
#
# Convention : Reuss Voigt Hill
#
# Bulk Modulus (GPa) = 46.11139 64.44483 55.27811
# Shear Modulus (GPa) = 17.13952 33.44534 25.29243
#
# Velocity S-wave (km/s) = 2.81202 3.92813 3.41597
# Velocity P-wave (km/s) = 5.64066 7.09265 6.40791
#
# Compressibility (1/GPa) = 0.02168662
#
# Stress axis : x y z
#
# Youngs Moduli (GPa) = 65.75806 61.39551 75.33883
#
# Poissons Ratio (x) = 0.11562 -0.01130
# Poissons Ratio (y) = 0.12384 0.73890
# Poissons Ratio (z) = -0.00987 0.60215
#
# Static dielectric constant tensor:
#      x y z
#    x 1.828500 0.000000 0.002350 
#    y 0.000000 1.773640 0.000000 
#    z 0.002350 0.000000 1.815310 
# 
# From -- ./inp_files/54733.got.cif
#   From: 2010.05.17/outbox.cif.g08.bks.cpg/sg10_28_cif.got.tgz:54733.got - 2010.06.03 11:33:40.
