data_PCOD9155367
_publ_section_title
;
Structure prediction by ZEFSAII (Michael W. Deem and Ramdas Pophale) SiO2 
 PCOD9155367
Probable space group: P 2/M
;
_chemical_formula_sum "Si O2"
_cell_formula_units_Z 24
_cell_length_a 15.000000
_cell_length_b 9.000000
_cell_length_c 15.000000
_cell_angle_alpha 90.000000
_cell_angle_beta 40.000000
_cell_angle_gamma 90.000000
_cell_volume 1301.644910
_symmetry_space_group_name_H-M "P 2/M"
_symmetry_group_IT_number 10
_symmetry_cell_setting 'monoclinic'
loop_
_space_group_symop_operation_xyz
x,y,z
-x,y,-z
-x,-y,-z
x,-y,z
loop_
_atom_site_type_symbol
_atom_site_label
_atom_site_fract_x
_atom_site_fract_y
_atom_site_fract_z
Si Si1 0.094138 0.820867 0.292851
Si Si2 0.204334 0.819798 0.394719
Si Si3 0.744402 0.823477 0.145343
Si Si4 0.560256 0.819273 0.654018
Si Si5 0.238452 0.175992 0.657075
Si Si6 0.055136 0.675840 0.141781
O O1 0.189471 0.775092 0.303320
O O2 0.126089 0.744344 0.175401
O O3 0.937359 0.781577 0.444577
O O4 0.099965 0.000000 0.278429
O O5 0.337851 0.766741 0.346002
O O6 0.207427 0.000000 0.392242
O O7 0.597573 0.769653 0.218956
O O8 0.735489 0.804495 0.258360
O O9 0.762179 0.000000 0.114753
O O10 0.869559 0.738761 0.003299
O O11 0.633333 0.781516 0.504159
O O12 0.555390 0.000000 0.660454
O O13 0.102016 0.265878 0.736575
O O14 0.211222 0.000000 0.661826
O O15 0.059707 0.500000 0.139858
#
# Coordination Sequence:
#
# PCOD9155367 Si02
#       6
#     4   4   4   4   4   4
#     4   9  16  31  56  82 105 133 172 219 266 310
#     4   8  14  27  55  87 107 127 164 220 272 309
#     4  10  21  35  55  81 108 140 175 216 267 316
#     4   9  16  31  57  87 110 129 167 221 271 317
#     4  10  19  35  59  82 104 134 177 225 266 310
#     4  12  24  36  51  75 109 148 182 216 259 308
#
# _framework density 18.438207999999999
#
# number of rings (size 3 to 8) (size 9 to 14) (size 15 to 20)
#    0.000    2.333    1.667    3.500    0.000    4.667 
#    0.000    3.333    0.000    7.000    0.000    0.000 
#    0.000    0.000    0.000    0.000    0.000    0.000 
#
# Total GULP energy -133868.759372 kJ/mol
# GULP energy per Si atom -5577.864974 kJ/mol
# Density = 1.839624 g / cm^3
# Si number density = 18.438208 Si / 1000 Ang^3
#
#
#
# Elastic Constant Matrix: (Units=GPa)
#
#
# Indices 1 2 3 4 5 6 
#
# 1 57.1025 26.2500 -2.3900 0.0000 7.1005 0.0000
# 2 26.2500 26.3200 8.7531 0.0000 5.4583 0.0000
# 3 -2.3900 8.7531 22.7216 0.0000 -9.5741 0.0000
# 4 0.0000 0.0000 0.0000 -10.8852 0.0000 -5.0620
# 5 7.1005 5.4583 -9.5741 0.0000 5.9966 0.0000
# 6 0.0000 0.0000 0.0000 -5.0620 0.0000 -5.8711
#
#
#
# Elastic Compliance Matrix: (Units=1/GPa)
#
#
# Indices 1 2 3 4 5 6 
#
# 1 0.026311 -0.001645 -0.027793 0.000000 -0.074031 0.000000
# 2 -0.001645 -0.050699 0.121083 0.000000 0.241417 0.000000
# 3 -0.027793 0.121083 -0.116522 0.000000 -0.263343 0.000000
# 4 0.000000 0.000000 0.000000 -0.153356 0.000000 0.132223
# 5 -0.074031 0.241417 -0.263343 0.000000 -0.385778 0.000000
# 6 0.000000 0.000000 0.000000 0.132223 0.000000 -0.284328
#
#
# Mechanical properties :
#
#
# Convention : Reuss Voigt Hill
#
# Bulk Modulus (GPa) = 23.59603 19.04113 21.31858
# Shear Modulus (GPa) = -4.41098 2.75013 -0.83042
#
# Velocity S-wave (km/s) = -1.54838 1.22261 -0.67183
# Velocity P-wave (km/s) = 3.10298 3.51318 3.31443
#
# Compressibility (1/GPa) = 0.04238002
#
# Stress axis : x y z
#
# Youngs Moduli (GPa) = 38.00713 -19.72416 -8.58208
#
# Poissons Ratio (x) = -0.03245 -0.23852
# Poissons Ratio (y) = 0.06252 1.03915
# Poissons Ratio (z) = 1.05634 2.38827
#
# Static dielectric constant tensor:
#      x y z
#    x 1.680770 0.000000 0.006900 
#    y 0.000000 1.612880 0.000000 
#    z 0.006900 0.000000 1.606430 
# 
# From -- ./inp_files/27016.got.cif
#   From: 2010.05.17/outbox.ucp.g08.bks.cvg/sg10_14_cif.got.tgz:27016.got - 2010.06.11 11:31:16.
