data_PCOD9155300
_publ_section_title
;
Structure prediction by ZEFSAII (Michael W. Deem and Ramdas Pophale) SiO2 
 PCOD9155300
Probable space group: P 2/M
;
_chemical_formula_sum "Si O2"
_cell_formula_units_Z 20
_cell_length_a 9.000000
_cell_length_b 9.000000
_cell_length_c 21.000000
_cell_angle_alpha 90.000000
_cell_angle_beta 40.000000
_cell_angle_gamma 90.000000
_cell_volume 1093.381724
_symmetry_space_group_name_H-M "P 2/M"
_symmetry_group_IT_number 10
_symmetry_cell_setting 'monoclinic'
loop_
_space_group_symop_operation_xyz
x,y,z
-x,y,-z
-x,-y,-z
x,-y,z
loop_
_atom_site_type_symbol
_atom_site_label
_atom_site_fract_x
_atom_site_fract_y
_atom_site_fract_z
Si Si1 0.856443 0.680721 0.984307
Si Si2 0.107849 0.679183 0.773071
Si Si3 0.350744 0.318628 0.420304
Si Si4 0.095633 0.179824 0.380774
Si Si5 0.316766 0.679978 0.184062
O O1 0.855372 0.500000 0.982423
O O2 0.008194 0.732523 0.873953
O O3 0.581325 0.721094 0.076244
O O4 0.000000 0.725072 0.000000
O O5 0.123971 0.500000 0.771044
O O6 0.373918 0.724365 0.667680
O O7 0.893988 0.711506 0.795720
O O8 0.335541 0.500000 0.426640
O O9 0.239406 0.252104 0.392161
O O10 0.166083 0.249726 0.531747
O O11 0.237644 0.232666 0.272690
O O12 0.083527 0.000000 0.390231
O O13 0.319047 0.500000 0.194143
#
# Coordination Sequence:
#
# PCOD9155300 Si02
#       5
#     4   4   4   4   4
#     4   9  16  28  51  82 110 135 169 215 263 308
#     4   9  18  31  52  83 110 134 170 219 267 310
#     4  10  19  35  58  80 103 134 177 221 263 310
#     4  11  22  36  53  76 107 140 178 218 261 310
#     4  10  19  33  54  79 109 141 174 213 259 311
#
# _framework density 18.291872999999999
#
# number of rings (size 3 to 8) (size 9 to 14) (size 15 to 20)
#    0.000    2.200    0.000    5.400    0.000    6.400 
#    0.000    6.000    0.000    9.000    0.000    0.000 
#    0.000    0.000    0.000    0.000    0.000    0.000 
#
# Total GULP energy -111394.989892 kJ/mol
# GULP energy per Si atom -5569.749495 kJ/mol
# Density = 1.825024 g / cm^3
# Si number density = 18.291873 Si / 1000 Ang^3
#
#
#
# Elastic Constant Matrix: (Units=GPa)
#
#
# Indices 1 2 3 4 5 6 
#
# 1 71.1596 12.7149 31.4842 0.0000 -33.6220 0.0000
# 2 12.7149 60.5059 18.1395 0.0000 -6.1537 0.0000
# 3 31.4842 18.1395 124.3877 0.0000 -41.4604 0.0000
# 4 0.0000 0.0000 0.0000 14.2679 0.0000 -2.0020
# 5 -33.6220 -6.1537 -41.4604 0.0000 47.4401 0.0000
# 6 0.0000 0.0000 0.0000 -2.0020 0.0000 8.8997
#
#
#
# Elastic Compliance Matrix: (Units=1/GPa)
#
#
# Indices 1 2 3 4 5 6 
#
# 1 0.021663 -0.003014 -0.000080 0.000000 0.014893 0.000000
# 2 -0.003014 0.017702 -0.002491 0.000000 -0.002017 0.000000
# 3 -0.000080 -0.002491 0.011706 0.000000 0.009851 0.000000
# 4 0.000000 0.000000 0.000000 0.072372 0.000000 0.016280
# 5 0.014893 -0.002017 0.009851 0.000000 0.039982 0.000000
# 6 0.000000 0.000000 0.000000 0.016280 0.000000 0.116026
#
#
# Mechanical properties :
#
#
# Convention : Reuss Voigt Hill
#
# Bulk Modulus (GPa) = 25.06076 42.30337 33.68206
# Shear Modulus (GPa) = 16.45162 27.03585 21.74373
#
# Velocity S-wave (km/s) = 3.00224 3.84868 3.45151
# Velocity P-wave (km/s) = 5.07427 6.55186 5.85982
#
# Compressibility (1/GPa) = 0.03990303
#
# Stress axis : x y z
#
# Youngs Moduli (GPa) = 46.16091 56.48981 85.42349
#
# Poissons Ratio (x) = 0.17025 0.00682
# Poissons Ratio (y) = 0.13912 0.21278
# Poissons Ratio (z) = 0.00368 0.14071
#
# Static dielectric constant tensor:
#      x y z
#    x 1.661520 0.000000 0.034240 
#    y 0.000000 1.601410 0.000000 
#    z 0.034240 0.000000 1.661240 
# 
# From -- ./inp_files/22123.got.cif
#   From: 2010.05.17/outbox.ucp.g08.bks.cvg/sg10_12_cif.got.tgz:22123.got - 2010.06.11 11:31:16.
