data_PCOD9155413
_publ_section_title
;
Structure prediction by ZEFSAII (Michael W. Deem and Ramdas Pophale) SiO2 
 PCOD9155413
Probable space group: P 2/M
;
_chemical_formula_sum "Si O2"
_cell_formula_units_Z 28
_cell_length_a 9.000000
_cell_length_b 9.000000
_cell_length_c 30.000000
_cell_angle_alpha 90.000000
_cell_angle_beta 140.000000
_cell_angle_gamma 90.000000
_cell_volume 1561.973892
_symmetry_space_group_name_H-M "P 2/M"
_symmetry_group_IT_number 10
_symmetry_cell_setting 'monoclinic'
loop_
_space_group_symop_operation_xyz
x,y,z
-x,y,-z
-x,-y,-z
x,-y,z
loop_
_atom_site_type_symbol
_atom_site_label
_atom_site_fract_x
_atom_site_fract_y
_atom_site_fract_z
Si Si1 0.175828 0.177164 0.138385
Si Si2 0.662973 0.819020 0.996439
Si Si3 0.099040 0.327209 0.711673
Si Si4 0.517073 0.327526 0.279690
Si Si5 0.234646 0.822669 0.429185
Si Si6 0.547107 0.177900 0.145823
Si Si7 0.084119 0.679578 0.568898
O O1 0.295197 0.242568 0.209975
O O2 0.347558 0.206435 0.136538
O O3 0.922283 0.233310 0.066715
O O4 0.161704 0.000000 0.140823
O O5 0.674351 0.000000 0.996203
O O6 0.500000 0.779557 0.000000
O O7 0.549470 0.769658 0.923915
O O8 0.052175 0.500000 0.708509
O O9 0.289339 0.316225 0.715258
O O10 0.221784 0.254044 0.782453
O O11 0.873466 0.246199 0.640608
O O12 0.456791 0.500000 0.271087
O O13 0.655768 0.276744 0.355746
O O14 0.500000 0.785368 0.500000
O O15 0.086899 0.756444 0.435758
O O16 0.209244 0.000000 0.421619
O O17 0.584029 0.000000 0.152478
O O18 0.071925 0.500000 0.571526
O O19 0.000000 0.715969 0.500000
#
# Coordination Sequence:
#
# PCOD9155413 Si02
#       7
#     4   4   4   4   4   4   4
#     4   9  16  27  46  69  88 113 153 193 227 269
#     4   9  17  29  45  66  93 123 151 183 229 282
#     4   9  17  30  49  71  94 122 158 197 238 285
#     4   8  15  28  46  68  92 118 151 193 236 275
#     4  10  20  33  50  74 102 130 163 204 246 287
#     4   9  16  28  48  70  90 114 151 197 234 270
#     4   9  18  33  52  73  99 132 167 201 242 294
#
# _framework density 17.926036
#
# number of rings (size 3 to 8) (size 9 to 14) (size 15 to 20)
#    0.000    3.000    0.000    2.143    0.000    6.571 
#    0.000    2.143    0.000   10.286    0.000    0.000 
#    0.000    0.000    0.000    0.000    0.000    0.000 
#
# Total GULP energy -155955.262975 kJ/mol
# GULP energy per Si atom -5569.830821 kJ/mol
# Density = 1.788524 g / cm^3
# Si number density = 17.926036 Si / 1000 Ang^3
#
#
#
# Elastic Constant Matrix: (Units=GPa)
#
#
# Indices 1 2 3 4 5 6 
#
# 1 23.0075 31.0530 65.3613 0.0000 -3.9569 0.0000
# 2 31.0530 22.1679 65.8953 0.0000 2.2430 0.0000
# 3 65.3613 65.8953 247.0813 0.0000 -11.1168 0.0000
# 4 0.0000 0.0000 0.0000 23.1919 0.0000 -6.2277
# 5 -3.9569 2.2430 -11.1168 0.0000 20.6299 0.0000
# 6 0.0000 0.0000 0.0000 -6.2277 0.0000 3.6140
#
#
#
# Elastic Compliance Matrix: (Units=1/GPa)
#
#
# Indices 1 2 3 4 5 6 
#
# 1 -0.018619 0.079622 -0.017278 0.000000 -0.021539 0.000000
# 2 0.079622 -0.032492 -0.011838 0.000000 0.012425 0.000000
# 3 -0.017278 -0.011838 0.011974 0.000000 0.004426 0.000000
# 4 0.000000 0.000000 0.000000 0.080255 0.000000 0.138295
# 5 -0.021539 0.012425 0.004426 0.000000 0.045376 0.000000
# 6 0.000000 0.000000 0.000000 0.138295 0.000000 0.515011
#
#
# Mechanical properties :
#
#
# Convention : Reuss Voigt Hill
#
# Bulk Modulus (GPa) = 16.16201 68.54176 42.35189
# Shear Modulus (GPa) = 9.59474 18.15031 13.87252
#
# Velocity S-wave (km/s) = 2.31604 3.18545 2.78488
# Velocity P-wave (km/s) = 4.02337 7.20058 5.83249
#
# Compressibility (1/GPa) = 0.06187348
#
# Stress axis : x y z
#
# Youngs Moduli (GPa) = -53.70924 -30.77642 83.51252
#
# Poissons Ratio (x) = 2.45047 1.44297
# Poissons Ratio (y) = 4.27642 0.98862
# Poissons Ratio (z) = -0.92801 -0.36433
#
# Static dielectric constant tensor:
#      x y z
#    x 1.605490 0.000000 -0.001140 
#    y 0.000000 1.603940 0.000000 
#    z -0.001140 0.000000 1.636620 
# 
# From -- ./inp_files/94535.got.cif
#   From: 2010.05.17/outbox.ucp.g08.bks.cvg/sg10_48_cif.got.tgz:94535.got - 2010.06.11 11:31:16.
