data_PCOD9155151
_publ_section_title
;
Structure prediction by ZEFSAII (Michael W. Deem and Ramdas Pophale) SiO2 
 PCOD9155151
Probable space group: P 2/M
;
_chemical_formula_sum "Si O2"
_cell_formula_units_Z 32
_cell_length_a 27.000000
_cell_length_b 9.000000
_cell_length_c 21.000000
_cell_angle_alpha 90.000000
_cell_angle_beta 20.000000
_cell_angle_gamma 90.000000
_cell_volume 1745.328791
_symmetry_space_group_name_H-M "P 2/M"
_symmetry_group_IT_number 10
_symmetry_cell_setting 'monoclinic'
loop_
_space_group_symop_operation_xyz
x,y,z
-x,y,-z
-x,-y,-z
x,-y,z
loop_
_atom_site_type_symbol
_atom_site_label
_atom_site_fract_x
_atom_site_fract_y
_atom_site_fract_z
Si Si1 0.675642 0.669704 0.296984
Si Si2 0.139680 0.675044 0.157374
Si Si3 0.338283 0.169813 0.557399
Si Si4 0.837498 0.178866 0.495045
Si Si5 0.315513 0.832288 0.840933
Si Si6 0.362652 0.180287 0.382352
Si Si7 0.337421 0.825674 0.169558
Si Si8 0.659246 0.678426 0.971822
O O1 0.500000 0.668917 0.500000
O O2 0.724667 0.500000 0.229425
O O3 0.715545 0.730611 0.318704
O O4 0.726774 0.776073 0.178188
O O5 0.112340 0.500000 0.191166
O O6 0.997840 0.760265 0.306537
O O7 0.259086 0.717836 0.961081
O O8 0.204664 0.718796 0.147567
O O9 0.511331 0.163438 0.360416
O O10 0.318952 0.222171 0.507609
O O11 0.283017 0.000000 0.629379
O O12 0.751863 0.223318 0.534360
O O13 0.758890 0.228869 0.655098
O O14 0.836222 0.000000 0.496983
O O15 0.261245 0.000000 0.917968
O O16 0.515860 0.249913 0.176496
O O17 0.377522 0.000000 0.364292
O O18 0.305631 0.000000 0.195399
O O19 0.500000 0.817362 0.000000
O O20 0.323409 0.737686 0.120776
O O21 0.644982 0.500000 0.989266
#
# Coordination Sequence:
#
# PCOD9155151 Si02
#       8
#     4   4   4   4   4   4   4   4
#     4   9  17  28  45  74 114 149 178 221 274 328
#     4  11  24  39  54  79 117 152 184 226 277 333
#     4   9  17  29  51  81 109 140 181 231 274 320
#     4  10  22  39  60  83 108 144 187 229 278 332
#     4  10  18  31  54  79 107 145 188 229 273 326
#     4  10  19  36  59  83 111 143 186 235 277 323
#     4  10  20  38  62  84 110 142 183 233 278 326
#     4  11  23  36  56  84 113 147 184 225 277 333
#
# _framework density 18.334654
#
# number of rings (size 3 to 8) (size 9 to 14) (size 15 to 20)
#    0.000    2.000    2.500    1.500    0.000    5.750 
#    0.000    2.500    0.000    0.750    0.000    5.250 
#    0.000    0.000    0.000    0.000    0.000    0.000 
#
# Total GULP energy -178463.293754 kJ/mol
# GULP energy per Si atom -5576.977930 kJ/mol
# Density = 1.829292 g / cm^3
# Si number density = 18.334654 Si / 1000 Ang^3
#
#
#
# Elastic Constant Matrix: (Units=GPa)
#
#
# Indices 1 2 3 4 5 6 
#
# 1 163.4023 36.0119 16.5827 0.0000 11.2294 0.0000
# 2 36.0119 18.3386 0.4263 0.0000 -0.8696 0.0000
# 3 16.5827 0.4263 8.0145 0.0000 -6.0532 0.0000
# 4 0.0000 0.0000 0.0000 12.3337 0.0000 1.0979
# 5 11.2294 -0.8696 -6.0532 0.0000 24.7685 0.0000
# 6 0.0000 0.0000 0.0000 1.0979 0.0000 11.0047
#
#
#
# Elastic Compliance Matrix: (Units=1/GPa)
#
#
# Indices 1 2 3 4 5 6 
#
# 1 0.032027 -0.062605 -0.092669 0.000000 -0.039366 0.000000
# 2 -0.062605 0.177018 0.179358 0.000000 0.078432 0.000000
# 3 -0.092669 0.179358 0.421215 0.000000 0.151253 0.000000
# 4 0.000000 0.000000 0.000000 0.081805 0.000000 -0.008161
# 5 -0.039366 0.078432 0.151253 0.000000 0.097940 0.000000
# 6 0.000000 0.000000 0.000000 -0.008161 0.000000 0.091684
#
#
# Mechanical properties :
#
#
# Convention : Reuss Voigt Hill
#
# Bulk Modulus (GPa) = 1.47399 32.86635 17.17017
# Shear Modulus (GPa) = 4.63107 18.73702 11.68404
#
# Velocity S-wave (km/s) = 1.59102 3.20026 2.52715
# Velocity P-wave (km/s) = 2.04470 5.62319 4.23090
#
# Compressibility (1/GPa) = 0.67842847
#
# Stress axis : x y z
#
# Youngs Moduli (GPa) = 31.22369 5.64914 2.37408
#
# Poissons Ratio (x) = 0.35366 0.22000
# Poissons Ratio (y) = 1.95475 -0.42581
# Poissons Ratio (z) = 2.89348 -1.01322
#
# Static dielectric constant tensor:
#      x y z
#    x 1.621040 0.000000 0.026130 
#    y 0.000000 1.623340 0.000000 
#    z 0.026130 0.000000 1.716690 
# 
# From -- ./inp_files/86909.got.cif
#   From: 2010.05.17/outbox.ucp.g08.bks.cvg/sg10_44_cif.got.tgz:86909.got - 2010.06.11 11:31:16.
