data_PCOD9155054
_publ_section_title
;
Structure prediction by ZEFSAII (Michael W. Deem and Ramdas Pophale) SiO2 
 PCOD9155054
Probable space group: P 2/M
;
_chemical_formula_sum "Si O2"
_cell_formula_units_Z 28
_cell_length_a 15.598167
_cell_length_b 14.834783
_cell_length_c 6.986040
_cell_angle_alpha 90.000000
_cell_angle_beta 42.136010
_cell_angle_gamma 90.000000
_cell_volume 1084.523511
_symmetry_space_group_name_H-M "P 2/M"
_symmetry_group_IT_number 10
_symmetry_cell_setting 'monoclinic'
loop_
_space_group_symop_operation_xyz
x,y,z
-x,y,-z
-x,-y,-z
x,-y,z
loop_
_atom_site_type_symbol
_atom_site_label
_atom_site_fract_x
_atom_site_fract_y
_atom_site_fract_z
Si Si1 0.227602 0.709848 0.319660
Si Si2 0.534900 0.400342 0.169755
Si Si3 0.238963 0.099023 0.363303
Si Si4 0.963750 0.894005 0.766203
Si Si5 0.679422 0.896360 0.361029
Si Si6 0.704648 0.296525 0.333788
Si Si7 0.967917 0.606989 0.825400
O O1 0.253384 0.813481 0.213051
O O2 0.257242 0.713573 0.500966
O O3 0.089622 0.660856 0.533309
O O4 0.337876 0.657335 0.029636
O O5 0.569697 0.500000 0.167281
O O6 0.406834 0.369827 0.485545
O O7 0.500000 0.398623 0.000000
O O8 0.330522 0.095958 0.392575
O O9 0.092056 0.113945 0.676748
O O10 0.243949 0.000000 0.261449
O O11 0.000000 0.853661 0.500000
O O12 0.950222 0.000000 0.761113
O O13 0.827287 0.871300 0.070907
O O14 0.630416 0.796459 0.396971
O O15 0.649243 0.000000 0.340645
O O16 0.836446 0.335288 0.023676
O O17 0.957632 0.500000 0.785941
O O18 0.000000 0.605379 0.000000
#
# Coordination Sequence:
#
# PCOD9155054 Si02
#       7
#     4   4   4   4   4   4   4
#     4   9  16  25  38  57  82 114 148 177 211 260
#     4   9  16  26  39  57  86 119 145 177 224 266
#     4   9  16  26  40  59  86 119 148 174 211 261
#     4   9  16  25  39  61  88 117 149 184 217 249
#     4   9  16  26  40  59  86 119 148 174 211 261
#     4   9  16  25  38  57  82 114 148 177 211 260
#     4   9  15  22  33  51  76 105 138 177 218 258
#
# _framework density 25.817791
#
# number of rings (size 3 to 8) (size 9 to 14) (size 15 to 20)
#    0.000    3.000    0.000    2.143    0.000    7.429 
#    0.000    0.714    0.000    4.286    0.000    1.000 
#    0.000   26.286    0.000    0.000    0.000    0.000 
#
# Total GULP energy -156063.201323 kJ/mol
# GULP energy per Si atom -5573.685762 kJ/mol
# Density = 2.575903 g / cm^3
# Si number density = 25.817791 Si / 1000 Ang^3
#
#
#
# Elastic Constant Matrix: (Units=GPa)
#
#
# Indices 1 2 3 4 5 6 
#
# 1 80.4563 17.6153 26.8120 0.0000 -2.0062 0.0000
# 2 17.6153 255.8979 60.1550 0.0000 -33.2411 0.0000
# 3 26.8120 60.1550 111.3149 0.0000 -14.1388 0.0000
# 4 0.0000 0.0000 0.0000 -37.9752 0.0000 31.9129
# 5 -2.0062 -33.2411 -14.1388 0.0000 35.2285 0.0000
# 6 0.0000 0.0000 0.0000 31.9129 0.0000 -33.1669
#
#
#
# Elastic Compliance Matrix: (Units=1/GPa)
#
#
# Indices 1 2 3 4 5 6 
#
# 1 0.013540 -0.000279 -0.003210 0.000000 -0.000780 0.000000
# 2 -0.000279 0.004913 -0.002108 0.000000 0.003774 0.000000
# 3 -0.003210 -0.002108 0.011191 0.000000 0.002319 0.000000
# 4 0.000000 0.000000 0.000000 -0.137574 0.000000 -0.132372
# 5 -0.000780 0.003774 0.002319 0.000000 0.032833 0.000000
# 6 0.000000 0.000000 0.000000 -0.132372 0.000000 -0.157518
#
#
# Mechanical properties :
#
#
# Convention : Reuss Voigt Hill
#
# Bulk Modulus (GPa) = 54.20186 72.98152 63.59169
# Shear Modulus (GPa) = -23.22654 15.68973 -3.76840
#
# Velocity S-wave (km/s) = -3.00264 2.46785 -1.20946
# Velocity P-wave (km/s) = 3.00307 6.03736 4.76802
#
# Compressibility (1/GPa) = 0.01844955
#
# Stress axis : x y z
#
# Youngs Moduli (GPa) = 73.85314 203.54853 89.36058
#
# Poissons Ratio (x) = 0.05677 0.28683
# Poissons Ratio (y) = 0.02060 0.18841
# Poissons Ratio (z) = 0.23705 0.42917
#
# Static dielectric constant tensor:
#      x y z
#    x 2.082460 0.000000 0.030060 
#    y 0.000000 2.046980 0.000000 
#    z 0.030060 0.000000 2.109710 
# 
# From -- ./inp_files/24904.got.cif
#   From: 2010.05.17/outbox.cif.g08.bks.cpg/sg10_13_cif.got.tgz:24904.got - 2010.06.03 11:33:40.
