data_PCOD9155755
_publ_section_title
;
Structure prediction by ZEFSAII (Michael W. Deem and Ramdas Pophale) SiO2 
 PCOD9155755
Probable space group: P 21/M
;
_chemical_formula_sum "Si O2"
_cell_formula_units_Z 32
_cell_length_a 5.670964
_cell_length_b 31.147544
_cell_length_c 6.648967
_cell_angle_alpha 90.000000
_cell_angle_beta 102.528155
_cell_angle_gamma 90.000000
_cell_volume 1146.486702
_symmetry_space_group_name_H-M "P 21/M"
_symmetry_group_IT_number 11
_symmetry_cell_setting 'monoclinic'
loop_
_space_group_symop_operation_xyz
x,y,z
-x,1/2+y,-z
-x,-y,-z
x,1/2-y,z
loop_
_atom_site_type_symbol
_atom_site_label
_atom_site_fract_x
_atom_site_fract_y
_atom_site_fract_z
Si Si1 0.770784 0.802690 0.984122
Si Si2 0.258247 0.058431 0.011317
Si Si3 0.393714 0.084020 0.468981
Si Si4 0.740848 0.043196 0.946856
Si Si5 0.410119 0.676365 0.448199
Si Si6 0.087284 0.299681 0.534194
Si Si7 0.731533 0.300511 0.029373
Si Si8 0.114290 0.546497 0.555942
O O1 0.768808 0.750000 0.974806
O O2 0.828627 0.813724 0.227742
O O3 0.501981 0.819831 0.908204
O O4 0.001089 0.819128 0.904832
O O5 0.326814 0.086210 0.217028
O O6 0.470196 0.061852 0.885581
O O7 0.980379 0.063401 0.891848
O O8 0.268775 0.008229 0.087636
O O9 0.509580 0.127838 0.563441
O O10 0.630912 0.052278 0.515732
O O11 0.125037 0.076052 0.507038
O O12 0.804864 0.048656 0.195887
O O13 0.666471 0.698250 0.549917
O O14 0.328080 0.697146 0.220712
O O15 0.171873 0.678329 0.541806
O O16 0.021809 0.250000 0.531277
O O17 0.744221 0.250000 0.085838
O O18 0.000000 0.500000 0.500000
#
# Coordination Sequence:
#
# PCOD9155755 Si02
#       8
#     4   4   4   4   4   4   4   4
#     4   7  10  15  23  34  48  68  98 133 154 173
#     4   8  14  25  39  57  77  94 123 161 197 236
#     4  10  19  28  40  59  80 104 132 167 208 238
#     4   8  14  25  42  57  71  96 126 162 198 229
#     4  10  16  23  34  50  72  96 127 159 189 222
#     4   9  15  23  34  48  68  98 133 154 173 220
#     4   8  12  18  27  39  56  81 111 133 155 197
#     4  10  19  31  43  56  76 103 138 173 203 249
#
# _framework density 27.911355
#
# number of rings (size 3 to 8) (size 9 to 14) (size 15 to 20)
#    0.000    3.250    0.000    3.750    0.000    0.000 
#    0.000    0.000    0.000    0.000    0.000    0.000 
#    0.000    0.000    0.000    0.000    0.000   42.500 
#
# Total GULP energy -178945.184016 kJ/mol
# GULP energy per Si atom -5592.037001 kJ/mol
# Density = 2.784783 g / cm^3
# Si number density = 27.911355 Si / 1000 Ang^3
#
#
#
# Elastic Constant Matrix: (Units=GPa)
#
#
# Indices 1 2 3 4 5 6 
#
# 1 309.5918 17.3836 69.7942 0.0000 6.7346 0.0000
# 2 17.3836 61.2880 -1.9632 0.0000 6.7558 0.0000
# 3 69.7942 -1.9632 85.0061 0.0000 22.7184 0.0000
# 4 0.0000 0.0000 0.0000 -0.2156 0.0000 -0.3276
# 5 6.7346 6.7558 22.7184 0.0000 76.4953 0.0000
# 6 0.0000 0.0000 0.0000 -0.3276 0.0000 36.8188
#
#
#
# Elastic Compliance Matrix: (Units=1/GPa)
#
#
# Indices 1 2 3 4 5 6 
#
# 1 0.004107 -0.001373 -0.003627 0.000000 0.000837 0.000000
# 2 -0.001373 0.016991 0.002051 0.000000 -0.001989 0.000000
# 3 -0.003627 0.002051 0.016024 0.000000 -0.004621 0.000000
# 4 0.000000 0.000000 0.000000 -4.575562 0.000000 -0.040713
# 5 0.000837 -0.001989 -0.004621 0.000000 0.014547 0.000000
# 6 0.000000 0.000000 0.000000 -0.040713 0.000000 0.026798
#
#
# Mechanical properties :
#
#
# Convention : Reuss Voigt Hill
#
# Bulk Modulus (GPa) = 32.02676 69.59057 50.80866
# Shear Modulus (GPa) = -1.11587 47.33113 23.10763
#
# Velocity S-wave (km/s) = -0.63298 4.12244 2.88044
# Velocity P-wave (km/s) = 3.31137 6.90262 5.41347
#
# Compressibility (1/GPa) = 0.03122389
#
# Stress axis : x y z
#
# Youngs Moduli (GPa) = 243.50628 58.85518 62.40520
#
# Poissons Ratio (x) = 0.08082 0.22635
# Poissons Ratio (y) = 0.33440 -0.12802
# Poissons Ratio (z) = 0.88324 -0.12074
#
# Static dielectric constant tensor:
#      x y z
#    x 2.304980 0.000000 -0.102610 
#    y 0.000000 1.848350 0.000000 
#    z -0.102610 0.000000 2.300030 
# 
# From -- ./inp_files/30388.got.cif
#   From: 2010.05.17/outbox.cif.g08.bks.cpg/sg11_16_cif.got.tgz:30388.got - 2010.06.03 12:22:45.
