data_PCOD9155542
_publ_section_title
;
Structure prediction by ZEFSAII (Michael W. Deem and Ramdas Pophale) SiO2 
 PCOD9155542
Probable space group: P 2/M
;
_chemical_formula_sum "Si O2"
_cell_formula_units_Z 24
_cell_length_a 12.000000
_cell_length_b 9.000000
_cell_length_c 24.000000
_cell_angle_alpha 90.000000
_cell_angle_beta 150.000000
_cell_angle_gamma 90.000000
_cell_volume 1296.000000
_symmetry_space_group_name_H-M "P 2/M"
_symmetry_group_IT_number 10
_symmetry_cell_setting 'monoclinic'
loop_
_space_group_symop_operation_xyz
x,y,z
-x,y,-z
-x,-y,-z
x,-y,z
loop_
_atom_site_type_symbol
_atom_site_label
_atom_site_fract_x
_atom_site_fract_y
_atom_site_fract_z
Si Si1 0.994953 0.822674 0.152228
Si Si2 0.305103 0.324959 0.688246
Si Si3 0.409380 0.674639 0.076616
Si Si4 0.081394 0.176609 0.412363
Si Si5 0.494374 0.177539 0.334331
Si Si6 0.859160 0.321901 0.209941
O O1 0.243308 0.779011 0.240977
O O2 0.929244 0.746966 0.181955
O O3 0.990278 0.000000 0.156557
O O4 0.809292 0.770038 0.028022
O O5 0.254548 0.500000 0.661408
O O6 0.478823 0.306638 0.814579
O O7 0.412101 0.261928 0.678786
O O8 0.083821 0.237907 0.611300
O O9 0.357103 0.500000 0.046276
O O10 0.604352 0.714930 0.117031
O O11 0.333514 0.204927 0.540743
O O12 0.011668 0.258097 0.325579
O O13 0.048844 0.000000 0.392076
O O14 0.498086 0.000000 0.324813
O O15 0.875059 0.500000 0.215579
#
# Coordination Sequence:
#
# PCOD9155542 Si02
#       6
#     4   4   4   4   4   4
#     4  11  23  37  55  81 112 147 186 225 269 325
#     4  10  21  37  59  85 111 141 182 230 274 321
#     4   9  20  38  57  80 110 142 178 226 279 325
#     4  10  20  37  60  82 109 145 183 225 273 324
#     4  10  23  39  54  79 115 150 182 222 273 325
#     4  10  21  38  59  83 111 142 181 229 276 324
#
# _framework density 18.518519000000001
#
# number of rings (size 3 to 8) (size 9 to 14) (size 15 to 20)
#    0.000    2.000    0.000    4.000    0.000   12.000 
#    0.000    6.667    0.000    0.000    0.000    0.000 
#    0.000    0.000    0.000    0.000    0.000    0.000 
#
# Total GULP energy -134092.623379 kJ/mol
# GULP energy per Si atom -5587.192641 kJ/mol
# Density = 1.847637 g / cm^3
# Si number density = 18.518519 Si / 1000 Ang^3
#
#
#
# Elastic Constant Matrix: (Units=GPa)
#
#
# Indices 1 2 3 4 5 6 
#
# 1 9.2380 7.4280 25.3946 0.0000 3.7234 0.0000
# 2 7.4280 44.1812 41.2099 0.0000 9.5128 0.0000
# 3 25.3946 41.2099 87.3338 0.0000 21.5751 0.0000
# 4 0.0000 0.0000 0.0000 117.3267 0.0000 76.4248
# 5 3.7234 9.5128 21.5751 0.0000 18.7789 0.0000
# 6 0.0000 0.0000 0.0000 76.4248 0.0000 109.9453
#
#
#
# Elastic Compliance Matrix: (Units=1/GPa)
#
#
# Indices 1 2 3 4 5 6 
#
# 1 2.070001 0.392299 -0.888799 0.000000 0.411991 0.000000
# 2 0.392299 0.114829 -0.188041 0.000000 0.080089 0.000000
# 3 -0.888799 -0.188041 0.407102 0.000000 -0.196239 0.000000
# 4 0.000000 0.000000 0.000000 0.015576 0.000000 -0.010827
# 5 0.411991 0.080089 -0.196239 0.000000 0.156454 0.000000
# 6 0.000000 0.000000 0.000000 -0.010827 0.000000 0.016621
#
#
# Mechanical properties :
#
#
# Convention : Reuss Voigt Hill
#
# Bulk Modulus (GPa) = 0.81776 32.09087 16.45432
# Shear Modulus (GPa) = 1.09715 53.65822 27.37768
#
# Velocity S-wave (km/s) = 0.77055 5.38872 3.84916
# Velocity P-wave (km/s) = 1.11095 7.48896 5.35344
#
# Compressibility (1/GPa) = 1.22284947
#
# Stress axis : x y z
#
# Youngs Moduli (GPa) = 0.48309 8.70862 2.45639
#
# Poissons Ratio (x) = -3.41638 2.18324
# Poissons Ratio (y) = -0.18952 0.46190
# Poissons Ratio (z) = 0.42937 1.63757
#
# Static dielectric constant tensor:
#      x y z
#    x 1.607010 0.000000 -0.009820 
#    y 0.000000 1.620270 0.000000 
#    z -0.009820 0.000000 1.643140 
# 
# From -- ./inp_files/45260.got.cif
#   From: 2010.05.17/outbox.ucp.g08.bks.cvg/sg10_23_cif.got.tgz:45260.got - 2010.06.11 11:31:16.
