data_PCOD9155204
_publ_section_title
;
Structure prediction by ZEFSAII (Michael W. Deem and Ramdas Pophale) SiO2 
 PCOD9155204
Probable space group: P 2/M
;
_chemical_formula_sum "Si O2"
_cell_formula_units_Z 28
_cell_length_a 21.000000
_cell_length_b 18.000000
_cell_length_c 24.000000
_cell_angle_alpha 90.000000
_cell_angle_beta 10.000000
_cell_angle_gamma 90.000000
_cell_volume 1575.336268
_symmetry_space_group_name_H-M "P 2/M"
_symmetry_group_IT_number 10
_symmetry_cell_setting 'monoclinic'
loop_
_space_group_symop_operation_xyz
x,y,z
-x,y,-z
-x,-y,-z
x,-y,z
loop_
_atom_site_type_symbol
_atom_site_label
_atom_site_fract_x
_atom_site_fract_y
_atom_site_fract_z
Si Si1 0.896549 0.375792 0.653438
Si Si2 0.303090 0.088837 0.385410
Si Si3 0.865904 0.307169 0.855132
Si Si4 0.133224 0.779430 0.448282
Si Si5 0.566921 0.915091 0.380490
Si Si6 0.368524 0.586220 0.346414
Si Si7 0.887716 0.852282 0.328629
O O1 0.000000 0.374806 0.500000
O O2 0.886145 0.289387 0.682401
O O3 0.184151 0.416576 0.444210
O O4 0.500000 0.409882 0.000000
O O5 0.129164 0.146328 0.489617
O O6 0.164526 0.108837 0.566410
O O7 0.262114 0.000000 0.409055
O O8 0.723269 0.114816 0.025469
O O9 0.085601 0.366774 0.628442
O O10 0.103194 0.236712 0.670582
O O11 0.530995 0.262550 0.112107
O O12 0.703811 0.356940 0.045467
O O13 0.000000 0.795959 0.500000
O O14 0.500000 0.883200 0.500000
O O15 0.394704 0.873734 0.476239
O O16 0.416711 0.000000 0.509800
O O17 0.000000 0.918392 0.000000
O O18 0.437847 0.500000 0.304337
#
# Coordination Sequence:
#
# PCOD9155204 Si02
#       7
#     4   4   4   4   4   4   4
#     4  10  19  31  47  66  91 127 164 202 264 330
#     4  11  22  34  52  76 101 139 184 225 268 300
#     4  10  21  36  54  75  98 138 177 206 260 319
#     4   9  19  34  52  69  97 135 182 229 267 308
#     4  10  20  33  53  83 114 141 168 204 252 298
#     4  11  21  34  51  74 102 125 162 219 264 309
#     4  11  21  38  57  75 109 144 177 211 248 315
#
# _framework density 17.773983000000001
#
# number of rings (size 3 to 8) (size 9 to 14) (size 15 to 20)
#    0.000    1.714    0.000    7.714    0.000    4.286 
#    0.000    0.000    0.000    5.143    0.000    0.000 
#    0.000   11.429    0.000    0.000    0.000    0.000 
#
# Total GULP energy -156038.507662 kJ/mol
# GULP energy per Si atom -5572.803845 kJ/mol
# Density = 1.773353 g / cm^3
# Si number density = 17.773983 Si / 1000 Ang^3
#
#
#
# Elastic Constant Matrix: (Units=GPa)
#
#
# Indices 1 2 3 4 5 6 
#
# 1 55.5918 29.8531 -4.5289 0.0000 -24.6655 0.0000
# 2 29.8531 146.1606 4.4647 0.0000 -8.5578 0.0000
# 3 -4.5289 4.4647 26.5886 0.0000 -2.9922 0.0000
# 4 0.0000 0.0000 0.0000 23.9052 0.0000 -7.4407
# 5 -24.6655 -8.5578 -2.9922 0.0000 22.5810 0.0000
# 6 0.0000 0.0000 0.0000 -7.4407 0.0000 32.7679
#
#
#
# Elastic Compliance Matrix: (Units=1/GPa)
#
#
# Indices 1 2 3 4 5 6 
#
# 1 0.043318 -0.006535 0.013727 0.000000 0.046659 0.000000
# 2 -0.006535 0.008004 -0.002963 0.000000 -0.004498 0.000000
# 3 0.013727 -0.002963 0.042643 0.000000 0.019521 0.000000
# 4 0.000000 0.000000 0.000000 0.045013 0.000000 0.010221
# 5 0.046659 -0.004498 0.019521 0.000000 0.096133 0.000000
# 6 0.000000 0.000000 0.000000 0.010221 0.000000 0.032839
#
#
# Mechanical properties :
#
#
# Convention : Reuss Voigt Hill
#
# Bulk Modulus (GPa) = 9.76361 31.99098 20.87729
# Shear Modulus (GPa) = 17.02803 29.08764 23.05783
#
# Velocity S-wave (km/s) = 3.09857 4.04979 3.60568
# Velocity P-wave (km/s) = 4.27862 6.31709 5.39501
#
# Compressibility (1/GPa) = 0.10242116
#
# Stress axis : x y z
#
# Youngs Moduli (GPa) = 23.08507 124.94158 23.45070
#
# Poissons Ratio (x) = 0.81650 -0.32190
# Poissons Ratio (y) = 0.15086 0.06949
# Poissons Ratio (z) = -0.31688 0.37023
#
# Static dielectric constant tensor:
#      x y z
#    x 1.616780 0.000000 0.031710 
#    y 0.000000 1.629650 0.000000 
#    z 0.031710 0.000000 1.677220 
# 
# From -- ./inp_files/90486.got.cif
#   From: 2010.05.17/outbox.ucp.g08.bks.cvg/sg10_46_cif.got.tgz:90486.got - 2010.06.11 11:31:16.
