data_PCOD9155714
_publ_section_title
;
Structure prediction by ZEFSAII (Michael W. Deem and Ramdas Pophale) SiO2 
 PCOD9155714
Probable space group: P 2/M
;
_chemical_formula_sum "Si O2"
_cell_formula_units_Z 28
_cell_length_a 27.000000
_cell_length_b 9.000000
_cell_length_c 9.000000
_cell_angle_alpha 90.000000
_cell_angle_beta 140.000000
_cell_angle_gamma 90.000000
_cell_volume 1405.776502
_symmetry_space_group_name_H-M "P 2/M"
_symmetry_group_IT_number 10
_symmetry_cell_setting 'monoclinic'
loop_
_space_group_symop_operation_xyz
x,y,z
-x,y,-z
-x,-y,-z
x,-y,z
loop_
_atom_site_type_symbol
_atom_site_label
_atom_site_fract_x
_atom_site_fract_y
_atom_site_fract_z
Si Si1 0.101022 0.674613 0.019526
Si Si2 0.522774 0.818720 0.219874
Si Si3 0.202126 0.178334 0.470386
Si Si4 0.637555 0.180388 0.003418
Si Si5 0.673154 0.819824 0.749090
Si Si6 0.855305 0.177773 0.163876
Si Si7 0.924033 0.322456 0.611958
O O1 0.115659 0.500000 0.080767
O O2 0.172423 0.777539 0.239188
O O3 0.099847 0.716077 0.844760
O O4 0.012532 0.708697 0.862699
O O5 0.605745 0.769692 0.478688
O O6 0.525589 0.000000 0.227082
O O7 0.500000 0.773805 0.000000
O O8 0.447558 0.772177 0.141389
O O9 0.288766 0.219531 0.722442
O O10 0.138352 0.276457 0.408546
O O11 0.193861 0.000000 0.475203
O O12 0.636666 0.000000 0.002622
O O13 0.651658 0.228779 0.866892
O O14 0.670247 0.000000 0.738754
O O15 0.763813 0.783679 0.941854
O O16 0.893388 0.220701 0.407695
O O17 0.863568 0.000000 0.156732
O O18 0.919933 0.500000 0.571638
#
# Coordination Sequence:
#
# PCOD9155714 Si02
#       7
#     4   4   4   4   4   4   4
#     4  11  25  41  57  82 117 158 198 239 295 355
#     4   9  17  27  47  79 116 153 184 223 283 345
#     4  11  22  37  60  89 118 150 195 248 295 340
#     4   9  17  31  50  78 115 150 186 232 285 339
#     4   9  17  31  50  78 115 150 186 232 285 339
#     4  11  22  37  60  89 118 150 195 248 295 340
#     4  11  23  41  61  82 115 156 198 241 289 355
#
# _framework density 19.917818
#
# number of rings (size 3 to 8) (size 9 to 14) (size 15 to 20)
#    0.000    1.857    1.429    3.000    2.000    7.429 
#    0.000    0.000    0.000    0.000    0.000    6.000 
#    0.000    0.000    0.000    0.000    0.000    0.000 
#
# Total GULP energy -155980.740327 kJ/mol
# GULP energy per Si atom -5570.740726 kJ/mol
# Density = 1.987248 g / cm^3
# Si number density = 19.917818 Si / 1000 Ang^3
#
#
#
# Elastic Constant Matrix: (Units=GPa)
#
#
# Indices 1 2 3 4 5 6 
#
# 1 66.4246 4.9239 12.4681 0.0000 3.1633 0.0000
# 2 4.9239 39.9403 22.4119 0.0000 11.9181 0.0000
# 3 12.4681 22.4119 132.9961 0.0000 18.2592 0.0000
# 4 0.0000 0.0000 0.0000 22.2014 0.0000 -4.5013
# 5 3.1633 11.9181 18.2592 0.0000 29.9766 0.0000
# 6 0.0000 0.0000 0.0000 -4.5013 0.0000 12.7676
#
#
#
# Elastic Compliance Matrix: (Units=1/GPa)
#
#
# Indices 1 2 3 4 5 6 
#
# 1 0.015382 -0.001088 -0.001195 0.000000 -0.000463 0.000000
# 2 -0.001088 0.030091 -0.003647 0.000000 -0.009627 0.000000
# 3 -0.001195 -0.003647 0.008762 0.000000 -0.003761 0.000000
# 4 0.000000 0.000000 0.000000 0.048510 0.000000 0.017102
# 5 -0.000463 -0.009627 -0.003761 0.000000 0.039527 0.000000
# 6 0.000000 0.000000 0.000000 0.017102 0.000000 0.084353
#
#
# Mechanical properties :
#
#
# Convention : Reuss Voigt Hill
#
# Bulk Modulus (GPa) = 23.59892 35.44094 29.51993
# Shear Modulus (GPa) = 19.79352 26.29294 23.04323
#
# Velocity S-wave (km/s) = 3.15582 3.63722 3.40504
# Velocity P-wave (km/s) = 5.01525 5.95579 5.50564
#
# Compressibility (1/GPa) = 0.04237481
#
# Stress axis : x y z
#
# Youngs Moduli (GPa) = 65.01250 33.23289 114.12923
#
# Poissons Ratio (x) = 0.03614 0.13641
# Poissons Ratio (y) = 0.07070 0.41623
# Poissons Ratio (z) = 0.07770 0.12120
#
# Static dielectric constant tensor:
#      x y z
#    x 1.782230 0.000000 -0.049100 
#    y 0.000000 1.646570 0.000000 
#    z -0.049100 0.000000 1.714540 
# 
# From -- ./inp_files/31513.got.cif
#   From: 2010.05.17/outbox.ucp.g08.bks.cvg/sg10_16_cif.got.tgz:31513.got - 2010.06.11 11:31:16.
