data_PCOD9155640
_publ_section_title
;
Structure prediction by ZEFSAII (Michael W. Deem and Ramdas Pophale) SiO2 
 PCOD9155640
Probable space group: P 2/M
;
_chemical_formula_sum "Si O2"
_cell_formula_units_Z 28
_cell_length_a 15.000000
_cell_length_b 9.000000
_cell_length_c 12.000000
_cell_angle_alpha 90.000000
_cell_angle_beta 60.000000
_cell_angle_gamma 90.000000
_cell_volume 1402.961154
_symmetry_space_group_name_H-M "P 2/M"
_symmetry_group_IT_number 10
_symmetry_cell_setting 'monoclinic'
loop_
_space_group_symop_operation_xyz
x,y,z
-x,y,-z
-x,-y,-z
x,-y,z
loop_
_atom_site_type_symbol
_atom_site_label
_atom_site_fract_x
_atom_site_fract_y
_atom_site_fract_z
Si Si1 0.465768 0.174064 0.146871
Si Si2 0.063848 0.323269 0.287017
Si Si3 0.479181 0.328857 0.643630
Si Si4 0.769094 0.170235 0.661836
Si Si5 0.233938 0.669469 0.792922
Si Si6 0.829970 0.322998 0.416596
Si Si7 0.911916 0.173963 0.964665
O O1 0.492377 0.250766 0.252793
O O2 0.342441 0.178395 0.214262
O O3 0.498982 0.000000 0.134755
O O4 0.500000 0.229877 0.000000
O O5 0.071166 0.500000 0.289705
O O6 0.145915 0.253543 0.318599
O O7 0.081850 0.268415 0.150547
O O8 0.945168 0.281590 0.382443
O O9 0.500000 0.272903 0.500000
O O10 0.520575 0.500000 0.621146
O O11 0.355857 0.333949 0.720148
O O12 0.757045 0.241312 0.547658
O O13 0.800740 0.000000 0.630745
O O14 0.195680 0.500000 0.838714
O O15 0.192747 0.714673 0.696804
O O16 0.192593 0.783903 0.908575
O O17 0.818623 0.500000 0.433458
O O18 0.920657 0.000000 0.932906
O O19 0.000000 0.212576 0.000000
#
# Coordination Sequence:
#
# PCOD9155640 Si02
#       7
#     4   4   4   4   4   4   4
#     4  10  24  45  64  87 125 168 210 259 317 375
#     4  11  23  39  62  88 120 161 203 246 299 362
#     4  10  22  41  67  97 126 158 207 266 316 368
#     4  11  24  40  61  88 121 160 203 253 305 359
#     4  10  21  38  62  91 123 160 201 248 304 362
#     4  10  21  39  62  89 123 162 199 242 299 364
#     4  11  23  38  58  87 123 161 200 247 300 356
#
# _framework density 19.957787
#
# number of rings (size 3 to 8) (size 9 to 14) (size 15 to 20)
#    0.000    1.571    1.429    2.571    2.000    7.429 
#    0.000    0.000    0.000    0.000    0.000    0.000 
#    0.000    0.000    0.000    0.000    0.000    0.000 
#
# Total GULP energy -156090.981308 kJ/mol
# GULP energy per Si atom -5574.677904 kJ/mol
# Density = 1.991236 g / cm^3
# Si number density = 19.957787 Si / 1000 Ang^3
#
#
#
# Elastic Constant Matrix: (Units=GPa)
#
#
# Indices 1 2 3 4 5 6 
#
# 1 61.6655 11.5074 14.1468 0.0000 10.6289 0.0000
# 2 11.5074 -1.1587 20.4780 0.0000 -1.0023 0.0000
# 3 14.1468 20.4780 107.5424 0.0000 8.9728 0.0000
# 4 0.0000 0.0000 0.0000 38.9541 0.0000 16.2890
# 5 10.6289 -1.0023 8.9728 0.0000 31.4004 0.0000
# 6 0.0000 0.0000 0.0000 16.2890 0.0000 36.6251
#
#
#
# Elastic Compliance Matrix: (Units=1/GPa)
#
#
# Indices 1 2 3 4 5 6 
#
# 1 0.013429 0.024459 -0.006259 0.000000 -0.001976 0.000000
# 2 0.024459 -0.144209 0.025936 0.000000 -0.020293 0.000000
# 3 -0.006259 0.025936 0.005058 0.000000 0.001501 0.000000
# 4 0.000000 0.000000 0.000000 0.031536 0.000000 -0.014026
# 5 -0.001976 -0.020293 0.001501 0.000000 0.031439 0.000000
# 6 0.000000 0.000000 0.000000 -0.014026 0.000000 0.033542
#
#
# Mechanical properties :
#
#
# Convention : Reuss Voigt Hill
#
# Bulk Modulus (GPa) = -26.70135 28.92372 1.11119
# Shear Modulus (GPa) = -38.47342 29.52372 -4.47485
#
# Velocity S-wave (km/s) = -4.39537 3.85035 -1.49901
# Velocity P-wave (km/s) = 6.25835 5.85584 1.56143
#
# Compressibility (1/GPa) = -0.03745129
#
# Stress axis : x y z
#
# Youngs Moduli (GPa) = 74.46663 -6.93437 197.70048
#
# Poissons Ratio (x) = 0.16961 1.23740
# Poissons Ratio (y) = -1.82136 -5.12749
# Poissons Ratio (z) = 0.46609 0.17985
#
# Static dielectric constant tensor:
#      x y z
#    x 1.720630 0.000000 -0.030980 
#    y 0.000000 1.697490 0.000000 
#    z -0.030980 0.000000 1.741650 
# 
# From -- ./inp_files/49580.got.cif
#   From: 2010.05.17/outbox.ucp.g08.bks.cvg/sg10_25_cif.got.tgz:49580.got - 2010.06.11 11:31:16.
