data_PCOD9155734
_publ_section_title
;
Structure prediction by ZEFSAII (Michael W. Deem and Ramdas Pophale) SiO2 
 PCOD9155734
Probable space group: P 21/M
;
_chemical_formula_sum "Si O2"
_cell_formula_units_Z 24
_cell_length_a 9.318333
_cell_length_b 14.449418
_cell_length_c 11.203057
_cell_angle_alpha 90.000000
_cell_angle_beta 64.420040
_cell_angle_gamma 90.000000
_cell_volume 1360.579013
_symmetry_space_group_name_H-M "P 21/M"
_symmetry_group_IT_number 11
_symmetry_cell_setting 'monoclinic'
loop_
_space_group_symop_operation_xyz
x,y,z
-x,1/2+y,-z
-x,-y,-z
x,1/2-y,z
loop_
_atom_site_type_symbol
_atom_site_label
_atom_site_fract_x
_atom_site_fract_y
_atom_site_fract_z
Si Si1 0.423927 0.400222 0.498383
Si Si2 0.494492 0.027287 0.139290
Si Si3 0.125228 0.861599 0.606942
Si Si4 0.571409 0.146900 0.671186
Si Si5 0.782160 0.637885 0.636879
Si Si6 0.293989 0.855547 0.776996
O O1 0.500000 0.500000 0.500000
O O2 0.430578 0.352181 0.623316
O O3 0.263984 0.398303 0.479194
O O4 0.548961 0.352221 0.363900
O O5 0.348462 0.095333 0.226243
O O6 0.652115 0.078455 0.134689
O O7 0.464481 0.933548 0.224024
O O8 0.500000 0.000000 0.000000
O O9 0.119253 0.750000 0.621757
O O10 0.269167 0.877020 0.462175
O O11 0.166802 0.894600 0.726484
O O12 0.957060 0.892144 0.615532
O O13 0.590107 0.250000 0.715305
O O14 0.774571 0.750000 0.638736
O O15 0.256030 0.750000 0.827660
#
# Coordination Sequence:
#
# PCOD9155734 Si02
#       6
#     4   4   4   4   4   4
#     4  10  15  28  49  76 102 124 158 205 255 305
#     4  11  22  34  49  74 101 138 183 209 236 294
#     4   8  17  32  54  81 102 126 163 207 266 316
#     4  10  19  33  50  73 105 133 161 208 262 305
#     4  10  19  34  55  79 104 130 165 211 255 306
#     4   9  17  33  53  72 100 134 167 209 256 303
#
# _framework density 17.639548000000001
#
# number of rings (size 3 to 8) (size 9 to 14) (size 15 to 20)
#    0.000    2.333    3.333    4.000    0.000    2.000 
#    0.000    0.833    0.000    0.000    0.000    4.667 
#    0.000    0.000    0.000    0.000    0.000    0.000 
#
# Total GULP energy -133614.095865 kJ/mol
# GULP energy per Si atom -5567.253994 kJ/mol
# Density = 1.759940 g / cm^3
# Si number density = 17.639548 Si / 1000 Ang^3
#
#
#
# Elastic Constant Matrix: (Units=GPa)
#
#
# Indices 1 2 3 4 5 6 
#
# 1 159.7415 37.8656 48.4728 0.0000 30.9329 0.0000
# 2 37.8656 110.5019 32.8450 0.0000 17.2089 0.0000
# 3 48.4728 32.8450 81.2675 0.0000 33.6223 0.0000
# 4 0.0000 0.0000 0.0000 8.7945 0.0000 4.4168
# 5 30.9329 17.2089 33.6223 0.0000 23.6010 0.0000
# 6 0.0000 0.0000 0.0000 4.4168 0.0000 22.3634
#
#
#
# Elastic Compliance Matrix: (Units=1/GPa)
#
#
# Indices 1 2 3 4 5 6 
#
# 1 0.008583 -0.001272 -0.000816 0.000000 -0.009160 0.000000
# 2 -0.001272 0.010619 -0.002483 0.000000 -0.002539 0.000000
# 3 -0.000816 -0.002483 0.030696 0.000000 -0.040850 0.000000
# 4 0.000000 0.000000 0.000000 0.126228 0.000000 -0.024931
# 5 -0.009160 -0.002539 -0.040850 0.000000 0.114423 0.000000
# 6 0.000000 0.000000 0.000000 -0.024931 0.000000 0.049640
#
#
# Mechanical properties :
#
#
# Convention : Reuss Voigt Hill
#
# Bulk Modulus (GPa) = 24.53593 65.54194 45.03893
# Shear Modulus (GPa) = 13.77735 26.44028 20.10881
#
# Velocity S-wave (km/s) = 2.79776 3.87579 3.38003
# Velocity P-wave (km/s) = 4.93725 7.56742 6.38914
#
# Compressibility (1/GPa) = 0.04075656
#
# Stress axis : x y z
#
# Youngs Moduli (GPa) = 116.51107 94.17239 32.57806
#
# Poissons Ratio (x) = 0.11980 0.02657
# Poissons Ratio (y) = 0.14822 0.08088
# Poissons Ratio (z) = 0.09503 0.23379
#
# Static dielectric constant tensor:
#      x y z
#    x 1.681880 0.000000 0.025360 
#    y 0.000000 1.683210 0.000000 
#    z 0.025360 0.000000 1.571110 
# 
# From -- ./inp_files/18281.got.cif
#   From: 2010.05.17/outbox.cif.g08.bks.cpg/sg11_10_cif.got.tgz:18281.got - 2010.06.03 12:22:45.
