data_PCOD9155350
_publ_section_title
;
Structure prediction by ZEFSAII (Michael W. Deem and Ramdas Pophale) SiO2 
 PCOD9155350
Probable space group: P 2/M
;
_chemical_formula_sum "Si O2"
_cell_formula_units_Z 28
_cell_length_a 12.000000
_cell_length_b 9.000000
_cell_length_c 15.000000
_cell_angle_alpha 90.000000
_cell_angle_beta 120.000000
_cell_angle_gamma 90.000000
_cell_volume 1402.961154
_symmetry_space_group_name_H-M "P 2/M"
_symmetry_group_IT_number 10
_symmetry_cell_setting 'monoclinic'
loop_
_space_group_symop_operation_xyz
x,y,z
-x,y,-z
-x,-y,-z
x,-y,z
loop_
_atom_site_type_symbol
_atom_site_label
_atom_site_fract_x
_atom_site_fract_y
_atom_site_fract_z
Si Si1 0.501304 0.675413 0.898138
Si Si2 0.760699 0.180546 0.549149
Si Si3 0.234963 0.676078 0.261352
Si Si4 0.265656 0.174211 0.089717
Si Si5 0.032851 0.827631 0.864744
Si Si6 0.310696 0.180341 0.676524
Si Si7 0.941364 0.824806 0.326901
O O1 0.472841 0.500000 0.886147
O O2 0.645118 0.713192 0.927196
O O3 0.411987 0.753885 0.787790
O O4 0.500000 0.730117 0.000000
O O5 0.720122 0.259931 0.624981
O O6 0.684540 0.217390 0.427394
O O7 0.912064 0.226772 0.600049
O O8 0.756927 0.000000 0.559146
O O9 0.260392 0.500000 0.263494
O O10 0.284577 0.774825 0.198983
O O11 0.082566 0.711218 0.188297
O O12 0.017832 0.000000 0.152837
O O13 0.125808 0.189054 0.986585
O O14 0.098669 0.811938 0.793506
O O15 0.699293 0.000000 0.906102
O O16 0.170701 0.234458 0.655355
O O17 0.317193 0.000000 0.684786
O O18 0.948183 0.000000 0.349409
#
# Coordination Sequence:
#
# PCOD9155350 Si02
#       7
#     4   4   4   4   4   4   4
#     4  11  25  42  58  81 116 150 179 220 275 333
#     4   9  18  34  56  83 114 146 186 234 276 320
#     4  11  22  35  54  82 117 151 181 221 278 340
#     4  11  22  38  61  83 106 143 192 238 275 319
#     4   9  18  33  55  83 113 145 183 228 275 325
#     4  10  19  34  59  85 109 145 192 236 275 319
#     4   8  14  28  53  84 113 140 176 224 274 321
#
# _framework density 19.957787
#
# number of rings (size 3 to 8) (size 9 to 14) (size 15 to 20)
#    0.000    2.143    0.000    4.714    0.000    7.429 
#    0.000    5.000    0.000    8.571    0.000    0.000 
#    0.000    0.000    0.000    0.000    0.000    0.000 
#
# Total GULP energy -156053.350931 kJ/mol
# GULP energy per Si atom -5573.333962 kJ/mol
# Density = 1.991236 g / cm^3
# Si number density = 19.957787 Si / 1000 Ang^3
#
#
#
# Elastic Constant Matrix: (Units=GPa)
#
#
# Indices 1 2 3 4 5 6 
#
# 1 18.1589 -14.4075 7.9070 0.0000 -12.7391 0.0000
# 2 -14.4075 32.2961 32.2665 0.0000 -4.4255 0.0000
# 3 7.9070 32.2665 149.2639 0.0000 -15.8974 0.0000
# 4 0.0000 0.0000 0.0000 28.9087 0.0000 -0.2297
# 5 -12.7391 -4.4255 -15.8974 0.0000 24.3364 0.0000
# 6 0.0000 0.0000 0.0000 -0.2297 0.0000 15.8735
#
#
#
# Elastic Compliance Matrix: (Units=1/GPa)
#
#
# Indices 1 2 3 4 5 6 
#
# 1 1.851017 1.218227 -0.252152 0.000000 1.025749 0.000000
# 2 1.218227 0.841323 -0.174319 0.000000 0.676813 0.000000
# 3 -0.252152 -0.174319 0.043319 0.000000 -0.135393 0.000000
# 4 0.000000 0.000000 0.000000 0.034596 0.000000 0.000501
# 5 1.025749 0.676813 -0.135393 0.000000 0.612662 0.000000
# 6 0.000000 0.000000 0.000000 0.000501 0.000000 0.063005
#
#
# Mechanical properties :
#
#
# Convention : Reuss Voigt Hill
#
# Bulk Modulus (GPa) = 0.23153 27.91678 14.07415
# Shear Modulus (GPa) = 1.51417 25.42057 13.46737
#
# Velocity S-wave (km/s) = 0.87197 3.57279 2.60050
# Velocity P-wave (km/s) = 1.06303 5.57118 4.01049
#
# Compressibility (1/GPa) = 4.31917129
#
# Stress axis : x y z
#
# Youngs Moduli (GPa) = 0.54024 1.18860 23.08431
#
# Poissons Ratio (x) = -1.44799 5.82075
# Poissons Ratio (y) = -0.65814 4.02403
# Poissons Ratio (z) = 0.13622 0.20720
#
# Static dielectric constant tensor:
#      x y z
#    x 1.823430 0.000000 -0.037020 
#    y 0.000000 1.665780 0.000000 
#    z -0.037020 0.000000 1.710760 
# 
# From -- ./inp_files/63902.got.cif
#   From: 2010.05.17/outbox.ucp.g08.bks.cvg/sg10_32_cif.got.tgz:63902.got - 2010.06.11 11:31:16.
