data_PCOD9155831
_publ_section_title
;
Structure prediction by ZEFSAII (Michael W. Deem and Ramdas Pophale) SiO2 
 PCOD9155831
Probable space group: P 21/M
;
_chemical_formula_sum "Si O2"
_cell_formula_units_Z 24
_cell_length_a 7.863200
_cell_length_b 14.762169
_cell_length_c 14.743935
_cell_angle_alpha 90.000000
_cell_angle_beta 37.205311
_cell_angle_gamma 90.000000
_cell_volume 1034.864385
_symmetry_space_group_name_H-M "P 21/M"
_symmetry_group_IT_number 11
_symmetry_cell_setting 'monoclinic'
loop_
_space_group_symop_operation_xyz
x,y,z
-x,1/2+y,-z
-x,-y,-z
x,1/2-y,z
loop_
_atom_site_type_symbol
_atom_site_label
_atom_site_fract_x
_atom_site_fract_y
_atom_site_fract_z
Si Si1 0.315304 0.250000 0.416249
Si Si2 0.957334 0.066941 0.167094
Si Si3 0.714203 0.067819 0.460177
Si Si4 0.970670 0.250000 0.091771
Si Si5 0.780368 0.250000 0.966762
Si Si6 0.354640 0.250000 0.610808
Si Si7 0.430839 0.554675 0.938841
Si Si8 0.323261 0.446874 0.357740
O O1 0.260975 0.250000 0.545685
O O2 0.210556 0.343504 0.416021
O O3 0.656518 0.250000 0.268161
O O4 0.943249 0.078003 0.282533
O O5 0.641958 0.062950 0.262994
O O6 0.106911 0.156674 0.064913
O O7 0.108970 0.978745 0.064260
O O8 0.546105 0.161121 0.547544
O O9 0.500000 0.000000 0.500000
O O10 0.804552 0.019877 0.516381
O O11 0.906334 0.250000 0.014005
O O12 0.059046 0.250000 0.787768
O O13 0.589291 0.161405 0.038297
O O14 0.612054 0.529677 0.773867
O O15 0.500000 0.500000 0.000000
#
# Coordination Sequence:
#
# PCOD9155831 Si02
#       8
#     2   4   4   2   2   2   4   4
#     4  10  16  34  58  87 117 149 190 250 300 360
#     4  10  19  36  62  91 120 151 203 249 299 353
#     4  10  18  31  56  91 120 144 188 260 305 344
#     4  10  18  35  62  93 120 154 200 251 298 364
#     4  12  24  39  61  89 123 160 208 252 317 356
#     4  12  20  32  59  99 124 145 196 263 319 352
#     4  12  26  41  59  87 129 170 206 247 299 372
#     4  10  19  36  60  88 119 149 205 249 302 355
#
# _framework density 23.191445000000002
#
# number of rings (size 3 to 8) (size 9 to 14) (size 15 to 20)
#    0.000    1.333    8.333    2.500    2.333    0.667 
#    0.000    1.667    0.000    0.000    0.000    0.000 
#    0.000    0.000    0.000    0.000    0.000    0.000 
#
# Total GULP energy -134070.092543 kJ/mol
# GULP energy per Si atom -5586.253856 kJ/mol
# Density = 2.313866 g / cm^3
# Si number density = 23.191445 Si / 1000 Ang^3
#
#
#
# Elastic Constant Matrix: (Units=GPa)
#
#
# Indices 1 2 3 4 5 6 
#
# 1 86.7087 32.8941 30.5501 0.0000 43.7327 0.0000
# 2 32.8941 171.2702 34.2049 0.0000 15.8521 0.0000
# 3 30.5501 34.2049 172.0606 0.0000 46.2660 0.0000
# 4 0.0000 0.0000 0.0000 21.8776 0.0000 10.1755
# 5 43.7327 15.8521 46.2660 0.0000 50.8384 0.0000
# 6 0.0000 0.0000 0.0000 10.1755 0.0000 33.3372
#
#
#
# Elastic Compliance Matrix: (Units=1/GPa)
#
#
# Indices 1 2 3 4 5 6 
#
# 1 0.021827 -0.002762 0.001974 0.000000 -0.019711 0.000000
# 2 -0.002762 0.006473 -0.001182 0.000000 0.001433 0.000000
# 3 0.001974 -0.001182 0.008015 0.000000 -0.008624 0.000000
# 4 0.000000 0.000000 0.000000 0.053272 0.000000 -0.016260
# 5 -0.019711 0.001433 -0.008624 0.000000 0.044028 0.000000
# 6 0.000000 0.000000 0.000000 -0.016260 0.000000 0.034960
#
#
# Mechanical properties :
#
#
# Convention : Reuss Voigt Hill
#
# Bulk Modulus (GPa) = 30.88795 69.48196 50.18496
# Shear Modulus (GPa) = 27.27703 43.36999 35.32351
#
# Velocity S-wave (km/s) = 3.43325 4.32914 3.90696
# Velocity P-wave (km/s) = 5.39109 7.41713 6.48374
#
# Compressibility (1/GPa) = 0.03237509
#
# Stress axis : x y z
#
# Youngs Moduli (GPa) = 45.81537 154.49907 124.76231
#
# Poissons Ratio (x) = 0.42670 -0.24626
# Poissons Ratio (y) = 0.12654 0.14743
# Poissons Ratio (z) = -0.09043 0.18256
#
# Static dielectric constant tensor:
#      x y z
#    x 2.002980 0.000000 -0.080280 
#    y 0.000000 1.896020 0.000000 
#    z -0.080280 0.000000 1.863690 
# 
# From -- ./inp_files/47544.got.cif
#   From: 2010.05.17/outbox.cif.g08.bks.cpg/sg11_24_cif.got.tgz:47544.got - 2010.06.03 12:22:45.
