data_PCOD9155045
_publ_section_title
;
Structure prediction by ZEFSAII (Michael W. Deem and Ramdas Pophale) SiO2 
 PCOD9155045
Probable space group: P 2/M
;
_chemical_formula_sum "Si O2"
_cell_formula_units_Z 32
_cell_length_a 20.682490
_cell_length_b 7.383424
_cell_length_c 10.031234
_cell_angle_alpha 90.000000
_cell_angle_beta 96.999754
_cell_angle_gamma 90.000000
_cell_volume 1520.428256
_symmetry_space_group_name_H-M "P 2/M"
_symmetry_group_IT_number 10
_symmetry_cell_setting 'monoclinic'
loop_
_space_group_symop_operation_xyz
x,y,z
-x,y,-z
-x,-y,-z
x,-y,z
loop_
_atom_site_type_symbol
_atom_site_label
_atom_site_fract_x
_atom_site_fract_y
_atom_site_fract_z
Si Si1 0.542671 0.778553 0.387900
Si Si2 0.060201 0.720999 0.110407
Si Si3 0.458233 0.220704 0.116917
Si Si4 0.173700 0.286657 0.946272
Si Si5 0.322268 0.782031 0.983821
Si Si6 0.060169 0.720965 0.419753
Si Si7 0.172981 0.287202 0.641884
Si Si8 0.321403 0.781860 0.677448
O O1 0.500000 0.717927 0.500000
O O2 0.500727 0.720976 0.251208
O O3 0.617517 0.719238 0.394361
O O4 0.544545 0.000000 0.390452
O O5 0.060289 0.500000 0.115689
O O6 0.055827 0.781010 0.263991
O O7 0.124709 0.782622 0.046715
O O8 0.000000 0.773302 0.000000
O O9 0.456557 0.000000 0.119554
O O10 0.500000 0.273700 0.000000
O O11 0.383554 0.281537 0.085560
O O12 0.159710 0.500000 0.932230
O O13 0.249182 0.267695 0.005502
O O14 0.166030 0.212628 0.792226
O O15 0.331524 0.720720 0.833005
O O16 0.324542 0.000000 0.982804
O O17 0.060310 0.500000 0.414177
O O18 0.124481 0.782830 0.516334
O O19 0.000000 0.773048 0.500000
O O20 0.158009 0.500000 0.649212
O O21 0.248433 0.270178 0.620128
O O22 0.322808 0.000000 0.679324
#
# Coordination Sequence:
#
# PCOD9155045 Si02
#       8
#     4   4   4   4   4   4   4   4
#     4   9  16  26  41  63  87 110 143 188 228 256
#     4   9  16  27  45  68  92 117 146 183 222 256
#     4   9  14  24  43  63  82 109 148 187 219 255
#     4   9  17  29  45  66  93 119 144 178 222 264
#     4   9  16  27  46  68  88 115 150 184 218 262
#     4   9  16  27  45  68  91 116 150 185 215 254
#     4   9  17  29  46  67  90 118 148 179 216 262
#     4   9  16  28  46  66  89 117 148 182 221 264
#
# _framework density 21.046700999999999
#
# number of rings (size 3 to 8) (size 9 to 14) (size 15 to 20)
#    0.000    3.000    1.250    0.750    0.000    3.000 
#    2.250    0.000    0.000    2.250    0.000    0.000 
#    0.000    0.000    0.000    0.000    0.000    0.000 
#
# Total GULP energy -178447.545457 kJ/mol
# GULP energy per Si atom -5576.485796 kJ/mol
# Density = 2.099880 g / cm^3
# Si number density = 21.046701 Si / 1000 Ang^3
#
#
#
# Elastic Constant Matrix: (Units=GPa)
#
#
# Indices 1 2 3 4 5 6 
#
# 1 189.1951 -3.1651 118.8213 0.0000 -6.3690 0.0000
# 2 -3.1651 70.3114 4.7235 0.0000 -0.8967 0.0000
# 3 118.8213 4.7235 168.2013 0.0000 -4.8296 0.0000
# 4 0.0000 0.0000 0.0000 -10.1189 0.0000 1.8870
# 5 -6.3690 -0.8967 -4.8296 0.0000 35.9090 0.0000
# 6 0.0000 0.0000 0.0000 1.8870 0.0000 17.6576
#
#
#
# Elastic Compliance Matrix: (Units=1/GPa)
#
#
# Indices 1 2 3 4 5 6 
#
# 1 0.009579 0.000896 -0.006768 0.000000 0.000811 0.000000
# 2 0.000896 0.014336 -0.001025 0.000000 0.000379 0.000000
# 3 -0.006768 -0.001025 0.010762 0.000000 0.000221 0.000000
# 4 0.000000 0.000000 0.000000 -0.096894 0.000000 0.010355
# 5 0.000811 0.000379 0.000221 0.000000 0.028031 0.000000
# 6 0.000000 0.000000 0.000000 0.010355 0.000000 0.055526
#
#
# Mechanical properties :
#
#
# Convention : Reuss Voigt Hill
#
# Bulk Modulus (GPa) = 47.88634 74.27413 61.08024
# Shear Modulus (GPa) = 118.77835 29.17810 73.97822
#
# Velocity S-wave (km/s) = 7.52051 3.72741 5.93514
# Velocity P-wave (km/s) = 9.91023 7.34109 8.72079
#
# Compressibility (1/GPa) = 0.02088278
#
# Stress axis : x y z
#
# Youngs Moduli (GPa) = 104.39836 69.75219 92.92121
#
# Poissons Ratio (x) = -0.06251 0.62894
# Poissons Ratio (y) = -0.09357 0.09523
# Poissons Ratio (z) = 0.70662 0.07148
#
# Static dielectric constant tensor:
#      x y z
#    x 1.740570 0.000000 0.002070 
#    y 0.000000 1.832780 0.000000 
#    z 0.002070 0.000000 1.713200 
# 
# From -- ./inp_files/32196.got.cif
#   From: 2010.05.17/outbox.cif.g08.bks.cpg/sg10_17_cif.got.tgz:32196.got - 2010.06.03 11:33:40.
