data_PCOD9155829
_publ_section_title
;
Structure prediction by ZEFSAII (Michael W. Deem and Ramdas Pophale) SiO2 
 PCOD9155829
Probable space group: P 21/M
;
_chemical_formula_sum "Si O2"
_cell_formula_units_Z 26
_cell_length_a 12.801512
_cell_length_b 22.922125
_cell_length_c 7.501592
_cell_angle_alpha 90.000000
_cell_angle_beta 27.270016
_cell_angle_gamma 90.000000
_cell_volume 1008.579044
_symmetry_space_group_name_H-M "P 21/M"
_symmetry_group_IT_number 11
_symmetry_cell_setting 'monoclinic'
loop_
_space_group_symop_operation_xyz
x,y,z
-x,1/2+y,-z
-x,-y,-z
x,1/2-y,z
loop_
_atom_site_type_symbol
_atom_site_label
_atom_site_fract_x
_atom_site_fract_y
_atom_site_fract_z
Si Si1 0.935766 0.250000 0.869838
Si Si2 0.886730 0.127214 0.777072
Si Si3 0.732377 0.879782 0.310539
Si Si4 0.335763 0.250000 0.994256
Si Si5 0.905712 0.964256 0.310360
Si Si6 0.416548 0.122623 0.843663
Si Si7 0.769817 0.415513 0.592866
Si Si8 0.816729 0.750000 0.165935
O O1 0.841483 0.189287 0.936276
O O2 0.964127 0.250000 0.038915
O O3 0.190855 0.250000 0.394346
O O4 0.897803 0.073745 0.897397
O O5 0.737626 0.117578 0.828246
O O6 0.152389 0.123441 0.308064
O O7 0.726360 0.919812 0.493767
O O8 0.590248 0.897511 0.351341
O O9 0.697345 0.811143 0.393964
O O10 0.998402 0.887523 0.843126
O O11 0.476716 0.191102 0.764094
O O12 0.167491 0.250000 0.074180
O O13 0.811150 0.016135 0.575652
O O14 0.000000 0.000000 0.000000
O O15 0.578577 0.089329 0.732396
#
# Coordination Sequence:
#
# PCOD9155829 Si02
#       8
#     2   4   4   2   4   4   4   2
#     4  10  18  33  63  85 108 147 188 232 284 334
#     4  10  20  37  57  82 108 143 188 227 277 337
#     4   9  19  35  56  81 108 142 189 228 281 335
#     4   8  18  32  54  84 112 142 182 232 288 336
#     4  10  20  36  56  78 111 150 181 232 276 323
#     4   9  19  35  55  81 105 145 183 226 285 333
#     4  10  21  35  56  80 114 146 181 229 278 333
#     4  10  16  33  61  81 108 151 188 232 290 336
#
# _framework density 25.778842999999998
#
# number of rings (size 3 to 8) (size 9 to 14) (size 15 to 20)
#    0.000    2.462    1.538    1.385    0.000    2.462 
#    0.000    3.077    0.000    1.846    0.000    0.000 
#    0.000    0.000    0.000    0.000    0.000    0.000 
#
# Total GULP energy -145457.507607 kJ/mol
# GULP energy per Si atom -5594.519523 kJ/mol
# Density = 2.572017 g / cm^3
# Si number density = 25.778843 Si / 1000 Ang^3
#
#
#
# Elastic Constant Matrix: (Units=GPa)
#
#
# Indices 1 2 3 4 5 6 
#
# 1 151.9974 39.7772 27.3941 0.0000 -9.7100 0.0000
# 2 39.7772 138.2779 15.2259 0.0000 -2.1043 0.0000
# 3 27.3941 15.2259 81.0809 0.0000 -12.7360 0.0000
# 4 0.0000 0.0000 0.0000 -1.1479 0.0000 16.7040
# 5 -9.7100 -2.1043 -12.7360 0.0000 42.9075 0.0000
# 6 0.0000 0.0000 0.0000 16.7040 0.0000 39.8556
#
#
#
# Elastic Compliance Matrix: (Units=1/GPa)
#
#
# Indices 1 2 3 4 5 6 
#
# 1 0.007510 -0.001923 -0.002018 0.000000 0.001006 0.000000
# 2 -0.001923 0.007877 -0.000878 0.000000 -0.000309 0.000000
# 3 -0.002018 -0.000878 0.013742 0.000000 0.003579 0.000000
# 4 0.000000 0.000000 0.000000 -0.122717 0.000000 0.051433
# 5 0.001006 -0.000309 0.003579 0.000000 0.024581 0.000000
# 6 0.000000 0.000000 0.000000 0.051433 0.000000 0.003535
#
#
# Mechanical properties :
#
#
# Convention : Reuss Voigt Hill
#
# Bulk Modulus (GPa) = 51.30569 59.57229 55.43899
# Shear Modulus (GPa) = -101.34427 35.58697 -32.87865
#
# Velocity S-wave (km/s) = -6.27681 3.71950 -3.57517
# Velocity P-wave (km/s) = 5.70838 6.45023 2.12365
#
# Compressibility (1/GPa) = 0.01949102
#
# Stress axis : x y z
#
# Youngs Moduli (GPa) = 133.15048 126.95298 72.76754
#
# Poissons Ratio (x) = 0.24411 0.14687
# Poissons Ratio (y) = 0.25603 0.06390
# Poissons Ratio (z) = 0.26874 0.11148
#
# Static dielectric constant tensor:
#      x y z
#    x 1.976610 0.000000 0.035600 
#    y 0.000000 2.035640 0.000000 
#    z 0.035600 0.000000 2.166230 
# 
# From -- ./inp_files/19333.got.cif
#   From: 2010.05.17/outbox.cif.g08.bks.cpg/sg11_10_cif.got.tgz:19333.got - 2010.06.03 12:22:45.
