data_PCOD9155963
_publ_section_title
;
Structure prediction by ZEFSAII (Michael W. Deem and Ramdas Pophale) SiO2 
 PCOD9155963
Probable space group: P 21/M
;
_chemical_formula_sum "Si O2"
_cell_formula_units_Z 28
_cell_length_a 5.399398
_cell_length_b 30.179886
_cell_length_c 7.267536
_cell_angle_alpha 90.000000
_cell_angle_beta 82.281848
_cell_angle_gamma 90.000000
_cell_volume 1173.539724
_symmetry_space_group_name_H-M "P 21/M"
_symmetry_group_IT_number 11
_symmetry_cell_setting 'monoclinic'
loop_
_space_group_symop_operation_xyz
x,y,z
-x,1/2+y,-z
-x,-y,-z
x,1/2-y,z
loop_
_atom_site_type_symbol
_atom_site_label
_atom_site_fract_x
_atom_site_fract_y
_atom_site_fract_z
Si Si1 0.576134 0.466068 0.337466
Si Si2 0.896489 0.500351 0.805255
Si Si3 0.051090 0.750000 0.463298
Si Si4 0.095640 0.895974 0.266925
Si Si5 0.481990 0.365360 0.356167
Si Si6 0.596269 0.750000 0.221171
Si Si7 0.394856 0.151711 0.789305
Si Si8 0.015614 0.656626 0.657798
O O1 0.500000 0.500000 0.500000
O O2 0.876697 0.470565 0.301874
O O3 0.497237 0.416951 0.396299
O O4 0.381593 0.479853 0.193837
O O5 0.902555 0.449200 0.737402
O O6 0.000000 0.500000 0.000000
O O7 0.833170 0.750000 0.334287
O O8 0.323186 0.750000 0.343077
O O9 0.021867 0.706411 0.587140
O O10 0.363893 0.876859 0.177589
O O11 0.053841 0.875682 0.475920
O O12 0.862394 0.875836 0.176534
O O13 0.437675 0.341670 0.559206
O O14 0.743775 0.351269 0.244961
O O15 0.255099 0.355310 0.244805
O O16 0.613338 0.701261 0.127319
#
# Coordination Sequence:
#
# PCOD9155963 Si02
#       8
#     4   4   2   4   4   2   4   4
#     4  12  23  40  64  89 115 157 206 257 300 361
#     4  12  26  43  61  86 123 162 208 259 314 366
#     4  12  16  26  44  72 120 150 180 216 310 354
#     4  10  18  32  49  70 102 148 187 227 288 342
#     4  10  18  29  46  72 106 139 183 224 287 335
#     4  12  16  28  42  76 116 154 176 220 304 362
#     4  10  18  29  48  77 115 145 181 235 293 353
#     4  10  17  28  45  76 113 147 177 236 289 357
#
# _framework density 23.859437
#
# number of rings (size 3 to 8) (size 9 to 14) (size 15 to 20)
#    0.000    1.143    5.714    6.000    0.000    0.000 
#    0.000    0.000    0.000    0.000    0.000    0.000 
#    0.000   38.857    0.000    0.000    0.000    0.000 
#
# Total GULP energy -156437.517192 kJ/mol
# GULP energy per Si atom -5587.054185 kJ/mol
# Density = 2.380513 g / cm^3
# Si number density = 23.859437 Si / 1000 Ang^3
#
#
#
# Elastic Constant Matrix: (Units=GPa)
#
#
# Indices 1 2 3 4 5 6 
#
# 1 224.5102 37.7122 -2.7241 0.0000 5.5007 0.0000
# 2 37.7122 155.2213 6.8335 0.0000 3.6258 0.0000
# 3 -2.7241 6.8335 36.3950 0.0000 16.3728 0.0000
# 4 0.0000 0.0000 0.0000 6.2356 0.0000 0.7756
# 5 5.5007 3.6258 16.3728 0.0000 19.8161 0.0000
# 6 0.0000 0.0000 0.0000 0.7756 0.0000 45.8408
#
#
#
# Elastic Compliance Matrix: (Units=1/GPa)
#
#
# Indices 1 2 3 4 5 6 
#
# 1 0.004732 -0.001166 0.001700 0.000000 -0.002505 0.000000
# 2 -0.001166 0.006784 -0.001509 0.000000 0.000329 0.000000
# 3 0.001700 -0.001509 0.044525 0.000000 -0.036984 0.000000
# 4 0.000000 0.000000 0.000000 0.160708 0.000000 -0.002719
# 5 -0.002505 0.000329 -0.036984 0.000000 0.081656 0.000000
# 6 0.000000 0.000000 0.000000 -0.002719 0.000000 0.021861
#
#
# Mechanical properties :
#
#
# Convention : Reuss Voigt Hill
#
# Bulk Modulus (GPa) = 18.48763 55.52999 37.00881
# Shear Modulus (GPa) = 14.69523 39.33217 27.01370
#
# Velocity S-wave (km/s) = 2.48444 4.06457 3.36847
# Velocity P-wave (km/s) = 3.99942 6.73439 5.53838
#
# Compressibility (1/GPa) = 0.05409022
#
# Stress axis : x y z
#
# Youngs Moduli (GPa) = 211.32745 147.39577 22.45953
#
# Poissons Ratio (x) = 0.17186 -0.03818
# Poissons Ratio (y) = 0.24641 0.03390
# Poissons Ratio (z) = -0.35923 0.22246
#
# Static dielectric constant tensor:
#      x y z
#    x 2.080720 0.000000 -0.069600 
#    y 0.000000 1.864590 0.000000 
#    z -0.069600 0.000000 2.020350 
# 
# From -- ./inp_files/10596.got.cif
#   From: 2010.05.17/outbox.cif.g08.bks.cpg/sg11_6_cif.got.tgz:10596.got - 2010.06.03 12:22:45.
