data_PCOD9155113
_publ_section_title
;
Structure prediction by ZEFSAII (Michael W. Deem and Ramdas Pophale) SiO2 
 PCOD9155113
Probable space group: P 2/M
;
_chemical_formula_sum "Si O2"
_cell_formula_units_Z 32
_cell_length_a 24.000000
_cell_length_b 9.000000
_cell_length_c 15.000000
_cell_angle_alpha 90.000000
_cell_angle_beta 30.000000
_cell_angle_gamma 90.000000
_cell_volume 1620.000000
_symmetry_space_group_name_H-M "P 2/M"
_symmetry_group_IT_number 10
_symmetry_cell_setting 'monoclinic'
loop_
_space_group_symop_operation_xyz
x,y,z
-x,y,-z
-x,-y,-z
x,-y,z
loop_
_atom_site_type_symbol
_atom_site_label
_atom_site_fract_x
_atom_site_fract_y
_atom_site_fract_z
Si Si1 0.880082 0.819864 0.498570
Si Si2 0.296194 0.179205 0.111007
Si Si3 0.604503 0.678719 0.419338
Si Si4 0.160968 0.171953 0.947528
Si Si5 0.306990 0.678995 0.512011
Si Si6 0.113653 0.827794 0.224885
Si Si7 0.485604 0.320897 0.122805
Si Si8 0.087127 0.820108 0.751641
O O1 0.771062 0.784448 0.705247
O O2 0.881775 0.773932 0.393323
O O3 0.989049 0.762564 0.401122
O O4 0.890013 0.000000 0.483015
O O5 0.215930 0.231822 0.141411
O O6 0.311073 0.000000 0.084171
O O7 0.413985 0.257346 0.957095
O O8 0.500000 0.730628 0.500000
O O9 0.601122 0.500000 0.419876
O O10 0.726092 0.735822 0.220036
O O11 0.614446 0.719585 0.511473
O O12 0.181066 0.000000 0.893196
O O13 0.137384 0.172820 0.086448
O O14 0.045174 0.220721 0.059152
O O15 0.293626 0.500000 0.532688
O O16 0.372069 0.721906 0.331133
O O17 0.183718 0.751976 0.680168
O O18 0.104956 0.000000 0.267262
O O19 0.490687 0.500000 0.115508
O O20 0.500000 0.269902 0.000000
O O21 0.091020 0.000000 0.753474
#
# Coordination Sequence:
#
# PCOD9155113 Si02
#       8
#     4   4   4   4   4   4   4   4
#     4   8  14  27  48  76 110 143 172 211 263 315
#     4  10  18  28  50  79 103 135 181 224 259 309
#     4  10  23  41  59  79 106 143 185 226 266 315
#     4   9  19  36  57  83 113 142 174 219 275 324
#     4  10  22  39  57  78 106 143 184 223 269 322
#     4   8  15  28  48  77 110 139 171 214 265 318
#     4  10  22  38  53  73 105 143 177 216 270 321
#     4   9  18  34  57  83 111 141 176 220 269 322
#
# _framework density 19.753086
#
# number of rings (size 3 to 8) (size 9 to 14) (size 15 to 20)
#    0.000    2.750    0.000    2.625    1.750    4.000 
#    0.000    2.500    0.000    3.000    0.000    0.000 
#    0.000    0.000    0.000    0.000    0.000    0.000 
#
# Total GULP energy -178288.656467 kJ/mol
# GULP energy per Si atom -5571.520515 kJ/mol
# Density = 1.970813 g / cm^3
# Si number density = 19.753086 Si / 1000 Ang^3
#
#
#
# Elastic Constant Matrix: (Units=GPa)
#
#
# Indices 1 2 3 4 5 6 
#
# 1 132.0613 17.1640 47.9658 0.0000 -31.2959 0.0000
# 2 17.1640 0.1305 15.2996 0.0000 -3.7216 0.0000
# 3 47.9658 15.2996 100.4186 0.0000 -20.5068 0.0000
# 4 0.0000 0.0000 0.0000 22.5718 0.0000 -7.0386
# 5 -31.2959 -3.7216 -20.5068 0.0000 38.0468 0.0000
# 6 0.0000 0.0000 0.0000 -7.0386 0.0000 23.7475
#
#
#
# Elastic Compliance Matrix: (Units=1/GPa)
#
#
# Indices 1 2 3 4 5 6 
#
# 1 0.007347 0.031488 -0.007241 0.000000 0.005221 0.000000
# 2 0.031488 -0.317307 0.036244 0.000000 0.014398 0.000000
# 3 -0.007241 0.036244 0.008318 0.000000 0.002073 0.000000
# 4 0.000000 0.000000 0.000000 0.048815 0.000000 0.014468
# 5 0.005221 0.014398 0.002073 0.000000 0.033103 0.000000
# 6 0.000000 0.000000 0.000000 0.014468 0.000000 0.046398
#
#
# Mechanical properties :
#
#
# Convention : Reuss Voigt Hill
#
# Bulk Modulus (GPa) = -5.53530 43.71879 19.09174
# Shear Modulus (GPa) = -14.10323 27.01862 6.45770
#
# Velocity S-wave (km/s) = -2.67493 3.70241 1.81006
# Velocity P-wave (km/s) = 3.51407 6.36065 3.74894
#
# Compressibility (1/GPa) = -0.18065870
#
# Stress axis : x y z
#
# Youngs Moduli (GPa) = 136.11510 -3.15152 120.21926
#
# Poissons Ratio (x) = 0.09924 0.87046
# Poissons Ratio (y) = -4.28605 -4.35720
# Poissons Ratio (z) = 0.98556 0.11422
#
# Static dielectric constant tensor:
#      x y z
#    x 1.728000 0.000000 0.029580 
#    y 0.000000 1.665030 0.000000 
#    z 0.029580 0.000000 1.738740 
# 
# From -- ./inp_files/71485.got.cif
#   From: 2010.05.17/outbox.ucp.g08.bks.cvg/sg10_36_cif.got.tgz:71485.got - 2010.06.11 11:31:16.
