data_PCOD9155434
_publ_section_title
;
Structure prediction by ZEFSAII (Michael W. Deem and Ramdas Pophale) SiO2 
 PCOD9155434
Probable space group: P 2/M
;
_chemical_formula_sum "Si O2"
_cell_formula_units_Z 32
_cell_length_a 24.000000
_cell_length_b 9.000000
_cell_length_c 15.000000
_cell_angle_alpha 90.000000
_cell_angle_beta 30.000000
_cell_angle_gamma 90.000000
_cell_volume 1620.000000
_symmetry_space_group_name_H-M "P 2/M"
_symmetry_group_IT_number 10
_symmetry_cell_setting 'monoclinic'
loop_
_space_group_symop_operation_xyz
x,y,z
-x,y,-z
-x,-y,-z
x,-y,z
loop_
_atom_site_type_symbol
_atom_site_label
_atom_site_fract_x
_atom_site_fract_y
_atom_site_fract_z
Si Si1 0.101545 0.827471 0.740805
Si Si2 0.086703 0.676108 0.250409
Si Si3 0.396527 0.180291 0.076786
Si Si4 0.855535 0.826579 0.530541
Si Si5 0.712760 0.823245 0.370181
Si Si6 0.314642 0.179127 0.993730
Si Si7 0.877180 0.673766 0.012451
Si Si8 0.512634 0.678352 0.376917
O O1 0.129694 0.821849 0.596912
O O2 0.206294 0.786231 0.658003
O O3 0.072800 0.000000 0.802190
O O4 0.992915 0.724602 0.898120
O O5 0.084727 0.500000 0.273463
O O6 0.960664 0.743246 0.430852
O O7 0.188085 0.754539 0.164126
O O8 0.114254 0.693596 0.106111
O O9 0.271335 0.228534 0.279415
O O10 0.400074 0.000000 0.077105
O O11 0.500000 0.229790 0.000000
O O12 0.387348 0.216846 0.982961
O O13 0.859921 0.000000 0.552882
O O14 0.782494 0.775158 0.186629
O O15 0.596708 0.736787 0.523608
O O16 0.692222 0.000000 0.401043
O O17 0.381719 0.245162 0.816607
O O18 0.307288 0.000000 0.999694
O O19 0.854788 0.500000 0.060991
O O20 0.500000 0.715031 0.500000
O O21 0.477515 0.500000 0.643572
#
# Coordination Sequence:
#
# PCOD9155434 Si02
#       8
#     4   4   4   4   4   4   4   4
#     4   9  19  33  53  82 114 149 192 244 294 347
#     4  10  21  38  59  84 120 159 197 244 299 357
#     4   9  20  38  64  93 123 157 196 247 302 356
#     4   9  18  36  62  88 116 154 198 243 293 351
#     4  11  22  34  54  83 113 148 196 249 298 351
#     4  11  23  39  64  94 120 153 202 252 300 355
#     4  10  20  34  53  79 114 158 198 238 295 357
#     4  11  25  43  60  82 116 158 200 242 297 359
#
# _framework density 19.753086
#
# number of rings (size 3 to 8) (size 9 to 14) (size 15 to 20)
#    0.000    2.000    0.000    3.000    1.750    8.500 
#    0.000    3.750    0.000    1.875    0.000    0.000 
#    0.000    0.000    0.000    0.000    0.000    0.000 
#
# Total GULP energy -178632.907707 kJ/mol
# GULP energy per Si atom -5582.278366 kJ/mol
# Density = 1.970813 g / cm^3
# Si number density = 19.753086 Si / 1000 Ang^3
#
#
#
# Elastic Constant Matrix: (Units=GPa)
#
#
# Indices 1 2 3 4 5 6 
#
# 1 128.9781 40.6013 38.5466 0.0000 -29.3520 0.0000
# 2 40.6013 69.7058 29.4145 0.0000 -10.3112 0.0000
# 3 38.5466 29.4145 105.5973 0.0000 -18.8593 0.0000
# 4 0.0000 0.0000 0.0000 16.8644 0.0000 -3.6271
# 5 -29.3520 -10.3112 -18.8593 0.0000 38.8946 0.0000
# 6 0.0000 0.0000 0.0000 -3.6271 0.0000 24.0471
#
#
#
# Elastic Compliance Matrix: (Units=1/GPa)
#
#
# Indices 1 2 3 4 5 6 
#
# 1 0.011236 -0.004928 -0.001585 0.000000 0.006404 0.000000
# 2 -0.004928 0.018611 -0.003469 0.000000 -0.000467 0.000000
# 3 -0.001585 -0.003469 0.011645 0.000000 0.003531 0.000000
# 4 0.000000 0.000000 0.000000 0.061285 0.000000 0.009244
# 5 0.006404 -0.000467 0.003531 0.000000 0.032132 0.000000
# 6 0.000000 0.000000 0.000000 0.009244 0.000000 0.042979
#
#
# Mechanical properties :
#
#
# Convention : Reuss Voigt Hill
#
# Bulk Modulus (GPa) = 46.44993 57.93400 52.19196
# Shear Modulus (GPa) = 24.38695 29.00912 26.69803
#
# Velocity S-wave (km/s) = 3.51748 3.83637 3.68038
# Velocity P-wave (km/s) = 6.32955 7.00117 6.67382
#
# Compressibility (1/GPa) = 0.02152856
#
# Stress axis : x y z
#
# Youngs Moduli (GPa) = 89.00192 53.73110 85.87154
#
# Poissons Ratio (x) = 0.26480 0.13610
# Poissons Ratio (y) = 0.43863 0.29786
# Poissons Ratio (z) = 0.14106 0.18637
#
# Static dielectric constant tensor:
#      x y z
#    x 1.697670 0.000000 0.024780 
#    y 0.000000 1.662740 0.000000 
#    z 0.024780 0.000000 1.739860 
# 
# From -- ./inp_files/71520.got.cif
#   From: 2010.05.17/outbox.ucp.g08.bks.cvg/sg10_36_cif.got.tgz:71520.got - 2010.06.11 11:31:16.
