data_PCOD9155499
_publ_section_title
;
Structure prediction by ZEFSAII (Michael W. Deem and Ramdas Pophale) SiO2 
 PCOD9155499
Probable space group: P 2/M
;
_chemical_formula_sum "Si O2"
_cell_formula_units_Z 32
_cell_length_a 24.000000
_cell_length_b 9.000000
_cell_length_c 15.000000
_cell_angle_alpha 90.000000
_cell_angle_beta 30.000000
_cell_angle_gamma 90.000000
_cell_volume 1620.000000
_symmetry_space_group_name_H-M "P 2/M"
_symmetry_group_IT_number 10
_symmetry_cell_setting 'monoclinic'
loop_
_space_group_symop_operation_xyz
x,y,z
-x,y,-z
-x,-y,-z
x,-y,z
loop_
_atom_site_type_symbol
_atom_site_label
_atom_site_fract_x
_atom_site_fract_y
_atom_site_fract_z
Si Si1 0.112812 0.677772 0.292500
Si Si2 0.532522 0.822775 0.223748
Si Si3 0.726415 0.821371 0.437022
Si Si4 0.227371 0.819531 0.425514
Si Si5 0.673684 0.321774 0.881891
Si Si6 0.190769 0.820543 0.862456
Si Si7 0.971580 0.822384 0.763243
Si Si8 0.383080 0.673403 0.714968
O O1 0.112665 0.500000 0.282358
O O2 0.218166 0.717394 0.207068
O O3 0.104802 0.750569 0.206867
O O4 0.000000 0.722371 0.500000
O O5 0.400973 0.792514 0.414632
O O6 0.597891 0.751340 0.216193
O O7 0.549535 0.000000 0.199194
O O8 0.573047 0.750942 0.075470
O O9 0.749548 0.768723 0.505146
O O10 0.801565 0.768369 0.250352
O O11 0.740504 0.000000 0.422553
O O12 0.307179 0.746226 0.241963
O O13 0.100179 0.777110 0.577306
O O14 0.236783 0.000000 0.408202
O O15 0.664271 0.500000 0.890875
O O16 0.289956 0.751531 0.783770
O O17 0.204223 0.000000 0.844103
O O18 0.077479 0.785677 0.071752
O O19 0.966962 0.000000 0.759085
O O20 0.500000 0.682409 0.500000
O O21 0.355183 0.500000 0.767480
#
# Coordination Sequence:
#
# PCOD9155499 Si02
#       8
#     4   4   4   4   4   4   4   4
#     4  10  20  36  57  79 110 150 185 221 278 346
#     4  11  22  38  61  86 113 151 192 234 281 337
#     4   9  20  38  60  82 111 151 194 234 280 335
#     4  10  21  39  59  83 113 149 192 238 283 333
#     4  11  23  39  59  85 115 150 188 234 288 341
#     4  10  20  37  59  86 116 151 191 231 281 339
#     4  10  21  34  57  89 116 143 184 237 283 329
#     4  11  22  36  57  87 120 152 186 231 284 337
#
# _framework density 19.753086
#
# number of rings (size 3 to 8) (size 9 to 14) (size 15 to 20)
#    0.000    1.750    2.500    1.875    0.000    5.250 
#    0.000    6.875    0.000    0.000    0.000    2.625 
#    0.000    0.000    0.000    0.000    0.000    0.000 
#
# Total GULP energy -178756.475098 kJ/mol
# GULP energy per Si atom -5586.139847 kJ/mol
# Density = 1.970813 g / cm^3
# Si number density = 19.753086 Si / 1000 Ang^3
#
#
#
# Elastic Constant Matrix: (Units=GPa)
#
#
# Indices 1 2 3 4 5 6 
#
# 1 86.6896 12.8411 9.2692 0.0000 40.1120 0.0000
# 2 12.8411 25.8977 23.1963 0.0000 10.2066 0.0000
# 3 9.2692 23.1963 73.4431 0.0000 41.4480 0.0000
# 4 0.0000 0.0000 0.0000 10.8229 0.0000 -14.6005
# 5 40.1120 10.2066 41.4480 0.0000 35.8346 0.0000
# 6 0.0000 0.0000 0.0000 -14.6005 0.0000 -13.1160
#
#
#
# Elastic Compliance Matrix: (Units=1/GPa)
#
#
# Indices 1 2 3 4 5 6 
#
# 1 -0.032944 0.033121 -0.062754 0.000000 0.100026 0.000000
# 2 0.033121 0.022558 0.038142 0.000000 -0.087616 0.000000
# 3 -0.062754 0.038142 -0.069181 0.000000 0.139398 0.000000
# 4 0.000000 0.000000 0.000000 0.036933 0.000000 -0.041113
# 5 0.100026 -0.087616 0.139398 0.000000 -0.220339 0.000000
# 6 0.000000 0.000000 0.000000 -0.041113 0.000000 -0.030476
#
#
# Mechanical properties :
#
#
# Convention : Reuss Voigt Hill
#
# Bulk Modulus (GPa) = -15.98772 30.73817 7.37522
# Shear Modulus (GPa) = -15.09127 16.08989 0.49931
#
# Velocity S-wave (km/s) = -2.76705 2.85713 0.50331
# Velocity P-wave (km/s) = 4.28020 5.14580 2.01980
#
# Compressibility (1/GPa) = -0.06254800
#
# Stress axis : x y z
#
# Youngs Moduli (GPa) = -30.35465 44.33023 -14.45484
#
# Poissons Ratio (x) = -1.46827 -0.90709
# Poissons Ratio (y) = 1.00538 0.55134
# Poissons Ratio (z) = -1.90486 -1.69084
#
# Static dielectric constant tensor:
#      x y z
#    x 1.672270 0.000000 0.013280 
#    y 0.000000 1.657450 0.000000 
#    z 0.013280 0.000000 1.725990 
# 
# From -- ./inp_files/66623.got.cif
#   From: 2010.05.17/outbox.ucp.g08.bks.cvg/sg10_34_cif.got.tgz:66623.got - 2010.06.11 11:31:16.
