data_PCOD9155189
_publ_section_title
;
Structure prediction by ZEFSAII (Michael W. Deem and Ramdas Pophale) SiO2 
 PCOD9155189
Probable space group: P 2/M
;
_chemical_formula_sum "Si O2"
_cell_formula_units_Z 32
_cell_length_a 24.000000
_cell_length_b 9.000000
_cell_length_c 15.000000
_cell_angle_alpha 90.000000
_cell_angle_beta 150.000000
_cell_angle_gamma 90.000000
_cell_volume 1620.000000
_symmetry_space_group_name_H-M "P 2/M"
_symmetry_group_IT_number 10
_symmetry_cell_setting 'monoclinic'
loop_
_space_group_symop_operation_xyz
x,y,z
-x,y,-z
-x,-y,-z
x,-y,z
loop_
_atom_site_type_symbol
_atom_site_label
_atom_site_fract_x
_atom_site_fract_y
_atom_site_fract_z
Si Si1 0.013145 0.179571 0.750887
Si Si2 0.881057 0.825799 0.286676
Si Si3 0.774910 0.321555 0.438286
Si Si4 0.516534 0.677835 0.747273
Si Si5 0.718982 0.821387 0.550548
Si Si6 0.614978 0.173954 0.714614
Si Si7 0.313847 0.322111 0.870354
Si Si8 0.817872 0.819983 0.868873
O O1 0.096698 0.216253 0.785283
O O2 0.897528 0.264224 0.581479
O O3 0.994914 0.000000 0.722098
O O4 0.070707 0.220078 0.924069
O O5 0.787975 0.739439 0.212029
O O6 0.000000 0.807966 0.500000
O O7 0.851611 0.000000 0.247856
O O8 0.772437 0.500000 0.442745
O O9 0.743913 0.249922 0.489685
O O10 0.696396 0.274547 0.246577
O O11 0.499255 0.500000 0.718066
O O12 0.401276 0.765957 0.582617
O O13 0.596444 0.731916 0.778094
O O14 0.574372 0.715782 0.921553
O O15 0.803310 0.773532 0.746539
O O16 0.721203 0.000000 0.546259
O O17 0.500000 0.180230 0.500000
O O18 0.713691 0.226972 0.786489
O O19 0.635902 0.000000 0.766834
O O20 0.305293 0.500000 0.858616
O O21 0.813261 0.000000 0.861711
#
# Coordination Sequence:
#
# PCOD9155189 Si02
#       8
#     4   4   4   4   4   4   4   4
#     4  10  20  37  60  87 118 152 189 234 286 343
#     4  10  19  33  59  92 120 146 188 241 285 331
#     4  11  24  42  60  82 113 153 196 242 291 343
#     4  11  23  39  59  88 120 153 192 237 288 344
#     4  11  23  42  63  84 111 151 198 243 290 343
#     4  10  18  35  62  89 119 155 192 232 283 346
#     4  10  23  40  59  83 119 160 192 228 290 357
#     4   9  19  36  60  87 116 152 191 231 285 345
#
# _framework density 19.753086
#
# number of rings (size 3 to 8) (size 9 to 14) (size 15 to 20)
#    0.000    1.750    2.500    1.875    0.000    4.500 
#    0.000    6.875    0.000    0.000    0.000    0.000 
#    0.000    0.000    0.000    0.000    0.000    0.000 
#
# Total GULP energy -178729.453732 kJ/mol
# GULP energy per Si atom -5585.295429 kJ/mol
# Density = 1.970813 g / cm^3
# Si number density = 19.753086 Si / 1000 Ang^3
#
#
#
# Elastic Constant Matrix: (Units=GPa)
#
#
# Indices 1 2 3 4 5 6 
#
# 1 71.3108 16.0532 13.9247 0.0000 -37.1794 0.0000
# 2 16.0532 30.5093 18.4569 0.0000 -16.1359 0.0000
# 3 13.9247 18.4569 72.5893 0.0000 -40.5028 0.0000
# 4 0.0000 0.0000 0.0000 -0.1150 0.0000 -56.8550
# 5 -37.1794 -16.1359 -40.5028 0.0000 36.9233 0.0000
# 6 0.0000 0.0000 0.0000 -56.8550 0.0000 -120.3748
#
#
#
# Elastic Compliance Matrix: (Units=1/GPa)
#
#
# Indices 1 2 3 4 5 6 
#
# 1 0.121308 -0.002728 0.115777 0.000000 0.247959 0.000000
# 2 -0.002728 0.042728 -0.003750 0.000000 0.011812 0.000000
# 3 0.115777 -0.003750 0.146041 0.000000 0.275140 0.000000
# 4 0.000000 0.000000 0.000000 0.037399 0.000000 -0.017664
# 5 0.247959 0.011812 0.275140 0.000000 0.583738 0.000000
# 6 0.000000 0.000000 0.000000 -0.017664 0.000000 0.000036
#
#
# Mechanical properties :
#
#
# Convention : Reuss Voigt Hill
#
# Bulk Modulus (GPa) = 1.89152 30.14211 16.01682
# Shear Modulus (GPa) = 5.62507 -8.31499 -1.34496
#
# Velocity S-wave (km/s) = 1.68934 -2.05392 -0.82605
# Velocity P-wave (km/s) = 2.18285 3.10930 2.68632
#
# Compressibility (1/GPa) = 0.52867543
#
# Stress axis : x y z
#
# Youngs Moduli (GPa) = 8.24345 23.40374 6.84741
#
# Poissons Ratio (x) = 0.06385 -0.79277
# Poissons Ratio (y) = 0.02249 0.02568
# Poissons Ratio (z) = -0.95441 0.08777
#
# Static dielectric constant tensor:
#      x y z
#    x 1.681260 0.000000 -0.026960 
#    y 0.000000 1.659350 0.000000 
#    z -0.026960 0.000000 1.735690 
# 
# From -- ./inp_files/71570.got.cif
#   From: 2010.05.17/outbox.ucp.g08.bks.cvg/sg10_36_cif.got.tgz:71570.got - 2010.06.11 11:31:16.
