data_PCOD9155690
_publ_section_title
;
Structure prediction by ZEFSAII (Michael W. Deem and Ramdas Pophale) SiO2 
 PCOD9155690
Probable space group: P 2/M
;
_chemical_formula_sum "Si O2"
_cell_formula_units_Z 32
_cell_length_a 12.000000
_cell_length_b 9.000000
_cell_length_c 30.000000
_cell_angle_alpha 90.000000
_cell_angle_beta 150.000000
_cell_angle_gamma 90.000000
_cell_volume 1620.000000
_symmetry_space_group_name_H-M "P 2/M"
_symmetry_group_IT_number 10
_symmetry_cell_setting 'monoclinic'
loop_
_space_group_symop_operation_xyz
x,y,z
-x,y,-z
-x,-y,-z
x,-y,z
loop_
_atom_site_type_symbol
_atom_site_label
_atom_site_fract_x
_atom_site_fract_y
_atom_site_fract_z
Si Si1 0.165495 0.675456 0.869932
Si Si2 0.233783 0.327195 0.413459
Si Si3 0.194136 0.172958 0.309229
Si Si4 0.463206 0.321873 0.733611
Si Si5 0.733487 0.822106 0.909780
Si Si6 0.420918 0.822506 0.624643
Si Si7 0.019996 0.178009 0.424757
Si Si8 0.402048 0.674958 0.043510
O O1 0.103236 0.500000 0.845840
O O2 0.368000 0.695912 0.904622
O O3 0.980113 0.786849 0.789198
O O4 0.228606 0.706426 0.943180
O O5 0.500000 0.313749 0.500000
O O6 0.177979 0.500000 0.401890
O O7 0.141902 0.270355 0.334384
O O8 0.145781 0.228294 0.423418
O O9 0.427366 0.207805 0.366144
O O10 0.191394 0.000000 0.320642
O O11 0.478216 0.500000 0.739896
O O12 0.615376 0.253755 0.825955
O O13 0.505633 0.262388 0.697838
O O14 0.212216 0.264019 0.654935
O O15 0.637211 0.763381 0.924167
O O16 0.699520 0.000000 0.895602
O O17 0.000000 0.792409 0.000000
O O18 0.174089 0.785931 0.521049
O O19 0.429851 0.000000 0.636817
O O20 0.984816 0.000000 0.412473
O O21 0.386873 0.500000 0.049368
#
# Coordination Sequence:
#
# PCOD9155690 Si02
#       8
#     4   4   4   4   4   4   4   4
#     4   9  20  39  63  93 127 162 201 257 315 372
#     4  11  23  39  61  91 128 166 208 258 311 367
#     4  11  23  38  61  92 127 168 211 256 311 376
#     4  12  27  44  67  96 126 165 213 265 321 381
#     4  11  26  46  67  92 126 166 211 265 316 374
#     4  10  23  43  65  92 129 170 214 263 316 375
#     4  11  23  43  69  93 127 171 213 262 318 378
#     4   9  20  41  66  91 124 162 204 255 317 378
#
# _framework density 19.753086
#
# number of rings (size 3 to 8) (size 9 to 14) (size 15 to 20)
#    0.000    1.500    1.250    3.750    3.500    6.000 
#    0.000    1.250    0.000    0.000    0.000    0.000 
#    0.000    0.000    0.000    0.000    0.000    0.000 
#
# Total GULP energy -178724.655254 kJ/mol
# GULP energy per Si atom -5585.145477 kJ/mol
# Density = 1.970813 g / cm^3
# Si number density = 19.753086 Si / 1000 Ang^3
#
#
#
# Elastic Constant Matrix: (Units=GPa)
#
#
# Indices 1 2 3 4 5 6 
#
# 1 83.7093 37.0157 21.4427 0.0000 -29.6663 0.0000
# 2 37.0157 59.9370 28.9216 0.0000 -18.0588 0.0000
# 3 21.4427 28.9216 86.0430 0.0000 -24.2144 0.0000
# 4 0.0000 0.0000 0.0000 30.1177 0.0000 -6.2262
# 5 -29.6663 -18.0588 -24.2144 0.0000 28.8702 0.0000
# 6 0.0000 0.0000 0.0000 -6.2262 0.0000 40.5490
#
#
#
# Elastic Compliance Matrix: (Units=1/GPa)
#
#
# Indices 1 2 3 4 5 6 
#
# 1 0.022220 -0.009314 0.003114 0.000000 0.019618 0.000000
# 2 -0.009314 0.025760 -0.005886 0.000000 0.001606 0.000000
# 3 0.003114 -0.005886 0.016609 0.000000 0.013450 0.000000
# 4 0.000000 0.000000 0.000000 0.034292 0.000000 0.005265
# 5 0.019618 0.001606 0.013450 0.000000 0.067082 0.000000
# 6 0.000000 0.000000 0.000000 0.005265 0.000000 0.025470
#
#
# Mechanical properties :
#
#
# Convention : Reuss Voigt Hill
#
# Bulk Modulus (GPa) = 24.74122 44.93881 34.84002
# Shear Modulus (GPa) = 21.82677 29.39470 25.61073
#
# Velocity S-wave (km/s) = 3.32773 3.86178 3.60466
# Velocity P-wave (km/s) = 5.22661 6.53331 5.91615
#
# Compressibility (1/GPa) = 0.04041837
#
# Stress axis : x y z
#
# Youngs Moduli (GPa) = 45.00517 38.81942 60.20730
#
# Poissons Ratio (x) = 0.36157 -0.18752
# Poissons Ratio (y) = 0.41919 0.35436
# Poissons Ratio (z) = -0.14017 0.22848
#
# Static dielectric constant tensor:
#      x y z
#    x 1.712660 0.000000 0.069020 
#    y 0.000000 1.658890 0.000000 
#    z 0.069020 0.000000 1.789170 
# 
# From -- ./inp_files/95055.got.cif
#   From: 2010.05.17/outbox.ucp.g08.bks.cvg/sg10_48_cif.got.tgz:95055.got - 2010.06.11 11:31:16.
