data_PCOD9155530
_publ_section_title
;
Structure prediction by ZEFSAII (Michael W. Deem and Ramdas Pophale) SiO2 
 PCOD9155530
Probable space group: P 2/M
;
_chemical_formula_sum "Si O2"
_cell_formula_units_Z 28
_cell_length_a 21.000000
_cell_length_b 9.000000
_cell_length_c 24.000000
_cell_angle_alpha 90.000000
_cell_angle_beta 20.000000
_cell_angle_gamma 90.000000
_cell_volume 1551.403370
_symmetry_space_group_name_H-M "P 2/M"
_symmetry_group_IT_number 10
_symmetry_cell_setting 'monoclinic'
loop_
_space_group_symop_operation_xyz
x,y,z
-x,y,-z
-x,-y,-z
x,-y,z
loop_
_atom_site_type_symbol
_atom_site_label
_atom_site_fract_x
_atom_site_fract_y
_atom_site_fract_z
Si Si1 0.321209 0.821789 0.607018
Si Si2 0.115349 0.323436 0.243947
Si Si3 0.195478 0.676210 0.308727
Si Si4 0.293446 0.175946 0.409083
Si Si5 0.521673 0.178778 0.109038
Si Si6 0.958759 0.322310 0.968013
Si Si7 0.546666 0.823560 0.309980
O O1 0.500000 0.796136 0.500000
O O2 0.130699 0.747109 0.789156
O O3 0.410271 0.774844 0.473628
O O4 0.285008 0.000000 0.634519
O O5 0.107885 0.500000 0.238197
O O6 0.177442 0.303943 0.257365
O O7 0.904679 0.256851 0.416939
O O8 0.275510 0.249202 0.072981
O O9 0.224298 0.500000 0.296421
O O10 0.370430 0.766752 0.188076
O O11 0.000000 0.718454 0.500000
O O12 0.417549 0.222804 0.253012
O O13 0.425319 0.194016 0.354122
O O14 0.252408 0.000000 0.435412
O O15 0.541459 0.000000 0.092744
O O16 0.954336 0.500000 0.961055
O O17 0.000000 0.298524 0.000000
O O18 0.748673 0.254564 0.135085
O O19 0.583815 0.000000 0.288883
#
# Coordination Sequence:
#
# PCOD9155530 Si02
#       7
#     4   4   4   4   4   4   4
#     4  10  20  36  62  90 113 147 195 241 284 338
#     4  11  23  39  62  87 117 156 196 243 294 348
#     4  10  20  37  60  87 117 152 196 243 294 347
#     4  10  23  42  61  84 117 157 197 241 291 344
#     4  11  23  38  60  88 120 155 195 243 293 347
#     4  11  23  37  58  89 123 154 184 232 294 350
#     4  10  22  41  63  86 116 154 198 243 286 342
#
# _framework density 18.048175000000001
#
# number of rings (size 3 to 8) (size 9 to 14) (size 15 to 20)
#    0.000    1.571    2.857    1.714    0.000    6.857 
#    0.000    5.714    0.000    0.000    0.000    0.000 
#    0.000    0.000    0.000    0.000    0.000    0.000 
#
# Total GULP energy -156154.608859 kJ/mol
# GULP energy per Si atom -5576.950316 kJ/mol
# Density = 1.800710 g / cm^3
# Si number density = 18.048175 Si / 1000 Ang^3
#
#
#
# Elastic Constant Matrix: (Units=GPa)
#
#
# Indices 1 2 3 4 5 6 
#
# 1 72.2615 36.4748 56.1979 0.0000 5.2021 0.0000
# 2 36.4748 86.0430 83.0451 0.0000 -1.5056 0.0000
# 3 56.1979 83.0451 228.7415 0.0000 10.5847 0.0000
# 4 0.0000 0.0000 0.0000 43.3894 0.0000 1.8068
# 5 5.2021 -1.5056 10.5847 0.0000 30.4835 0.0000
# 6 0.0000 0.0000 0.0000 1.8068 0.0000 19.6347
#
#
#
# Elastic Compliance Matrix: (Units=1/GPa)
#
#
# Indices 1 2 3 4 5 6 
#
# 1 0.018779 -0.005652 -0.002440 0.000000 -0.002637 0.000000
# 2 -0.005652 0.019903 -0.006024 0.000000 0.004039 0.000000
# 3 -0.002440 -0.006024 0.007269 0.000000 -0.002405 0.000000
# 4 0.000000 0.000000 0.000000 0.023136 0.000000 -0.002129
# 5 -0.002637 0.004039 -0.002405 0.000000 0.034289 0.000000
# 6 0.000000 0.000000 0.000000 -0.002129 0.000000 0.051126
#
#
# Mechanical properties :
#
#
# Convention : Reuss Voigt Hill
#
# Bulk Modulus (GPa) = 56.43475 82.05351 69.24413
# Shear Modulus (GPa) = 26.50546 32.79008 29.64777
#
# Velocity S-wave (km/s) = 3.83638 4.26703 4.05742
# Velocity P-wave (km/s) = 7.13867 8.35697 7.77173
#
# Compressibility (1/GPa) = 0.01771958
#
# Stress axis : x y z
#
# Youngs Moduli (GPa) = 53.25195 50.24369 137.56120
#
# Poissons Ratio (x) = 0.28398 0.33559
# Poissons Ratio (y) = 0.30098 0.82869
# Poissons Ratio (z) = 0.12991 0.30267
#
# Static dielectric constant tensor:
#      x y z
#    x 1.636590 0.000000 0.017530 
#    y 0.000000 1.627810 0.000000 
#    z 0.017530 0.000000 1.600710 
# 
# From -- ./inp_files/90349.got.cif
#   From: 2010.05.17/outbox.ucp.g08.bks.cvg/sg10_46_cif.got.tgz:90349.got - 2010.06.11 11:31:16.
