data_PCOD9155190
_publ_section_title
;
Structure prediction by ZEFSAII (Michael W. Deem and Ramdas Pophale) SiO2 
 PCOD9155190
Probable space group: P 2/M
;
_chemical_formula_sum "Si O2"
_cell_formula_units_Z 20
_cell_length_a 12.000000
_cell_length_b 12.000000
_cell_length_c 15.000000
_cell_angle_alpha 90.000000
_cell_angle_beta 150.000000
_cell_angle_gamma 90.000000
_cell_volume 1080.000000
_symmetry_space_group_name_H-M "P 2/M"
_symmetry_group_IT_number 10
_symmetry_cell_setting 'monoclinic'
loop_
_space_group_symop_operation_xyz
x,y,z
-x,y,-z
-x,-y,-z
x,-y,z
loop_
_atom_site_type_symbol
_atom_site_label
_atom_site_fract_x
_atom_site_fract_y
_atom_site_fract_z
Si Si1 0.104784 0.500000 0.174372
Si Si2 0.161624 0.136449 0.940479
Si Si3 0.182033 0.500000 0.425730
Si Si4 0.000000 0.713316 0.000000
Si Si5 0.997287 0.260661 0.347544
Si Si6 0.436702 0.500000 0.164339
Si Si7 0.623735 0.258883 0.240124
O O1 0.227237 0.500000 0.352558
O O2 0.151085 0.382486 0.155057
O O3 0.832526 0.500000 0.007729
O O4 0.031421 0.186037 0.762298
O O5 0.136826 0.000000 0.931195
O O6 0.418965 0.172505 0.101894
O O7 0.089349 0.206078 0.981274
O O8 0.039650 0.389365 0.349546
O O9 0.409886 0.500000 0.640238
O O10 0.209805 0.237100 0.560119
O O11 0.778230 0.250960 0.258866
O O12 0.515855 0.384068 0.172293
#
# Coordination Sequence:
#
# PCOD9155190 Si02
#       7
#     2   4   2   2   4   2   4
#     4  11  20  38  63  88 117 148 192 249 300 351
#     4  12  25  42  61  81 116 166 207 242 288 338
#     4  10  18  35  62  91 123 152 182 235 307 364
#     4  11  23  42  62  86 115 153 200 254 298 343
#     4  10  21  38  62  93 124 152 190 241 297 358
#     4  10  18  35  62  91 123 152 182 235 307 364
#     4  10  21  38  62  93 124 152 190 241 297 358
#
# _framework density 18.518519000000001
#
# number of rings (size 3 to 8) (size 9 to 14) (size 15 to 20)
#    0.000    1.400    4.000    1.500    0.000    4.800 
#    0.000   10.000    0.000    2.400    0.000    0.000 
#    0.000    0.000    0.000    0.000    0.000    0.000 
#
# Total GULP energy -111549.833908 kJ/mol
# GULP energy per Si atom -5577.491695 kJ/mol
# Density = 1.847637 g / cm^3
# Si number density = 18.518519 Si / 1000 Ang^3
#
#
#
# Elastic Constant Matrix: (Units=GPa)
#
#
# Indices 1 2 3 4 5 6 
#
# 1 103.2951 44.8207 23.0059 0.0000 -18.7550 0.0000
# 2 44.8207 159.0539 30.5352 0.0000 -8.0235 0.0000
# 3 23.0059 30.5352 61.3146 0.0000 -6.4797 0.0000
# 4 0.0000 0.0000 0.0000 32.6022 0.0000 -0.2522
# 5 -18.7550 -8.0235 -6.4797 0.0000 38.2592 0.0000
# 6 0.0000 0.0000 0.0000 -0.2522 0.0000 34.6167
#
#
#
# Elastic Compliance Matrix: (Units=1/GPa)
#
#
# Indices 1 2 3 4 5 6 
#
# 1 0.012385 -0.002705 -0.002768 0.000000 0.005035 0.000000
# 2 -0.002705 0.007572 -0.002778 0.000000 -0.000208 0.000000
# 3 -0.002768 -0.002778 0.018864 0.000000 0.001255 0.000000
# 4 0.000000 0.000000 0.000000 0.030674 0.000000 0.000223
# 5 0.005035 -0.000208 0.001255 0.000000 0.028775 0.000000
# 6 0.000000 0.000000 0.000000 0.000223 0.000000 0.028889
#
#
# Mechanical properties :
#
#
# Convention : Reuss Voigt Hill
#
# Bulk Modulus (GPa) = 44.80322 57.82081 51.31202
# Shear Modulus (GPa) = 33.09019 36.11576 34.60298
#
# Velocity S-wave (km/s) = 4.23172 4.42096 4.32737
# Velocity P-wave (km/s) = 6.93707 7.57303 7.26202
#
# Compressibility (1/GPa) = 0.02231983
#
# Stress axis : x y z
#
# Youngs Moduli (GPa) = 80.74043 132.06197 53.01063
#
# Poissons Ratio (x) = 0.35719 0.14673
# Poissons Ratio (y) = 0.21838 0.14727
# Poissons Ratio (z) = 0.22349 0.36689
#
# Static dielectric constant tensor:
#      x y z
#    x 1.680440 0.000000 -0.022600 
#    y 0.000000 1.627500 0.000000 
#    z -0.022600 0.000000 1.670610 
# 
# From -- ./inp_files/64743.got.cif
#   From: 2010.05.17/outbox.ucp.g08.bks.cvg/sg10_33_cif.got.tgz:64743.got - 2010.06.11 11:31:16.
