data_PCOD9155627
_publ_section_title
;
Structure prediction by ZEFSAII (Michael W. Deem and Ramdas Pophale) SiO2 
 PCOD9155627
Probable space group: P 2/M
;
_chemical_formula_sum "Si O2"
_cell_formula_units_Z 28
_cell_length_a 21.000000
_cell_length_b 9.000000
_cell_length_c 15.000000
_cell_angle_alpha 90.000000
_cell_angle_beta 30.000000
_cell_angle_gamma 90.000000
_cell_volume 1417.500000
_symmetry_space_group_name_H-M "P 2/M"
_symmetry_group_IT_number 10
_symmetry_cell_setting 'monoclinic'
loop_
_space_group_symop_operation_xyz
x,y,z
-x,y,-z
-x,-y,-z
x,-y,z
loop_
_atom_site_type_symbol
_atom_site_label
_atom_site_fract_x
_atom_site_fract_y
_atom_site_fract_z
Si Si1 0.630035 0.669347 0.044272
Si Si2 0.846895 0.678954 0.282591
Si Si3 0.351724 0.672210 0.333549
Si Si4 0.697294 0.825388 0.779457
Si Si5 0.183443 0.826025 0.059284
Si Si6 0.851930 0.321370 0.078840
Si Si7 0.962180 0.327025 0.441428
O O1 0.678622 0.500000 0.998388
O O2 0.663361 0.723603 0.904653
O O3 0.693757 0.785221 0.032320
O O4 0.478992 0.668194 0.237188
O O5 0.833745 0.500000 0.299376
O O6 0.762984 0.731585 0.466690
O O7 0.996296 0.709430 0.110621
O O8 0.806961 0.726519 0.231682
O O9 0.327728 0.500000 0.334035
O O10 0.378012 0.774167 0.216617
O O11 0.840861 0.778497 0.579959
O O12 0.685031 0.000000 0.813118
O O13 0.205502 0.765316 0.933726
O O14 0.071586 0.734423 0.244477
O O15 0.154460 0.000000 0.095542
O O16 0.835134 0.500000 0.090535
O O17 0.935520 0.500000 0.452143
O O18 0.000000 0.321125 0.500000
#
# Coordination Sequence:
#
# PCOD9155627 Si02
#       7
#     4   4   4   4   4   4   4
#     4  11  23  39  57  78 109 155 201 239 277 329
#     4   8  16  34  61  90 112 139 184 237 282 328
#     4  10  21  38  60  83 111 149 198 242 279 330
#     4  12  24  37  57  85 117 150 186 233 289 342
#     4  12  24  37  56  84 118 151 186 232 289 343
#     4   9  17  34  62  89 115 145 181 227 285 346
#     4  11  22  37  59  82 110 147 187 229 275 331
#
# _framework density 19.753086
#
# number of rings (size 3 to 8) (size 9 to 14) (size 15 to 20)
#    0.000    1.571    1.429    5.571    0.000    4.571 
#    0.000    2.857    0.000    4.286    0.000    0.000 
#    0.000    0.000    0.000    0.000    0.000    0.000 
#
# Total GULP energy -156337.041073 kJ/mol
# GULP energy per Si atom -5583.465753 kJ/mol
# Density = 1.970813 g / cm^3
# Si number density = 19.753086 Si / 1000 Ang^3
#
#
#
# Elastic Constant Matrix: (Units=GPa)
#
#
# Indices 1 2 3 4 5 6 
#
# 1 64.8053 -13.4996 25.0087 0.0000 15.8091 0.0000
# 2 -13.4996 41.6467 15.0667 0.0000 7.8565 0.0000
# 3 25.0087 15.0667 20.6538 0.0000 8.4813 0.0000
# 4 0.0000 0.0000 0.0000 10.1642 0.0000 -12.7724
# 5 15.8091 7.8565 8.4813 0.0000 29.9882 0.0000
# 6 0.0000 0.0000 0.0000 -12.7724 0.0000 -18.4724
#
#
#
# Elastic Compliance Matrix: (Units=1/GPa)
#
#
# Indices 1 2 3 4 5 6 
#
# 1 -2.894448 -3.040479 5.395684 0.000000 0.796444 0.000000
# 2 -3.040479 -3.161145 5.644877 0.000000 0.834565 0.000000
# 3 5.395684 5.644877 -9.987379 0.000000 -1.498733 0.000000
# 4 0.000000 0.000000 0.000000 0.052644 0.000000 -0.036400
# 5 0.796444 0.834565 -1.498733 0.000000 -0.181294 0.000000
# 6 0.000000 0.000000 0.000000 -0.036400 0.000000 -0.028967
#
#
# Mechanical properties :
#
#
# Convention : Reuss Voigt Hill
#
# Bulk Modulus (GPa) = -23.36013 20.02861 -1.66576
# Shear Modulus (GPa) = -0.15521 11.03799 5.44139
#
# Velocity S-wave (km/s) = -0.28061 2.36646 1.66153
# Velocity P-wave (km/s) = 3.45785 4.19861 1.68398
#
# Compressibility (1/GPa) = -0.04280799
#
# Stress axis : x y z
#
# Youngs Moduli (GPa) = -0.34549 -0.31634 -0.10013
#
# Poissons Ratio (x) = -0.96183 0.54025
# Poissons Ratio (y) = -1.05045 0.56520
# Poissons Ratio (z) = 1.86415 1.78571
#
# Static dielectric constant tensor:
#      x y z
#    x 1.783970 0.000000 -0.056510 
#    y 0.000000 1.659240 0.000000 
#    z -0.056510 0.000000 1.720110 
# 
# From -- ./inp_files/49089.got.cif
#   From: 2010.05.17/outbox.ucp.g08.bks.cvg/sg10_25_cif.got.tgz:49089.got - 2010.06.11 11:31:16.
