data_PCOD9155152
_publ_section_title
;
Structure prediction by ZEFSAII (Michael W. Deem and Ramdas Pophale) SiO2 
 PCOD9155152
Probable space group: P 2/M
;
_chemical_formula_sum "Si O2"
_cell_formula_units_Z 28
_cell_length_a 27.000000
_cell_length_b 9.000000
_cell_length_c 9.000000
_cell_angle_alpha 90.000000
_cell_angle_beta 40.000000
_cell_angle_gamma 90.000000
_cell_volume 1405.776502
_symmetry_space_group_name_H-M "P 2/M"
_symmetry_group_IT_number 10
_symmetry_cell_setting 'monoclinic'
loop_
_space_group_symop_operation_xyz
x,y,z
-x,y,-z
-x,-y,-z
x,-y,z
loop_
_atom_site_type_symbol
_atom_site_label
_atom_site_fract_x
_atom_site_fract_y
_atom_site_fract_z
Si Si1 0.019470 0.172755 0.632280
Si Si2 0.592647 0.667589 0.995458
Si Si3 0.824465 0.325294 0.792463
Si Si4 0.862267 0.325018 0.056662
Si Si5 0.288748 0.822927 0.464150
Si Si6 0.353794 0.669413 0.799882
Si Si7 0.431252 0.175092 0.355437
O O1 0.105198 0.241227 0.450659
O O2 0.000000 0.182797 0.500000
O O3 0.020027 0.000000 0.672593
O O4 0.947717 0.254994 0.876299
O O5 0.595888 0.500000 0.926725
O O6 0.598899 0.660320 0.157810
O O7 0.512051 0.743865 0.138202
O O8 0.669647 0.756394 0.774655
O O9 0.831413 0.500000 0.740689
O O10 0.839173 0.306924 0.935613
O O11 0.735351 0.281979 0.970469
O O12 0.865164 0.500000 0.082702
O O13 0.792989 0.248982 0.306900
O O14 0.357186 0.786481 0.424426
O O15 0.280042 0.000000 0.477882
O O16 0.349606 0.500000 0.745669
O O17 0.400209 0.777494 0.586828
O O18 0.445059 0.000000 0.309961
#
# Coordination Sequence:
#
# PCOD9155152 Si02
#       7
#     4   4   4   4   4   4   4
#     4   9  17  28  46  76 113 143 173 218 268 317
#     4  11  24  39  57  80 109 146 186 226 274 327
#     4   9  17  31  52  78 108 140 178 221 266 319
#     4  10  18  31  54  80 107 142 182 221 269 322
#     4  11  23  38  56  80 112 145 182 228 276 325
#     4  10  21  38  58  82 111 144 183 228 272 322
#     4  11  23  38  58  82 109 142 183 230 278 325
#
# _framework density 19.917818
#
# number of rings (size 3 to 8) (size 9 to 14) (size 15 to 20)
#    0.000    1.857    1.429    3.000    0.000    9.143 
#    0.000    0.000    0.000    0.857    0.000    6.000 
#    0.000    0.000    0.000    0.000    0.000    0.000 
#
# Total GULP energy -156246.474821 kJ/mol
# GULP energy per Si atom -5580.231244 kJ/mol
# Density = 1.987248 g / cm^3
# Si number density = 19.917818 Si / 1000 Ang^3
#
#
#
# Elastic Constant Matrix: (Units=GPa)
#
#
# Indices 1 2 3 4 5 6 
#
# 1 24.5710 12.0849 10.6147 0.0000 -10.6935 0.0000
# 2 12.0849 39.1755 34.1550 0.0000 -12.6488 0.0000
# 3 10.6147 34.1550 109.8876 0.0000 -35.7382 0.0000
# 4 0.0000 0.0000 0.0000 39.2056 0.0000 -12.5962
# 5 -10.6935 -12.6488 -35.7382 0.0000 37.3384 0.0000
# 6 0.0000 0.0000 0.0000 -12.5962 0.0000 21.9533
#
#
#
# Elastic Compliance Matrix: (Units=1/GPa)
#
#
# Indices 1 2 3 4 5 6 
#
# 1 0.052476 -0.015396 0.004222 0.000000 0.013855 0.000000
# 2 -0.015396 0.039645 -0.011473 0.000000 -0.001960 0.000000
# 3 0.004222 -0.011473 0.016534 0.000000 0.013149 0.000000
# 4 0.000000 0.000000 0.000000 0.031271 0.000000 0.017943
# 5 0.013855 -0.001960 0.013149 0.000000 0.042671 0.000000
# 6 0.000000 0.000000 0.000000 0.017943 0.000000 0.055846
#
#
# Mechanical properties :
#
#
# Convention : Reuss Voigt Hill
#
# Bulk Modulus (GPa) = 15.78199 31.92703 23.85451
# Shear Modulus (GPa) = 16.40109 27.48474 21.94292
#
# Velocity S-wave (km/s) = 2.87267 3.71874 3.32275
# Velocity P-wave (km/s) = 4.35244 5.87392 5.16946
#
# Compressibility (1/GPa) = 0.06336335
#
# Stress axis : x y z
#
# Youngs Moduli (GPa) = 19.05622 25.22386 60.47967
#
# Poissons Ratio (x) = 0.38834 -0.25535
# Poissons Ratio (y) = 0.29338 0.69386
# Poissons Ratio (z) = -0.08046 0.28938
#
# Static dielectric constant tensor:
#      x y z
#    x 1.708040 0.000000 0.044720 
#    y 0.000000 1.690360 0.000000 
#    z 0.044720 0.000000 1.699130 
# 
# From -- ./inp_files/37094.got.cif
#   From: 2010.05.17/outbox.ucp.g08.bks.cvg/sg10_19_cif.got.tgz:37094.got - 2010.06.11 11:31:16.
