data_PCOD9155093
_publ_section_title
;
Structure prediction by ZEFSAII (Michael W. Deem and Ramdas Pophale) SiO2 
 PCOD9155093
Probable space group: P 2/M
;
_chemical_formula_sum "Si O2"
_cell_formula_units_Z 30
_cell_length_a 12.000000
_cell_length_b 9.000000
_cell_length_c 15.000000
_cell_angle_alpha 90.000000
_cell_angle_beta 110.000000
_cell_angle_gamma 90.000000
_cell_volume 1522.302046
_symmetry_space_group_name_H-M "P 2/M"
_symmetry_group_IT_number 10
_symmetry_cell_setting 'monoclinic'
loop_
_space_group_symop_operation_xyz
x,y,z
-x,y,-z
-x,-y,-z
x,-y,z
loop_
_atom_site_type_symbol
_atom_site_label
_atom_site_fract_x
_atom_site_fract_y
_atom_site_fract_z
Si Si1 0.023384 0.166168 0.305697
Si Si2 0.136152 0.819831 0.029883
Si Si3 0.000000 0.756141 0.500000
Si Si4 0.730506 0.321559 0.632011
Si Si5 0.648965 0.178935 0.785346
Si Si6 0.777382 0.821071 0.141917
Si Si7 0.408190 0.320136 0.779939
Si Si8 0.269626 0.670634 0.566834
O O1 0.898723 0.212172 0.229090
O O2 0.007814 0.160601 0.408127
O O3 0.132171 0.274809 0.315583
O O4 0.052620 0.000000 0.279645
O O5 0.226595 0.778372 0.133124
O O6 0.129966 0.000000 0.028483
O O7 0.195634 0.777514 0.952298
O O8 0.000000 0.765948 0.000000
O O9 0.873187 0.673591 0.460710
O O10 0.718687 0.500000 0.632664
O O11 0.653372 0.244354 0.686880
O O12 0.702429 0.266116 0.523565
O O13 0.538484 0.250377 0.807318
O O14 0.639438 0.000000 0.782241
O O15 0.667390 0.739398 0.157386
O O16 0.759315 0.000000 0.141206
O O17 0.413104 0.500000 0.783084
O O18 0.335514 0.266982 0.671275
O O19 0.307758 0.500000 0.572850
#
# Coordination Sequence:
#
# PCOD9155093 Si02
#       8
#     4   4   2   4   4   4   4   4
#     4  10  19  31  53  86 121 150 185 238 295 342
#     4   9  19  38  66  91 114 147 191 239 291 350
#     4  10  16  30  52  84 115 152 193 238 285 330
#     4  10  21  37  58  84 114 155 200 244 289 346
#     4  11  23  41  62  86 114 150 196 248 297 345
#     4  10  20  37  60  88 118 155 198 240 285 344
#     4  11  23  40  59  84 120 161 196 236 289 349
#     4   9  19  34  55  82 116 159 200 235 281 348
#
# _framework density 19.706996
#
# number of rings (size 3 to 8) (size 9 to 14) (size 15 to 20)
#    0.000    2.000    1.333    2.400    0.000    4.267 
#    0.000    8.667    0.000    2.800    0.000    0.000 
#    0.000    0.000    0.000    0.000    0.000    0.000 
#
# Total GULP energy -167391.803489 kJ/mol
# GULP energy per Si atom -5579.726783 kJ/mol
# Density = 1.966214 g / cm^3
# Si number density = 19.706996 Si / 1000 Ang^3
#
#
#
# Elastic Constant Matrix: (Units=GPa)
#
#
# Indices 1 2 3 4 5 6 
#
# 1 106.7816 28.3043 39.2303 0.0000 -17.9337 0.0000
# 2 28.3043 50.6682 13.2029 0.0000 -7.8901 0.0000
# 3 39.2303 13.2029 81.1850 0.0000 -14.8657 0.0000
# 4 0.0000 0.0000 0.0000 19.3394 0.0000 -0.2084
# 5 -17.9337 -7.8901 -14.8657 0.0000 33.2284 0.0000
# 6 0.0000 0.0000 0.0000 -0.2084 0.0000 24.6964
#
#
#
# Elastic Compliance Matrix: (Units=1/GPa)
#
#
# Indices 1 2 3 4 5 6 
#
# 1 0.013223 -0.005562 -0.004815 0.000000 0.003662 0.000000
# 2 -0.005562 0.023375 -0.000705 0.000000 0.002233 0.000000
# 3 -0.004815 -0.000705 0.015524 0.000000 0.004179 0.000000
# 4 0.000000 0.000000 0.000000 0.051713 0.000000 0.000436
# 5 0.003662 0.002233 0.004179 0.000000 0.034471 0.000000
# 6 0.000000 0.000000 0.000000 0.000436 0.000000 0.040495
#
#
# Mechanical properties :
#
#
# Convention : Reuss Voigt Hill
#
# Bulk Modulus (GPa) = 33.37894 44.45666 38.91780
# Shear Modulus (GPa) = 23.70233 25.97931 24.84082
#
# Velocity S-wave (km/s) = 3.47181 3.63475 3.55421
# Velocity P-wave (km/s) = 5.74854 6.34216 6.05263
#
# Compressibility (1/GPa) = 0.02995901
#
# Stress axis : x y z
#
# Youngs Moduli (GPa) = 75.62564 42.78148 64.41657
#
# Poissons Ratio (x) = 0.23794 0.31014
# Poissons Ratio (y) = 0.42062 0.04540
# Poissons Ratio (z) = 0.36411 0.03015
#
# Static dielectric constant tensor:
#      x y z
#    x 1.674240 0.000000 -0.005030 
#    y 0.000000 1.677110 0.000000 
#    z -0.005030 0.000000 1.725960 
# 
# From -- ./inp_files/63853.got.cif
#   From: 2010.05.17/outbox.ucp.g08.bks.cvg/sg10_32_cif.got.tgz:63853.got - 2010.06.11 11:31:16.
