data_PCOD9155467
_publ_section_title
;
Structure prediction by ZEFSAII (Michael W. Deem and Ramdas Pophale) SiO2 
 PCOD9155467
Probable space group: P 2/M
;
_chemical_formula_sum "Si O2"
_cell_formula_units_Z 32
_cell_length_a 24.000000
_cell_length_b 9.000000
_cell_length_c 15.000000
_cell_angle_alpha 90.000000
_cell_angle_beta 30.000000
_cell_angle_gamma 90.000000
_cell_volume 1620.000000
_symmetry_space_group_name_H-M "P 2/M"
_symmetry_group_IT_number 10
_symmetry_cell_setting 'monoclinic'
loop_
_space_group_symop_operation_xyz
x,y,z
-x,y,-z
-x,-y,-z
x,-y,z
loop_
_atom_site_type_symbol
_atom_site_label
_atom_site_fract_x
_atom_site_fract_y
_atom_site_fract_z
Si Si1 0.505518 0.677236 0.386668
Si Si2 0.321163 0.179445 0.989122
Si Si3 0.730534 0.175841 0.537931
Si Si4 0.724443 0.175493 0.346958
Si Si5 0.079638 0.670696 0.627691
Si Si6 0.080264 0.325648 0.303659
Si Si7 0.930446 0.671170 0.010206
Si Si8 0.482549 0.179928 0.923072
O O1 0.500000 0.710155 0.500000
O O2 0.516791 0.500000 0.359905
O O3 0.604308 0.757620 0.195613
O O4 0.388333 0.735637 0.511628
O O5 0.382720 0.228315 0.996450
O O6 0.321853 0.000000 0.985140
O O7 0.195997 0.240945 0.156931
O O8 0.770281 0.207601 0.382867
O O9 0.803997 0.251981 0.511565
O O10 0.601012 0.217275 0.715522
O O11 0.736704 0.000000 0.544757
O O12 0.821781 0.229317 0.147214
O O13 0.702506 0.000000 0.370915
O O14 0.101985 0.500000 0.570887
O O15 0.997176 0.736469 0.668342
O O16 0.010238 0.673578 0.815125
O O17 0.106346 0.500000 0.248093
O O18 0.000000 0.320544 0.500000
O O19 0.894373 0.500000 0.075690
O O20 0.000000 0.720167 0.000000
O O21 0.472440 0.000000 0.941906
O O22 0.500000 0.234439 0.000000
#
# Coordination Sequence:
#
# PCOD9155467 Si02
#       8
#     4   4   4   4   4   4   4   4
#     4  11  25  43  64  88 120 166 209 247 304 375
#     4  11  23  42  67  96 127 158 207 263 312 369
#     4  10  20  36  59  88 122 154 193 247 306 363
#     4  11  22  37  58  87 123 156 194 248 306 360
#     4  10  22  39  59  83 117 160 207 252 296 357
#     4  10  24  45  64  85 123 170 213 260 308 357
#     4  10  20  35  55  82 116 156 198 240 292 359
#     4   9  19  37  61  89 122 157 189 240 309 367
#
# _framework density 19.753086
#
# number of rings (size 3 to 8) (size 9 to 14) (size 15 to 20)
#    0.000    1.750    2.500    1.125    3.500    3.000 
#    0.000    0.000    0.000    1.875    0.000    0.000 
#    0.000    0.000    0.000    0.000    0.000    0.000 
#
# Total GULP energy -178532.452160 kJ/mol
# GULP energy per Si atom -5579.139130 kJ/mol
# Density = 1.970813 g / cm^3
# Si number density = 19.753086 Si / 1000 Ang^3
#
#
#
# Elastic Constant Matrix: (Units=GPa)
#
#
# Indices 1 2 3 4 5 6 
#
# 1 141.3863 45.1298 33.3617 0.0000 -26.7578 0.0000
# 2 45.1298 38.8808 24.7019 0.0000 -12.1396 0.0000
# 3 33.3617 24.7019 27.7458 0.0000 -18.4728 0.0000
# 4 0.0000 0.0000 0.0000 20.8753 0.0000 -9.9920
# 5 -26.7578 -12.1396 -18.4728 0.0000 34.4287 0.0000
# 6 0.0000 0.0000 0.0000 -9.9920 0.0000 28.1067
#
#
#
# Elastic Compliance Matrix: (Units=1/GPa)
#
#
# Indices 1 2 3 4 5 6 
#
# 1 0.011939 -0.012134 -0.000348 0.000000 0.004814 0.000000
# 2 -0.012134 0.074635 -0.063187 0.000000 -0.017017 0.000000
# 3 -0.000348 -0.063187 0.120885 0.000000 0.042311 0.000000
# 4 0.000000 0.000000 0.000000 0.057726 0.000000 0.020522
# 5 0.004814 -0.017017 0.042311 0.000000 0.049489 0.000000
# 6 0.000000 0.000000 0.000000 0.020522 0.000000 0.042874
#
#
# Mechanical properties :
#
#
# Convention : Reuss Voigt Hill
#
# Bulk Modulus (GPa) = 17.81849 46.04442 31.93145
# Shear Modulus (GPa) = 9.47702 23.67010 16.57356
#
# Velocity S-wave (km/s) = 2.19275 3.46540 2.89976
# Velocity P-wave (km/s) = 3.93078 6.27476 5.23563
#
# Compressibility (1/GPa) = 0.05612149
#
# Stress axis : x y z
#
# Youngs Moduli (GPa) = 83.75908 13.39859 8.27235
#
# Poissons Ratio (x) = 0.16258 0.00288
# Poissons Ratio (y) = 1.01633 0.52270
# Poissons Ratio (z) = 0.02912 0.84661
#
# Static dielectric constant tensor:
#      x y z
#    x 1.726280 0.000000 0.038600 
#    y 0.000000 1.684810 0.000000 
#    z 0.038600 0.000000 1.727570 
# 
# From -- ./inp_files/71402.got.cif
#   From: 2010.05.17/outbox.ucp.g08.bks.cvg/sg10_36_cif.got.tgz:71402.got - 2010.06.11 11:31:16.
