data_PCOD9155787
_publ_section_title
;
Structure prediction by ZEFSAII (Michael W. Deem and Ramdas Pophale) SiO2 
 PCOD9155787
Probable space group: P 21/M
;
_chemical_formula_sum "Si O2"
_cell_formula_units_Z 26
_cell_length_a 14.801125
_cell_length_b 17.252591
_cell_length_c 7.054376
_cell_angle_alpha 90.000000
_cell_angle_beta 141.019013
_cell_angle_gamma 90.000000
_cell_volume 1133.186605
_symmetry_space_group_name_H-M "P 21/M"
_symmetry_group_IT_number 11
_symmetry_cell_setting 'monoclinic'
loop_
_space_group_symop_operation_xyz
x,y,z
-x,1/2+y,-z
-x,-y,-z
x,1/2-y,z
loop_
_atom_site_type_symbol
_atom_site_label
_atom_site_fract_x
_atom_site_fract_y
_atom_site_fract_z
Si Si1 0.394928 0.750000 0.167018
Si Si2 0.319892 0.160633 0.819824
Si Si3 0.948736 0.658497 0.143868
Si Si4 0.628949 0.623194 0.545233
Si Si5 0.803464 0.102532 0.199107
Si Si6 0.451734 0.011234 0.139255
Si Si7 0.992142 0.159319 0.204149
O O1 0.509005 0.682174 0.419356
O O2 0.285949 0.681231 0.915053
O O3 0.347604 0.250000 0.909423
O O4 0.353980 0.148228 0.650637
O O5 0.148753 0.145790 0.552297
O O6 0.417341 0.101726 0.096686
O O7 0.960025 0.750000 0.211738
O O8 0.057727 0.607437 0.441207
O O9 0.783157 0.634480 0.889330
O O10 0.990528 0.649905 0.991189
O O11 0.571547 0.535209 0.452771
O O12 0.869213 0.107298 0.095438
O O13 0.698173 0.032659 0.071361
O O14 0.500000 0.000000 0.000000
O O15 0.954507 0.250000 0.177767
#
# Coordination Sequence:
#
# PCOD9155787 Si02
#       7
#     2   4   4   4   4   4   4
#     4  10  16  28  52  82 112 154 184 234 292 334
#     4   9  16  32  56  79 111 157 194 238 294 358
#     4  10  18  33  59  88 118 160 201 240 295 350
#     4   9  16  31  54  80 115 153 190 241 294 347
#     4  11  20  33  58  89 119 148 207 249 281 351
#     4   9  20  34  55  88 115 153 205 238 298 360
#     4   9  18  33  55  84 120 153 195 244 298 349
#
# _framework density 22.944147000000001
#
# number of rings (size 3 to 8) (size 9 to 14) (size 15 to 20)
#    0.000    2.462    3.077    0.923    0.000    0.615 
#    0.000    6.923    0.000   24.000    0.000    0.000 
#    0.000    0.000    0.000    0.000    0.000    0.000 
#
# Total GULP energy -144915.458213 kJ/mol
# GULP energy per Si atom -5573.671470 kJ/mol
# Density = 2.289192 g / cm^3
# Si number density = 22.944147 Si / 1000 Ang^3
#
#
#
# Elastic Constant Matrix: (Units=GPa)
#
#
# Indices 1 2 3 4 5 6 
#
# 1 50.0880 27.1094 -4.3323 0.0000 -2.3453 0.0000
# 2 27.1094 100.5221 28.3635 0.0000 14.9232 0.0000
# 3 -4.3323 28.3635 101.8543 0.0000 6.2873 0.0000
# 4 0.0000 0.0000 0.0000 27.7827 0.0000 14.5625
# 5 -2.3453 14.9232 6.2873 0.0000 22.0965 0.0000
# 6 0.0000 0.0000 0.0000 14.5625 0.0000 29.7252
#
#
#
# Elastic Compliance Matrix: (Units=1/GPa)
#
#
# Indices 1 2 3 4 5 6 
#
# 1 0.025401 -0.008877 0.003070 0.000000 0.007818 0.000000
# 2 -0.008877 0.014918 -0.003921 0.000000 -0.009902 0.000000
# 3 0.003070 -0.003921 0.011051 0.000000 -0.000171 0.000000
# 4 0.000000 0.000000 0.000000 0.048430 0.000000 -0.023726
# 5 0.007818 -0.009902 -0.000171 0.000000 0.052822 0.000000
# 6 0.000000 0.000000 0.000000 -0.023726 0.000000 0.045265
#
#
# Mechanical properties :
#
#
# Convention : Reuss Voigt Hill
#
# Bulk Modulus (GPa) = 31.33383 39.41618 35.37500
# Shear Modulus (GPa) = 21.93168 29.34247 25.63707
#
# Velocity S-wave (km/s) = 3.09507 3.58000 3.34633
# Velocity P-wave (km/s) = 5.14382 5.85705 5.51198
#
# Compressibility (1/GPa) = 0.03191439
#
# Stress axis : x y z
#
# Youngs Moduli (GPa) = 39.36847 67.03150 90.49077
#
# Poissons Ratio (x) = 0.59504 -0.27779
# Poissons Ratio (y) = 0.34948 0.35479
# Poissons Ratio (z) = -0.12085 0.26281
#
# Static dielectric constant tensor:
#      x y z
#    x 1.945890 0.000000 -0.047460 
#    y 0.000000 1.831940 0.000000 
#    z -0.047460 0.000000 1.838380 
# 
# From -- ./inp_files/25206.got.cif
#   From: 2010.05.17/outbox.cif.g08.bks.cpg/sg11_13_cif.got.tgz:25206.got - 2010.06.03 12:22:45.
