data_PCOD9155266
_publ_section_title
;
Structure prediction by ZEFSAII (Michael W. Deem and Ramdas Pophale) SiO2 
 PCOD9155266
Probable space group: P 2/M
;
_chemical_formula_sum "Si O2"
_cell_formula_units_Z 28
_cell_length_a 27.000000
_cell_length_b 9.000000
_cell_length_c 9.000000
_cell_angle_alpha 90.000000
_cell_angle_beta 140.000000
_cell_angle_gamma 90.000000
_cell_volume 1405.776502
_symmetry_space_group_name_H-M "P 2/M"
_symmetry_group_IT_number 10
_symmetry_cell_setting 'monoclinic'
loop_
_space_group_symop_operation_xyz
x,y,z
-x,y,-z
-x,-y,-z
x,-y,z
loop_
_atom_site_type_symbol
_atom_site_label
_atom_site_fract_x
_atom_site_fract_y
_atom_site_fract_z
Si Si1 0.330489 0.321434 0.765087
Si Si2 0.213802 0.169404 0.025813
Si Si3 0.631171 0.820101 0.466409
Si Si4 0.920031 0.170885 0.473201
Si Si5 0.486287 0.321889 0.294993
Si Si6 0.920353 0.170212 0.051372
Si Si7 0.833702 0.172030 0.583014
O O1 0.325800 0.500000 0.740877
O O2 0.353351 0.249820 0.659359
O O3 0.247126 0.256276 0.617922
O O4 0.399897 0.286236 0.039706
O O5 0.151056 0.247830 0.776196
O O6 0.160379 0.161590 0.048173
O O7 0.227413 0.000000 0.999846
O O8 0.297347 0.228632 0.262160
O O9 0.550576 0.762949 0.346533
O O10 0.632865 0.000000 0.461191
O O11 0.884298 0.163177 0.553083
O O12 0.007101 0.231657 0.689066
O O13 0.926281 0.000000 0.425052
O O14 0.500000 0.287124 0.500000
O O15 0.496932 0.500000 0.299881
O O16 0.945839 0.000000 0.076270
O O17 0.892613 0.244072 0.836825
O O18 0.815418 0.000000 0.584916
#
# Coordination Sequence:
#
# PCOD9155266 Si02
#       7
#     4   4   4   4   4   4   4
#     4  11  23  40  61  82 110 152 194 227 276 341
#     4   9  17  29  47  79 115 145 179 224 275 331
#     4  11  22  38  61  90 119 146 185 234 283 330
#     4   9  17  27  47  78 114 150 181 225 282 330
#     4  10  24  44  63  85 114 148 187 228 276 342
#     4   9  15  28  48  75 112 149 184 224 275 330
#     4  10  19  32  53  83 114 142 185 237 280 325
#
# _framework density 19.917818
#
# number of rings (size 3 to 8) (size 9 to 14) (size 15 to 20)
#    0.000    2.143    1.429    2.143    2.000    6.571 
#    0.000    0.000    0.000    1.714    0.000    1.000 
#    0.000    0.000    0.000    0.000    0.000    0.000 
#
# Total GULP energy -155922.432895 kJ/mol
# GULP energy per Si atom -5568.658318 kJ/mol
# Density = 1.987248 g / cm^3
# Si number density = 19.917818 Si / 1000 Ang^3
#
#
#
# Elastic Constant Matrix: (Units=GPa)
#
#
# Indices 1 2 3 4 5 6 
#
# 1 42.5453 4.1627 1.9989 0.0000 13.6184 0.0000
# 2 4.1627 26.3695 13.1553 0.0000 9.7770 0.0000
# 3 1.9989 13.1553 148.0275 0.0000 20.0632 0.0000
# 4 0.0000 0.0000 0.0000 18.8215 0.0000 0.3168
# 5 13.6184 9.7770 20.0632 0.0000 28.3794 0.0000
# 6 0.0000 0.0000 0.0000 0.3168 0.0000 10.7809
#
#
#
# Elastic Compliance Matrix: (Units=1/GPa)
#
#
# Indices 1 2 3 4 5 6 
#
# 1 0.028110 0.000214 0.001592 0.000000 -0.014689 0.000000
# 2 0.000214 0.044035 -0.002042 0.000000 -0.013830 0.000000
# 3 0.001592 -0.002042 0.007657 0.000000 -0.005474 0.000000
# 4 0.000000 0.000000 0.000000 0.053157 0.000000 -0.001562
# 5 -0.014689 -0.013830 -0.005474 0.000000 0.050920 0.000000
# 6 0.000000 0.000000 0.000000 -0.001562 0.000000 0.092803
#
#
# Mechanical properties :
#
#
# Convention : Reuss Voigt Hill
#
# Bulk Modulus (GPa) = 12.60521 28.39733 20.50127
# Shear Modulus (GPa) = 16.46919 24.77140 20.62029
#
# Velocity S-wave (km/s) = 2.87863 3.53041 3.22105
# Velocity P-wave (km/s) = 4.17026 5.55937 4.91415
#
# Compressibility (1/GPa) = 0.07933229
#
# Stress axis : x y z
#
# Youngs Moduli (GPa) = 35.57413 22.70913 130.59251
#
# Poissons Ratio (x) = -0.00487 -0.20793
# Poissons Ratio (y) = -0.00762 0.26665
# Poissons Ratio (z) = -0.05664 0.04637
#
# Static dielectric constant tensor:
#      x y z
#    x 1.724570 0.000000 -0.079750 
#    y 0.000000 1.685470 0.000000 
#    z -0.079750 0.000000 1.809550 
# 
# From -- ./inp_files/37283.got.cif
#   From: 2010.05.17/outbox.ucp.g08.bks.cvg/sg10_19_cif.got.tgz:37283.got - 2010.06.11 11:31:16.
