data_PCOD9155948
_publ_section_title
;
Structure prediction by ZEFSAII (Michael W. Deem and Ramdas Pophale) SiO2 
 PCOD9155948
Probable space group: P 21/M
;
_chemical_formula_sum "Si O2"
_cell_formula_units_Z 32
_cell_length_a 13.850547
_cell_length_b 8.844332
_cell_length_c 24.561369
_cell_angle_alpha 90.000000
_cell_angle_beta 135.139086
_cell_angle_gamma 90.000000
_cell_volume 2122.329043
_symmetry_space_group_name_H-M "P 21/M"
_symmetry_group_IT_number 11
_symmetry_cell_setting 'monoclinic'
loop_
_space_group_symop_operation_xyz
x,y,z
-x,1/2+y,-z
-x,-y,-z
x,1/2-y,z
loop_
_atom_site_type_symbol
_atom_site_label
_atom_site_fract_x
_atom_site_fract_y
_atom_site_fract_z
Si Si1 0.814267 0.427875 0.686338
Si Si2 0.322941 0.931785 0.171322
Si Si3 0.897846 0.931275 0.831730
Si Si4 0.210025 0.429616 0.435329
Si Si5 0.863210 0.931630 0.470454
Si Si6 0.108697 0.568709 0.001504
Si Si7 0.496438 0.928315 0.404324
Si Si8 0.579157 0.071132 0.325228
O O1 0.840516 0.250000 0.701407
O O2 0.883629 0.512249 0.764626
O O3 0.850371 0.486943 0.640905
O O4 0.650941 0.452541 0.628743
O O5 0.329032 0.750000 0.178746
O O6 0.254472 0.974316 0.085750
O O7 0.220090 0.993454 0.177446
O O8 0.471853 0.001495 0.239884
O O9 0.880147 0.750000 0.827107
O O10 0.045162 0.972097 0.917607
O O11 0.192210 0.250000 0.421197
O O12 0.150946 0.472304 0.470980
O O13 0.373313 0.459628 0.505599
O O14 0.862969 0.750000 0.466883
O O15 0.728731 0.995937 0.386653
O O16 0.000000 0.000000 0.500000
O O17 0.102987 0.750000 0.002540
O O18 0.000000 0.500000 0.000000
O O19 0.506683 0.750000 0.392325
O O20 0.514479 0.029106 0.358125
O O21 0.590302 0.250000 0.323270
#
# Coordination Sequence:
#
# PCOD9155948 Si02
#       8
#     4   4   4   4   4   4   4   4
#     4  11  20  28  42  63  90 123 156 190 225 264
#     4  10  17  28  43  61  88 119 154 195 231 265
#     4  10  18  28  41  60  86 121 160 192 227 269
#     4   9  19  33  47  64  87 116 149 186 225 267
#     4  10  21  38  56  72  92 117 146 186 233 277
#     4   8  16  27  40  57  81 116 155 192 228 265
#     4   9  18  31  43  59  88 121 153 190 228 261
#     4  11  20  29  46  70  92 121 156 188 226 273
#
# _framework density 15.077774
#
# number of rings (size 3 to 8) (size 9 to 14) (size 15 to 20)
#    0.000    2.250    1.250    3.750    0.000    4.000 
#    0.000    0.000    0.000    0.000    0.000    0.000 
#    0.000    1.000    0.000    3.000    0.000    4.000 
#
# Total GULP energy -178311.824188 kJ/mol
# GULP energy per Si atom -5572.244506 kJ/mol
# Density = 1.504346 g / cm^3
# Si number density = 15.077774 Si / 1000 Ang^3
#
#
#
# Elastic Constant Matrix: (Units=GPa)
#
#
# Indices 1 2 3 4 5 6 
#
# 1 48.3419 33.7583 53.9046 0.0000 4.2598 0.0000
# 2 33.7583 55.8602 58.2478 0.0000 -0.2260 0.0000
# 3 53.9046 58.2478 140.8725 0.0000 -5.5028 0.0000
# 4 0.0000 0.0000 0.0000 22.0705 0.0000 0.2425
# 5 4.2598 -0.2260 -5.5028 0.0000 16.0507 0.0000
# 6 0.0000 0.0000 0.0000 0.2425 0.0000 18.5956
#
#
#
# Elastic Compliance Matrix: (Units=1/GPa)
#
#
# Indices 1 2 3 4 5 6 
#
# 1 0.046383 -0.015671 -0.011918 0.000000 -0.016616 0.000000
# 2 -0.015671 0.037030 -0.009256 0.000000 0.001507 0.000000
# 3 -0.011918 -0.009256 0.015816 0.000000 0.008455 0.000000
# 4 0.000000 0.000000 0.000000 0.045316 0.000000 -0.000591
# 5 -0.016616 0.001507 0.008455 0.000000 0.069633 0.000000
# 6 0.000000 0.000000 0.000000 -0.000591 0.000000 0.053784
#
#
# Mechanical properties :
#
#
# Convention : Reuss Voigt Hill
#
# Bulk Modulus (GPa) = 39.15421 59.65510 49.40466
# Shear Modulus (GPa) = 14.27909 17.95429 16.11669
#
# Velocity S-wave (km/s) = 3.08072 3.45451 3.27296
# Velocity P-wave (km/s) = 6.21924 7.45401 6.86445
#
# Compressibility (1/GPa) = 0.02554004
#
# Stress axis : x y z
#
# Youngs Moduli (GPa) = 21.55981 27.00543 63.22620
#
# Poissons Ratio (x) = 0.42319 0.75352
# Poissons Ratio (y) = 0.33786 0.58520
# Poissons Ratio (z) = 0.25694 0.24995
#
# Static dielectric constant tensor:
#      x y z
#    x 1.464790 0.000000 -0.004110 
#    y 0.000000 1.538800 0.000000 
#    z -0.004110 0.000000 1.545220 
# 
# From -- ./inp_files/42494.got.cif
#   From: 2010.05.17/outbox.cif.g08.bks.cpg/sg11_22_cif.got.tgz:42494.got - 2010.06.03 12:22:45.
