data_PCOD9155436
_publ_section_title
;
Structure prediction by ZEFSAII (Michael W. Deem and Ramdas Pophale) SiO2 
 PCOD9155436
Probable space group: P 2/M
;
_chemical_formula_sum "Si O2"
_cell_formula_units_Z 32
_cell_length_a 15.000000
_cell_length_b 9.000000
_cell_length_c 27.000000
_cell_angle_alpha 90.000000
_cell_angle_beta 150.000000
_cell_angle_gamma 90.000000
_cell_volume 1822.500000
_symmetry_space_group_name_H-M "P 2/M"
_symmetry_group_IT_number 10
_symmetry_cell_setting 'monoclinic'
loop_
_space_group_symop_operation_xyz
x,y,z
-x,y,-z
-x,-y,-z
x,-y,z
loop_
_atom_site_type_symbol
_atom_site_label
_atom_site_fract_x
_atom_site_fract_y
_atom_site_fract_z
Si Si1 0.842945 0.179690 0.555218
Si Si2 0.194564 0.679280 0.983995
Si Si3 0.161421 0.179005 0.230082
Si Si4 0.501921 0.178752 0.325590
Si Si5 0.708226 0.819149 0.599235
Si Si6 0.539189 0.679066 0.802187
Si Si7 0.223037 0.679171 0.726638
Si Si8 0.511117 0.680406 0.061494
O O1 0.684354 0.223739 0.441320
O O2 0.794989 0.226734 0.588673
O O3 0.031639 0.246360 0.629991
O O4 0.851378 0.000000 0.559117
O O5 0.177480 0.500000 0.976442
O O6 0.288340 0.722905 0.081314
O O7 0.337932 0.719672 0.010395
O O8 0.008160 0.750621 0.878883
O O9 0.338436 0.214729 0.283697
O O10 0.192583 0.228160 0.302337
O O11 0.141836 0.000000 0.221154
O O12 0.473450 0.250212 0.258040
O O13 0.506099 0.000000 0.321980
O O14 0.500000 0.773434 0.500000
O O15 0.708352 0.000000 0.599807
O O16 0.544356 0.500000 0.800230
O O17 0.364213 0.716357 0.751069
O O18 0.205058 0.500000 0.718290
O O19 0.317451 0.725975 0.823780
O O20 0.515997 0.500000 0.062214
O O21 0.500000 0.735793 0.000000
#
# Coordination Sequence:
#
# PCOD9155436 Si02
#       8
#     4   4   4   4   4   4   4   4
#     4  10  20  34  54  80 107 137 174 213 258 311
#     4   9  19  35  54  77 104 136 174 213 259 311
#     4  10  20  34  54  80 107 137 174 213 258 311
#     4  10  21  36  55  78 103 137 179 218 258 306
#     4   9  16  32  55  74 103 144 174 205 255 314
#     4   9  20  39  57  74 103 141 176 214 262 312
#     4   9  19  35  54  77 104 136 174 213 259 311
#     4   8  15  30  51  73 100 135 171 207 251 306
#
# _framework density 17.558299000000002
#
# number of rings (size 3 to 8) (size 9 to 14) (size 15 to 20)
#    0.000    2.750    1.250    1.500    1.750    3.000 
#    0.000    6.875    0.000    1.500    0.000    0.000 
#    0.000    0.000    0.000    0.000    0.000    0.000 
#
# Total GULP energy -178391.988235 kJ/mol
# GULP energy per Si atom -5574.749632 kJ/mol
# Density = 1.751834 g / cm^3
# Si number density = 17.558299 Si / 1000 Ang^3
#
#
#
# Elastic Constant Matrix: (Units=GPa)
#
#
# Indices 1 2 3 4 5 6 
#
# 1 84.6960 22.6682 76.4028 0.0000 -29.8015 0.0000
# 2 22.6682 10.4760 34.9441 0.0000 -3.1850 0.0000
# 3 76.4028 34.9441 186.8704 0.0000 -8.9029 0.0000
# 4 0.0000 0.0000 0.0000 32.9445 0.0000 1.4360
# 5 -29.8015 -3.1850 -8.9029 0.0000 37.0000 0.0000
# 6 0.0000 0.0000 0.0000 1.4360 0.0000 26.1507
#
#
#
# Elastic Compliance Matrix: (Units=1/GPa)
#
#
# Indices 1 2 3 4 5 6 
#
# 1 0.047553 -0.089430 -0.001276 0.000000 0.030296 0.000000
# 2 -0.089430 0.426027 -0.045306 0.000000 -0.046260 0.000000
# 3 -0.001276 -0.045306 0.014274 0.000000 -0.001493 0.000000
# 4 0.000000 0.000000 0.000000 0.030427 0.000000 -0.001671
# 5 0.030296 -0.046260 -0.001493 0.000000 0.047088 0.000000
# 6 0.000000 0.000000 0.000000 -0.001671 0.000000 0.038332
#
#
# Mechanical properties :
#
#
# Convention : Reuss Voigt Hill
#
# Bulk Modulus (GPa) = 4.63326 61.11916 32.87621
# Shear Modulus (GPa) = 5.27611 29.08752 17.18182
#
# Velocity S-wave (km/s) = 1.73535 4.07458 3.13159
# Velocity P-wave (km/s) = 2.58065 7.55123 5.64273
#
# Compressibility (1/GPa) = 0.21583084
#
# Stress axis : x y z
#
# Youngs Moduli (GPa) = 21.02900 2.34727 70.05852
#
# Poissons Ratio (x) = 0.20992 0.08938
# Poissons Ratio (y) = 1.88063 3.17404
# Poissons Ratio (z) = 0.02683 0.10634
#
# Static dielectric constant tensor:
#      x y z
#    x 1.593490 0.000000 -0.004950 
#    y 0.000000 1.589010 0.000000 
#    z -0.004950 0.000000 1.594610 
# 
# From -- ./inp_files/72174.got.cif
#   From: 2010.05.17/outbox.ucp.g08.bks.cvg/sg10_37_cif.got.tgz:72174.got - 2010.06.11 11:31:16.
