data_PCOD9155593
_publ_section_title
;
Structure prediction by ZEFSAII (Michael W. Deem and Ramdas Pophale) SiO2 
 PCOD9155593
Probable space group: P 2/M
;
_chemical_formula_sum "Si O2"
_cell_formula_units_Z 32
_cell_length_a 6.000000
_cell_length_b 15.000000
_cell_length_c 18.000000
_cell_angle_alpha 90.000000
_cell_angle_beta 90.000000
_cell_angle_gamma 90.000000
_cell_volume 1620.000000
_symmetry_space_group_name_H-M "P 2/M"
_symmetry_group_IT_number 10
_symmetry_cell_setting 'monoclinic'
loop_
_space_group_symop_operation_xyz
x,y,z
-x,y,-z
-x,-y,-z
x,-y,z
loop_
_atom_site_type_symbol
_atom_site_label
_atom_site_fract_x
_atom_site_fract_y
_atom_site_fract_z
Si Si1 0.867737 0.097089 0.205508
Si Si2 0.617303 0.903594 0.419468
Si Si3 0.143372 0.604482 0.713091
Si Si4 0.950641 0.737105 0.415723
Si Si5 0.240448 0.155124 0.311873
Si Si6 0.532349 0.783207 0.840648
Si Si7 0.357267 0.605499 0.209999
Si Si8 0.822935 0.100502 0.938874
O O1 0.709815 0.179861 0.184044
O O2 0.014291 0.109569 0.280047
O O3 0.037791 0.092325 0.137179
O O4 0.747915 0.000000 0.208756
O O5 0.500000 0.900227 0.500000
O O6 0.780043 0.819851 0.416399
O O7 0.433569 0.899117 0.353695
O O8 0.734447 0.000000 0.415211
O O9 0.129215 0.500000 0.698522
O O10 0.138984 0.660893 0.637928
O O11 0.398158 0.618078 0.746616
O O12 0.898756 0.623491 0.755893
O O13 0.000000 0.709963 0.500000
O O14 0.169276 0.773610 0.373740
O O15 0.337094 0.195995 0.236298
O O16 0.594790 0.679854 0.852996
O O17 0.616782 0.839710 0.911605
O O18 0.352863 0.500000 0.190907
O O19 0.755505 0.000000 0.962252
O O20 0.000000 0.135049 0.000000
#
# Coordination Sequence:
#
# PCOD9155593 Si02
#       8
#     4   4   4   4   4   4   4   4
#     4  10  21  35  58  87 116 156 201 250 302 354
#     4  11  24  39  54  75 108 156 207 255 311 372
#     4  10  22  41  65  92 120 155 200 261 330 389
#     4  12  24  38  58  79 113 153 203 260 322 379
#     4  11  21  37  54  80 112 152 200 261 305 365
#     4  11  21  35  61  87 121 156 206 251 305 361
#     4  10  21  39  65  93 123 158 204 260 317 376
#     4   9  20  38  59  90 131 167 201 243 297 364
#
# _framework density 19.753086
#
# number of rings (size 3 to 8) (size 9 to 14) (size 15 to 20)
#    0.000    1.500    2.500    3.000    1.750    4.500 
#    0.000    1.875    0.000    3.000    0.000    0.875 
#    0.000    0.000    0.000    0.000    0.000    0.000 
#
# Total GULP energy -178149.386989 kJ/mol
# GULP energy per Si atom -5567.168343 kJ/mol
# Density = 1.970813 g / cm^3
# Si number density = 19.753086 Si / 1000 Ang^3
#
#
#
# Elastic Constant Matrix: (Units=GPa)
#
#
# Indices 1 2 3 4 5 6 
#
# 1 77.8838 17.1346 -1.3733 0.0000 10.9783 0.0000
# 2 17.1346 61.3300 3.8086 0.0000 9.6275 0.0000
# 3 -1.3733 3.8086 45.5245 0.0000 15.7067 0.0000
# 4 0.0000 0.0000 0.0000 11.9542 0.0000 -15.8572
# 5 10.9783 9.6275 15.7067 0.0000 32.9218 0.0000
# 6 0.0000 0.0000 0.0000 -15.8572 0.0000 -8.0116
#
#
#
# Elastic Compliance Matrix: (Units=1/GPa)
#
#
# Indices 1 2 3 4 5 6 
#
# 1 0.014322 -0.003376 0.002420 0.000000 -0.004943 0.000000
# 2 -0.003376 0.017890 -0.000218 0.000000 -0.004002 0.000000
# 3 0.002420 -0.000218 0.026711 0.000000 -0.013487 0.000000
# 4 0.000000 0.000000 0.000000 0.023073 0.000000 -0.045669
# 5 -0.004943 -0.004002 -0.013487 0.000000 0.039628 0.000000
# 6 0.000000 0.000000 0.000000 -0.045669 0.000000 -0.034428
#
#
# Mechanical properties :
#
#
# Convention : Reuss Voigt Hill
#
# Bulk Modulus (GPa) = 17.67541 24.87533 21.27537
# Shear Modulus (GPa) = 46.12499 18.38411 32.25455
#
# Velocity S-wave (km/s) = 4.83751 3.05404 4.04528
# Velocity P-wave (km/s) = 6.33795 5.00567 5.71079
#
# Compressibility (1/GPa) = 0.05657577
#
# Stress axis : x y z
#
# Youngs Moduli (GPa) = 69.82404 55.89692 37.43837
#
# Poissons Ratio (x) = 0.18868 -0.09060
# Poissons Ratio (y) = 0.23569 0.00815
# Poissons Ratio (z) = -0.16897 0.01217
#
# Static dielectric constant tensor:
#      x y z
#    x 1.765470 0.000000 -0.009890 
#    y 0.000000 1.759130 0.000000 
#    z -0.009890 0.000000 1.675820 
# 
# From -- ./inp_files/11426.got.cif
#   From: 2010.05.17/outbox.ucp.g08.bks.cvg/sg10_6_cif.got.tgz:11426.got - 2010.06.11 11:31:16.
