data_PCOD9155020
_publ_section_title
;
Structure prediction by ZEFSAII (Michael W. Deem and Ramdas Pophale) SiO2 
 PCOD9155020
Probable space group: P 2/M
;
_chemical_formula_sum "Si O2"
_cell_formula_units_Z 24
_cell_length_a 12.686476
_cell_length_b 7.220651
_cell_length_c 23.673015
_cell_angle_alpha 90.000000
_cell_angle_beta 27.818179
_cell_angle_gamma 90.000000
_cell_volume 1011.994801
_symmetry_space_group_name_H-M "P 2/M"
_symmetry_group_IT_number 10
_symmetry_cell_setting 'monoclinic'
loop_
_space_group_symop_operation_xyz
x,y,z
-x,y,-z
-x,-y,-z
x,-y,z
loop_
_atom_site_type_symbol
_atom_site_label
_atom_site_fract_x
_atom_site_fract_y
_atom_site_fract_z
Si Si1 0.533747 0.000000 0.897422
Si Si2 0.577244 0.723513 0.525041
Si Si3 0.882250 0.000000 0.820152
Si Si4 0.641946 0.275569 0.689990
Si Si5 0.716676 0.278059 0.059336
Si Si6 0.109787 0.279051 0.791808
Si Si7 0.920582 0.725503 0.449244
O O1 0.464621 0.817108 0.895890
O O2 0.781882 0.000000 0.805403
O O3 0.343680 0.000000 0.035453
O O4 0.500000 0.791174 0.500000
O O5 0.590356 0.500000 0.514392
O O6 0.811535 0.785429 0.441752
O O7 0.373953 0.765238 0.665090
O O8 0.013130 0.178362 0.781876
O O9 0.642884 0.500000 0.688284
O O10 0.389306 0.223053 0.829734
O O11 0.742844 0.218489 0.582330
O O12 0.834233 0.216655 0.644309
O O13 0.710339 0.500000 0.059725
O O14 0.959740 0.223687 0.917658
O O15 0.087531 0.500000 0.796378
O O16 0.928364 0.500000 0.444468
#
# Coordination Sequence:
#
# PCOD9155020 Si02
#       7
#     2   4   2   4   4   4   4
#     4   9  18  30  46  70  99 133 166 202 248 293
#     4   9  17  29  46  69  99 135 170 203 243 294
#     4   9  18  32  47  67  99 134 168 204 244 291
#     4   8  14  26  47  73  98 127 164 207 251 293
#     4   9  17  30  49  73  99 126 160 203 251 297
#     4   9  18  32  49  70  98 130 163 202 246 294
#     4   8  14  26  45  70  99 131 168 205 245 295
#
# _framework density 23.715537999999999
#
# number of rings (size 3 to 8) (size 9 to 14) (size 15 to 20)
#    0.000    3.333    0.000    1.000    0.000    2.000 
#    0.000    7.917    0.000    9.000    0.000    3.500 
#    0.000    0.000    0.000    0.000    0.000    0.000 
#
# Total GULP energy -133700.001435 kJ/mol
# GULP energy per Si atom -5570.833393 kJ/mol
# Density = 2.366156 g / cm^3
# Si number density = 23.715538 Si / 1000 Ang^3
#
#
#
# Elastic Constant Matrix: (Units=GPa)
#
#
# Indices 1 2 3 4 5 6 
#
# 1 76.8420 -9.5498 28.4196 0.0000 -11.0481 0.0000
# 2 -9.5498 92.4956 10.4719 0.0000 -4.5010 0.0000
# 3 28.4196 10.4719 138.4811 0.0000 13.8473 0.0000
# 4 0.0000 0.0000 0.0000 46.5470 0.0000 194.6080
# 5 -11.0481 -4.5010 13.8473 0.0000 24.5249 0.0000
# 6 0.0000 0.0000 0.0000 194.6080 0.0000 863.7097
#
#
#
# Elastic Compliance Matrix: (Units=1/GPa)
#
#
# Indices 1 2 3 4 5 6 
#
# 1 0.016619 0.002764 -0.004683 0.000000 0.010638 0.000000
# 2 0.002764 0.011525 -0.001881 0.000000 0.004422 0.000000
# 3 -0.004683 -0.001881 0.009083 0.000000 -0.007583 0.000000
# 4 0.000000 0.000000 0.000000 0.370558 0.000000 -0.083493
# 5 0.010638 0.004422 -0.007583 0.000000 0.050660 0.000000
# 6 0.000000 0.000000 0.000000 -0.083493 0.000000 0.019970
#
#
# Mechanical properties :
#
#
# Convention : Reuss Voigt Hill
#
# Bulk Modulus (GPa) = 33.75468 40.72244 37.23856
# Shear Modulus (GPa) = 10.08287 205.52147 107.80217
#
# Velocity S-wave (km/s) = 2.06417 9.31929 6.74945
# Velocity P-wave (km/s) = 4.46600 11.53289 8.74507
#
# Compressibility (1/GPa) = 0.02962552
#
# Stress axis : x y z
#
# Youngs Moduli (GPa) = 60.17287 86.76943 110.09766
#
# Poissons Ratio (x) = -0.23981 0.51562
# Poissons Ratio (y) = -0.16630 0.20708
# Poissons Ratio (z) = 0.28181 0.16320
#
# Static dielectric constant tensor:
#      x y z
#    x 1.912220 0.000000 0.037550 
#    y 0.000000 1.859690 0.000000 
#    z 0.037550 0.000000 1.916510 
# 
# From -- ./inp_files/56709.got.cif
#   From: 2010.05.17/outbox.cif.g08.bks.cpg/sg10_29_cif.got.tgz:56709.got - 2010.06.03 11:33:40.
