data_PCOD9155873
_publ_section_title
;
Structure prediction by ZEFSAII (Michael W. Deem and Ramdas Pophale) SiO2 
 PCOD9155873
Probable space group: P 21/M
;
_chemical_formula_sum "Si O2"
_cell_formula_units_Z 32
_cell_length_a 5.422390
_cell_length_b 20.558582
_cell_length_c 15.303800
_cell_angle_alpha 90.000000
_cell_angle_beta 87.866676
_cell_angle_gamma 90.000000
_cell_volume 1704.833929
_symmetry_space_group_name_H-M "P 21/M"
_symmetry_group_IT_number 11
_symmetry_cell_setting 'monoclinic'
loop_
_space_group_symop_operation_xyz
x,y,z
-x,1/2+y,-z
-x,-y,-z
x,1/2-y,z
loop_
_atom_site_type_symbol
_atom_site_label
_atom_site_fract_x
_atom_site_fract_y
_atom_site_fract_z
Si Si1 0.720347 0.000706 0.190785
Si Si2 0.231448 0.482024 0.102419
Si Si3 0.652191 0.823410 0.402669
Si Si4 0.702100 0.943702 0.514062
Si Si5 0.977425 0.491210 0.647359
Si Si6 0.213549 0.639796 0.096495
Si Si7 0.281771 0.385685 0.940946
Si Si8 0.829686 0.356927 0.701786
O O1 0.460566 0.030091 0.164511
O O2 0.794163 0.004278 0.291215
O O3 0.959552 0.033467 0.142131
O O4 0.717571 0.926125 0.152149
O O5 0.225627 0.560059 0.088322
O O6 0.278388 0.441947 0.014009
O O7 0.667872 0.750000 0.434363
O O8 0.613804 0.873669 0.482953
O O9 0.410591 0.831239 0.345019
O O10 0.907524 0.837078 0.345148
O O11 0.813056 0.951216 0.609692
O O12 0.500000 0.000000 0.500000
O O13 0.916775 0.957512 0.440666
O O14 0.818486 0.435943 0.697506
O O15 0.477909 0.658292 0.057243
O O16 0.184268 0.660967 0.196807
O O17 0.965020 0.655883 0.050305
#
# Coordination Sequence:
#
# PCOD9155873 Si02
#       8
#     4   4   4   4   4   4   4   4
#     4  10  18  26  42  60  95 132 176 204 250 299
#     4  10  18  26  39  64  99 142 175 199 245 307
#     4  11  24  39  55  75 104 138 173 223 280 327
#     4  10  21  34  55  74 102 131 180 226 264 331
#     4  10  20  32  48  78  98 133 178 225 260 311
#     4  10  17  26  43  66  90 133 175 210 234 295
#     4  10  17  26  39  64 100 139 177 200 246 298
#     4  11  20  34  55  74 100 134 187 211 263 312
#
# _framework density 18.770157000000001
#
# number of rings (size 3 to 8) (size 9 to 14) (size 15 to 20)
#    0.000    1.750    3.750    4.875    7.000    0.000 
#    0.000    0.000    0.000    0.000    0.000    0.000 
#    0.000    0.000    0.000   38.250    3.250    0.500 
#
# Total GULP energy -178351.798663 kJ/mol
# GULP energy per Si atom -5573.493708 kJ/mol
# Density = 1.872744 g / cm^3
# Si number density = 18.770157 Si / 1000 Ang^3
#
#
#
# Elastic Constant Matrix: (Units=GPa)
#
#
# Indices 1 2 3 4 5 6 
#
# 1 146.0572 18.0476 15.1545 0.0000 14.9100 0.0000
# 2 18.0476 60.0760 15.7473 0.0000 7.7933 0.0000
# 3 15.1545 15.7473 51.3464 0.0000 22.2888 0.0000
# 4 0.0000 0.0000 0.0000 6.1279 0.0000 -2.5372
# 5 14.9100 7.7933 22.2888 0.0000 35.4783 0.0000
# 6 0.0000 0.0000 0.0000 -2.5372 0.0000 4.4670
#
#
#
# Elastic Compliance Matrix: (Units=1/GPa)
#
#
# Indices 1 2 3 4 5 6 
#
# 1 0.007364 -0.001746 -0.000634 0.000000 -0.002313 0.000000
# 2 -0.001746 0.018526 -0.005113 0.000000 -0.000124 0.000000
# 3 -0.000634 -0.005113 0.028362 0.000000 -0.016429 0.000000
# 4 0.000000 0.000000 0.000000 0.213368 0.000000 0.121194
# 5 -0.002313 -0.000124 -0.016429 0.000000 0.039507 0.000000
# 6 0.000000 0.000000 0.000000 0.121194 0.000000 0.292704
#
#
# Mechanical properties :
#
#
# Convention : Reuss Voigt Hill
#
# Bulk Modulus (GPa) = 25.46651 39.48651 32.47651
# Shear Modulus (GPa) = 7.96298 23.11665 15.53981
#
# Velocity S-wave (km/s) = 2.06193 3.51317 2.88045
# Velocity P-wave (km/s) = 4.38928 6.12691 5.32939
#
# Compressibility (1/GPa) = 0.03926726
#
# Stress axis : x y z
#
# Youngs Moduli (GPa) = 135.79038 53.97713 35.25831
#
# Poissons Ratio (x) = 0.09425 0.02235
# Poissons Ratio (y) = 0.23710 0.18027
# Poissons Ratio (z) = 0.08608 0.27597
#
# Static dielectric constant tensor:
#      x y z
#    x 1.796090 0.000000 0.004320 
#    y 0.000000 1.660100 0.000000 
#    z 0.004320 0.000000 1.691810 
# 
# From -- ./inp_files/46053.got.cif
#   From: 2010.05.17/outbox.cif.g08.bks.cpg/sg11_24_cif.got.tgz:46053.got - 2010.06.03 12:22:45.
