data_PCOD9155098
_publ_section_title
;
Structure prediction by ZEFSAII (Michael W. Deem and Ramdas Pophale) SiO2 
 PCOD9155098
Probable space group: P 2/M
;
_chemical_formula_sum "Si O2"
_cell_formula_units_Z 32
_cell_length_a 21.000000
_cell_length_b 9.000000
_cell_length_c 21.000000
_cell_angle_alpha 90.000000
_cell_angle_beta 150.000000
_cell_angle_gamma 90.000000
_cell_volume 1984.500000
_symmetry_space_group_name_H-M "P 2/M"
_symmetry_group_IT_number 10
_symmetry_cell_setting 'monoclinic'
loop_
_space_group_symop_operation_xyz
x,y,z
-x,y,-z
-x,-y,-z
x,-y,z
loop_
_atom_site_type_symbol
_atom_site_label
_atom_site_fract_x
_atom_site_fract_y
_atom_site_fract_z
Si Si1 0.992731 0.179198 0.796789
Si Si2 0.634169 0.321453 0.583539
Si Si3 0.916921 0.678531 0.865500
Si Si4 0.247512 0.680339 0.955973
Si Si5 0.538745 0.323115 0.253196
Si Si6 0.706133 0.178492 0.510928
Si Si7 0.600546 0.678411 0.163806
Si Si8 0.674305 0.820594 0.105792
O O1 0.967633 0.236653 0.846992
O O2 0.859298 0.215726 0.643474
O O3 0.122128 0.256562 0.883030
O O4 0.007566 0.000000 0.808349
O O5 0.500000 0.277826 0.500000
O O6 0.629607 0.500000 0.569880
O O7 0.764041 0.290844 0.736482
O O8 0.654174 0.243013 0.532885
O O9 0.930378 0.500000 0.867438
O O10 0.000000 0.717146 0.000000
O O11 0.243505 0.500000 0.948631
O O12 0.246046 0.752490 0.883831
O O13 0.387577 0.717824 0.109615
O O14 0.538004 0.500000 0.265533
O O15 0.617571 0.242525 0.377407
O O16 0.613693 0.299490 0.250991
O O17 0.697417 0.000000 0.503230
O O18 0.590761 0.500000 0.144399
O O19 0.696742 0.750894 0.195735
O O20 0.466844 0.760264 0.033725
O O21 0.679026 0.000000 0.111194
#
# Coordination Sequence:
#
# PCOD9155098 Si02
#       8
#     4   4   4   4   4   4   4   4
#     4  10  21  36  52  74 103 135 169 204 248 302
#     4   9  18  33  52  72  96 128 165 204 243 288
#     4   9  18  33  52  73  97 128 166 204 244 292
#     4  10  20  34  52  75 101 132 170 212 253 296
#     4   9  19  33  51  75 101 130 169 211 248 292
#     4  10  21  35  52  74 103 136 167 202 248 301
#     4   9  16  28  45  68  99 133 168 207 249 296
#     4  10  17  26  44  71 101 132 164 204 254 302
#
# _framework density 16.124969
#
# number of rings (size 3 to 8) (size 9 to 14) (size 15 to 20)
#    0.000    2.500    0.000    4.125    0.000    6.000 
#    0.000    2.500    0.000    0.750    0.000    5.250 
#    0.000    0.000    0.000    0.000    0.000    0.000 
#
# Total GULP energy -178154.247465 kJ/mol
# GULP energy per Si atom -5567.320233 kJ/mol
# Density = 1.608827 g / cm^3
# Si number density = 16.124969 Si / 1000 Ang^3
#
#
#
# Elastic Constant Matrix: (Units=GPa)
#
#
# Indices 1 2 3 4 5 6 
#
# 1 122.8323 49.5178 77.4655 0.0000 5.9052 0.0000
# 2 49.5178 87.0366 48.9168 0.0000 -1.3906 0.0000
# 3 77.4655 48.9168 124.0692 0.0000 -4.9227 0.0000
# 4 0.0000 0.0000 0.0000 21.5689 0.0000 2.2010
# 5 5.9052 -1.3906 -4.9227 0.0000 27.0151 0.0000
# 6 0.0000 0.0000 0.0000 2.2010 0.0000 27.1100
#
#
#
# Elastic Compliance Matrix: (Units=1/GPa)
#
#
# Indices 1 2 3 4 5 6 
#
# 1 0.015095 -0.004188 -0.007971 0.000000 -0.004968 0.000000
# 2 -0.004188 0.015924 -0.003621 0.000000 0.001075 0.000000
# 3 -0.007971 -0.003621 0.014632 0.000000 0.004222 0.000000
# 4 0.000000 0.000000 0.000000 0.046750 0.000000 -0.003796
# 5 -0.004968 0.001075 0.004222 0.000000 0.038927 0.000000
# 6 0.000000 0.000000 0.000000 -0.003796 0.000000 0.037195
#
#
# Mechanical properties :
#
#
# Convention : Reuss Voigt Hill
#
# Bulk Modulus (GPa) = 70.96253 76.19315 73.57784
# Shear Modulus (GPa) = 24.41632 25.67465 25.04548
#
# Velocity S-wave (km/s) = 3.89549 3.99460 3.94536
# Velocity P-wave (km/s) = 8.02100 8.28433 8.15373
#
# Compressibility (1/GPa) = 0.01409194
#
# Stress axis : x y z
#
# Youngs Moduli (GPa) = 66.24617 62.79736 68.34222
#
# Poissons Ratio (x) = 0.26297 0.54476
# Poissons Ratio (y) = 0.27741 0.24748
# Poissons Ratio (z) = 0.52806 0.22740
#
# Static dielectric constant tensor:
#      x y z
#    x 1.568020 0.000000 -0.003160 
#    y 0.000000 1.536170 0.000000 
#    z -0.003160 0.000000 1.541300 
# 
# From -- ./inp_files/86138.got.cif
#   From: 2010.05.17/outbox.ucp.g08.bks.cvg/sg10_44_cif.got.tgz:86138.got - 2010.06.11 11:31:16.
