data_PCOD9155267
_publ_section_title
;
Structure prediction by ZEFSAII (Michael W. Deem and Ramdas Pophale) SiO2 
 PCOD9155267
Probable space group: P 2/M
;
_chemical_formula_sum "Si O2"
_cell_formula_units_Z 24
_cell_length_a 24.000000
_cell_length_b 9.000000
_cell_length_c 12.000000
_cell_angle_alpha 90.000000
_cell_angle_beta 30.000000
_cell_angle_gamma 90.000000
_cell_volume 1296.000000
_symmetry_space_group_name_H-M "P 2/M"
_symmetry_group_IT_number 10
_symmetry_cell_setting 'monoclinic'
loop_
_space_group_symop_operation_xyz
x,y,z
-x,y,-z
-x,-y,-z
x,-y,z
loop_
_atom_site_type_symbol
_atom_site_label
_atom_site_fract_x
_atom_site_fract_y
_atom_site_fract_z
Si Si1 0.171570 0.678794 0.148867
Si Si2 0.097017 0.680658 0.751535
Si Si3 0.941464 0.680532 0.431482
Si Si4 0.559502 0.178760 0.058479
Si Si5 0.345466 0.678587 0.319327
Si Si6 0.599515 0.178314 0.247524
O O1 0.180800 0.500000 0.132887
O O2 0.141908 0.729066 0.326357
O O3 0.065582 0.718587 0.257052
O O4 0.285090 0.751134 0.914493
O O5 0.089014 0.500000 0.761477
O O6 0.082544 0.735158 0.650275
O O7 0.221630 0.713469 0.575038
O O8 0.000000 0.735377 0.000000
O O9 0.935437 0.500000 0.440707
O O10 0.438615 0.237533 0.229226
O O11 0.579521 0.217208 0.152518
O O12 0.567132 0.000000 0.031334
O O13 0.640903 0.262476 0.831031
O O14 0.362927 0.500000 0.290903
O O15 0.500000 0.228021 0.500000
O O16 0.606369 0.000000 0.241636
#
# Coordination Sequence:
#
# PCOD9155267 Si02
#       6
#     4   4   4   4   4   4
#     4   9  17  31  53  75  94 123 163 205 244 286
#     4   9  17  28  44  70 103 132 154 187 242 298
#     4   8  15  29  48  71  98 125 156 197 245 290
#     4  10  20  35  54  72  97 134 169 204 250 299
#     4  10  19  32  54  80 102 126 164 211 246 284
#     4  10  22  37  50  69 101 137 168 203 250 297
#
# _framework density 18.518519000000001
#
# number of rings (size 3 to 8) (size 9 to 14) (size 15 to 20)
#    0.000    2.667    0.000    4.000    0.000    4.333 
#    0.000    3.333    0.000    4.000    0.000    0.000 
#    0.000    0.000    0.000    0.000    0.000    0.000 
#
# Total GULP energy -133825.194797 kJ/mol
# GULP energy per Si atom -5576.049783 kJ/mol
# Density = 1.847637 g / cm^3
# Si number density = 18.518519 Si / 1000 Ang^3
#
#
#
# Elastic Constant Matrix: (Units=GPa)
#
#
# Indices 1 2 3 4 5 6 
#
# 1 25.2322 -1.3122 11.7557 0.0000 -8.1877 0.0000
# 2 -1.3122 14.2838 5.6362 0.0000 -2.9931 0.0000
# 3 11.7557 5.6362 120.9480 0.0000 -28.0628 0.0000
# 4 0.0000 0.0000 0.0000 80.2766 0.0000 -27.7273
# 5 -8.1877 -2.9931 -28.0628 0.0000 9.7983 0.0000
# 6 0.0000 0.0000 0.0000 -27.7273 0.0000 26.7715
#
#
#
# Elastic Compliance Matrix: (Units=1/GPa)
#
#
# Indices 1 2 3 4 5 6 
#
# 1 0.074795 0.026489 0.023474 0.000000 0.137822 0.000000
# 2 0.026489 0.085386 0.013813 0.000000 0.087779 0.000000
# 3 0.023474 0.013813 0.032411 0.000000 0.116661 0.000000
# 4 0.000000 0.000000 0.000000 0.019395 0.000000 0.020087
# 5 0.137822 0.087779 0.116661 0.000000 0.578164 0.000000
# 6 0.000000 0.000000 0.000000 0.020087 0.000000 0.058158
#
#
# Mechanical properties :
#
#
# Convention : Reuss Voigt Hill
#
# Bulk Modulus (GPa) = 3.12360 21.40260 12.26310
# Shear Modulus (GPa) = 6.04250 32.99491 19.51871
#
# Velocity S-wave (km/s) = 1.80832 4.22563 3.25007
# Velocity P-wave (km/s) = 2.45977 5.94898 4.55197
#
# Compressibility (1/GPa) = 0.32014378
#
# Stress axis : x y z
#
# Youngs Moduli (GPa) = 13.36981 11.71155 30.85377
#
# Poissons Ratio (x) = -0.31022 -0.72426
# Poissons Ratio (y) = -0.35415 -0.42619
# Poissons Ratio (z) = -0.31384 -0.16178
#
# Static dielectric constant tensor:
#      x y z
#    x 1.639450 0.000000 0.000940 
#    y 0.000000 1.610380 0.000000 
#    z 0.000940 0.000000 1.644480 
# 
# From -- ./inp_files/56548.got.cif
#   From: 2010.05.17/outbox.ucp.g08.bks.cvg/sg10_29_cif.got.tgz:56548.got - 2010.06.11 11:31:16.
