data_PCOD9155476
_publ_section_title
;
Structure prediction by ZEFSAII (Michael W. Deem and Ramdas Pophale) SiO2 
 PCOD9155476
Probable space group: P 2/M
;
_chemical_formula_sum "Si O2"
_cell_formula_units_Z 32
_cell_length_a 30.000000
_cell_length_b 9.000000
_cell_length_c 12.000000
_cell_angle_alpha 90.000000
_cell_angle_beta 150.000000
_cell_angle_gamma 90.000000
_cell_volume 1620.000000
_symmetry_space_group_name_H-M "P 2/M"
_symmetry_group_IT_number 10
_symmetry_cell_setting 'monoclinic'
loop_
_space_group_symop_operation_xyz
x,y,z
-x,y,-z
-x,-y,-z
x,-y,z
loop_
_atom_site_type_symbol
_atom_site_label
_atom_site_fract_x
_atom_site_fract_y
_atom_site_fract_z
Si Si1 0.602613 0.177368 0.234361
Si Si2 0.604882 0.324061 0.903106
Si Si3 0.742726 0.178960 0.352535
Si Si4 0.052719 0.173853 0.229374
Si Si5 0.311232 0.332226 0.136172
Si Si6 0.017053 0.677581 0.704347
Si Si7 0.583303 0.670771 0.408353
Si Si8 0.130783 0.823730 0.774895
O O1 0.678176 0.232531 0.313122
O O2 0.626225 0.226708 0.408765
O O3 0.599181 0.000000 0.215048
O O4 0.500000 0.233537 0.000000
O O5 0.611729 0.500000 0.941352
O O6 0.610614 0.305013 0.783520
O O7 0.514363 0.272256 0.765643
O O8 0.690711 0.239383 0.133722
O O9 0.845582 0.225324 0.571733
O O10 0.742808 0.000000 0.355362
O O11 0.002693 0.269813 0.213707
O O12 0.055662 0.000000 0.273019
O O13 0.000000 0.179367 0.000000
O O14 0.275936 0.500000 0.036970
O O15 0.355476 0.331242 0.351666
O O16 0.230786 0.217819 0.958801
O O17 0.021669 0.500000 0.704508
O O18 0.935014 0.743555 0.454693
O O19 0.103529 0.753144 0.835100
O O20 0.574226 0.500000 0.348325
O O21 0.116060 0.000000 0.742927
#
# Coordination Sequence:
#
# PCOD9155476 Si02
#       8
#     4   4   4   4   4   4   4   4
#     4  10  20  36  56  79 111 148 190 240 288 336
#     4  10  20  35  57  82 112 150 191 234 284 344
#     4  10  21  37  58  82 110 149 192 237 289 340
#     4  10  22  40  60  85 119 156 196 242 292 349
#     4  10  21  37  55  82 119 152 186 234 292 346
#     4  11  22  39  63  88 117 151 191 240 294 347
#     4  10  21  36  56  82 113 151 192 236 286 343
#     4  11  22  38  61  88 116 151 195 239 288 351
#
# _framework density 19.753086
#
# number of rings (size 3 to 8) (size 9 to 14) (size 15 to 20)
#    0.000    1.750    1.250    4.125    0.000    7.000 
#    0.000    1.250    0.000    2.250    0.000    0.000 
#    0.000    0.000    0.000    0.000    0.000    0.000 
#
# Total GULP energy -178538.219343 kJ/mol
# GULP energy per Si atom -5579.319354 kJ/mol
# Density = 1.970813 g / cm^3
# Si number density = 19.753086 Si / 1000 Ang^3
#
#
#
# Elastic Constant Matrix: (Units=GPa)
#
#
# Indices 1 2 3 4 5 6 
#
# 1 96.4617 27.8310 -3.0898 0.0000 -7.2649 0.0000
# 2 27.8310 52.0031 6.6572 0.0000 4.0328 0.0000
# 3 -3.0898 6.6572 12.9448 0.0000 1.8451 0.0000
# 4 0.0000 0.0000 0.0000 20.8138 0.0000 -2.2340
# 5 -7.2649 4.0328 1.8451 0.0000 22.1729 0.0000
# 6 0.0000 0.0000 0.0000 -2.2340 0.0000 28.5621
#
#
#
# Elastic Compliance Matrix: (Units=1/GPa)
#
#
# Indices 1 2 3 4 5 6 
#
# 1 0.013436 -0.008478 0.006800 0.000000 0.005378 0.000000
# 2 -0.008478 0.026120 -0.014556 0.000000 -0.006317 0.000000
# 3 0.006800 -0.014556 0.086694 0.000000 -0.002339 0.000000
# 4 0.000000 0.000000 0.000000 0.048452 0.000000 0.003790
# 5 0.005378 -0.006317 -0.002339 0.000000 0.048206 0.000000
# 6 0.000000 0.000000 0.000000 0.003790 0.000000 0.035308
#
#
# Mechanical properties :
#
#
# Convention : Reuss Voigt Hill
#
# Bulk Modulus (GPa) = 10.66305 24.91181 17.78743
# Shear Modulus (GPa) = 15.53067 22.97717 19.25392
#
# Velocity S-wave (km/s) = 2.80704 3.41430 3.12545
# Velocity P-wave (km/s) = 3.98947 5.30869 4.69564
#
# Compressibility (1/GPa) = 0.09378183
#
# Stress axis : x y z
#
# Youngs Moduli (GPa) = 74.42790 38.28442 11.53489
#
# Poissons Ratio (x) = 0.32458 -0.07844
# Poissons Ratio (y) = 0.63102 0.16790
# Poissons Ratio (z) = -0.50615 0.55727
#
# Static dielectric constant tensor:
#      x y z
#    x 1.729030 0.000000 -0.022660 
#    y 0.000000 1.682880 0.000000 
#    z -0.022660 0.000000 1.699130 
# 
# From -- ./inp_files/58246.got.cif
#   From: 2010.05.17/outbox.ucp.g08.bks.cvg/sg10_30_cif.got.tgz:58246.got - 2010.06.11 11:31:16.
