data_PCOD9155704
_publ_section_title
;
Structure prediction by ZEFSAII (Michael W. Deem and Ramdas Pophale) SiO2 
 PCOD9155704
Probable space group: P 2/M
;
_chemical_formula_sum "Si O2"
_cell_formula_units_Z 32
_cell_length_a 12.000000
_cell_length_b 15.000000
_cell_length_c 18.000000
_cell_angle_alpha 90.000000
_cell_angle_beta 150.000000
_cell_angle_gamma 90.000000
_cell_volume 1620.000000
_symmetry_space_group_name_H-M "P 2/M"
_symmetry_group_IT_number 10
_symmetry_cell_setting 'monoclinic'
loop_
_space_group_symop_operation_xyz
x,y,z
-x,y,-z
-x,-y,-z
x,-y,z
loop_
_atom_site_type_symbol
_atom_site_label
_atom_site_fract_x
_atom_site_fract_y
_atom_site_fract_z
Si Si1 0.164671 0.600611 0.998658
Si Si2 0.676572 0.606145 0.748701
Si Si3 0.148419 0.100217 0.651640
Si Si4 0.929759 0.100438 0.833914
Si Si5 0.021575 0.173051 0.295036
Si Si6 0.496713 0.784732 0.368400
Si Si7 0.323882 0.302237 0.964476
Si Si8 0.405471 0.165187 0.146688
O O1 0.105867 0.500000 0.980409
O O2 0.277328 0.609608 0.984492
O O3 0.918749 0.641945 0.860317
O O4 0.310158 0.623308 0.154612
O O5 0.636239 0.500000 0.711586
O O6 0.507404 0.678388 0.619373
O O7 0.402849 0.100107 0.772165
O O8 0.000000 0.142743 0.500000
O O9 0.117558 0.146164 0.712733
O O10 0.062876 0.000000 0.612332
O O11 0.996591 0.107481 0.785560
O O12 0.721502 0.165764 0.725845
O O13 0.864962 0.000000 0.816105
O O14 0.154522 0.127962 0.007141
O O15 0.276972 0.178395 0.466579
O O16 0.907223 0.263708 0.200420
O O17 0.484496 0.802947 0.273009
O O18 0.500000 0.306656 0.000000
O O19 0.394173 0.238530 0.074224
#
# Coordination Sequence:
#
# PCOD9155704 Si02
#       8
#     4   4   4   4   4   4   4   4
#     4   9  18  33  58  89 116 148 195 243 293 352
#     4   9  18  35  61  91 118 150 195 249 297 350
#     4  11  22  38  60  85 113 154 208 255 293 341
#     4  11  26  41  58  87 125 163 199 246 307 361
#     4  11  24  40  58  87 120 160 199 242 304 358
#     4  12  23  39  64  88 124 159 198 249 302 366
#     4  11  21  37  60  84 118 153 195 242 297 351
#     4  11  22  39  61  87 115 154 209 251 290 344
#
# _framework density 19.753086
#
# number of rings (size 3 to 8) (size 9 to 14) (size 15 to 20)
#    0.000    1.375    3.750    3.750    1.750    3.250 
#    0.000    2.500    0.000    3.000    0.000    2.625 
#    0.000    0.000    0.000    0.000    0.000    0.000 
#
# Total GULP energy -178248.276566 kJ/mol
# GULP energy per Si atom -5570.258643 kJ/mol
# Density = 1.970813 g / cm^3
# Si number density = 19.753086 Si / 1000 Ang^3
#
#
#
# Elastic Constant Matrix: (Units=GPa)
#
#
# Indices 1 2 3 4 5 6 
#
# 1 90.1826 11.1020 7.0417 0.0000 -0.3220 0.0000
# 2 11.1020 58.3255 4.0668 0.0000 5.9674 0.0000
# 3 7.0417 4.0668 79.3741 0.0000 6.0125 0.0000
# 4 0.0000 0.0000 0.0000 8.9563 0.0000 -3.0089
# 5 -0.3220 5.9674 6.0125 0.0000 29.8637 0.0000
# 6 0.0000 0.0000 0.0000 -3.0089 0.0000 11.2340
#
#
#
# Elastic Compliance Matrix: (Units=1/GPa)
#
#
# Indices 1 2 3 4 5 6 
#
# 1 0.011435 -0.002187 -0.000960 0.000000 0.000753 0.000000
# 2 -0.002187 0.017953 -0.000459 0.000000 -0.003519 0.000000
# 3 -0.000960 -0.000459 0.012898 0.000000 -0.002515 0.000000
# 4 0.000000 0.000000 0.000000 0.122693 0.000000 0.032862
# 5 0.000753 -0.003519 -0.002515 0.000000 0.034703 0.000000
# 6 0.000000 0.000000 0.000000 0.032862 0.000000 0.097817
#
#
# Mechanical properties :
#
#
# Convention : Reuss Voigt Hill
#
# Bulk Modulus (GPa) = 28.51018 30.25592 29.38305
# Shear Modulus (GPa) = 15.80260 23.72225 19.76243
#
# Velocity S-wave (km/s) = 2.83151 3.46922 3.16646
# Velocity P-wave (km/s) = 5.01543 5.60336 5.31752
#
# Compressibility (1/GPa) = 0.03507519
#
# Stress axis : x y z
#
# Youngs Moduli (GPa) = 87.44744 55.69962 77.53286
#
# Poissons Ratio (x) = 0.12181 0.07440
# Poissons Ratio (y) = 0.19124 0.03561
# Poissons Ratio (z) = 0.08391 0.02558
#
# Static dielectric constant tensor:
#      x y z
#    x 1.691730 0.000000 0.001550 
#    y 0.000000 1.775820 0.000000 
#    z 0.001550 0.000000 1.706150 
# 
# From -- ./inp_files/54080.got.cif
#   From: 2010.05.17/outbox.ucp.g08.bks.cvg/sg10_28_cif.got.tgz:54080.got - 2010.06.11 11:31:16.
