data_PCOD9155272
_publ_section_title
;
Structure prediction by ZEFSAII (Michael W. Deem and Ramdas Pophale) SiO2 
 PCOD9155272
Probable space group: P 2/M
;
_chemical_formula_sum "Si O2"
_cell_formula_units_Z 32
_cell_length_a 24.000000
_cell_length_b 9.000000
_cell_length_c 15.000000
_cell_angle_alpha 90.000000
_cell_angle_beta 30.000000
_cell_angle_gamma 90.000000
_cell_volume 1620.000000
_symmetry_space_group_name_H-M "P 2/M"
_symmetry_group_IT_number 10
_symmetry_cell_setting 'monoclinic'
loop_
_space_group_symop_operation_xyz
x,y,z
-x,y,-z
-x,-y,-z
x,-y,z
loop_
_atom_site_type_symbol
_atom_site_label
_atom_site_fract_x
_atom_site_fract_y
_atom_site_fract_z
Si Si1 0.016048 0.671176 0.175437
Si Si2 0.382806 0.176132 0.449252
Si Si3 0.619403 0.822771 0.215875
Si Si4 0.772358 0.325318 0.860735
Si Si5 0.238108 0.829176 0.300934
Si Si6 0.027744 0.832458 0.341373
Si Si7 0.240176 0.322007 0.490489
Si Si8 0.732099 0.326573 0.232606
O O1 0.005437 0.500000 0.224698
O O2 0.039994 0.784217 0.222132
O O3 0.893591 0.704175 0.302664
O O4 0.133077 0.675334 0.961679
O O5 0.502731 0.218581 0.327973
O O6 0.330114 0.257075 0.435695
O O7 0.298592 0.221128 0.643769
O O8 0.387116 0.000000 0.426005
O O9 0.660645 0.734904 0.247015
O O10 0.615875 0.000000 0.239664
O O11 0.711966 0.777923 0.016192
O O12 0.755398 0.500000 0.899705
O O13 0.723945 0.275395 0.832433
O O14 0.901683 0.283649 0.698812
O O15 0.256947 0.756077 0.371116
O O16 0.105309 0.833745 0.466648
O O17 0.279170 0.000000 0.240066
O O18 0.067722 0.000000 0.305015
O O19 0.253871 0.500000 0.465839
O O20 0.700990 0.500000 0.290212
#
# Coordination Sequence:
#
# PCOD9155272 Si02
#       8
#     4   4   4   4   4   4   4   4
#     4   9  19  35  57  88 123 157 191 239 296 348
#     4  11  25  43  62  85 116 158 203 248 298 351
#     4  11  24  42  62  86 119 156 198 249 301 351
#     4  12  23  35  56  87 120 155 196 243 296 352
#     4  10  21  37  58  86 120 158 198 239 289 350
#     4  10  19  32  54  84 120 159 195 235 288 350
#     4  10  21  40  63  87 120 158 200 246 293 347
#     4  11  22  38  63  93 122 153 193 243 301 358
#
# _framework density 19.753086
#
# number of rings (size 3 to 8) (size 9 to 14) (size 15 to 20)
#    0.000    1.500    1.250    4.125    0.000    8.000 
#    0.000    3.125    0.000    3.750    0.000    0.000 
#    0.000    0.000    0.000    0.000    0.000    0.000 
#
# Total GULP energy -178393.229844 kJ/mol
# GULP energy per Si atom -5574.788433 kJ/mol
# Density = 1.970813 g / cm^3
# Si number density = 19.753086 Si / 1000 Ang^3
#
#
#
# Elastic Constant Matrix: (Units=GPa)
#
#
# Indices 1 2 3 4 5 6 
#
# 1 78.4533 1.7653 -11.2274 0.0000 3.4547 0.0000
# 2 1.7653 49.0551 -11.6256 0.0000 -7.0784 0.0000
# 3 -11.2274 -11.6256 3.1041 0.0000 4.4274 0.0000
# 4 0.0000 0.0000 0.0000 14.7375 0.0000 5.6407
# 5 3.4547 -7.0784 4.4274 0.0000 18.4827 0.0000
# 6 0.0000 0.0000 0.0000 5.6407 0.0000 17.7923
#
#
#
# Elastic Compliance Matrix: (Units=1/GPa)
#
#
# Indices 1 2 3 4 5 6 
#
# 1 0.000617 -0.017947 -0.083570 0.000000 0.013030 0.000000
# 2 -0.017947 -0.002166 -0.116395 0.000000 0.030407 0.000000
# 3 -0.083570 -0.116395 -0.569216 0.000000 0.107395 0.000000
# 4 0.000000 0.000000 0.000000 0.077225 0.000000 -0.024483
# 5 0.013030 0.030407 0.107395 0.000000 0.037589 0.000000
# 6 0.000000 0.000000 0.000000 -0.024483 0.000000 0.063966
#
#
# Mechanical properties :
#
#
# Convention : Reuss Voigt Hill
#
# Bulk Modulus (GPa) = -0.99345 9.82633 4.41644
# Shear Modulus (GPa) = -17.14146 20.31585 1.58719
#
# Velocity S-wave (km/s) = -2.94902 3.21049 0.89736
# Velocity P-wave (km/s) = 3.47845 4.32763 1.82054
#
# Compressibility (1/GPa) = -1.00659145
#
# Stress axis : x y z
#
# Youngs Moduli (GPa) = 1621.30794 -461.68386 -1.75680
#
# Poissons Ratio (x) = -8.28606 -0.14682
# Poissons Ratio (y) = 29.09840 -0.20448
# Poissons Ratio (z) = 135.49334 -53.73779
#
# Static dielectric constant tensor:
#      x y z
#    x 1.688680 0.000000 0.019320 
#    y 0.000000 1.666440 0.000000 
#    z 0.019320 0.000000 1.786320 
# 
# From -- ./inp_files/71534.got.cif
#   From: 2010.05.17/outbox.ucp.g08.bks.cvg/sg10_36_cif.got.tgz:71534.got - 2010.06.11 11:31:16.
