data_PCOD9155582
_publ_section_title
;
Structure prediction by ZEFSAII (Michael W. Deem and Ramdas Pophale) SiO2 
 PCOD9155582
Probable space group: P 2/M
;
_chemical_formula_sum "Si O2"
_cell_formula_units_Z 28
_cell_length_a 9.000000
_cell_length_b 18.000000
_cell_length_c 15.000000
_cell_angle_alpha 90.000000
_cell_angle_beta 40.000000
_cell_angle_gamma 90.000000
_cell_volume 1561.973892
_symmetry_space_group_name_H-M "P 2/M"
_symmetry_group_IT_number 10
_symmetry_cell_setting 'monoclinic'
loop_
_space_group_symop_operation_xyz
x,y,z
-x,y,-z
-x,-y,-z
x,-y,z
loop_
_atom_site_type_symbol
_atom_site_label
_atom_site_fract_x
_atom_site_fract_y
_atom_site_fract_z
Si Si1 0.285846 0.081604 0.533078
Si Si2 0.073977 0.677184 0.361079
Si Si3 0.224808 0.229613 0.633546
Si Si4 0.942288 0.712016 0.924945
Si Si5 0.265425 0.087688 0.348459
Si Si6 0.527326 0.205559 0.879056
Si Si7 0.222740 0.583742 0.134073
O O1 0.500000 0.074569 0.500000
O O2 0.136483 0.148304 0.641980
O O3 0.383163 0.101349 0.390583
O O4 0.171780 0.000000 0.579074
O O5 0.291794 0.731472 0.238786
O O6 0.141224 0.604575 0.272048
O O7 0.000000 0.670980 0.500000
O O8 0.868602 0.713989 0.398019
O O9 0.500000 0.229261 0.500000
O O10 0.136307 0.249407 0.772909
O O11 0.870252 0.642330 0.895753
O O12 0.726669 0.768032 0.032389
O O13 0.000000 0.690578 0.000000
O O14 0.379469 0.133633 0.216635
O O15 0.000000 0.107578 0.500000
O O16 0.275372 0.000000 0.325390
O O17 0.500000 0.200031 0.000000
O O18 0.150128 0.500000 0.146228
O O19 0.500000 0.588527 0.000000
#
# Coordination Sequence:
#
# PCOD9155582 Si02
#       7
#     4   4   4   4   4   4   4
#     4   9  18  33  53  75 107 149 194 233 279 340
#     4  11  21  36  61  88 116 152 192 243 284 343
#     4  10  21  35  55  86 112 153 195 243 292 340
#     4  11  24  38  59  89 119 151 194 245 290 349
#     4  10  22  37  57  85 116 155 200 247 301 354
#     4  12  21  39  59  85 118 155 201 245 297 345
#     4  10  20  41  65  88 120 153 189 235 292 357
#
# _framework density 17.926036
#
# number of rings (size 3 to 8) (size 9 to 14) (size 15 to 20)
#    0.000    1.571    4.286    2.143    6.000    0.857 
#    0.000    0.714    0.000    7.714    0.000    0.000 
#    0.000    0.000    0.000    0.000    0.000    0.000 
#
# Total GULP energy -155916.331104 kJ/mol
# GULP energy per Si atom -5568.440397 kJ/mol
# Density = 1.788524 g / cm^3
# Si number density = 17.926036 Si / 1000 Ang^3
#
#
#
# Elastic Constant Matrix: (Units=GPa)
#
#
# Indices 1 2 3 4 5 6 
#
# 1 85.3551 15.8540 51.1006 0.0000 23.2175 0.0000
# 2 15.8540 98.9345 53.8952 0.0000 11.5297 0.0000
# 3 51.1006 53.8952 151.7288 0.0000 26.6929 0.0000
# 4 0.0000 0.0000 0.0000 28.2050 0.0000 5.0427
# 5 23.2175 11.5297 26.6929 0.0000 43.5448 0.0000
# 6 0.0000 0.0000 0.0000 5.0427 0.0000 20.7503
#
#
#
# Elastic Compliance Matrix: (Units=1/GPa)
#
#
# Indices 1 2 3 4 5 6 
#
# 1 0.015919 0.000609 -0.004546 0.000000 -0.005862 0.000000
# 2 0.000609 0.012573 -0.004515 0.000000 -0.000886 0.000000
# 3 -0.004546 -0.004515 0.010188 0.000000 -0.002625 0.000000
# 4 0.000000 0.000000 0.000000 0.037065 0.000000 -0.009007
# 5 -0.005862 -0.000886 -0.002625 0.000000 0.027934 0.000000
# 6 0.000000 0.000000 0.000000 -0.009007 0.000000 0.050381
#
#
# Mechanical properties :
#
#
# Convention : Reuss Voigt Hill
#
# Bulk Modulus (GPa) = 45.92593 64.19090 55.05842
# Shear Modulus (GPa) = 28.05463 32.84461 30.44962
#
# Velocity S-wave (km/s) = 3.96033 4.28510 4.12591
# Velocity P-wave (km/s) = 6.82551 7.76977 7.31289
#
# Compressibility (1/GPa) = 0.02177419
#
# Stress axis : x y z
#
# Youngs Moduli (GPa) = 62.81783 79.53498 98.15868
#
# Poissons Ratio (x) = -0.04842 0.44626
# Poissons Ratio (y) = -0.03824 0.44321
# Poissons Ratio (z) = 0.28559 0.35912
#
# Static dielectric constant tensor:
#      x y z
#    x 1.691500 0.000000 -0.020510 
#    y 0.000000 1.681200 0.000000 
#    z -0.020510 0.000000 1.584950 
# 
# From -- ./inp_files/62305.got.cif
#   From: 2010.05.17/outbox.ucp.g08.bks.cvg/sg10_32_cif.got.tgz:62305.got - 2010.06.11 11:31:16.
