data_PCOD9155171
_publ_section_title
;
Structure prediction by ZEFSAII (Michael W. Deem and Ramdas Pophale) SiO2 
 PCOD9155171
Probable space group: P 2/M
;
_chemical_formula_sum "Si O2"
_cell_formula_units_Z 32
_cell_length_a 15.000000
_cell_length_b 9.000000
_cell_length_c 24.000000
_cell_angle_alpha 90.000000
_cell_angle_beta 150.000000
_cell_angle_gamma 90.000000
_cell_volume 1620.000000
_symmetry_space_group_name_H-M "P 2/M"
_symmetry_group_IT_number 10
_symmetry_cell_setting 'monoclinic'
loop_
_space_group_symop_operation_xyz
x,y,z
-x,y,-z
-x,-y,-z
x,-y,z
loop_
_atom_site_type_symbol
_atom_site_label
_atom_site_fract_x
_atom_site_fract_y
_atom_site_fract_z
Si Si1 0.622973 0.319033 0.426397
Si Si2 0.207526 0.678234 0.365992
Si Si3 0.258197 0.176161 0.772247
Si Si4 0.396998 0.678027 0.082435
Si Si5 0.948694 0.679791 0.534482
Si Si6 0.783570 0.325002 0.135370
Si Si7 0.926715 0.681145 0.020165
Si Si8 0.257670 0.681407 0.271052
O O1 0.624081 0.500000 0.427324
O O2 0.710061 0.266444 0.531858
O O3 0.418272 0.272726 0.317828
O O4 0.749021 0.275286 0.443917
O O5 0.236983 0.500000 0.382777
O O6 0.285910 0.732837 0.349739
O O7 0.995777 0.701594 0.249051
O O8 0.419991 0.234462 0.822081
O O9 0.081503 0.252072 0.651819
O O10 0.290605 0.232637 0.852913
O O11 0.243155 0.000000 0.763171
O O12 0.429859 0.500000 0.104103
O O13 0.296997 0.704263 0.969115
O O14 0.267801 0.723915 0.063084
O O15 0.962967 0.500000 0.545301
O O16 0.000000 0.725788 0.500000
O O17 0.753584 0.500000 0.131162
O O18 0.925257 0.500000 0.018145
O O19 0.069654 0.727385 0.144148
O O20 0.000000 0.730915 0.000000
O O21 0.255596 0.500000 0.271651
#
# Coordination Sequence:
#
# PCOD9155171 Si02
#       8
#     4   4   4   4   4   4   4   4
#     4   9  16  26  46  76 108 135 164 214 271 323
#     4   9  14  24  45  72 104 136 166 209 267 326
#     4  12  25  38  55  80 111 147 186 232 281 330
#     4  10  20  35  57  83 112 148 185 227 279 331
#     4  10  21  38  59  82 109 143 185 227 270 324
#     4  10  18  33  57  81 109 144 183 227 279 337
#     4   9  17  29  47  75 112 145 174 218 275 328
#     4   9  15  24  41  73 108 135 167 210 268 326
#
# _framework density 19.753086
#
# number of rings (size 3 to 8) (size 9 to 14) (size 15 to 20)
#    0.000    2.250    2.500    1.875    0.000    4.750 
#    0.000    3.750    0.000    0.375    0.000    2.625 
#    0.000    0.000    0.000    0.000    0.000    0.000 
#
# Total GULP energy -178505.460405 kJ/mol
# GULP energy per Si atom -5578.295638 kJ/mol
# Density = 1.970813 g / cm^3
# Si number density = 19.753086 Si / 1000 Ang^3
#
#
#
# Elastic Constant Matrix: (Units=GPa)
#
#
# Indices 1 2 3 4 5 6 
#
# 1 143.8216 17.2498 3.4009 0.0000 17.8031 0.0000
# 2 17.2498 7.7261 3.1946 0.0000 6.4016 0.0000
# 3 3.4009 3.1946 7.8066 0.0000 12.8584 0.0000
# 4 0.0000 0.0000 0.0000 0.4327 0.0000 -0.8252
# 5 17.8031 6.4016 12.8584 0.0000 25.6443 0.0000
# 6 0.0000 0.0000 0.0000 -0.8252 0.0000 -4.5390
#
#
#
# Elastic Compliance Matrix: (Units=1/GPa)
#
#
# Indices 1 2 3 4 5 6 
#
# 1 0.012122 -0.025208 0.048995 0.000000 -0.026689 0.000000
# 2 -0.025208 0.215611 -0.100058 0.000000 0.013847 0.000000
# 3 0.048995 -0.100058 0.933737 0.000000 -0.477222 0.000000
# 4 0.000000 0.000000 0.000000 1.716030 0.000000 -0.311986
# 5 -0.026689 0.013847 -0.477222 0.000000 0.293351 0.000000
# 6 0.000000 0.000000 0.000000 -0.311986 0.000000 -0.163591
#
#
# Mechanical properties :
#
#
# Convention : Reuss Voigt Hill
#
# Bulk Modulus (GPa) = 0.99115 23.00497 11.99806
# Shear Modulus (GPa) = 1.43016 13.34155 7.38586
#
# Velocity S-wave (km/s) = 0.85182 2.60170 1.93577
# Velocity P-wave (km/s) = 1.21256 4.54936 3.32919
#
# Compressibility (1/GPa) = 1.00892782
#
# Stress axis : x y z
#
# Youngs Moduli (GPa) = 82.49675 4.63797 1.07097
#
# Poissons Ratio (x) = 0.11692 -0.05247
# Poissons Ratio (y) = 2.07960 0.10716
# Poissons Ratio (z) = -4.04192 0.46407
#
# Static dielectric constant tensor:
#      x y z
#    x 1.728280 0.000000 0.018930 
#    y 0.000000 1.656700 0.000000 
#    z 0.018930 0.000000 1.701330 
# 
# From -- ./inp_files/89643.got.cif
#   From: 2010.05.17/outbox.ucp.g08.bks.cvg/sg10_45_cif.got.tgz:89643.got - 2010.06.11 11:31:16.
