data_PCOD9155552
_publ_section_title
;
Structure prediction by ZEFSAII (Michael W. Deem and Ramdas Pophale) SiO2 
 PCOD9155552
Probable space group: P 2/M
;
_chemical_formula_sum "Si O2"
_cell_formula_units_Z 24
_cell_length_a 18.000000
_cell_length_b 12.000000
_cell_length_c 12.000000
_cell_angle_alpha 90.000000
_cell_angle_beta 150.000000
_cell_angle_gamma 90.000000
_cell_volume 1296.000000
_symmetry_space_group_name_H-M "P 2/M"
_symmetry_group_IT_number 10
_symmetry_cell_setting 'monoclinic'
loop_
_space_group_symop_operation_xyz
x,y,z
-x,y,-z
-x,-y,-z
x,-y,z
loop_
_atom_site_type_symbol
_atom_site_label
_atom_site_fract_x
_atom_site_fract_y
_atom_site_fract_z
Si Si1 0.824288 0.872436 0.782991
Si Si2 0.882143 0.500000 0.536060
Si Si3 0.735276 0.712881 0.469698
Si Si4 0.202905 0.500000 0.838003
Si Si5 0.394393 0.284560 0.083384
Si Si6 0.355034 0.877364 0.235578
Si Si7 0.676625 0.874756 0.203102
O O1 0.775036 0.771266 0.638938
O O2 0.775066 0.849230 0.846145
O O3 0.764964 0.000000 0.678947
O O4 0.000000 0.878701 0.000000
O O5 0.825432 0.607890 0.534407
O O6 0.818624 0.500000 0.325931
O O7 0.056761 0.500000 0.727410
O O8 0.558967 0.685268 0.251737
O O9 0.751942 0.814982 0.405004
O O10 0.299704 0.392052 0.986876
O O11 0.395919 0.208952 0.194284
O O12 0.312260 0.209230 0.884727
O O13 0.500000 0.884733 0.500000
O O14 0.324570 0.000000 0.146840
O O15 0.730062 0.000000 0.252080
O O16 0.500000 0.881488 0.000000
#
# Coordination Sequence:
#
# PCOD9155552 Si02
#       7
#     4   2   4   2   4   4   4
#     4  10  22  39  61  90 126 167 200 238 299 365
#     4  11  25  43  61  83 121 166 200 247 305 360
#     4  11  21  38  63  89 119 156 204 249 298 356
#     4  11  25  43  61  85 119 163 204 248 305 360
#     4  11  21  37  63  91 119 155 203 249 298 356
#     4  10  20  37  61  90 125 161 197 242 298 355
#     4   9  18  31  56  92 121 145 185 246 304 354
#
# _framework density 18.518519000000001
#
# number of rings (size 3 to 8) (size 9 to 14) (size 15 to 20)
#    0.000    1.667    3.333    1.500    2.333    2.000 
#    0.000    1.667    0.000    1.000    0.000    0.000 
#    0.000    0.000    0.000    0.000    0.000    0.000 
#
# Total GULP energy -133705.425796 kJ/mol
# GULP energy per Si atom -5571.059408 kJ/mol
# Density = 1.847637 g / cm^3
# Si number density = 18.518519 Si / 1000 Ang^3
#
#
#
# Elastic Constant Matrix: (Units=GPa)
#
#
# Indices 1 2 3 4 5 6 
#
# 1 111.9746 51.3335 16.7711 0.0000 15.6202 0.0000
# 2 51.3335 133.3970 21.1865 0.0000 2.5181 0.0000
# 3 16.7711 21.1865 23.6652 0.0000 8.8709 0.0000
# 4 0.0000 0.0000 0.0000 9.6059 0.0000 -0.8920
# 5 15.6202 2.5181 8.8709 0.0000 28.7397 0.0000
# 6 0.0000 0.0000 0.0000 -0.8920 0.0000 35.1544
#
#
#
# Elastic Compliance Matrix: (Units=1/GPa)
#
#
# Indices 1 2 3 4 5 6 
#
# 1 0.011947 -0.004041 -0.002881 0.000000 -0.005250 0.000000
# 2 -0.004041 0.010195 -0.007635 0.000000 0.003660 0.000000
# 3 -0.002881 -0.007635 0.056877 0.000000 -0.015321 0.000000
# 4 0.000000 0.000000 0.000000 0.104349 0.000000 0.002648
# 5 -0.005250 0.003660 -0.015321 0.000000 0.042057 0.000000
# 6 0.000000 0.000000 0.000000 0.002648 0.000000 0.028513
#
#
# Mechanical properties :
#
#
# Convention : Reuss Voigt Hill
#
# Bulk Modulus (GPa) = 20.03850 49.73545 34.88698
# Shear Modulus (GPa) = 16.68412 26.68305 21.68358
#
# Velocity S-wave (km/s) = 3.00483 3.80002 3.42557
# Velocity P-wave (km/s) = 4.78361 6.79477 5.87588
#
# Compressibility (1/GPa) = 0.04990394
#
# Stress axis : x y z
#
# Youngs Moduli (GPa) = 83.70392 98.08803 17.58191
#
# Poissons Ratio (x) = 0.39634 0.05066
# Poissons Ratio (y) = 0.33822 0.13424
# Poissons Ratio (z) = 0.24117 0.74894
#
# Static dielectric constant tensor:
#      x y z
#    x 1.654650 0.000000 -0.006790 
#    y 0.000000 1.644450 0.000000 
#    z -0.006790 0.000000 1.674300 
# 
# From -- ./inp_files/50850.got.cif
#   From: 2010.05.17/outbox.ucp.g08.bks.cvg/sg10_26_cif.got.tgz:50850.got - 2010.06.11 11:31:16.
