data_PCOD9155294
_publ_section_title
;
Structure prediction by ZEFSAII (Michael W. Deem and Ramdas Pophale) SiO2 
 PCOD9155294
Probable space group: P 2/M
;
_chemical_formula_sum "Si O2"
_cell_formula_units_Z 28
_cell_length_a 12.000000
_cell_length_b 9.000000
_cell_length_c 15.000000
_cell_angle_alpha 90.000000
_cell_angle_beta 120.000000
_cell_angle_gamma 90.000000
_cell_volume 1402.961154
_symmetry_space_group_name_H-M "P 2/M"
_symmetry_group_IT_number 10
_symmetry_cell_setting 'monoclinic'
loop_
_space_group_symop_operation_xyz
x,y,z
-x,y,-z
-x,-y,-z
x,-y,z
loop_
_atom_site_type_symbol
_atom_site_label
_atom_site_fract_x
_atom_site_fract_y
_atom_site_fract_z
Si Si1 0.925435 0.176569 0.378823
Si Si2 0.348710 0.177317 0.459104
Si Si3 0.818131 0.320277 0.762003
Si Si4 0.919551 0.678178 0.197727
Si Si5 0.613841 0.330047 0.820850
Si Si6 0.640957 0.328411 0.039825
Si Si7 0.351877 0.177458 0.663165
O O1 0.970505 0.273259 0.314449
O O2 0.775510 0.212246 0.333135
O O3 0.000000 0.206293 0.500000
O O4 0.939953 0.000000 0.365977
O O5 0.500000 0.201156 0.500000
O O6 0.257748 0.261487 0.354410
O O7 0.328154 0.226355 0.552240
O O8 0.323936 0.000000 0.442114
O O9 0.819938 0.500000 0.761572
O O10 0.730708 0.269122 0.809148
O O11 0.966991 0.271622 0.822996
O O12 0.908809 0.500000 0.186270
O O13 0.774762 0.739085 0.127737
O O14 0.589779 0.500000 0.782510
O O15 0.481541 0.244766 0.753304
O O16 0.653292 0.332687 0.938832
O O17 0.632707 0.500000 0.071798
O O18 0.500000 0.258735 0.000000
O O19 0.366172 0.000000 0.666275
#
# Coordination Sequence:
#
# PCOD9155294 Si02
#       7
#     4   4   4   4   4   4   4
#     4  10  21  37  56  78 107 141 177 218 265 318
#     4  10  19  33  54  77 105 145 182 212 258 318
#     4  10  21  34  51  80 112 141 176 221 267 312
#     4  10  21  37  56  79 109 142 179 221 265 316
#     4  10  20  34  54  79 106 139 177 217 266 316
#     4   9  18  34  56  79 103 136 179 223 266 315
#     4  10  20  34  53  79 107 137 177 222 266 314
#
# _framework density 19.957787
#
# number of rings (size 3 to 8) (size 9 to 14) (size 15 to 20)
#    0.000    2.143    1.429    1.714    0.000    5.143 
#    0.000    3.571    0.000    2.571    0.000    3.000 
#    0.000    0.000    0.000    0.000    0.000    0.000 
#
# Total GULP energy -156118.655346 kJ/mol
# GULP energy per Si atom -5575.666262 kJ/mol
# Density = 1.991236 g / cm^3
# Si number density = 19.957787 Si / 1000 Ang^3
#
#
#
# Elastic Constant Matrix: (Units=GPa)
#
#
# Indices 1 2 3 4 5 6 
#
# 1 78.2898 27.3929 48.3179 0.0000 29.6036 0.0000
# 2 27.3929 -13.2573 -2.1362 0.0000 0.5967 0.0000
# 3 48.3179 -2.1362 55.4029 0.0000 9.7075 0.0000
# 4 0.0000 0.0000 0.0000 155.2921 0.0000 2.8746
# 5 29.6036 0.5967 9.7075 0.0000 28.6262 0.0000
# 6 0.0000 0.0000 0.0000 2.8746 0.0000 15.6200
#
#
#
# Elastic Compliance Matrix: (Units=1/GPa)
#
#
# Indices 1 2 3 4 5 6 
#
# 1 0.012459 0.026544 -0.007961 0.000000 -0.010738 0.000000
# 2 0.026544 -0.018219 -0.020316 0.000000 -0.020181 0.000000
# 3 -0.007961 -0.020316 0.024126 0.000000 0.000475 0.000000
# 4 0.000000 0.000000 0.000000 0.006461 0.000000 -0.001189
# 5 -0.010738 -0.020181 0.000475 0.000000 0.046298 0.000000
# 6 0.000000 0.000000 0.000000 -0.001189 0.000000 0.064239
#
#
# Mechanical properties :
#
#
# Convention : Reuss Voigt Hill
#
# Bulk Modulus (GPa) = 67.11146 29.73162 48.42154
# Shear Modulus (GPa) = 34.77094 43.03171 38.90132
#
# Velocity S-wave (km/s) = 4.17852 4.64846 4.41974
# Velocity P-wave (km/s) = 7.54850 6.61366 7.09649
#
# Compressibility (1/GPa) = 0.01490059
#
# Stress axis : x y z
#
# Youngs Moduli (GPa) = 80.26017 -54.88815 41.44883
#
# Poissons Ratio (x) = 1.45694 0.32998
# Poissons Ratio (y) = -2.13041 0.84206
# Poissons Ratio (z) = 0.63896 -1.11509
#
# Static dielectric constant tensor:
#      x y z
#    x 1.819540 0.000000 -0.039660 
#    y 0.000000 1.679150 0.000000 
#    z -0.039660 0.000000 1.697250 
# 
# From -- ./inp_files/63395.got.cif
#   From: 2010.05.17/outbox.ucp.g08.bks.cvg/sg10_32_cif.got.tgz:63395.got - 2010.06.11 11:31:16.
