data_PCOD9155401
_publ_section_title
;
Structure prediction by ZEFSAII (Michael W. Deem and Ramdas Pophale) SiO2 
 PCOD9155401
Probable space group: P 2/M
;
_chemical_formula_sum "Si O2"
_cell_formula_units_Z 26
_cell_length_a 15.000000
_cell_length_b 15.000000
_cell_length_c 9.000000
_cell_angle_alpha 90.000000
_cell_angle_beta 40.000000
_cell_angle_gamma 90.000000
_cell_volume 1301.644910
_symmetry_space_group_name_H-M "P 2/M"
_symmetry_group_IT_number 10
_symmetry_cell_setting 'monoclinic'
loop_
_space_group_symop_operation_xyz
x,y,z
-x,y,-z
-x,-y,-z
x,-y,z
loop_
_atom_site_type_symbol
_atom_site_label
_atom_site_fract_x
_atom_site_fract_y
_atom_site_fract_z
Si Si1 0.500000 0.675549 0.500000
Si Si2 0.816472 0.898355 0.390829
Si Si3 0.109659 0.601809 0.971730
Si Si4 0.851476 0.899844 0.010620
Si Si5 0.749058 0.265958 0.001485
Si Si6 0.638014 0.404261 0.581877
Si Si7 0.657556 0.755907 0.786826
O O1 0.487396 0.614688 0.369791
O O2 0.372850 0.734292 0.718498
O O3 0.793510 0.872725 0.247303
O O4 0.751161 0.830683 0.590486
O O5 0.766333 0.000000 0.476169
O O6 0.982390 0.900031 0.192540
O O7 0.065809 0.500000 0.065355
O O8 0.240621 0.595406 0.695467
O O9 0.146166 0.659430 0.068384
O O10 0.000000 0.645944 0.000000
O O11 0.803518 0.000000 0.041954
O O12 0.813100 0.831229 0.933606
O O13 0.703771 0.276835 0.890205
O O14 0.628617 0.500000 0.667478
O O15 0.655590 0.327329 0.677174
O O16 0.500000 0.789746 0.000000
#
# Coordination Sequence:
#
# PCOD9155401 Si02
#       7
#     2   4   4   4   4   4   4
#     4  10  19  40  59  86 114 160 221 246 285 350
#     4   9  20  41  67  90 120 154 199 250 301 361
#     4   9  20  39  63  90 116 154 207 254 301 355
#     4   9  20  40  67  94 113 153 206 250 296 357
#     4  11  23  36  62  88 123 163 195 254 298 357
#     4  10  21  38  61  85 120 160 203 253 295 350
#     4  12  25  40  55  91 131 162 199 241 307 362
#
# _framework density 19.974726
#
# number of rings (size 3 to 8) (size 9 to 14) (size 15 to 20)
#    0.000    2.000    1.538    3.000    4.308    3.077 
#    0.000    1.923    0.000    2.769    0.000    0.000 
#    0.000    0.000    0.000    0.000    0.000    0.000 
#
# Total GULP energy -144787.226792 kJ/mol
# GULP energy per Si atom -5568.739492 kJ/mol
# Density = 1.992926 g / cm^3
# Si number density = 19.974726 Si / 1000 Ang^3
#
#
#
# Elastic Constant Matrix: (Units=GPa)
#
#
# Indices 1 2 3 4 5 6 
#
# 1 100.6704 46.0535 22.8797 0.0000 24.7803 0.0000
# 2 46.0535 78.5461 48.9287 0.0000 15.5998 0.0000
# 3 22.8797 48.9287 48.1807 0.0000 18.0100 0.0000
# 4 0.0000 0.0000 0.0000 12.8103 0.0000 -5.9297
# 5 24.7803 15.5998 18.0100 0.0000 25.5627 0.0000
# 6 0.0000 0.0000 0.0000 -5.9297 0.0000 1.7871
#
#
#
# Elastic Compliance Matrix: (Units=1/GPa)
#
#
# Indices 1 2 3 4 5 6 
#
# 1 0.018646 -0.016461 0.014748 0.000000 -0.018420 0.000000
# 2 -0.016461 0.049652 -0.050560 0.000000 0.021278 0.000000
# 3 0.014748 -0.050560 0.079967 0.000000 -0.039782 0.000000
# 4 0.000000 0.000000 0.000000 -0.145674 0.000000 -0.483353
# 5 -0.018420 0.021278 -0.039782 0.000000 0.072019 0.000000
# 6 0.000000 0.000000 0.000000 -0.483353 0.000000 -1.044221
#
#
# Mechanical properties :
#
#
# Convention : Reuss Voigt Hill
#
# Bulk Modulus (GPa) = 22.87331 51.45789 37.16560
# Shear Modulus (GPa) = -5.87896 15.33437 4.72770
#
# Velocity S-wave (km/s) = -1.71744 2.77373 1.54012
# Velocity P-wave (km/s) = 2.74649 6.00629 4.67005
#
# Compressibility (1/GPa) = 0.04371908
#
# Stress axis : x y z
#
# Youngs Moduli (GPa) = 53.62991 20.14013 12.50509
#
# Poissons Ratio (x) = 0.33153 -0.18442
# Poissons Ratio (y) = 0.88280 0.63226
# Poissons Ratio (z) = -0.79091 1.01828
#
# Static dielectric constant tensor:
#      x y z
#    x 1.935320 0.000000 -0.170670 
#    y 0.000000 1.738610 0.000000 
#    z -0.170670 0.000000 1.735860 
# 
# From -- ./inp_files/29763.got.cif
#   From: 2010.05.17/outbox.ucp.g08.bks.cvg/sg10_15_cif.got.tgz:29763.got - 2010.06.11 11:31:16.
