data_PCOD9155980
_publ_section_title
;
Structure prediction by ZEFSAII (Michael W. Deem and Ramdas Pophale) SiO2 
 PCOD9155980
Probable space group: P 21/M
;
_chemical_formula_sum "Si O2"
_cell_formula_units_Z 28
_cell_length_a 9.551530
_cell_length_b 13.566552
_cell_length_c 12.150066
_cell_angle_alpha 90.000000
_cell_angle_beta 123.468795
_cell_angle_gamma 90.000000
_cell_volume 1313.361006
_symmetry_space_group_name_H-M "P 21/M"
_symmetry_group_IT_number 11
_symmetry_cell_setting 'monoclinic'
loop_
_space_group_symop_operation_xyz
x,y,z
-x,1/2+y,-z
-x,-y,-z
x,1/2-y,z
loop_
_atom_site_type_symbol
_atom_site_label
_atom_site_fract_x
_atom_site_fract_y
_atom_site_fract_z
Si Si1 0.729235 0.130844 0.336069
Si Si2 0.125319 0.633330 0.825107
Si Si3 0.914207 0.454860 0.735970
Si Si4 0.770440 0.367322 0.880751
Si Si5 0.920464 0.868028 0.391011
Si Si6 0.425492 0.630265 0.516692
Si Si7 0.407052 0.130674 0.624393
O O1 0.716727 0.250000 0.330477
O O2 0.745120 0.103252 0.215470
O O3 0.585012 0.098549 0.360112
O O4 0.911576 0.106900 0.467758
O O5 0.090848 0.750000 0.798499
O O6 0.955797 0.569800 0.741531
O O7 0.198419 0.614263 0.977618
O O8 0.897782 0.424311 0.855766
O O9 0.746100 0.409253 0.611070
O O10 0.058735 0.405273 0.724223
O O11 0.792834 0.250000 0.870484
O O12 0.579950 0.391593 0.762853
O O13 0.913268 0.750000 0.384353
O O14 0.756529 0.906097 0.383140
O O15 0.420384 0.750000 0.511955
O O16 0.569017 0.599745 0.492770
O O17 0.393215 0.250000 0.616945
#
# Coordination Sequence:
#
# PCOD9155980 Si02
#       7
#     4   4   4   4   4   4   4
#     4   8  15  28  45  66  92 119 148 184 225 266
#     4  10  20  31  45  66  92 123 156 185 217 268
#     4  10  17  28  48  70  90 116 151 192 229 255
#     4   9  17  31  50  70  91 116 149 185 224 271
#     4   9  16  27  47  74  96 113 144 190 232 265
#     4   8  14  26  46  70  92 116 149 187 224 264
#     4   8  14  26  46  70  93 116 144 185 229 264
#
# _framework density 21.31935
#
# number of rings (size 3 to 8) (size 9 to 14) (size 15 to 20)
#    0.000    3.143    0.000    3.429    0.000    2.286 
#    0.000    0.714    0.000    9.429    0.000   18.000 
#    0.000    0.000    0.000    0.000    0.000    0.000 
#
# Total GULP energy -156227.317110 kJ/mol
# GULP energy per Si atom -5579.547040 kJ/mol
# Density = 2.127083 g / cm^3
# Si number density = 21.319350 Si / 1000 Ang^3
#
#
#
# Elastic Constant Matrix: (Units=GPa)
#
#
# Indices 1 2 3 4 5 6 
#
# 1 170.5774 40.5379 66.9010 0.0000 -50.3947 0.0000
# 2 40.5379 67.7088 29.9738 0.0000 -8.3821 0.0000
# 3 66.9010 29.9738 86.3173 0.0000 -48.9395 0.0000
# 4 0.0000 0.0000 0.0000 18.3590 0.0000 3.5979
# 5 -50.3947 -8.3821 -48.9395 0.0000 43.1947 0.0000
# 6 0.0000 0.0000 0.0000 3.5979 0.0000 27.7286
#
#
#
# Elastic Compliance Matrix: (Units=1/GPa)
#
#
# Indices 1 2 3 4 5 6 
#
# 1 0.010260 -0.004740 -0.000114 0.000000 0.010921 0.000000
# 2 -0.004740 0.021238 -0.012583 0.000000 -0.015666 0.000000
# 3 -0.000114 -0.012583 0.040778 0.000000 0.043627 0.000000
# 4 0.000000 0.000000 0.000000 0.055890 0.000000 -0.007252
# 5 0.010921 -0.015666 0.043627 0.000000 0.082282 0.000000
# 6 0.000000 0.000000 0.000000 -0.007252 0.000000 0.037005
#
#
# Mechanical properties :
#
#
# Convention : Reuss Voigt Hill
#
# Bulk Modulus (GPa) = 26.73655 66.60322 46.66988
# Shear Modulus (GPa) = 16.96088 30.33584 23.64836
#
# Velocity S-wave (km/s) = 2.82363 3.77626 3.33414
# Velocity P-wave (km/s) = 4.81651 7.09381 6.06304
#
# Compressibility (1/GPa) = 0.03740199
#
# Stress axis : x y z
#
# Youngs Moduli (GPa) = 97.46257 47.08504 24.52295
#
# Poissons Ratio (x) = 0.22320 0.00280
# Poissons Ratio (y) = 0.46201 0.30857
# Poissons Ratio (z) = 0.01112 0.59246
#
# Static dielectric constant tensor:
#      x y z
#    x 1.795360 0.000000 -0.046490 
#    y 0.000000 1.823140 0.000000 
#    z -0.046490 0.000000 1.764570 
# 
# From -- ./inp_files/17699.got.cif
#   From: 2010.05.17/outbox.cif.g08.bks.cpg/sg11_9_cif.got.tgz:17699.got - 2010.06.03 12:22:45.
