data_PCOD9155692
_publ_section_title
;
Structure prediction by ZEFSAII (Michael W. Deem and Ramdas Pophale) SiO2 
 PCOD9155692
Probable space group: P 2/M
;
_chemical_formula_sum "Si O2"
_cell_formula_units_Z 32
_cell_length_a 15.000000
_cell_length_b 18.000000
_cell_length_c 12.000000
_cell_angle_alpha 90.000000
_cell_angle_beta 30.000000
_cell_angle_gamma 90.000000
_cell_volume 1620.000000
_symmetry_space_group_name_H-M "P 2/M"
_symmetry_group_IT_number 10
_symmetry_cell_setting 'monoclinic'
loop_
_space_group_symop_operation_xyz
x,y,z
-x,y,-z
-x,-y,-z
x,-y,z
loop_
_atom_site_type_symbol
_atom_site_label
_atom_site_fract_x
_atom_site_fract_y
_atom_site_fract_z
Si Si1 0.018868 0.813455 0.858711
Si Si2 0.974519 0.910314 0.691211
Si Si3 0.249522 0.704677 0.929201
Si Si4 0.500623 0.414918 0.132661
Si Si5 0.170560 0.313723 0.245883
Si Si6 0.708778 0.155357 0.804995
Si Si7 0.655913 0.302281 0.532063
Si Si8 0.789063 0.414688 0.201310
O O1 0.985675 0.874424 0.800428
O O2 0.195035 0.762585 0.637850
O O3 0.000000 0.850356 0.000000
O O4 0.852062 0.756295 0.047132
O O5 0.148310 0.876073 0.439200
O O6 0.792846 0.882646 0.825361
O O7 0.982105 0.000000 0.679725
O O8 0.453099 0.727182 0.734375
O O9 0.245295 0.622781 0.881019
O O10 0.125062 0.715779 0.172437
O O11 0.477938 0.500000 0.198470
O O12 0.363751 0.355384 0.336012
O O13 0.500000 0.417259 0.000000
O O14 0.695763 0.378895 0.935535
O O15 0.263377 0.244503 0.208837
O O16 0.000000 0.337930 0.500000
O O17 0.500000 0.141409 0.000000
O O18 0.694410 0.361887 0.393215
O O19 0.729846 0.500000 0.270381
O O20 0.000000 0.412784 0.000000
#
# Coordination Sequence:
#
# PCOD9155692 Si02
#       8
#     4   4   4   4   4   4   4   4
#     4  12  24  43  67  98 133 169 222 272 329 402
#     4  11  26  45  68 103 139 170 215 271 339 412
#     4  11  22  39  60  94 122 167 223 268 322 393
#     4  10  24  39  56  88 128 171 219 265 325 389
#     4  11  22  38  64  93 129 171 223 268 329 388
#     4  11  22  41  73 104 134 174 219 278 326 395
#     4  11  23  39  66  88 125 172 220 274 331 379
#     4  11  22  38  61  91 126 167 222 284 341 381
#
# _framework density 19.753086
#
# number of rings (size 3 to 8) (size 9 to 14) (size 15 to 20)
#    0.000    1.000    5.000    1.875    7.000    4.500 
#    0.000    0.000    0.000    0.000    0.000    3.500 
#    0.000    0.000    0.000    0.000    0.000    0.000 
#
# Total GULP energy -178447.100825 kJ/mol
# GULP energy per Si atom -5576.471901 kJ/mol
# Density = 1.970813 g / cm^3
# Si number density = 19.753086 Si / 1000 Ang^3
#
#
#
# Elastic Constant Matrix: (Units=GPa)
#
#
# Indices 1 2 3 4 5 6 
#
# 1 104.9744 34.8182 50.7527 0.0000 7.5949 0.0000
# 2 34.8182 68.8362 15.3780 0.0000 11.7933 0.0000
# 3 50.7527 15.3780 100.3795 0.0000 5.2011 0.0000
# 4 0.0000 0.0000 0.0000 19.6872 0.0000 1.6915
# 5 7.5949 11.7933 5.2011 0.0000 41.6530 0.0000
# 6 0.0000 0.0000 0.0000 1.6915 0.0000 28.1617
#
#
#
# Elastic Compliance Matrix: (Units=1/GPa)
#
#
# Indices 1 2 3 4 5 6 
#
# 1 0.014640 -0.005925 -0.006485 0.000000 -0.000182 0.000000
# 2 -0.005925 0.018132 0.000431 0.000000 -0.004107 0.000000
# 3 -0.006485 0.000431 0.013205 0.000000 -0.000588 0.000000
# 4 0.000000 0.000000 0.000000 0.051058 0.000000 -0.003067
# 5 -0.000182 -0.004107 -0.000588 0.000000 0.025277 0.000000
# 6 0.000000 0.000000 0.000000 -0.003067 0.000000 0.035693
#
#
# Mechanical properties :
#
#
# Convention : Reuss Voigt Hill
#
# Bulk Modulus (GPa) = 45.41595 52.89865 49.15730
# Shear Modulus (GPa) = 26.41262 29.44981 27.93121
#
# Velocity S-wave (km/s) = 3.66066 3.86540 3.76442
# Velocity P-wave (km/s) = 6.39601 6.83812 6.62076
#
# Compressibility (1/GPa) = 0.02201870
#
# Stress axis : x y z
#
# Youngs Moduli (GPa) = 68.30673 55.15225 75.72605
#
# Poissons Ratio (x) = 0.32678 0.49107
# Poissons Ratio (y) = 0.40472 -0.03263
# Poissons Ratio (z) = 0.44296 -0.02376
#
# Static dielectric constant tensor:
#      x y z
#    x 1.917410 0.000000 0.044750 
#    y 0.000000 1.686590 0.000000 
#    z 0.044750 0.000000 1.690930 
# 
# From -- ./inp_files/51942.got.cif
#   From: 2010.05.17/outbox.ucp.g08.bks.cvg/sg10_26_cif.got.tgz:51942.got - 2010.06.11 11:31:16.
