data_PCOD9155202
_publ_section_title
;
Structure prediction by ZEFSAII (Michael W. Deem and Ramdas Pophale) SiO2 
 PCOD9155202
Probable space group: P 2/M
;
_chemical_formula_sum "Si O2"
_cell_formula_units_Z 32
_cell_length_a 12.000000
_cell_length_b 9.000000
_cell_length_c 30.000000
_cell_angle_alpha 90.000000
_cell_angle_beta 30.000000
_cell_angle_gamma 90.000000
_cell_volume 1620.000000
_symmetry_space_group_name_H-M "P 2/M"
_symmetry_group_IT_number 10
_symmetry_cell_setting 'monoclinic'
loop_
_space_group_symop_operation_xyz
x,y,z
-x,y,-z
-x,-y,-z
x,-y,z
loop_
_atom_site_type_symbol
_atom_site_label
_atom_site_fract_x
_atom_site_fract_y
_atom_site_fract_z
Si Si1 0.475718 0.177620 0.102182
Si Si2 0.955707 0.178426 0.912138
Si Si3 0.929867 0.823822 0.690682
Si Si4 0.378191 0.826612 0.425398
Si Si5 0.458206 0.173898 0.730409
Si Si6 0.162374 0.671510 0.139647
Si Si7 0.080621 0.676089 0.400575
Si Si8 0.248530 0.327580 0.648833
O O1 0.304411 0.204821 0.202218
O O2 0.363062 0.261623 0.099529
O O3 0.468759 0.000000 0.095956
O O4 0.737101 0.219231 0.017563
O O5 0.885659 0.234764 0.887664
O O6 0.212699 0.228683 0.831282
O O7 0.970241 0.000000 0.907359
O O8 0.941507 0.724306 0.643064
O O9 0.135290 0.774299 0.650566
O O10 0.940383 0.000000 0.677180
O O11 0.522745 0.820801 0.329901
O O12 0.520461 0.738104 0.412867
O O13 0.134396 0.754880 0.502327
O O14 0.350906 0.000000 0.446951
O O15 0.675512 0.263591 0.670487
O O16 0.483809 0.000000 0.735014
O O17 0.208033 0.500000 0.112558
O O18 0.938654 0.675468 0.247249
O O19 0.067303 0.500000 0.412033
O O20 0.273860 0.500000 0.626177
#
# Coordination Sequence:
#
# PCOD9155202 Si02
#       8
#     4   4   4   4   4   4   4   4
#     4   9  19  34  56  83 113 151 194 237 281 332
#     4  10  19  34  56  84 115 150 192 236 282 335
#     4  10  21  40  62  84 115 155 200 242 283 337
#     4  11  22  39  64  91 117 149 191 237 288 345
#     4  10  22  40  62  87 117 151 192 239 285 340
#     4  10  19  30  49  81 122 158 187 226 282 342
#     4  12  26  42  61  84 113 152 194 241 295 348
#     4  10  20  35  57  88 124 156 188 234 289 343
#
# _framework density 19.753086
#
# number of rings (size 3 to 8) (size 9 to 14) (size 15 to 20)
#    0.000    1.750    1.250    3.375    0.000    7.000 
#    0.000    3.125    0.000    3.750    0.000    0.000 
#    0.000    0.000    0.000    0.000    0.000    0.000 
#
# Total GULP energy -178690.170011 kJ/mol
# GULP energy per Si atom -5584.067813 kJ/mol
# Density = 1.970813 g / cm^3
# Si number density = 19.753086 Si / 1000 Ang^3
#
#
#
# Elastic Constant Matrix: (Units=GPa)
#
#
# Indices 1 2 3 4 5 6 
#
# 1 41.5602 12.3754 23.7707 0.0000 -22.3536 0.0000
# 2 12.3754 68.1413 30.2550 0.0000 -20.1325 0.0000
# 3 23.7707 30.2550 87.2952 0.0000 -41.5571 0.0000
# 4 0.0000 0.0000 0.0000 53.3929 0.0000 -44.5727
# 5 -22.3536 -20.1325 -41.5571 0.0000 38.0853 0.0000
# 6 0.0000 0.0000 0.0000 -44.5727 0.0000 85.7679
#
#
#
# Elastic Compliance Matrix: (Units=1/GPa)
#
#
# Indices 1 2 3 4 5 6 
#
# 1 0.035183 -0.000429 0.000605 0.000000 0.021084 0.000000
# 2 -0.000429 0.017907 -0.003544 0.000000 0.005347 0.000000
# 3 0.000605 -0.003544 0.024547 0.000000 0.025267 0.000000
# 4 0.000000 0.000000 0.000000 0.033081 0.000000 0.017192
# 5 0.021084 0.005347 0.025267 0.000000 0.069028 0.000000
# 6 0.000000 0.000000 0.000000 0.017192 0.000000 0.020594
#
#
# Mechanical properties :
#
#
# Convention : Reuss Voigt Hill
#
# Bulk Modulus (GPa) = 14.10404 36.64431 25.37417
# Shear Modulus (GPa) = 21.67229 44.15559 32.91394
#
# Velocity S-wave (km/s) = 3.31593 4.73311 4.08642
# Velocity P-wave (km/s) = 4.67078 6.96141 5.92779
#
# Compressibility (1/GPa) = 0.07090168
#
# Stress axis : x y z
#
# Youngs Moduli (GPa) = 28.42252 55.84544 40.73804
#
# Poissons Ratio (x) = 0.02397 -0.02466
# Poissons Ratio (y) = 0.01220 0.14437
# Poissons Ratio (z) = -0.01721 0.19791
#
# Static dielectric constant tensor:
#      x y z
#    x 1.691150 0.000000 0.017660 
#    y 0.000000 1.658270 0.000000 
#    z 0.017660 0.000000 1.736030 
# 
# From -- ./inp_files/89623.got.cif
#   From: 2010.05.17/outbox.ucp.g08.bks.cvg/sg10_45_cif.got.tgz:89623.got - 2010.06.11 11:31:16.
