data_PCOD9155338
_publ_section_title
;
Structure prediction by ZEFSAII (Michael W. Deem and Ramdas Pophale) SiO2 
 PCOD9155338
Probable space group: P 2/M
;
_chemical_formula_sum "Si O2"
_cell_formula_units_Z 32
_cell_length_a 24.000000
_cell_length_b 9.000000
_cell_length_c 15.000000
_cell_angle_alpha 90.000000
_cell_angle_beta 150.000000
_cell_angle_gamma 90.000000
_cell_volume 1620.000000
_symmetry_space_group_name_H-M "P 2/M"
_symmetry_group_IT_number 10
_symmetry_cell_setting 'monoclinic'
loop_
_space_group_symop_operation_xyz
x,y,z
-x,y,-z
-x,-y,-z
x,-y,z
loop_
_atom_site_type_symbol
_atom_site_label
_atom_site_fract_x
_atom_site_fract_y
_atom_site_fract_z
Si Si1 0.869032 0.174094 0.310040
Si Si2 0.704986 0.177874 0.938448
Si Si3 0.271993 0.323221 0.731345
Si Si4 0.044567 0.677540 0.961369
Si Si5 0.838100 0.822011 0.593490
Si Si6 0.344093 0.178553 0.518634
Si Si7 0.558591 0.179600 0.909869
Si Si8 0.718795 0.819171 0.757190
O O1 0.812424 0.275467 0.306142
O O2 0.000000 0.184703 0.500000
O O3 0.836447 0.000000 0.281396
O O4 0.824813 0.211245 0.149484
O O5 0.623812 0.217854 0.907839
O O6 0.687807 0.234651 0.814083
O O7 0.694759 0.000000 0.916058
O O8 0.275659 0.500000 0.725088
O O9 0.230635 0.242404 0.584767
O O10 0.387061 0.258183 0.930289
O O11 0.058296 0.500000 0.972887
O O12 0.954467 0.739093 0.766556
O O13 0.158982 0.760909 0.098193
O O14 0.000000 0.709271 0.000000
O O15 0.772503 0.792276 0.595128
O O16 0.851193 0.000000 0.601839
O O17 0.435556 0.231833 0.715307
O O18 0.353445 0.229871 0.429262
O O19 0.358129 0.000000 0.534425
O O20 0.563188 0.000000 0.928499
O O21 0.718350 0.000000 0.757442
#
# Coordination Sequence:
#
# PCOD9155338 Si02
#       8
#     4   4   4   4   4   4   4   4
#     4   9  18  34  55  81 111 147 189 230 278 335
#     4   8  16  30  53  83 113 143 179 227 277 325
#     4  11  23  38  55  82 114 147 187 233 285 341
#     4  11  23  38  55  80 116 154 187 230 283 336
#     4  11  22  38  59  84 112 149 191 236 282 334
#     4   9  19  34  58  86 110 141 192 241 281 329
#     4   9  18  38  60  81 111 148 186 234 287 336
#     4  10  19  34  56  86 115 147 190 231 275 335
#
# _framework density 19.753086
#
# number of rings (size 3 to 8) (size 9 to 14) (size 15 to 20)
#    0.000    2.250    1.250    2.625    1.750    1.750 
#    0.000    9.375    0.000    0.000    0.000    4.375 
#    0.000    0.000    0.000    0.000    0.000    0.000 
#
# Total GULP energy -178369.549271 kJ/mol
# GULP energy per Si atom -5574.048415 kJ/mol
# Density = 1.970813 g / cm^3
# Si number density = 19.753086 Si / 1000 Ang^3
#
#
#
# Elastic Constant Matrix: (Units=GPa)
#
#
# Indices 1 2 3 4 5 6 
#
# 1 34.5364 9.9433 1.9464 0.0000 -29.2574 0.0000
# 2 9.9433 33.8350 9.0030 0.0000 -7.2373 0.0000
# 3 1.9464 9.0030 95.9173 0.0000 -17.5845 0.0000
# 4 0.0000 0.0000 0.0000 5.1891 0.0000 -10.6075
# 5 -29.2574 -7.2373 -17.5845 0.0000 36.2018 0.0000
# 6 0.0000 0.0000 0.0000 -10.6075 0.0000 14.5010
#
#
#
# Elastic Compliance Matrix: (Units=1/GPa)
#
#
# Indices 1 2 3 4 5 6 
#
# 1 0.118608 -0.018006 0.017780 0.000000 0.100893 0.000000
# 2 -0.018006 0.033941 -0.004659 0.000000 -0.010030 0.000000
# 3 0.017780 -0.004659 0.014233 0.000000 0.020351 0.000000
# 4 0.000000 0.000000 0.000000 -0.389055 0.000000 -0.284595
# 5 0.100893 -0.010030 0.020351 0.000000 0.117042 0.000000
# 6 0.000000 0.000000 0.000000 -0.284595 0.000000 -0.139221
#
#
# Mechanical properties :
#
#
# Convention : Reuss Voigt Hill
#
# Bulk Modulus (GPa) = 6.36894 22.89711 14.63303
# Shear Modulus (GPa) = -27.42063 20.73810 -3.34127
#
# Velocity S-wave (km/s) = -3.72986 3.24368 -1.30199
# Velocity P-wave (km/s) = 3.91380 5.06413 2.27240
#
# Compressibility (1/GPa) = 0.15701191
#
# Stress axis : x y z
#
# Youngs Moduli (GPa) = 8.43113 29.46284 70.25844
#
# Poissons Ratio (x) = 0.53050 -1.24918
# Poissons Ratio (y) = 0.15181 0.32734
# Poissons Ratio (z) = -0.14990 0.13727
#
# Static dielectric constant tensor:
#      x y z
#    x 1.701720 0.000000 0.029130 
#    y 0.000000 1.659300 0.000000 
#    z 0.029130 0.000000 1.783860 
# 
# From -- ./inp_files/71646.got.cif
#   From: 2010.05.17/outbox.ucp.g08.bks.cvg/sg10_36_cif.got.tgz:71646.got - 2010.06.11 11:31:16.
