data_PCOD9155389
_publ_section_title
;
Structure prediction by ZEFSAII (Michael W. Deem and Ramdas Pophale) SiO2 
 PCOD9155389
Probable space group: P 2/M
;
_chemical_formula_sum "Si O2"
_cell_formula_units_Z 32
_cell_length_a 27.000000
_cell_length_b 9.000000
_cell_length_c 15.000000
_cell_angle_alpha 90.000000
_cell_angle_beta 30.000000
_cell_angle_gamma 90.000000
_cell_volume 1822.500000
_symmetry_space_group_name_H-M "P 2/M"
_symmetry_group_IT_number 10
_symmetry_cell_setting 'monoclinic'
loop_
_space_group_symop_operation_xyz
x,y,z
-x,y,-z
-x,-y,-z
x,-y,z
loop_
_atom_site_type_symbol
_atom_site_label
_atom_site_fract_x
_atom_site_fract_y
_atom_site_fract_z
Si Si1 0.945266 0.679734 0.336224
Si Si2 0.513160 0.821312 0.699509
Si Si3 0.701945 0.819311 0.027832
Si Si4 0.432154 0.821164 0.020824
Si Si5 0.105703 0.321419 0.786276
Si Si6 0.740790 0.819288 0.315089
Si Si7 0.824581 0.680658 0.001601
Si Si8 0.237580 0.320665 0.255279
O O1 0.945949 0.500000 0.331181
O O2 0.909742 0.727911 0.292563
O O3 0.864946 0.721517 0.536197
O O4 0.058209 0.722608 0.183592
O O5 0.415815 0.775605 0.793886
O O6 0.624652 0.772783 0.502966
O O7 0.514865 0.000000 0.690290
O O8 0.488663 0.784715 0.840534
O O9 0.761304 0.748790 0.018264
O O10 0.707627 0.000000 0.021618
O O11 0.747427 0.758077 0.863877
O O12 0.328439 0.735136 0.175503
O O13 0.413971 0.000000 0.050088
O O14 0.500000 0.784728 0.000000
O O15 0.124664 0.500000 0.758348
O O16 0.192561 0.239768 0.706033
O O17 0.000000 0.297114 0.000000
O O18 0.783836 0.747042 0.157854
O O19 0.745977 0.000000 0.303817
O O20 0.817425 0.500000 0.012085
O O21 0.241290 0.500000 0.239157
#
# Coordination Sequence:
#
# PCOD9155389 Si02
#       8
#     4   4   4   4   4   4   4   4
#     4   9  20  37  57  81 114 153 187 222 279 340
#     4   8  18  36  55  77 112 151 182 220 281 339
#     4  10  21  41  62  82 111 147 185 232 284 333
#     4   9  18  34  55  78 110 151 189 225 276 335
#     4  10  19  37  59  78 111 156 190 224 276 334
#     4  11  22  36  56  86 115 145 188 234 278 328
#     4  11  22  40  61  82 110 149 190 229 278 337
#     4  10  20  36  57  83 112 145 188 232 277 330
#
# _framework density 17.558299000000002
#
# number of rings (size 3 to 8) (size 9 to 14) (size 15 to 20)
#    0.000    2.250    1.250    2.250    1.750    1.500 
#    0.000   14.375    0.000    0.000    0.000    0.000 
#    0.000    0.000    0.000    0.000    0.000    0.000 
#
# Total GULP energy -178482.400511 kJ/mol
# GULP energy per Si atom -5577.575016 kJ/mol
# Density = 1.751834 g / cm^3
# Si number density = 17.558299 Si / 1000 Ang^3
#
#
#
# Elastic Constant Matrix: (Units=GPa)
#
#
# Indices 1 2 3 4 5 6 
#
# 1 170.1527 41.4305 70.3813 0.0000 -25.2135 0.0000
# 2 41.4305 63.4553 34.9102 0.0000 -8.8759 0.0000
# 3 70.3813 34.9102 151.0711 0.0000 -29.6706 0.0000
# 4 0.0000 0.0000 0.0000 26.4739 0.0000 -3.3181
# 5 -25.2135 -8.8759 -29.6706 0.0000 24.4846 0.0000
# 6 0.0000 0.0000 0.0000 -3.3181 0.0000 39.9680
#
#
#
# Elastic Compliance Matrix: (Units=1/GPa)
#
#
# Indices 1 2 3 4 5 6 
#
# 1 0.008331 -0.003614 -0.002124 0.000000 0.004695 0.000000
# 2 -0.003614 0.019694 -0.002882 0.000000 -0.000075 0.000000
# 3 -0.002124 -0.002882 0.010026 0.000000 0.008918 0.000000
# 4 0.000000 0.000000 0.000000 0.038170 0.000000 0.003169
# 5 0.004695 -0.000075 0.008918 0.000000 0.056457 0.000000
# 6 0.000000 0.000000 0.000000 0.003169 0.000000 0.025283
#
#
# Mechanical properties :
#
#
# Convention : Reuss Voigt Hill
#
# Bulk Modulus (GPa) = 48.05077 75.34703 61.69890
# Shear Modulus (GPa) = 27.45144 34.04911 30.75028
#
# Velocity S-wave (km/s) = 3.95833 4.40842 4.18942
# Velocity P-wave (km/s) = 6.95104 8.30168 7.65620
#
# Compressibility (1/GPa) = 0.02081132
#
# Stress axis : x y z
#
# Youngs Moduli (GPa) = 120.02649 50.77706 99.73603
#
# Poissons Ratio (x) = 0.18353 0.21185
# Poissons Ratio (y) = 0.43382 0.28742
# Poissons Ratio (z) = 0.25495 0.14633
#
# Static dielectric constant tensor:
#      x y z
#    x 1.586430 0.000000 -0.001940 
#    y 0.000000 1.590670 0.000000 
#    z -0.001940 0.000000 1.609460 
# 
# From -- ./inp_files/66554.got.cif
#   From: 2010.05.17/outbox.ucp.g08.bks.cvg/sg10_34_cif.got.tgz:66554.got - 2010.06.11 11:31:16.
