data_PCOD9155638
_publ_section_title
;
Structure prediction by ZEFSAII (Michael W. Deem and Ramdas Pophale) SiO2 
 PCOD9155638
Probable space group: P 2/M
;
_chemical_formula_sum "Si O2"
_cell_formula_units_Z 32
_cell_length_a 21.000000
_cell_length_b 9.000000
_cell_length_c 27.000000
_cell_angle_alpha 90.000000
_cell_angle_beta 160.000000
_cell_angle_gamma 90.000000
_cell_volume 1745.328791
_symmetry_space_group_name_H-M "P 2/M"
_symmetry_group_IT_number 10
_symmetry_cell_setting 'monoclinic'
loop_
_space_group_symop_operation_xyz
x,y,z
-x,y,-z
-x,-y,-z
x,-y,z
loop_
_atom_site_type_symbol
_atom_site_label
_atom_site_fract_x
_atom_site_fract_y
_atom_site_fract_z
Si Si1 0.934645 0.677217 0.351090
Si Si2 0.596821 0.179334 0.675916
Si Si3 0.154271 0.676834 0.829681
Si Si4 0.094653 0.678971 0.173450
Si Si5 0.339115 0.820704 0.668121
Si Si6 0.587207 0.679791 0.170965
Si Si7 0.343082 0.679361 0.171992
Si Si8 0.161150 0.178667 0.329668
O O1 0.968018 0.500000 0.383147
O O2 0.883277 0.700514 0.256016
O O3 0.755120 0.716501 0.254690
O O4 0.129030 0.762770 0.502700
O O5 0.752264 0.248003 0.751977
O O6 0.626981 0.251718 0.751782
O O7 0.378699 0.208516 0.502758
O O8 0.620671 0.000000 0.694571
O O9 0.135425 0.500000 0.826350
O O10 0.996636 0.759795 0.747416
O O11 0.372783 0.715474 0.998784
O O12 0.119284 0.500000 0.190430
O O13 0.128524 0.744777 0.252777
O O14 0.875320 0.708783 0.000932
O O15 0.377262 0.763476 0.751634
O O16 0.501180 0.750666 0.751060
O O17 0.346019 0.000000 0.669586
O O18 0.595024 0.500000 0.183445
O O19 0.368076 0.500000 0.190322
O O20 0.140570 0.000000 0.311240
#
# Coordination Sequence:
#
# PCOD9155638 Si02
#       8
#     4   4   4   4   4   4   4   4
#     4  10  21  39  63  88 117 155 196 242 296 350
#     4  11  24  41  62  90 123 157 194 239 293 352
#     4  10  21  38  62  90 117 150 196 246 294 348
#     4  11  24  41  63  90 118 153 199 246 291 345
#     4  12  25  39  58  87 121 157 198 242 291 349
#     4  10  21  39  62  88 118 153 196 244 294 350
#     4  11  24  42  63  88 118 154 199 246 292 347
#     4  11  24  40  59  87 122 158 196 239 291 351
#
# _framework density 18.334654
#
# number of rings (size 3 to 8) (size 9 to 14) (size 15 to 20)
#    0.000    1.250    0.000    5.625    0.000   16.500 
#    0.000    0.000    0.000    2.250    0.000    0.000 
#    0.000    0.000    0.000    0.000    0.000    0.000 
#
# Total GULP energy -178766.314364 kJ/mol
# GULP energy per Si atom -5586.447324 kJ/mol
# Density = 1.829292 g / cm^3
# Si number density = 18.334654 Si / 1000 Ang^3
#
#
#
# Elastic Constant Matrix: (Units=GPa)
#
#
# Indices 1 2 3 4 5 6 
#
# 1 208.1027 86.1730 107.5925 0.0000 24.7056 0.0000
# 2 86.1730 118.3079 95.5100 0.0000 7.1400 0.0000
# 3 107.5925 95.5100 210.0377 0.0000 12.7343 0.0000
# 4 0.0000 0.0000 0.0000 30.8505 0.0000 7.8179
# 5 24.7056 7.1400 12.7343 0.0000 46.7464 0.0000
# 6 0.0000 0.0000 0.0000 7.8179 0.0000 31.0629
#
#
#
# Elastic Compliance Matrix: (Units=1/GPa)
#
#
# Indices 1 2 3 4 5 6 
#
# 1 0.007826 -0.003839 -0.002082 0.000000 -0.002982 0.000000
# 2 -0.003839 0.015246 -0.005031 0.000000 0.001071 0.000000
# 3 -0.002082 -0.005031 0.008136 0.000000 -0.000348 0.000000
# 4 0.000000 0.000000 0.000000 0.034623 0.000000 -0.008714
# 5 -0.002982 0.001071 -0.000348 0.000000 0.022899 0.000000
# 6 0.000000 0.000000 0.000000 -0.008714 0.000000 0.034386
#
#
# Mechanical properties :
#
#
# Convention : Reuss Voigt Hill
#
# Bulk Modulus (GPa) = 107.48860 123.88881 115.68871
# Shear Modulus (GPa) = 33.75618 38.21014 35.98316
#
# Velocity S-wave (km/s) = 4.29547 4.57008 4.43490
# Velocity P-wave (km/s) = 9.12988 9.77574 9.45832
#
# Compressibility (1/GPa) = 0.00930331
#
# Stress axis : x y z
#
# Youngs Moduli (GPa) = 127.78574 65.59206 122.90402
#
# Poissons Ratio (x) = 0.25182 0.25590
# Poissons Ratio (y) = 0.49058 0.61833
# Poissons Ratio (z) = 0.26607 0.32999
#
# Static dielectric constant tensor:
#      x y z
#    x 1.609590 0.000000 -0.012890 
#    y 0.000000 1.619150 0.000000 
#    z -0.012890 0.000000 1.638960 
# 
# From -- ./inp_files/93739.got.cif
#   From: 2010.05.17/outbox.ucp.g08.bks.cvg/sg10_47_cif.got.tgz:93739.got - 2010.06.11 11:31:16.
