data_PCOD9155312
_publ_section_title
;
Structure prediction by ZEFSAII (Michael W. Deem and Ramdas Pophale) SiO2 
 PCOD9155312
Probable space group: P 2/M
;
_chemical_formula_sum "Si O2"
_cell_formula_units_Z 32
_cell_length_a 21.000000
_cell_length_b 9.000000
_cell_length_c 27.000000
_cell_angle_alpha 90.000000
_cell_angle_beta 20.000000
_cell_angle_gamma 90.000000
_cell_volume 1745.328791
_symmetry_space_group_name_H-M "P 2/M"
_symmetry_group_IT_number 10
_symmetry_cell_setting 'monoclinic'
loop_
_space_group_symop_operation_xyz
x,y,z
-x,y,-z
-x,-y,-z
x,-y,z
loop_
_atom_site_type_symbol
_atom_site_label
_atom_site_fract_x
_atom_site_fract_y
_atom_site_fract_z
Si Si1 0.215835 0.677887 0.916453
Si Si2 0.195444 0.172695 0.094025
Si Si3 0.784273 0.820000 0.651807
Si Si4 0.477172 0.323876 0.812887
Si Si5 0.520289 0.173891 0.931858
Si Si6 0.601091 0.677288 0.318849
Si Si7 0.835740 0.176345 0.231409
Si Si8 0.220409 0.823266 0.611245
O O1 0.181472 0.500000 0.943960
O O2 0.399005 0.709200 0.815507
O O3 0.263003 0.718919 0.825781
O O4 0.036747 0.759470 0.069283
O O5 0.984814 0.219866 0.257577
O O6 0.189059 0.000000 0.080916
O O7 0.309436 0.267751 0.970950
O O8 0.321768 0.176588 0.050229
O O9 0.666182 0.755676 0.692261
O O10 0.671088 0.766128 0.783060
O O11 0.000000 0.779567 0.500000
O O12 0.771872 0.000000 0.658220
O O13 0.500209 0.500000 0.801309
O O14 0.573926 0.000000 0.899539
O O15 0.500000 0.245963 0.000000
O O16 0.600051 0.500000 0.323330
O O17 0.682487 0.748779 0.308832
O O18 0.393239 0.736406 0.462513
O O19 0.791630 0.205131 0.321020
O O20 0.834595 0.000000 0.224743
O O21 0.246757 0.000000 0.584368
#
# Coordination Sequence:
#
# PCOD9155312 Si02
#       8
#     4   4   4   4   4   4   4   4
#     4  10  22  39  56  78 109 144 182 222 265 320
#     4   9  17  33  55  78 106 139 176 219 263 307
#     4   9  18  33  52  77 107 137 173 216 260 307
#     4  10  19  33  56  80 104 139 182 218 257 310
#     4   8  14  27  50  76 102 132 168 208 252 304
#     4  11  24  39  54  77 111 145 178 219 271 324
#     4  11  22  37  60  83 105 136 179 226 272 321
#     4  10  21  37  55  80 110 139 178 226 271 316
#
# _framework density 18.334654
#
# number of rings (size 3 to 8) (size 9 to 14) (size 15 to 20)
#    0.000    2.250    1.250    2.625    0.000    6.250 
#    2.250    0.000    0.000    6.000    0.000    0.000 
#    0.000    0.000    0.000    0.000    0.000    0.000 
#
# Total GULP energy -178459.382032 kJ/mol
# GULP energy per Si atom -5576.855689 kJ/mol
# Density = 1.829292 g / cm^3
# Si number density = 18.334654 Si / 1000 Ang^3
#
#
#
# Elastic Constant Matrix: (Units=GPa)
#
#
# Indices 1 2 3 4 5 6 
#
# 1 25.7166 12.5509 14.8502 0.0000 -3.2736 0.0000
# 2 12.5509 19.8873 17.4409 0.0000 0.5265 0.0000
# 3 14.8502 17.4409 73.3536 0.0000 -18.9864 0.0000
# 4 0.0000 0.0000 0.0000 -100.1404 0.0000 103.2294
# 5 -3.2736 0.5265 -18.9864 0.0000 24.9115 0.0000
# 6 0.0000 0.0000 0.0000 103.2294 0.0000 -71.8034
#
#
#
# Elastic Compliance Matrix: (Units=1/GPa)
#
#
# Indices 1 2 3 4 5 6 
#
# 1 0.057975 -0.035564 -0.001388 0.000000 0.007312 0.000000
# 2 -0.035564 0.090926 -0.020089 0.000000 -0.021907 0.000000
# 3 -0.001388 -0.020089 0.023361 0.000000 0.018047 0.000000
# 4 0.000000 0.000000 0.000000 0.020717 0.000000 0.029784
# 5 0.007312 -0.021907 0.018047 0.000000 0.055321 0.000000
# 6 0.000000 0.000000 0.000000 0.029784 0.000000 0.028893
#
#
# Mechanical properties :
#
#
# Convention : Reuss Voigt Hill
#
# Bulk Modulus (GPa) = 17.18839 23.18239 20.18539
# Shear Modulus (GPa) = 12.17523 -24.46544 -6.14511
#
# Velocity S-wave (km/s) = 2.57972 -3.65688 -1.83273
# Velocity P-wave (km/s) = 4.27416 2.27132 2.56023
#
# Compressibility (1/GPa) = 0.05817881
#
# Stress axis : x y z
#
# Youngs Moduli (GPa) = 17.24888 10.99795 42.80554
#
# Poissons Ratio (x) = 0.39113 0.05943
# Poissons Ratio (y) = 0.61344 0.85994
# Poissons Ratio (z) = 0.02395 0.22094
#
# Static dielectric constant tensor:
#      x y z
#    x 1.661840 0.000000 -0.000240 
#    y 0.000000 1.618240 0.000000 
#    z -0.000240 0.000000 1.616690 
# 
# From -- ./inp_files/87075.got.cif
#   From: 2010.05.17/outbox.ucp.g08.bks.cvg/sg10_44_cif.got.tgz:87075.got - 2010.06.11 11:31:16.
