data_PCOD9155442
_publ_section_title
;
Structure prediction by ZEFSAII (Michael W. Deem and Ramdas Pophale) SiO2 
 PCOD9155442
Probable space group: P 2/M
;
_chemical_formula_sum "Si O2"
_cell_formula_units_Z 28
_cell_length_a 21.000000
_cell_length_b 9.000000
_cell_length_c 15.000000
_cell_angle_alpha 90.000000
_cell_angle_beta 150.000000
_cell_angle_gamma 90.000000
_cell_volume 1417.500000
_symmetry_space_group_name_H-M "P 2/M"
_symmetry_group_IT_number 10
_symmetry_cell_setting 'monoclinic'
loop_
_space_group_symop_operation_xyz
x,y,z
-x,y,-z
-x,-y,-z
x,-y,z
loop_
_atom_site_type_symbol
_atom_site_label
_atom_site_fract_x
_atom_site_fract_y
_atom_site_fract_z
Si Si1 0.826826 0.325289 0.556483
Si Si2 0.721187 0.321761 0.612565
Si Si3 0.258464 0.177409 0.869643
Si Si4 0.641398 0.323699 0.180961
Si Si5 0.449658 0.177732 0.261319
Si Si6 0.068233 0.175744 0.787709
Si Si7 0.746715 0.677735 0.847725
O O1 0.861321 0.500000 0.589757
O O2 0.818196 0.288212 0.650217
O O3 0.693977 0.303748 0.344132
O O4 0.924348 0.223237 0.622570
O O5 0.699173 0.500000 0.582970
O O6 0.591289 0.238471 0.432435
O O7 0.761693 0.283311 0.761998
O O8 0.273932 0.253316 0.793809
O O9 0.131671 0.217933 0.770728
O O10 0.261233 0.000000 0.861171
O O11 0.371731 0.217743 0.076830
O O12 0.638085 0.500000 0.160222
O O13 0.500000 0.261127 0.000000
O O14 0.377950 0.250433 0.258689
O O15 0.445641 0.000000 0.264678
O O16 0.087748 0.000000 0.822349
O O17 0.140505 0.260250 0.954683
O O18 0.739458 0.500000 0.845955
#
# Coordination Sequence:
#
# PCOD9155442 Si02
#       7
#     4   4   4   4   4   4   4
#     4  10  22  39  57  80 111 145 184 229 274 324
#     4  10  21  36  55  80 111 148 187 227 274 327
#     4   9  20  37  56  79 109 145 181 221 271 325
#     4  10  21  37  59  86 112 140 177 222 271 322
#     4  10  20  34  54  83 116 147 182 226 276 328
#     4  10  22  40  58  80 110 144 185 228 274 327
#     4  10  20  35  57  82 109 145 186 228 275 325
#
# _framework density 19.753086
#
# number of rings (size 3 to 8) (size 9 to 14) (size 15 to 20)
#    0.000    2.143    0.000    3.429    0.000   10.000 
#    0.000    5.714    0.000    0.000    0.000    0.000 
#    0.000    0.000    0.000    0.000    0.000    0.000 
#
# Total GULP energy -156274.194713 kJ/mol
# GULP energy per Si atom -5581.221240 kJ/mol
# Density = 1.970813 g / cm^3
# Si number density = 19.753086 Si / 1000 Ang^3
#
#
#
# Elastic Constant Matrix: (Units=GPa)
#
#
# Indices 1 2 3 4 5 6 
#
# 1 102.2093 25.9792 19.4568 0.0000 -19.2614 0.0000
# 2 25.9792 7.1994 14.0634 0.0000 -4.1870 0.0000
# 3 19.4568 14.0634 12.5569 0.0000 5.7156 0.0000
# 4 0.0000 0.0000 0.0000 25.8825 0.0000 -6.3061
# 5 -19.2614 -4.1870 5.7156 0.0000 26.6729 0.0000
# 6 0.0000 0.0000 0.0000 -6.3061 0.0000 65.6184
#
#
#
# Elastic Compliance Matrix: (Units=1/GPa)
#
#
# Indices 1 2 3 4 5 6 
#
# 1 0.022582 -0.013985 -0.028535 0.000000 0.020227 0.000000
# 2 -0.013985 -0.067047 0.117620 0.000000 -0.045828 0.000000
# 3 -0.028535 0.117620 -0.007651 0.000000 -0.000503 0.000000
# 4 0.000000 0.000000 0.000000 0.039563 0.000000 0.003802
# 5 0.020227 -0.045828 -0.000503 0.000000 0.045011 0.000000
# 6 0.000000 0.000000 0.000000 0.003802 0.000000 0.015605
#
#
# Mechanical properties :
#
#
# Convention : Reuss Voigt Hill
#
# Bulk Modulus (GPa) = 10.19517 26.77379 18.48448
# Shear Modulus (GPa) = -72.00210 27.79916 -22.10147
#
# Velocity S-wave (km/s) = -6.04402 3.75551 -3.34861
# Velocity P-wave (km/s) = 6.59806 5.69112 2.36068
#
# Compressibility (1/GPa) = 0.09808566
#
# Stress axis : x y z
#
# Youngs Moduli (GPa) = 44.28274 -14.91494 -130.70520
#
# Poissons Ratio (x) = -0.20859 -3.72963
# Poissons Ratio (y) = 0.61930 15.37358
# Poissons Ratio (z) = 1.26359 1.75430
#
# Static dielectric constant tensor:
#      x y z
#    x 1.690060 0.000000 0.044230 
#    y 0.000000 1.659290 0.000000 
#    z 0.044230 0.000000 1.738760 
# 
# From -- ./inp_files/49552.got.cif
#   From: 2010.05.17/outbox.ucp.g08.bks.cvg/sg10_25_cif.got.tgz:49552.got - 2010.06.11 11:31:16.
