data_PCOD9155368
_publ_section_title
;
Structure prediction by ZEFSAII (Michael W. Deem and Ramdas Pophale) SiO2 
 PCOD9155368
Probable space group: P 2/M
;
_chemical_formula_sum "Si O2"
_cell_formula_units_Z 32
_cell_length_a 21.000000
_cell_length_b 9.000000
_cell_length_c 27.000000
_cell_angle_alpha 90.000000
_cell_angle_beta 20.000000
_cell_angle_gamma 90.000000
_cell_volume 1745.328791
_symmetry_space_group_name_H-M "P 2/M"
_symmetry_group_IT_number 10
_symmetry_cell_setting 'monoclinic'
loop_
_space_group_symop_operation_xyz
x,y,z
-x,y,-z
-x,-y,-z
x,-y,z
loop_
_atom_site_type_symbol
_atom_site_label
_atom_site_fract_x
_atom_site_fract_y
_atom_site_fract_z
Si Si1 0.690598 0.324300 0.103240
Si Si2 0.947751 0.823763 0.637319
Si Si3 0.710504 0.820332 0.345283
Si Si4 0.446294 0.823528 0.126254
Si Si5 0.037904 0.822065 0.176127
Si Si6 0.643996 0.177097 0.695532
Si Si7 0.824864 0.324330 0.824761
Si Si8 0.972453 0.173182 0.962048
O O1 0.695934 0.500000 0.093201
O O2 0.481948 0.263774 0.251427
O O3 0.811797 0.244860 0.971721
O O4 0.797962 0.271284 0.073488
O O5 0.758017 0.796632 0.746169
O O6 0.932261 0.727489 0.697663
O O7 0.137031 0.791339 0.469482
O O8 0.950875 0.000000 0.647387
O O9 0.500000 0.761873 0.500000
O O10 0.834528 0.784984 0.302807
O O11 0.842247 0.776271 0.202893
O O12 0.698246 0.000000 0.351775
O O13 0.432438 0.784384 0.194236
O O14 0.485672 0.000000 0.093010
O O15 0.612648 0.736185 0.978746
O O16 0.078606 0.752480 0.199052
O O17 0.058457 0.000000 0.162692
O O18 0.619556 0.000000 0.706905
O O19 0.823095 0.500000 0.831436
O O20 0.938224 0.000000 0.972345
O O21 0.000000 0.178245 0.000000
#
# Coordination Sequence:
#
# PCOD9155368 Si02
#       8
#     4   4   4   4   4   4   4   4
#     4  11  21  34  56  84 115 149 186 226 279 338
#     4  10  22  39  58  84 113 146 188 236 287 335
#     4   8  15  30  54  82 107 131 171 227 275 314
#     4  10  20  37  63  86 108 142 190 240 281 334
#     4  10  19  35  59  82 108 145 192 235 272 324
#     4  10  20  37  61  85 111 145 190 237 282 333
#     4  12  24  37  55  82 117 153 188 229 283 339
#     4   9  18  34  56  81 109 143 186 229 270 321
#
# _framework density 18.334654
#
# number of rings (size 3 to 8) (size 9 to 14) (size 15 to 20)
#    0.000    2.000    1.250    4.125    0.000    4.250 
#    2.250    0.000    0.000   11.625    0.000    0.000 
#    0.000    0.000    0.000    0.000    0.000    0.000 
#
# Total GULP energy -178563.179199 kJ/mol
# GULP energy per Si atom -5580.099350 kJ/mol
# Density = 1.829292 g / cm^3
# Si number density = 18.334654 Si / 1000 Ang^3
#
#
#
# Elastic Constant Matrix: (Units=GPa)
#
#
# Indices 1 2 3 4 5 6 
#
# 1 58.1322 22.2972 2.4764 0.0000 -11.0686 0.0000
# 2 22.2972 29.5935 5.7605 0.0000 -5.5662 0.0000
# 3 2.4764 5.7605 25.1377 0.0000 -15.7464 0.0000
# 4 0.0000 0.0000 0.0000 -12.6110 0.0000 3.3147
# 5 -11.0686 -5.5662 -15.7464 0.0000 24.1470 0.0000
# 6 0.0000 0.0000 0.0000 3.3147 0.0000 1.3137
#
#
#
# Elastic Compliance Matrix: (Units=1/GPa)
#
#
# Indices 1 2 3 4 5 6 
#
# 1 0.027285 -0.019900 0.011552 0.000000 0.015453 0.000000
# 2 -0.019900 0.050222 -0.013543 0.000000 -0.006376 0.000000
# 3 0.011552 -0.013543 0.072877 0.000000 0.049697 0.000000
# 4 0.000000 0.000000 0.000000 -0.047676 0.000000 0.120300
# 5 0.015453 -0.006376 0.049697 0.000000 0.079434 0.000000
# 6 0.000000 0.000000 0.000000 0.120300 0.000000 0.457689
#
#
# Mechanical properties :
#
#
# Convention : Reuss Voigt Hill
#
# Bulk Modulus (GPa) = 9.38062 19.32575 14.35318
# Shear Modulus (GPa) = 6.95268 8.05854 7.50561
#
# Velocity S-wave (km/s) = 1.94944 2.09876 2.02548
# Velocity P-wave (km/s) = 3.19289 4.05419 3.64904
#
# Compressibility (1/GPa) = 0.10660281
#
# Stress axis : x y z
#
# Youngs Moduli (GPa) = 36.64969 19.91162 13.72180
#
# Poissons Ratio (x) = 0.39625 -0.15852
# Poissons Ratio (y) = 0.72934 0.18583
# Poissons Ratio (z) = -0.42339 0.26966
#
# Static dielectric constant tensor:
#      x y z
#    x 1.668410 0.000000 -0.011350 
#    y 0.000000 1.611930 0.000000 
#    z -0.011350 0.000000 1.616330 
# 
# From -- ./inp_files/86726.got.cif
#   From: 2010.05.17/outbox.ucp.g08.bks.cvg/sg10_44_cif.got.tgz:86726.got - 2010.06.11 11:31:16.
