data_PCOD9155681
_publ_section_title
;
Structure prediction by ZEFSAII (Michael W. Deem and Ramdas Pophale) SiO2 
 PCOD9155681
Probable space group: P 2/M
;
_chemical_formula_sum "Si O2"
_cell_formula_units_Z 32
_cell_length_a 12.000000
_cell_length_b 9.000000
_cell_length_c 30.000000
_cell_angle_alpha 90.000000
_cell_angle_beta 30.000000
_cell_angle_gamma 90.000000
_cell_volume 1620.000000
_symmetry_space_group_name_H-M "P 2/M"
_symmetry_group_IT_number 10
_symmetry_cell_setting 'monoclinic'
loop_
_space_group_symop_operation_xyz
x,y,z
-x,y,-z
-x,-y,-z
x,-y,z
loop_
_atom_site_type_symbol
_atom_site_label
_atom_site_fract_x
_atom_site_fract_y
_atom_site_fract_z
Si Si1 0.451052 0.823287 0.779588
Si Si2 0.923437 0.676285 0.328064
Si Si3 0.108193 0.322047 0.414356
Si Si4 0.718767 0.174107 0.315816
Si Si5 0.606042 0.176085 0.825900
Si Si6 0.129306 0.677055 0.826084
Si Si7 0.757348 0.174246 0.470719
Si Si8 0.648406 0.822919 0.992649
O O1 0.662882 0.758325 0.678882
O O2 0.478442 0.800290 0.823278
O O3 0.237666 0.741490 0.833418
O O4 0.437908 0.000000 0.776336
O O5 0.891938 0.500000 0.340903
O O6 0.877722 0.739725 0.294861
O O7 0.764177 0.758709 0.418816
O O8 0.173666 0.724559 0.253126
O O9 0.140363 0.500000 0.402341
O O10 0.000000 0.282643 0.500000
O O11 0.932898 0.268766 0.438160
O O12 0.736891 0.250130 0.261622
O O13 0.476068 0.184251 0.422595
O O14 0.779176 0.000000 0.291555
O O15 0.667671 0.000000 0.805984
O O16 0.475143 0.208054 0.917330
O O17 0.146644 0.500000 0.818275
O O18 0.875373 0.731174 0.910820
O O19 0.821342 0.000000 0.446523
O O20 0.698770 0.000000 0.974806
O O21 0.500000 0.792496 0.000000
#
# Coordination Sequence:
#
# PCOD9155681 Si02
#       8
#     4   4   4   4   4   4   4   4
#     4  11  23  41  65  91 126 171 218 264 315 382
#     4  12  24  38  62  94 131 168 208 265 327 382
#     4  11  23  38  59  89 126 167 214 271 327 379
#     4  11  24  42  64  89 124 169 218 266 317 384
#     4  10  22  41  67  96 127 169 219 267 315 381
#     4  12  26  43  65  95 131 165 208 266 326 384
#     4  11  23  39  60  88 122 167 219 264 314 382
#     4  10  22  43  71  99 128 166 211 261 319 385
#
# _framework density 19.753086
#
# number of rings (size 3 to 8) (size 9 to 14) (size 15 to 20)
#    0.000    1.000    1.250    5.625    0.000    9.250 
#    0.000    2.500    0.000    0.000    0.000    0.000 
#    0.000    0.000    0.000    0.000    0.000    0.000 
#
# Total GULP energy -179002.892640 kJ/mol
# GULP energy per Si atom -5593.840395 kJ/mol
# Density = 1.970813 g / cm^3
# Si number density = 19.753086 Si / 1000 Ang^3
#
#
#
# Elastic Constant Matrix: (Units=GPa)
#
#
# Indices 1 2 3 4 5 6 
#
# 1 110.9935 44.5083 34.3667 0.0000 11.2609 0.0000
# 2 44.5083 107.5892 48.3269 0.0000 8.1935 0.0000
# 3 34.3667 48.3269 79.8248 0.0000 17.6802 0.0000
# 4 0.0000 0.0000 0.0000 25.1169 0.0000 0.7153
# 5 11.2609 8.1935 17.6802 0.0000 34.6358 0.0000
# 6 0.0000 0.0000 0.0000 0.7153 0.0000 92.6581
#
#
#
# Elastic Compliance Matrix: (Units=1/GPa)
#
#
# Indices 1 2 3 4 5 6 
#
# 1 0.011313 -0.003475 -0.002406 0.000000 -0.001628 0.000000
# 2 -0.003475 0.013867 -0.007242 0.000000 0.001546 0.000000
# 3 -0.002406 -0.007242 0.019612 0.000000 -0.007516 0.000000
# 4 0.000000 0.000000 0.000000 0.039823 0.000000 -0.000307
# 5 -0.001628 0.001546 -0.007516 0.000000 0.032872 0.000000
# 6 0.000000 0.000000 0.000000 -0.000307 0.000000 0.010795
#
#
# Mechanical properties :
#
#
# Convention : Reuss Voigt Hill
#
# Bulk Modulus (GPa) = 53.91826 61.42347 57.67086
# Shear Modulus (GPa) = 31.11177 41.89585 36.50381
#
# Velocity S-wave (km/s) = 3.97297 4.61040 4.30351
# Velocity P-wave (km/s) = 6.95711 7.71390 7.34526
#
# Compressibility (1/GPa) = 0.01854659
#
# Stress axis : x y z
#
# Youngs Moduli (GPa) = 88.39128 72.11130 50.98866
#
# Poissons Ratio (x) = 0.25062 0.12268
# Poissons Ratio (y) = 0.30720 0.36924
# Poissons Ratio (z) = 0.21267 0.52221
#
# Static dielectric constant tensor:
#      x y z
#    x 1.720770 0.000000 -0.010900 
#    y 0.000000 1.651430 0.000000 
#    z -0.010900 0.000000 1.685940 
# 
# From -- ./inp_files/94942.got.cif
#   From: 2010.05.17/outbox.ucp.g08.bks.cvg/sg10_48_cif.got.tgz:94942.got - 2010.06.11 11:31:16.
