data_PCOD9155251
_publ_section_title
;
Structure prediction by ZEFSAII (Michael W. Deem and Ramdas Pophale) SiO2 
 PCOD9155251
Probable space group: P 2/M
;
_chemical_formula_sum "Si O2"
_cell_formula_units_Z 24
_cell_length_a 18.000000
_cell_length_b 9.000000
_cell_length_c 24.000000
_cell_angle_alpha 90.000000
_cell_angle_beta 160.000000
_cell_angle_gamma 90.000000
_cell_volume 1329.774317
_symmetry_space_group_name_H-M "P 2/M"
_symmetry_group_IT_number 10
_symmetry_cell_setting 'monoclinic'
loop_
_space_group_symop_operation_xyz
x,y,z
-x,y,-z
-x,-y,-z
x,-y,z
loop_
_atom_site_type_symbol
_atom_site_label
_atom_site_fract_x
_atom_site_fract_y
_atom_site_fract_z
Si Si1 0.608500 0.670699 0.138329
Si Si2 0.041050 0.320969 0.386517
Si Si3 0.783727 0.328157 0.808648
Si Si4 0.806432 0.823040 0.115302
Si Si5 0.068742 0.822918 0.921827
Si Si6 0.507365 0.177839 0.705592
O O1 0.605155 0.500000 0.156014
O O2 0.857834 0.718508 0.304008
O O3 0.500000 0.670877 0.000000
O O4 0.444750 0.770281 0.058475
O O5 0.051221 0.500000 0.391892
O O6 0.279724 0.252609 0.561728
O O7 0.941167 0.259378 0.258376
O O8 0.721703 0.500000 0.758955
O O9 0.596618 0.239119 0.709291
O O10 0.870190 0.258646 0.812255
O O11 0.000000 0.320739 0.000000
O O12 0.904875 0.788290 0.124402
O O13 0.815916 0.000000 0.131186
O O14 0.038402 0.000000 0.907272
O O15 0.297415 0.786265 0.113640
O O16 0.482139 0.000000 0.685448
#
# Coordination Sequence:
#
# PCOD9155251 Si02
#       6
#     4   4   4   4   4   4
#     4   8  16  31  49  69  96 130 165 201 241 287
#     4  10  20  34  51  73 101 130 164 205 245 289
#     4   9  17  30  50  74  98 128 165 200 238 290
#     4  10  19  32  52  76 100 128 164 203 243 291
#     4   9  19  34  51  74 102 130 162 201 244 290
#     4  10  19  33  53  74  99 131 164 201 245 290
#
# _framework density 18.048175000000001
#
# number of rings (size 3 to 8) (size 9 to 14) (size 15 to 20)
#    0.000    2.667    0.000    3.000    0.000    7.667 
#    0.000    1.667    0.000   10.000    0.000    0.000 
#    0.000    0.000    0.000    0.000    0.000    0.000 
#
# Total GULP energy -133814.322375 kJ/mol
# GULP energy per Si atom -5575.596766 kJ/mol
# Density = 1.800710 g / cm^3
# Si number density = 18.048175 Si / 1000 Ang^3
#
#
#
# Elastic Constant Matrix: (Units=GPa)
#
#
# Indices 1 2 3 4 5 6 
#
# 1 15.5258 -0.3036 -30.8353 0.0000 -4.7495 0.0000
# 2 -0.3036 36.6705 -4.7022 0.0000 -1.0251 0.0000
# 3 -30.8353 -4.7022 19.2299 0.0000 9.0739 0.0000
# 4 0.0000 0.0000 0.0000 4.2861 0.0000 31.6873
# 5 -4.7495 -1.0251 9.0739 0.0000 18.2575 0.0000
# 6 0.0000 0.0000 0.0000 31.6873 0.0000 12.5472
#
#
#
# Elastic Compliance Matrix: (Units=1/GPa)
#
#
# Indices 1 2 3 4 5 6 
#
# 1 -0.023300 -0.005710 -0.046697 0.000000 0.016827 0.000000
# 2 -0.005710 0.026834 -0.003403 0.000000 0.001712 0.000000
# 3 -0.046697 -0.003403 -0.023367 0.000000 -0.000725 0.000000
# 4 0.000000 0.000000 0.000000 -0.013203 0.000000 0.033344
# 5 0.016827 0.001712 -0.000725 0.000000 0.059606 0.000000
# 6 0.000000 0.000000 0.000000 0.033344 0.000000 -0.004510
#
#
# Mechanical properties :
#
#
# Convention : Reuss Voigt Hill
#
# Bulk Modulus (GPa) = -7.60721 -0.02845 -3.81783
# Shear Modulus (GPa) = 55.63986 14.16931 34.90459
#
# Velocity S-wave (km/s) = 5.55837 2.80497 4.40246
# Velocity P-wave (km/s) = 6.08028 3.23646 4.87055
#
# Compressibility (1/GPa) = -0.13145430
#
# Stress axis : x y z
#
# Youngs Moduli (GPa) = -42.91936 37.26602 -42.79523
#
# Poissons Ratio (x) = 0.21281 -1.99842
# Poissons Ratio (y) = -0.24509 -0.14564
# Poissons Ratio (z) = -2.00422 0.12682
#
# Static dielectric constant tensor:
#      x y z
#    x 1.622540 0.000000 -0.000150 
#    y 0.000000 1.606440 0.000000 
#    z -0.000150 0.000000 1.617320 
# 
# From -- ./inp_files/38098.got.cif
#   From: 2010.05.17/outbox.ucp.g08.bks.cvg/sg10_20_cif.got.tgz:38098.got - 2010.06.11 11:31:16.
