data_PCOD9155345
_publ_section_title
;
Structure prediction by ZEFSAII (Michael W. Deem and Ramdas Pophale) SiO2 
 PCOD9155345
Probable space group: P 2/M
;
_chemical_formula_sum "Si O2"
_cell_formula_units_Z 32
_cell_length_a 30.000000
_cell_length_b 9.000000
_cell_length_c 12.000000
_cell_angle_alpha 90.000000
_cell_angle_beta 150.000000
_cell_angle_gamma 90.000000
_cell_volume 1620.000000
_symmetry_space_group_name_H-M "P 2/M"
_symmetry_group_IT_number 10
_symmetry_cell_setting 'monoclinic'
loop_
_space_group_symop_operation_xyz
x,y,z
-x,y,-z
-x,-y,-z
x,-y,z
loop_
_atom_site_type_symbol
_atom_site_label
_atom_site_fract_x
_atom_site_fract_y
_atom_site_fract_z
Si Si1 0.370951 0.822483 0.048304
Si Si2 0.710898 0.329227 0.332802
Si Si3 0.339367 0.829241 0.553493
Si Si4 0.101188 0.331626 0.180035
Si Si5 0.141378 0.835624 0.053495
Si Si6 0.565923 0.819224 0.453841
Si Si7 0.905974 0.326475 0.254309
Si Si8 0.729588 0.179209 0.959021
O O1 0.470343 0.766568 0.287901
O O2 0.374959 0.000000 0.065776
O O3 0.340358 0.775300 0.861682
O O4 0.298407 0.770801 0.979120
O O5 0.689541 0.500000 0.264494
O O6 0.680612 0.281272 0.390235
O O7 0.818281 0.310799 0.558323
O O8 0.248655 0.832632 0.283775
O O9 0.417575 0.783188 0.639796
O O10 0.353258 0.000000 0.622589
O O11 0.117649 0.500000 0.170112
O O12 0.114781 0.202380 0.120701
O O13 0.000000 0.327721 0.000000
O O14 0.112389 0.000000 0.955708
O O15 0.100981 0.708491 0.890673
O O16 0.567134 0.000000 0.462603
O O17 0.648666 0.767422 0.705813
O O18 0.899472 0.500000 0.264149
O O19 0.823483 0.242392 0.128334
O O20 0.000000 0.269090 0.500000
O O21 0.733004 0.000000 0.960271
#
# Coordination Sequence:
#
# PCOD9155345 Si02
#       8
#     4   4   4   4   4   4   4   4
#     4  10  21  36  58  84 115 152 187 229 282 342
#     4  10  21  36  53  77 114 150 186 233 282 332
#     4   9  17  33  58  82 107 140 183 230 276 331
#     4   9  19  36  57  79 106 148 192 228 278 344
#     4  10  19  34  57  83 109 138 180 237 284 325
#     4   9  17  34  60  87 111 144 188 232 282 338
#     4  11  24  39  56  81 113 151 189 225 278 343
#     4  10  20  38  61  86 113 144 190 240 283 328
#
# _framework density 19.753086
#
# number of rings (size 3 to 8) (size 9 to 14) (size 15 to 20)
#    0.000    2.250    1.250    1.500    0.000    5.750 
#    0.000    7.500    0.000    1.500    0.000    0.000 
#    0.000    0.000    0.000    0.000    0.000    0.000 
#
# Total GULP energy -178264.935502 kJ/mol
# GULP energy per Si atom -5570.779234 kJ/mol
# Density = 1.970813 g / cm^3
# Si number density = 19.753086 Si / 1000 Ang^3
#
#
#
# Elastic Constant Matrix: (Units=GPa)
#
#
# Indices 1 2 3 4 5 6 
#
# 1 -14.9299 24.0691 36.9203 0.0000 -13.1502 0.0000
# 2 24.0691 -0.0154 18.1543 0.0000 18.2917 0.0000
# 3 36.9203 18.1543 82.0843 0.0000 12.0388 0.0000
# 4 0.0000 0.0000 0.0000 30.7923 0.0000 22.4607
# 5 -13.1502 18.2917 12.0388 0.0000 7.6093 0.0000
# 6 0.0000 0.0000 0.0000 22.4607 0.0000 20.4491
#
#
#
# Elastic Compliance Matrix: (Units=1/GPa)
#
#
# Indices 1 2 3 4 5 6 
#
# 1 0.307250 0.439486 -0.206165 0.000000 -0.199305 0.000000
# 2 0.439486 0.606815 -0.298629 0.000000 -0.226727 0.000000
# 3 -0.206165 -0.298629 0.153562 0.000000 0.118620 0.000000
# 4 0.000000 0.000000 0.000000 0.163345 0.000000 -0.179414
# 5 -0.199305 -0.226727 0.118620 0.000000 0.144333 0.000000
# 6 0.000000 0.000000 0.000000 -0.179414 0.000000 0.245965
#
#
# Mechanical properties :
#
#
# Convention : Reuss Voigt Hill
#
# Bulk Modulus (GPa) = 1.06722 25.04738 13.05730
# Shear Modulus (GPa) = 2.42222 10.96982 6.69602
#
# Velocity S-wave (km/s) = 1.10856 2.35914 1.84315
# Velocity P-wave (km/s) = 1.47648 4.48648 3.33980
#
# Compressibility (1/GPa) = 0.93700964
#
# Stress axis : x y z
#
# Youngs Moduli (GPa) = 3.25468 1.64795 6.51201
#
# Poissons Ratio (x) = -0.72425 1.34255
# Poissons Ratio (y) = -1.43039 1.94468
# Poissons Ratio (z) = 0.67100 0.49213
#
# Static dielectric constant tensor:
#      x y z
#    x 1.719050 0.000000 -0.006090 
#    y 0.000000 1.666200 0.000000 
#    z -0.006090 0.000000 1.708730 
# 
# From -- ./inp_files/58298.got.cif
#   From: 2010.05.17/outbox.ucp.g08.bks.cvg/sg10_30_cif.got.tgz:58298.got - 2010.06.11 11:31:16.
