data_PCOD9155365
_publ_section_title
;
Structure prediction by ZEFSAII (Michael W. Deem and Ramdas Pophale) SiO2 
 PCOD9155365
Probable space group: P 2/M
;
_chemical_formula_sum "Si O2"
_cell_formula_units_Z 24
_cell_length_a 18.000000
_cell_length_b 9.000000
_cell_length_c 24.000000
_cell_angle_alpha 90.000000
_cell_angle_beta 160.000000
_cell_angle_gamma 90.000000
_cell_volume 1329.774317
_symmetry_space_group_name_H-M "P 2/M"
_symmetry_group_IT_number 10
_symmetry_cell_setting 'monoclinic'
loop_
_space_group_symop_operation_xyz
x,y,z
-x,y,-z
-x,-y,-z
x,-y,z
loop_
_atom_site_type_symbol
_atom_site_label
_atom_site_fract_x
_atom_site_fract_y
_atom_site_fract_z
Si Si1 0.745360 0.330787 0.306647
Si Si2 0.419700 0.178640 0.506212
Si Si3 0.757680 0.821855 0.843897
Si Si4 0.249942 0.166500 0.807948
Si Si5 0.895734 0.677090 0.629390
Si Si6 0.546778 0.677756 0.284579
O O1 0.667638 0.500000 0.241298
O O2 0.744066 0.239768 0.248797
O O3 0.619601 0.273430 0.273646
O O4 0.000000 0.339005 0.500000
O O5 0.500000 0.223551 0.500000
O O6 0.607454 0.211484 0.684201
O O7 0.209164 0.252458 0.388278
O O8 0.386184 0.000000 0.480622
O O9 0.660601 0.751129 0.831774
O O10 0.757266 0.000000 0.850702
O O11 0.000000 0.772096 0.000000
O O12 0.119259 0.255284 0.763578
O O13 0.155259 0.000000 0.738041
O O14 0.500000 0.157936 0.000000
O O15 0.911881 0.500000 0.648114
O O16 0.735580 0.706369 0.463498
O O17 0.518757 0.500000 0.261991
#
# Coordination Sequence:
#
# PCOD9155365 Si02
#       6
#     4   4   4   4   4   4
#     4  10  19  36  59  82 109 140 179 223 268 322
#     4   9  18  34  55  77 104 139 177 219 266 316
#     4   9  18  33  52  75 104 138 173 213 262 313
#     4  11  24  39  54  79 113 146 182 224 272 323
#     4  10  19  35  58  80 106 141 181 224 268 320
#     4   9  18  33  55  81 106 136 174 219 264 312
#
# _framework density 18.048175000000001
#
# number of rings (size 3 to 8) (size 9 to 14) (size 15 to 20)
#    0.000    2.333    1.667    1.000    0.000    3.667 
#    3.000    0.000    0.000    0.000    0.000    0.000 
#    0.000    0.000    0.000    0.000    0.000    0.000 
#
# Total GULP energy -133676.454683 kJ/mol
# GULP energy per Si atom -5569.852278 kJ/mol
# Density = 1.800710 g / cm^3
# Si number density = 18.048175 Si / 1000 Ang^3
#
#
#
# Elastic Constant Matrix: (Units=GPa)
#
#
# Indices 1 2 3 4 5 6 
#
# 1 201.2609 53.3689 36.7246 0.0000 27.0499 0.0000
# 2 53.3689 42.0009 24.3838 0.0000 4.8994 0.0000
# 3 36.7246 24.3838 47.6442 0.0000 22.0240 0.0000
# 4 0.0000 0.0000 0.0000 14.5971 0.0000 7.3360
# 5 27.0499 4.8994 22.0240 0.0000 36.7523 0.0000
# 6 0.0000 0.0000 0.0000 7.3360 0.0000 41.6321
#
#
#
# Elastic Compliance Matrix: (Units=1/GPa)
#
#
# Indices 1 2 3 4 5 6 
#
# 1 0.008315 -0.010988 0.001889 0.000000 -0.005788 0.000000
# 2 -0.010988 0.050242 -0.024739 0.000000 0.016214 0.000000
# 3 0.001889 -0.024739 0.043309 0.000000 -0.024046 0.000000
# 4 0.000000 0.000000 0.000000 0.075163 0.000000 -0.013245
# 5 -0.005788 0.016214 -0.024046 0.000000 0.043717 0.000000
# 6 0.000000 0.000000 0.000000 -0.013245 0.000000 0.026354
#
#
# Mechanical properties :
#
#
# Convention : Reuss Voigt Hill
#
# Bulk Modulus (GPa) = 29.24720 57.76228 43.50474
# Shear Modulus (GPa) = 15.32931 30.35820 22.84376
#
# Velocity S-wave (km/s) = 2.91753 4.10575 3.56154
# Velocity P-wave (km/s) = 5.25258 7.38581 6.40858
#
# Compressibility (1/GPa) = 0.03419131
#
# Stress axis : x y z
#
# Youngs Moduli (GPa) = 120.25756 19.90380 23.08972
#
# Poissons Ratio (x) = 0.21870 -0.04362
# Poissons Ratio (y) = 1.32137 0.57122
# Poissons Ratio (z) = -0.22719 0.49240
#
# Static dielectric constant tensor:
#      x y z
#    x 1.674880 0.000000 -0.023620 
#    y 0.000000 1.639620 0.000000 
#    z -0.023620 0.000000 1.659040 
# 
# From -- ./inp_files/68788.got.cif
#   From: 2010.05.17/outbox.ucp.g08.bks.cvg/sg10_35_cif.got.tgz:68788.got - 2010.06.11 11:31:16.
