data_PCOD9155511
_publ_section_title
;
Structure prediction by ZEFSAII (Michael W. Deem and Ramdas Pophale) SiO2 
 PCOD9155511
Probable space group: P 2/M
;
_chemical_formula_sum "Si O2"
_cell_formula_units_Z 32
_cell_length_a 27.000000
_cell_length_b 9.000000
_cell_length_c 21.000000
_cell_angle_alpha 90.000000
_cell_angle_beta 160.000000
_cell_angle_gamma 90.000000
_cell_volume 1745.328791
_symmetry_space_group_name_H-M "P 2/M"
_symmetry_group_IT_number 10
_symmetry_cell_setting 'monoclinic'
loop_
_space_group_symop_operation_xyz
x,y,z
-x,y,-z
-x,-y,-z
x,-y,z
loop_
_atom_site_type_symbol
_atom_site_label
_atom_site_fract_x
_atom_site_fract_y
_atom_site_fract_z
Si Si1 0.576680 0.319874 0.387550
Si Si2 0.854385 0.826468 0.517234
Si Si3 0.016728 0.678741 0.594937
Si Si4 0.878364 0.321235 0.682282
Si Si5 0.488587 0.173555 0.914511
Si Si6 0.081480 0.822985 0.031726
Si Si7 0.608435 0.679442 0.572684
Si Si8 0.351595 0.678463 0.010031
O O1 0.575702 0.500000 0.386788
O O2 0.725630 0.275810 0.531523
O O3 0.565300 0.274929 0.448007
O O4 0.445413 0.269377 0.183869
O O5 0.898234 0.743096 0.635294
O O6 0.680124 0.818135 0.306467
O O7 0.915887 0.755506 0.526178
O O8 0.896271 0.000000 0.570431
O O9 0.993441 0.500000 0.569835
O O10 0.000000 0.722366 0.500000
O O11 0.182913 0.713129 0.813183
O O12 0.881353 0.500000 0.683070
O O13 0.000148 0.258804 0.876244
O O14 0.583093 0.255332 0.975850
O O15 0.533275 0.000000 0.970115
O O16 0.500000 0.234598 0.000000
O O17 0.241495 0.759371 0.231575
O O18 0.080909 0.000000 0.020832
O O19 0.000000 0.792331 0.000000
O O20 0.500000 0.713511 0.500000
O O21 0.627220 0.500000 0.594523
O O22 0.364785 0.500000 0.021951
#
# Coordination Sequence:
#
# PCOD9155511 Si02
#       8
#     4   4   4   4   4   4   4   4
#     4   9  18  34  57  85 114 147 190 243 296 346
#     4  11  23  38  58  86 120 153 194 245 297 357
#     4  10  22  39  59  86 121 160 202 247 296 353
#     4  11  21  37  63  87 116 154 197 249 299 351
#     4  10  21  36  55  82 114 148 190 239 291 351
#     4  11  23  38  59  88 122 159 199 243 297 356
#     4  10  21  38  61  89 120 156 203 249 294 352
#     4  10  20  36  58  83 113 151 198 245 290 347
#
# _framework density 18.334654
#
# number of rings (size 3 to 8) (size 9 to 14) (size 15 to 20)
#    0.000    1.750    2.500    1.875    0.000    3.250 
#    0.000    3.125    0.000    0.000    0.000    0.000 
#    0.000    0.000    0.000    0.000    0.000    0.000 
#
# Total GULP energy -178621.355371 kJ/mol
# GULP energy per Si atom -5581.917355 kJ/mol
# Density = 1.829292 g / cm^3
# Si number density = 18.334654 Si / 1000 Ang^3
#
#
#
# Elastic Constant Matrix: (Units=GPa)
#
#
# Indices 1 2 3 4 5 6 
#
# 1 117.8347 36.9148 12.3013 0.0000 -5.0249 0.0000
# 2 36.9148 43.5960 20.2688 0.0000 2.9544 0.0000
# 3 12.3013 20.2688 54.2556 0.0000 -9.8972 0.0000
# 4 0.0000 0.0000 0.0000 14.1628 0.0000 1.2648
# 5 -5.0249 2.9544 -9.8972 0.0000 41.5041 0.0000
# 6 0.0000 0.0000 0.0000 1.2648 0.0000 23.2510
#
#
#
# Elastic Compliance Matrix: (Units=1/GPa)
#
#
# Indices 1 2 3 4 5 6 
#
# 1 0.011896 -0.011172 0.001970 0.000000 0.002705 0.000000
# 2 -0.011172 0.039138 -0.013427 0.000000 -0.007340 0.000000
# 3 0.001970 -0.013427 0.024274 0.000000 0.006983 0.000000
# 4 0.000000 0.000000 0.000000 0.070952 0.000000 -0.003860
# 5 0.002705 -0.007340 0.006983 0.000000 0.026609 0.000000
# 6 0.000000 0.000000 0.000000 -0.003860 0.000000 0.043219
#
#
# Mechanical properties :
#
#
# Convention : Reuss Voigt Hill
#
# Bulk Modulus (GPa) = 33.27795 39.40624 36.34210
# Shear Modulus (GPa) = 18.42541 25.53035 21.97788
#
# Velocity S-wave (km/s) = 3.17353 3.73562 3.46599
# Velocity P-wave (km/s) = 5.62300 6.33608 5.99016
#
# Compressibility (1/GPa) = 0.03004993
#
# Stress axis : x y z
#
# Youngs Moduli (GPa) = 84.06046 25.55061 41.19554
#
# Poissons Ratio (x) = 0.28546 -0.08116
# Poissons Ratio (y) = 0.93915 0.55314
# Poissons Ratio (z) = -0.16560 0.34307
#
# Static dielectric constant tensor:
#      x y z
#    x 1.619270 0.000000 -0.017500 
#    y 0.000000 1.615790 0.000000 
#    z -0.017500 0.000000 1.641510 
# 
# From -- ./inp_files/87043.got.cif
#   From: 2010.05.17/outbox.ucp.g08.bks.cvg/sg10_44_cif.got.tgz:87043.got - 2010.06.11 11:31:16.
