data_PCOD9155399
_publ_section_title
;
Structure prediction by ZEFSAII (Michael W. Deem and Ramdas Pophale) SiO2 
 PCOD9155399
Probable space group: P 2/M
;
_chemical_formula_sum "Si O2"
_cell_formula_units_Z 28
_cell_length_a 15.000000
_cell_length_b 9.000000
_cell_length_c 21.000000
_cell_angle_alpha 90.000000
_cell_angle_beta 150.000000
_cell_angle_gamma 90.000000
_cell_volume 1417.500000
_symmetry_space_group_name_H-M "P 2/M"
_symmetry_group_IT_number 10
_symmetry_cell_setting 'monoclinic'
loop_
_space_group_symop_operation_xyz
x,y,z
-x,y,-z
-x,-y,-z
x,-y,z
loop_
_atom_site_type_symbol
_atom_site_label
_atom_site_fract_x
_atom_site_fract_y
_atom_site_fract_z
Si Si1 0.002874 0.671577 0.200558
Si Si2 0.929911 0.328215 0.384121
Si Si3 0.676686 0.832991 0.653488
Si Si4 0.138113 0.173792 0.408854
Si Si5 0.580386 0.827762 0.119939
Si Si6 0.516553 0.174593 0.690667
Si Si7 0.304487 0.171834 0.066511
O O1 0.963992 0.500000 0.186942
O O2 0.195498 0.703884 0.290078
O O3 0.022808 0.752763 0.281183
O O4 0.863918 0.738758 0.064141
O O5 0.961347 0.500000 0.383486
O O6 0.729391 0.282480 0.240562
O O7 0.000000 0.318800 0.500000
O O8 0.038741 0.206885 0.412380
O O9 0.500000 0.827979 0.500000
O O10 0.645448 0.819714 0.709559
O O11 0.752971 0.000000 0.689490
O O12 0.334463 0.238287 0.546899
O O13 0.155953 0.000000 0.404790
O O14 0.433828 0.828934 0.085188
O O15 0.646549 0.000000 0.154334
O O16 0.500000 0.787695 0.000000
O O17 0.598615 0.230286 0.808549
O O18 0.476168 0.000000 0.678828
O O19 0.253222 0.000000 0.048160
#
# Coordination Sequence:
#
# PCOD9155399 Si02
#       7
#     4   4   4   4   4   4   4
#     4  12  25  39  58  89 125 158 194 237 298 362
#     4  11  24  39  57  88 127 161 194 239 302 365
#     4  10  19  38  64  88 116 152 201 249 294 348
#     4  11  21  39  65  90 115 152 205 254 295 345
#     4  10  21  38  61  87 115 155 207 255 296 346
#     4   9  19  36  62  90 114 149 199 255 302 342
#     4  10  21  39  61  87 118 154 201 250 298 350
#
# _framework density 19.753086
#
# number of rings (size 3 to 8) (size 9 to 14) (size 15 to 20)
#    0.000    1.571    1.429    3.857    0.000    5.143 
#    0.000    5.000    0.000    0.000    0.000    0.000 
#    0.000    0.000    0.000    0.000    0.000    0.000 
#
# Total GULP energy -156004.223695 kJ/mol
# GULP energy per Si atom -5571.579418 kJ/mol
# Density = 1.970813 g / cm^3
# Si number density = 19.753086 Si / 1000 Ang^3
#
#
#
# Elastic Constant Matrix: (Units=GPa)
#
#
# Indices 1 2 3 4 5 6 
#
# 1 68.7102 7.2436 22.2710 0.0000 -31.3748 0.0000
# 2 7.2436 47.2600 29.6691 0.0000 -12.4770 0.0000
# 3 22.2710 29.6691 89.0474 0.0000 -38.5759 0.0000
# 4 0.0000 0.0000 0.0000 12.5108 0.0000 -11.8971
# 5 -31.3748 -12.4770 -38.5759 0.0000 39.8480 0.0000
# 6 0.0000 0.0000 0.0000 -11.8971 0.0000 14.7103
#
#
#
# Elastic Compliance Matrix: (Units=1/GPa)
#
#
# Indices 1 2 3 4 5 6 
#
# 1 0.023399 -0.000110 0.003704 0.000000 0.021975 0.000000
# 2 -0.000110 0.026761 -0.009122 0.000000 -0.000538 0.000000
# 3 0.003704 -0.009122 0.023025 0.000000 0.022351 0.000000
# 4 0.000000 0.000000 0.000000 0.346153 0.000000 0.279954
# 5 0.021975 -0.000538 0.022351 0.000000 0.063866 0.000000
# 6 0.000000 0.000000 0.000000 0.279954 0.000000 0.294394
#
#
# Mechanical properties :
#
#
# Convention : Reuss Voigt Hill
#
# Bulk Modulus (GPa) = 16.09539 35.93168 26.01353
# Shear Modulus (GPa) = 6.17768 23.13607 14.65688
#
# Velocity S-wave (km/s) = 1.77038 3.42609 2.72693
# Velocity P-wave (km/s) = 3.51354 5.82071 4.80758
#
# Compressibility (1/GPa) = 0.06212959
#
# Stress axis : x y z
#
# Youngs Moduli (GPa) = 42.73634 37.36790 43.43069
#
# Poissons Ratio (x) = 0.00412 -0.16088
# Poissons Ratio (y) = 0.00472 0.39617
# Poissons Ratio (z) = -0.15831 0.34087
#
# Static dielectric constant tensor:
#      x y z
#    x 1.754750 0.000000 0.052960 
#    y 0.000000 1.697080 0.000000 
#    z 0.052960 0.000000 1.763800 
# 
# From -- ./inp_files/68612.got.cif
#   From: 2010.05.17/outbox.ucp.g08.bks.cvg/sg10_35_cif.got.tgz:68612.got - 2010.06.11 11:31:16.
