data_PCOD9155505
_publ_section_title
;
Structure prediction by ZEFSAII (Michael W. Deem and Ramdas Pophale) SiO2 
 PCOD9155505
Probable space group: P 2/M
;
_chemical_formula_sum "Si O2"
_cell_formula_units_Z 32
_cell_length_a 15.000000
_cell_length_b 9.000000
_cell_length_c 24.000000
_cell_angle_alpha 90.000000
_cell_angle_beta 30.000000
_cell_angle_gamma 90.000000
_cell_volume 1620.000000
_symmetry_space_group_name_H-M "P 2/M"
_symmetry_group_IT_number 10
_symmetry_cell_setting 'monoclinic'
loop_
_space_group_symop_operation_xyz
x,y,z
-x,y,-z
-x,-y,-z
x,-y,z
loop_
_atom_site_type_symbol
_atom_site_label
_atom_site_fract_x
_atom_site_fract_y
_atom_site_fract_z
Si Si1 0.297283 0.179994 0.618844
Si Si2 0.187408 0.176881 0.561772
Si Si3 0.594801 0.669977 0.733015
Si Si4 0.854915 0.323381 0.682695
Si Si5 0.479857 0.823645 0.076029
Si Si6 0.262450 0.822491 0.968747
Si Si7 0.142056 0.820045 0.823725
Si Si8 0.513244 0.329250 0.332266
O O1 0.500000 0.235230 0.500000
O O2 0.172049 0.222765 0.634876
O O3 0.212016 0.219032 0.723880
O O4 0.307018 0.000000 0.612787
O O5 0.387548 0.227898 0.438269
O O6 0.034876 0.247867 0.606446
O O7 0.175258 0.000000 0.563764
O O8 0.562333 0.500000 0.769636
O O9 0.779658 0.716585 0.661825
O O10 0.425309 0.765169 0.843473
O O11 0.592968 0.670286 0.668165
O O12 0.879988 0.500000 0.672382
O O13 0.687002 0.268761 0.810628
O O14 0.662481 0.785717 0.010104
O O15 0.444961 0.000000 0.105085
O O16 0.500000 0.800707 0.000000
O O17 0.252504 0.000000 0.970314
O O18 0.063868 0.769902 0.060581
O O19 0.290175 0.740340 0.781410
O O20 0.150526 0.000000 0.826616
O O21 0.526992 0.500000 0.344494
#
# Coordination Sequence:
#
# PCOD9155505 Si02
#       8
#     4   4   4   4   4   4   4   4
#     4   9  17  33  57  80 109 148 182 216 269 334
#     4  11  22  37  60  86 112 146 185 228 277 333
#     4   9  21  41  60  76 108 153 187 225 281 336
#     4  10  21  38  57  80 112 147 186 230 278 332
#     4   9  18  33  55  82 111 146 189 230 272 327
#     4   9  19  34  56  84 112 142 184 235 275 320
#     4  10  20  36  57  84 114 146 184 225 276 331
#     4  11  23  39  58  81 109 146 190 233 277 330
#
# _framework density 19.753086
#
# number of rings (size 3 to 8) (size 9 to 14) (size 15 to 20)
#    0.000    2.250    1.250    1.125    1.750    3.250 
#    0.000    6.875    0.000    0.000    0.000    0.000 
#    0.000    0.000    0.000    0.000    0.000    0.000 
#
# Total GULP energy -178376.768200 kJ/mol
# GULP energy per Si atom -5574.274006 kJ/mol
# Density = 1.970813 g / cm^3
# Si number density = 19.753086 Si / 1000 Ang^3
#
#
#
# Elastic Constant Matrix: (Units=GPa)
#
#
# Indices 1 2 3 4 5 6 
#
# 1 100.9453 30.9355 17.4295 0.0000 -21.9901 0.0000
# 2 30.9355 37.4038 11.2384 0.0000 -11.6876 0.0000
# 3 17.4295 11.2384 32.3730 0.0000 -26.6152 0.0000
# 4 0.0000 0.0000 0.0000 11.7225 0.0000 -3.8643
# 5 -21.9901 -11.6876 -26.6152 0.0000 35.3794 0.0000
# 6 0.0000 0.0000 0.0000 -3.8643 0.0000 43.8923
#
#
#
# Elastic Compliance Matrix: (Units=1/GPa)
#
#
# Indices 1 2 3 4 5 6 
#
# 1 0.014181 -0.010079 0.000978 0.000000 0.006220 0.000000
# 2 -0.010079 0.037413 -0.006686 0.000000 0.001065 0.000000
# 3 0.000978 -0.006686 0.082219 0.000000 0.060251 0.000000
# 4 0.000000 0.000000 0.000000 0.087856 0.000000 0.007735
# 5 0.006220 0.001065 0.060251 0.000000 0.077808 0.000000
# 6 0.000000 0.000000 0.000000 0.007735 0.000000 0.023464
#
#
# Mechanical properties :
#
#
# Convention : Reuss Voigt Hill
#
# Bulk Modulus (GPa) = 9.78095 32.21430 20.99762
# Shear Modulus (GPa) = 12.86685 25.60677 19.23681
#
# Velocity S-wave (km/s) = 2.55499 3.60438 3.12406
# Velocity P-wave (km/s) = 3.69680 5.80224 4.86479
#
# Compressibility (1/GPa) = 0.10223958
#
# Stress axis : x y z
#
# Youngs Moduli (GPa) = 70.51491 26.72869 12.16264
#
# Poissons Ratio (x) = 0.26940 -0.01189
# Poissons Ratio (y) = 0.71072 0.08132
# Poissons Ratio (z) = -0.06895 0.17870
#
# Static dielectric constant tensor:
#      x y z
#    x 1.759810 0.000000 0.033590 
#    y 0.000000 1.685980 0.000000 
#    z 0.033590 0.000000 1.670740 
# 
# From -- ./inp_files/66613.got.cif
#   From: 2010.05.17/outbox.ucp.g08.bks.cvg/sg10_34_cif.got.tgz:66613.got - 2010.06.11 11:31:16.
