data_PCOD9155431
_publ_section_title
;
Structure prediction by ZEFSAII (Michael W. Deem and Ramdas Pophale) SiO2 
 PCOD9155431
Probable space group: P 2/M
;
_chemical_formula_sum "Si O2"
_cell_formula_units_Z 32
_cell_length_a 15.000000
_cell_length_b 9.000000
_cell_length_c 30.000000
_cell_angle_alpha 90.000000
_cell_angle_beta 30.000000
_cell_angle_gamma 90.000000
_cell_volume 2025.000000
_symmetry_space_group_name_H-M "P 2/M"
_symmetry_group_IT_number 10
_symmetry_cell_setting 'monoclinic'
loop_
_space_group_symop_operation_xyz
x,y,z
-x,y,-z
-x,-y,-z
x,-y,z
loop_
_atom_site_type_symbol
_atom_site_label
_atom_site_fract_x
_atom_site_fract_y
_atom_site_fract_z
Si Si1 0.722463 0.179981 0.100100
Si Si2 0.344649 0.177965 0.380748
Si Si3 0.657677 0.680186 0.716426
Si Si4 0.948303 0.676365 0.082805
Si Si5 0.730053 0.679918 0.440800
Si Si6 0.663469 0.178809 0.378662
Si Si7 0.026810 0.821762 0.588461
Si Si8 0.690252 0.675622 0.277230
O O1 0.524831 0.250434 0.184205
O O2 0.818355 0.242825 0.103382
O O3 0.716345 0.000000 0.103033
O O4 0.860159 0.243236 0.003450
O O5 0.335183 0.260362 0.337574
O O6 0.510223 0.250033 0.335608
O O7 0.162460 0.197016 0.487793
O O8 0.373098 0.000000 0.362453
O O9 0.652712 0.500000 0.719893
O O10 0.836555 0.745248 0.661688
O O11 0.966190 0.500000 0.064684
O O12 0.846162 0.686948 0.173496
O O13 0.721136 0.500000 0.445310
O O14 0.536893 0.752033 0.535618
O O15 0.761961 0.744416 0.377537
O O16 0.872932 0.743427 0.413700
O O17 0.744147 0.233508 0.297524
O O18 0.655424 0.000000 0.386510
O O19 0.007173 0.000000 0.603951
O O20 0.657709 0.500000 0.300604
#
# Coordination Sequence:
#
# PCOD9155431 Si02
#       8
#     4   4   4   4   4   4   4   4
#     4  11  21  34  53  75 102 136 176 219 263 312
#     4  11  22  35  52  74 106 142 180 220 258 307
#     4  12  24  37  53  74 104 142 183 222 260 308
#     4  10  20  34  53  76 105 136 171 216 266 315
#     4  11  21  35  54  76 103 136 177 220 264 313
#     4  11  21  34  53  76 106 139 174 217 264 312
#     4  11  23  38  54  75 104 140 181 221 263 310
#     4  11  21  33  53  79 108 141 176 214 261 316
#
# _framework density 15.802469
#
# number of rings (size 3 to 8) (size 9 to 14) (size 15 to 20)
#    0.000    1.000    2.500    7.875    0.000    4.500 
#    0.000    0.000    0.000    0.000    0.000    0.875 
#    0.000    7.000    0.000    0.000    0.000    0.000 
#
# Total GULP energy -178721.707971 kJ/mol
# GULP energy per Si atom -5585.053374 kJ/mol
# Density = 1.576650 g / cm^3
# Si number density = 15.802469 Si / 1000 Ang^3
#
#
#
# Elastic Constant Matrix: (Units=GPa)
#
#
# Indices 1 2 3 4 5 6 
#
# 1 78.3054 44.8123 40.7546 0.0000 -6.0338 0.0000
# 2 44.8123 182.3580 59.9089 0.0000 -8.0348 0.0000
# 3 40.7546 59.9089 106.0526 0.0000 -11.6281 0.0000
# 4 0.0000 0.0000 0.0000 29.4457 0.0000 -2.1111
# 5 -6.0338 -8.0348 -11.6281 0.0000 24.3349 0.0000
# 6 0.0000 0.0000 0.0000 -2.1111 0.0000 28.8548
#
#
#
# Elastic Compliance Matrix: (Units=1/GPa)
#
#
# Indices 1 2 3 4 5 6 
#
# 1 0.016844 -0.002462 -0.004974 0.000000 0.000987 0.000000
# 2 -0.002462 0.007097 -0.003032 0.000000 0.000284 0.000000
# 3 -0.004974 -0.003032 0.013517 0.000000 0.004224 0.000000
# 4 0.000000 0.000000 0.000000 0.034140 0.000000 0.002498
# 5 0.000987 0.000284 0.004224 0.000000 0.043450 0.000000
# 6 0.000000 0.000000 0.000000 0.002498 0.000000 0.034839
#
#
# Mechanical properties :
#
#
# Convention : Reuss Voigt Hill
#
# Bulk Modulus (GPa) = 60.52410 73.07418 66.79914
# Shear Modulus (GPa) = 28.35578 31.27641 29.81610
#
# Velocity S-wave (km/s) = 4.24062 4.45366 4.34844
# Velocity P-wave (km/s) = 7.89688 8.53167 8.22040
#
# Compressibility (1/GPa) = 0.01652234
#
# Stress axis : x y z
#
# Youngs Moduli (GPa) = 59.36779 140.89925 73.98188
#
# Poissons Ratio (x) = 0.34684 0.36800
# Poissons Ratio (y) = 0.14614 0.22432
# Poissons Ratio (z) = 0.29531 0.42722
#
# Static dielectric constant tensor:
#      x y z
#    x 1.535220 0.000000 0.032400 
#    y 0.000000 1.524130 0.000000 
#    z 0.032400 0.000000 1.546080 
# 
# From -- ./inp_files/95251.got.cif
#   From: 2010.05.17/outbox.ucp.g08.bks.cvg/sg10_48_cif.got.tgz:95251.got - 2010.06.11 11:31:16.
