data_PCOD9155577
_publ_section_title
;
Structure prediction by ZEFSAII (Michael W. Deem and Ramdas Pophale) SiO2 
 PCOD9155577
Probable space group: P 2/M
;
_chemical_formula_sum "Si O2"
_cell_formula_units_Z 32
_cell_length_a 30.000000
_cell_length_b 9.000000
_cell_length_c 12.000000
_cell_angle_alpha 90.000000
_cell_angle_beta 30.000000
_cell_angle_gamma 90.000000
_cell_volume 1620.000000
_symmetry_space_group_name_H-M "P 2/M"
_symmetry_group_IT_number 10
_symmetry_cell_setting 'monoclinic'
loop_
_space_group_symop_operation_xyz
x,y,z
-x,y,-z
-x,-y,-z
x,-y,z
loop_
_atom_site_type_symbol
_atom_site_label
_atom_site_fract_x
_atom_site_fract_y
_atom_site_fract_z
Si Si1 0.635372 0.321495 0.716740
Si Si2 0.756009 0.823854 0.938215
Si Si3 0.901063 0.329926 0.764121
Si Si4 0.818570 0.824105 0.348940
Si Si5 0.835654 0.324356 0.550407
Si Si6 0.953682 0.328861 0.901663
Si Si7 0.496850 0.180058 0.842799
Si Si8 0.568248 0.180427 0.445579
O O1 0.629661 0.500000 0.728352
O O2 0.734692 0.264353 0.479752
O O3 0.570924 0.247150 0.765099
O O4 0.596000 0.254595 0.917730
O O5 0.837219 0.786404 0.844121
O O6 0.777112 0.738071 0.778297
O O7 0.749656 0.000000 0.929330
O O8 0.666669 0.773076 0.195243
O O9 0.871189 0.500000 0.803983
O O10 0.906198 0.310835 0.885452
O O11 0.000000 0.316446 0.500000
O O12 0.821242 0.768177 0.469757
O O13 0.805062 0.000000 0.371169
O O14 0.908227 0.776217 0.090578
O O15 0.818602 0.500000 0.569539
O O16 0.941298 0.306726 0.346822
O O17 0.942447 0.500000 0.964101
O O18 0.530166 0.221863 0.648086
O O19 0.491103 0.000000 0.865444
O O20 0.500000 0.232154 0.500000
O O21 0.569473 0.000000 0.442985
#
# Coordination Sequence:
#
# PCOD9155577 Si02
#       8
#     4   4   4   4   4   4   4   4
#     4  11  23  41  63  90 123 161 206 255 311 373
#     4  11  23  38  62  96 127 164 213 260 308 366
#     4  10  20  40  64  89 124 170 212 251 310 376
#     4  12  26  41  62  92 124 158 206 261 313 368
#     4  11  23  43  65  88 124 166 207 252 309 376
#     4  10  22  41  64  89 123 167 208 250 308 373
#     4  10  20  39  66  92 123 161 205 256 313 367
#     4   9  21  40  62  91 128 165 202 250 311 372
#
# _framework density 19.753086
#
# number of rings (size 3 to 8) (size 9 to 14) (size 15 to 20)
#    0.000    1.500    1.250    4.500    3.500    3.250 
#    0.000    1.875    0.000    3.000    0.000    0.000 
#    0.000    0.000    0.000    0.000    0.000    0.000 
#
# Total GULP energy -178786.105952 kJ/mol
# GULP energy per Si atom -5587.065811 kJ/mol
# Density = 1.970813 g / cm^3
# Si number density = 19.753086 Si / 1000 Ang^3
#
#
#
# Elastic Constant Matrix: (Units=GPa)
#
#
# Indices 1 2 3 4 5 6 
#
# 1 51.1546 18.5970 20.3751 0.0000 18.0070 0.0000
# 2 18.5970 94.6503 33.1944 0.0000 11.7933 0.0000
# 3 20.3751 33.1944 95.6134 0.0000 20.1646 0.0000
# 4 0.0000 0.0000 0.0000 -89.3157 0.0000 114.5816
# 5 18.0070 11.7933 20.1646 0.0000 26.1941 0.0000
# 6 0.0000 0.0000 0.0000 114.5816 0.0000 -86.9216
#
#
#
# Elastic Compliance Matrix: (Units=1/GPa)
#
#
# Indices 1 2 3 4 5 6 
#
# 1 0.026767 -0.002781 -0.001339 0.000000 -0.016117 0.000000
# 2 -0.002781 0.012472 -0.003529 0.000000 -0.000987 0.000000
# 3 -0.001339 -0.003529 0.013658 0.000000 -0.008004 0.000000
# 4 0.000000 0.000000 0.000000 0.016200 0.000000 0.021355
# 5 -0.016117 -0.000987 -0.008004 0.000000 0.055862 0.000000
# 6 0.000000 0.000000 0.000000 0.021355 0.000000 0.016646
#
#
# Mechanical properties :
#
#
# Convention : Reuss Voigt Hill
#
# Bulk Modulus (GPa) = 26.59798 42.86124 34.72961
# Shear Modulus (GPa) = 29.50948 -18.72519 5.39214
#
# Velocity S-wave (km/s) = 3.86932 -3.08224 1.65399
# Velocity P-wave (km/s) = 5.78417 3.01308 4.61168
#
# Compressibility (1/GPa) = 0.03759684
#
# Stress axis : x y z
#
# Youngs Moduli (GPa) = 37.35995 80.17745 73.21984
#
# Poissons Ratio (x) = 0.22299 0.09806
# Poissons Ratio (y) = 0.10391 0.25842
# Poissons Ratio (z) = 0.05003 0.28297
#
# Static dielectric constant tensor:
#      x y z
#    x 1.637500 0.000000 -0.286230 
#    y 0.000000 1.663310 0.000000 
#    z -0.286230 0.000000 0.817740 
# 
# From -- ./inp_files/58182.got.cif
#   From: 2010.05.17/outbox.ucp.g08.bks.cvg/sg10_30_cif.got.tgz:58182.got - 2010.06.11 11:31:16.
