data_PCOD9155022
_publ_section_title
;
Structure prediction by ZEFSAII (Michael W. Deem and Ramdas Pophale) SiO2 
 PCOD9155022
Probable space group: P 2/M
;
_chemical_formula_sum "Si O2"
_cell_formula_units_Z 28
_cell_length_a 20.646780
_cell_length_b 7.834841
_cell_length_c 22.924194
_cell_angle_alpha 90.000000
_cell_angle_beta 154.238201
_cell_angle_gamma 90.000000
_cell_volume 1611.747563
_symmetry_space_group_name_H-M "P 2/M"
_symmetry_group_IT_number 10
_symmetry_cell_setting 'monoclinic'
loop_
_space_group_symop_operation_xyz
x,y,z
-x,y,-z
-x,-y,-z
x,-y,z
loop_
_atom_site_type_symbol
_atom_site_label
_atom_site_fract_x
_atom_site_fract_y
_atom_site_fract_z
Si Si1 0.831633 0.196613 0.663568
Si Si2 0.274764 0.705538 0.847084
Si Si3 0.738252 0.500000 0.663802
Si Si4 0.589285 0.500000 0.663769
Si Si5 0.419279 0.705537 0.846991
Si Si6 0.504605 0.803387 0.336507
Si Si7 0.340023 0.795491 0.651474
Si Si8 0.963030 0.204509 0.651611
O O1 0.819798 0.330924 0.706092
O O2 0.668766 0.193632 0.500037
O O3 0.942230 0.259349 0.701958
O O4 0.864830 0.000000 0.707331
O O5 0.279810 0.500000 0.850389
O O6 0.305981 0.764461 0.806001
O O7 0.118521 0.755095 0.747876
O O8 0.416131 0.765090 0.000054
O O9 0.707757 0.500000 0.707778
O O10 0.574426 0.500000 0.500017
O O11 0.592292 0.669076 0.706041
O O12 0.420842 0.500000 0.850298
O O13 0.377033 0.755093 0.747725
O O14 0.538462 0.740652 0.298148
O O15 0.450281 0.000000 0.292739
O O16 0.177850 0.728739 0.499929
O O17 0.336113 0.000000 0.642475
O O18 0.948942 0.000000 0.642611
#
# Coordination Sequence:
#
# PCOD9155022 Si02
#       8
#     4   4   2   2   4   4   4   4
#     4   8  15  27  40  59  90 121 151 192 234 272
#     4   9  19  34  48  65  92 123 155 194 239 284
#     4   9  16  24  38  62  88 121 160 186 221 281
#     4   9  16  24  38  62  88 121 160 186 221 281
#     4   9  19  34  48  65  92 123 155 194 239 284
#     4   8  15  27  40  59  90 121 151 192 234 272
#     4   9  18  31  47  68  92 121 158 196 235 280
#     4   9  18  31  47  68  92 121 158 196 235 280
#
# _framework density 17.372449
#
# number of rings (size 3 to 8) (size 9 to 14) (size 15 to 20)
#    0.000    3.286    0.000    2.571    2.000    2.857 
#    0.000    7.143    0.000    0.000    0.000    0.000 
#    0.000    2.286    0.000    6.286    0.000    6.286 
#
# Total GULP energy -155891.523637 kJ/mol
# GULP energy per Si atom -5567.554416 kJ/mol
# Density = 1.733291 g / cm^3
# Si number density = 17.372449 Si / 1000 Ang^3
#
#
#
# Elastic Constant Matrix: (Units=GPa)
#
#
# Indices 1 2 3 4 5 6 
#
# 1 203.1730 63.9950 61.8256 0.0000 1.6130 0.0000
# 2 63.9950 59.9270 18.8517 0.0000 0.4751 0.0000
# 3 61.8256 18.8517 32.7729 0.0000 0.2029 0.0000
# 4 0.0000 0.0000 0.0000 31.6513 0.0000 0.1357
# 5 1.6130 0.4751 0.2029 0.0000 -6.3700 0.0000
# 6 0.0000 0.0000 0.0000 0.1357 0.0000 47.5911
#
#
#
# Elastic Compliance Matrix: (Units=1/GPa)
#
#
# Indices 1 2 3 4 5 6 
#
# 1 0.014238 -0.008264 -0.022120 0.000000 0.002284 0.000000
# 2 -0.008264 0.025162 0.001117 0.000000 -0.000180 0.000000
# 3 -0.022120 0.001117 0.071620 0.000000 -0.003237 0.000000
# 4 0.000000 0.000000 0.000000 0.031595 0.000000 -0.000090
# 5 0.002284 -0.000180 -0.003237 0.000000 -0.156525 0.000000
# 6 0.000000 0.000000 0.000000 -0.000090 0.000000 0.021013
#
#
# Mechanical properties :
#
#
# Convention : Reuss Voigt Hill
#
# Bulk Modulus (GPa) = 19.05275 65.02416 42.03845
# Shear Modulus (GPa) = 60.14610 24.65452 42.40031
#
# Velocity S-wave (km/s) = 5.89039 3.77128 4.94567
# Velocity P-wave (km/s) = 7.56659 7.51493 7.54080
#
# Compressibility (1/GPa) = 0.05248587
#
# Stress axis : x y z
#
# Youngs Moduli (GPa) = 70.23501 39.74262 13.96266
#
# Poissons Ratio (x) = 0.32843 0.30886
# Poissons Ratio (y) = 0.58042 -0.01560
# Poissons Ratio (z) = 1.55361 -0.04441
#
# Static dielectric constant tensor:
#      x y z
#    x 1.606920 0.000000 0.000380 
#    y 0.000000 1.624170 0.000000 
#    z 0.000380 0.000000 1.568200 
# 
# From -- ./inp_files/85678.got.cif
#   From: 2010.05.17/outbox.cif.g08.bks.cpg/sg10_43_cif.got.tgz:85678.got - 2010.06.03 11:33:40.
