data_PCOD9155981
_publ_section_title
;
Structure prediction by ZEFSAII (Michael W. Deem and Ramdas Pophale) SiO2 
 PCOD9155981
Probable space group: P 21/M
;
_chemical_formula_sum "Si O2"
_cell_formula_units_Z 32
_cell_length_a 13.450003
_cell_length_b 16.015285
_cell_length_c 9.390000
_cell_angle_alpha 90.000000
_cell_angle_beta 41.100174
_cell_angle_gamma 90.000000
_cell_volume 1329.650506
_symmetry_space_group_name_H-M "P 21/M"
_symmetry_group_IT_number 11
_symmetry_cell_setting 'monoclinic'
loop_
_space_group_symop_operation_xyz
x,y,z
-x,1/2+y,-z
-x,-y,-z
x,1/2-y,z
loop_
_atom_site_type_symbol
_atom_site_label
_atom_site_fract_x
_atom_site_fract_y
_atom_site_fract_z
Si Si1 0.767541 0.346135 0.249038
Si Si2 0.127959 0.157173 0.839276
Si Si3 0.864117 0.060738 0.686174
Si Si4 0.867613 0.841997 0.504457
Si Si5 0.644211 0.979791 0.437972
Si Si6 0.550558 0.156812 0.211400
Si Si7 0.624888 0.944530 0.947316
Si Si8 0.637476 0.343035 0.781093
O O1 0.732658 0.250000 0.332430
O O2 0.711328 0.428187 0.395753
O O3 0.686220 0.351848 0.180781
O O4 0.948942 0.353636 0.054099
O O5 0.170653 0.250000 0.848708
O O6 0.147739 0.157058 0.647485
O O7 0.231282 0.079164 0.774043
O O8 0.957148 0.134511 0.657678
O O9 0.737358 0.007395 0.908168
O O10 0.779930 0.095368 0.636754
O O11 0.000000 0.000000 0.500000
O O12 0.838903 0.750000 0.592398
O O13 0.744961 0.899739 0.714360
O O14 0.566603 0.918664 0.638060
O O15 0.500000 0.000000 0.500000
O O16 0.483273 0.250000 0.313204
O O17 0.597932 0.160009 0.994789
O O18 0.513587 0.875979 0.133780
O O19 0.500000 0.000000 0.000000
O O20 0.677934 0.250000 0.695293
#
# Coordination Sequence:
#
# PCOD9155981 Si02
#       8
#     4   4   4   4   4   4   4   4
#     4   9  18  31  46  68  99 132 163 196 234 282
#     4  10  19  31  50  76 101 121 151 200 250 290
#     4   9  18  30  43  66 100 129 154 183 226 293
#     4  10  18  30  50  74  96 120 151 193 244 290
#     4  10  19  30  45  68 101 133 158 188 237 295
#     4   9  17  29  47  74 103 125 154 201 251 291
#     4   9  18  29  41  64  99 129 153 182 223 286
#     4  10  17  28  48  72  97 125 156 197 248 291
#
# _framework density 24.066476000000002
#
# number of rings (size 3 to 8) (size 9 to 14) (size 15 to 20)
#    0.000    2.500    0.000    3.000    0.000    4.500 
#    0.000    0.000    0.000    0.000    0.000   61.250 
#    0.000   88.000    0.000    0.000    0.000    0.000 
#
# Total GULP energy -178414.544207 kJ/mol
# GULP energy per Si atom -5575.454506 kJ/mol
# Density = 2.401170 g / cm^3
# Si number density = 24.066476 Si / 1000 Ang^3
#
#
#
# Elastic Constant Matrix: (Units=GPa)
#
#
# Indices 1 2 3 4 5 6 
#
# 1 72.2119 35.6166 45.2701 0.0000 -21.4756 0.0000
# 2 35.6166 193.9281 71.4530 0.0000 -20.5064 0.0000
# 3 45.2701 71.4530 119.7466 0.0000 -27.9642 0.0000
# 4 0.0000 0.0000 0.0000 40.4876 0.0000 -15.8525
# 5 -21.4756 -20.5064 -27.9642 0.0000 44.7967 0.0000
# 6 0.0000 0.0000 0.0000 -15.8525 0.0000 23.4245
#
#
#
# Elastic Compliance Matrix: (Units=1/GPa)
#
#
# Indices 1 2 3 4 5 6 
#
# 1 0.019374 -0.000965 -0.005482 0.000000 0.005424 0.000000
# 2 -0.000965 0.006674 -0.003527 0.000000 0.000391 0.000000
# 3 -0.005482 -0.003527 0.013506 0.000000 0.004189 0.000000
# 4 0.000000 0.000000 0.000000 0.033603 0.000000 0.022741
# 5 0.005424 0.000391 0.004189 0.000000 0.027717 0.000000
# 6 0.000000 0.000000 0.000000 0.022741 0.000000 0.058080
#
#
# Mechanical properties :
#
#
# Convention : Reuss Voigt Hill
#
# Bulk Modulus (GPa) = 51.00037 76.72953 63.86495
# Shear Modulus (GPa) = 26.96340 37.31157 32.13749
#
# Velocity S-wave (km/s) = 3.35083 3.94173 3.65823
# Velocity P-wave (km/s) = 6.01732 7.25726 6.66618
#
# Compressibility (1/GPa) = 0.01960770
#
# Stress axis : x y z
#
# Youngs Moduli (GPa) = 51.61635 149.82430 74.04222
#
# Poissons Ratio (x) = 0.14455 0.40589
# Poissons Ratio (y) = 0.04980 0.26111
# Poissons Ratio (z) = 0.28295 0.52836
#
# Static dielectric constant tensor:
#      x y z
#    x 1.961700 0.000000 0.015860 
#    y 0.000000 2.066830 0.000000 
#    z 0.015860 0.000000 1.986100 
# 
# From -- ./inp_files/53720.got.cif
#   From: 2010.05.17/outbox.cif.g08.bks.cpg/sg11_27_cif.got.tgz:53720.got - 2010.06.03 12:22:45.
