data_PCOD9155314
_publ_section_title
;
Structure prediction by ZEFSAII (Michael W. Deem and Ramdas Pophale) SiO2 
 PCOD9155314
Probable space group: P 2/M
;
_chemical_formula_sum "Si O2"
_cell_formula_units_Z 28
_cell_length_a 27.000000
_cell_length_b 9.000000
_cell_length_c 9.000000
_cell_angle_alpha 90.000000
_cell_angle_beta 140.000000
_cell_angle_gamma 90.000000
_cell_volume 1405.776502
_symmetry_space_group_name_H-M "P 2/M"
_symmetry_group_IT_number 10
_symmetry_cell_setting 'monoclinic'
loop_
_space_group_symop_operation_xyz
x,y,z
-x,y,-z
-x,-y,-z
x,-y,z
loop_
_atom_site_type_symbol
_atom_site_label
_atom_site_fract_x
_atom_site_fract_y
_atom_site_fract_z
Si Si1 0.231218 0.831145 0.502362
Si Si2 0.921456 0.331238 0.364909
Si Si3 0.787739 0.325114 0.260095
Si Si4 0.675084 0.823843 0.798028
Si Si5 0.387770 0.327830 0.836385
Si Si6 0.545219 0.329125 0.345898
Si Si7 0.209804 0.667795 0.168251
O O1 0.198317 0.710178 0.538651
O O2 0.321188 0.791036 0.698358
O O3 0.199815 0.789199 0.270637
O O4 0.217792 0.000000 0.515849
O O5 0.939960 0.500000 0.462311
O O6 0.862191 0.263589 0.345192
O O7 0.000000 0.254367 0.500000
O O8 0.869231 0.344674 0.100436
O O9 0.779084 0.500000 0.206298
O O10 0.711349 0.237998 0.033324
O O11 0.588623 0.777287 0.559150
O O12 0.725782 0.731039 0.795032
O O13 0.685831 0.000000 0.810260
O O14 0.363195 0.500000 0.806415
O O15 0.418082 0.320625 0.736100
O O16 0.456347 0.297061 0.108699
O O17 0.553735 0.500000 0.415539
O O18 0.232026 0.500000 0.268764
#
# Coordination Sequence:
#
# PCOD9155314 Si02
#       7
#     4   4   4   4   4   4   4
#     4  12  23  35  52  79 113 144 180 227 270 315
#     4   8  16  34  61  89 108 129 174 227 263 303
#     4  10  21  37  58  79 107 146 179 216 269 327
#     4  11  20  32  52  80 110 140 180 229 269 314
#     4   9  18  32  52  76 105 141 182 226 272 319
#     4   9  17  31  52  77 104 139 183 228 270 318
#     4  10  19  33  56  81 108 144 182 217 261 321
#
# _framework density 19.917818
#
# number of rings (size 3 to 8) (size 9 to 14) (size 15 to 20)
#    0.000    2.143    1.429    5.143    0.000    0.571 
#    0.000    2.857    0.000   24.000    0.000    0.000 
#    0.000    0.000    0.000    0.000    0.000    0.000 
#
# Total GULP energy -155970.798104 kJ/mol
# GULP energy per Si atom -5570.385647 kJ/mol
# Density = 1.987248 g / cm^3
# Si number density = 19.917818 Si / 1000 Ang^3
#
#
#
# Elastic Constant Matrix: (Units=GPa)
#
#
# Indices 1 2 3 4 5 6 
#
# 1 26.5127 -1.3576 21.7438 0.0000 1.9180 0.0000
# 2 -1.3576 61.7303 -0.8352 0.0000 8.9861 0.0000
# 3 21.7438 -0.8352 24.5889 0.0000 7.2792 0.0000
# 4 0.0000 0.0000 0.0000 -65.7414 0.0000 -47.5447
# 5 1.9180 8.9861 7.2792 0.0000 16.5990 0.0000
# 6 0.0000 0.0000 0.0000 -47.5447 0.0000 -9.0864
#
#
#
# Elastic Compliance Matrix: (Units=1/GPa)
#
#
# Indices 1 2 3 4 5 6 
#
# 1 0.173052 -0.007039 -0.170628 0.000000 0.058640 0.000000
# 2 -0.007039 0.018208 0.010941 0.000000 -0.013841 0.000000
# 3 -0.170628 0.010941 0.215867 0.000000 -0.080871 0.000000
# 4 0.000000 0.000000 0.000000 0.005463 0.000000 -0.028587
# 5 0.058640 -0.013841 -0.080871 0.000000 0.096427 0.000000
# 6 0.000000 0.000000 0.000000 -0.028587 0.000000 0.039528
#
#
# Mechanical properties :
#
#
# Convention : Reuss Voigt Hill
#
# Bulk Modulus (GPa) = 13.57335 16.88156 15.22746
# Shear Modulus (GPa) = 5.51539 -5.42704 0.04418
#
# Velocity S-wave (km/s) = 1.66586 -1.65246 0.14909
# Velocity P-wave (km/s) = 3.24493 2.20299 2.77333
#
# Compressibility (1/GPa) = 0.07367375
#
# Stress axis : x y z
#
# Youngs Moduli (GPa) = 5.77862 54.92205 4.63249
#
# Poissons Ratio (x) = 0.38660 0.79043
# Poissons Ratio (y) = 0.04068 -0.05068
# Poissons Ratio (z) = 0.98599 -0.60088
#
# Static dielectric constant tensor:
#      x y z
#    x 1.762510 0.000000 0.005850 
#    y 0.000000 1.668530 0.000000 
#    z 0.005850 0.000000 1.736840 
# 
# From -- ./inp_files/31595.got.cif
#   From: 2010.05.17/outbox.ucp.g08.bks.cvg/sg10_16_cif.got.tgz:31595.got - 2010.06.11 11:31:16.
