data_PCOD9155867
_publ_section_title
;
Structure prediction by ZEFSAII (Michael W. Deem and Ramdas Pophale) SiO2 
 PCOD9155867
Probable space group: P 21/M
;
_chemical_formula_sum "Si O2"
_cell_formula_units_Z 28
_cell_length_a 18.468479
_cell_length_b 8.715074
_cell_length_c 14.580375
_cell_angle_alpha 90.000000
_cell_angle_beta 128.857807
_cell_angle_gamma 90.000000
_cell_volume 1827.443989
_symmetry_space_group_name_H-M "P 21/M"
_symmetry_group_IT_number 11
_symmetry_cell_setting 'monoclinic'
loop_
_space_group_symop_operation_xyz
x,y,z
-x,1/2+y,-z
-x,-y,-z
x,1/2-y,z
loop_
_atom_site_type_symbol
_atom_site_label
_atom_site_fract_x
_atom_site_fract_y
_atom_site_fract_z
Si Si1 0.582645 0.065730 0.629016
Si Si2 0.474754 0.933804 0.701904
Si Si3 0.230599 0.565432 0.700695
Si Si4 0.293274 0.566099 0.433901
Si Si5 0.042062 0.934346 0.627423
Si Si6 0.434971 0.432966 0.869179
Si Si7 0.145318 0.433670 0.444076
O O1 0.575931 0.250000 0.627411
O O2 0.674817 0.025882 0.644084
O O3 0.500000 0.000000 0.500000
O O4 0.561309 0.995719 0.711100
O O5 0.478632 0.750000 0.710473
O O6 0.380033 0.974060 0.570367
O O7 0.468149 0.005776 0.796632
O O8 0.240176 0.750000 0.706589
O O9 0.150219 0.520040 0.710191
O O10 0.329427 0.490544 0.798230
O O11 0.193857 0.510829 0.571636
O O12 0.282591 0.750000 0.430266
O O13 0.202036 0.487068 0.400766
O O14 0.042071 0.750000 0.622398
O O15 0.964332 0.977288 0.640669
O O16 0.000000 0.000000 0.500000
O O17 0.437786 0.250000 0.872395
O O18 0.500000 0.500000 0.000000
O O19 0.152571 0.250000 0.459763
#
# Coordination Sequence:
#
# PCOD9155867 Si02
#       7
#     4   4   4   4   4   4   4
#     4   9  17  28  42  61  86 117 153 185 221 267
#     4  10  19  32  47  63  87 116 149 187 230 269
#     4  10  18  31  46  60  86 118 149 187 229 264
#     4   9  17  27  41  62  91 122 150 181 221 265
#     4   8  16  27  40  60  85 115 148 182 218 262
#     4  12  24  36  50  67  87 115 154 193 229 269
#     4  10  17  25  41  65  90 119 154 183 216 264
#
# _framework density 15.321947
#
# number of rings (size 3 to 8) (size 9 to 14) (size 15 to 20)
#    0.000    2.286    1.429    3.857    0.000    4.000 
#    0.000    0.000    0.000    0.000    0.000    0.000 
#    0.000    1.143    0.000    3.429    0.000    5.286 
#
# Total GULP energy -155943.052686 kJ/mol
# GULP energy per Si atom -5569.394739 kJ/mol
# Density = 1.528707 g / cm^3
# Si number density = 15.321947 Si / 1000 Ang^3
#
#
#
# Elastic Constant Matrix: (Units=GPa)
#
#
# Indices 1 2 3 4 5 6 
#
# 1 179.2602 56.6328 52.5127 0.0000 13.4418 0.0000
# 2 56.6328 61.3130 26.5760 0.0000 1.4026 0.0000
# 3 52.5127 26.5760 52.2536 0.0000 3.4115 0.0000
# 4 0.0000 0.0000 0.0000 15.4073 0.0000 -0.9065
# 5 13.4418 1.4026 3.4115 0.0000 13.0897 0.0000
# 6 0.0000 0.0000 0.0000 -0.9065 0.0000 28.2513
#
#
#
# Elastic Compliance Matrix: (Units=1/GPa)
#
#
# Indices 1 2 3 4 5 6 
#
# 1 0.010037 -0.006340 -0.006342 0.000000 -0.007975 0.000000
# 2 -0.006340 0.024930 -0.006672 0.000000 0.005578 0.000000
# 3 -0.006342 -0.006672 0.028925 0.000000 -0.000311 0.000000
# 4 0.000000 0.000000 0.000000 0.065027 0.000000 0.002087
# 5 -0.007975 0.005578 -0.000311 0.000000 0.084069 0.000000
# 6 0.000000 0.000000 0.000000 0.002087 0.000000 0.035464
#
#
# Mechanical properties :
#
#
# Convention : Reuss Voigt Hill
#
# Bulk Modulus (GPa) = 39.70797 62.69666 51.20232
# Shear Modulus (GPa) = 16.91739 21.82335 19.37037
#
# Velocity S-wave (km/s) = 3.32645 3.77811 3.55945
# Velocity P-wave (km/s) = 6.38167 7.74858 7.09810
#
# Compressibility (1/GPa) = 0.02518386
#
# Stress axis : x y z
#
# Youngs Moduli (GPa) = 99.62975 40.11229 34.57252
#
# Poissons Ratio (x) = 0.25430 0.21926
# Poissons Ratio (y) = 0.63162 0.23068
# Poissons Ratio (z) = 0.63185 0.26765
#
# Static dielectric constant tensor:
#      x y z
#    x 1.568350 0.000000 0.022510 
#    y 0.000000 1.520470 0.000000 
#    z 0.022510 0.000000 1.458320 
# 
# From -- ./inp_files/53277.got.cif
#   From: 2010.05.17/outbox.cif.g08.bks.cpg/sg11_27_cif.got.tgz:53277.got - 2010.06.03 12:22:45.
