data_PCOD9155724
_publ_section_title
;
Structure prediction by ZEFSAII (Michael W. Deem and Ramdas Pophale) SiO2 
 PCOD9155724
Probable space group: P 21/M
;
_chemical_formula_sum "Si O2"
_cell_formula_units_Z 12
_cell_length_a 17.758275
_cell_length_b 5.593545
_cell_length_c 8.196791
_cell_angle_alpha 90.000000
_cell_angle_beta 33.443447
_cell_angle_gamma 90.000000
_cell_volume 448.717426
_symmetry_space_group_name_H-M "P 21/M"
_symmetry_group_IT_number 11
_symmetry_cell_setting 'monoclinic'
loop_
_space_group_symop_operation_xyz
x,y,z
-x,1/2+y,-z
-x,-y,-z
x,1/2-y,z
loop_
_atom_site_type_symbol
_atom_site_label
_atom_site_fract_x
_atom_site_fract_y
_atom_site_fract_z
Si Si1 0.837149 0.750000 0.415319
Si Si2 0.902045 0.250000 0.277058
Si Si3 0.761991 0.750000 0.046445
Si Si4 0.221467 0.750000 0.868517
Si Si5 0.469951 0.250000 0.789398
Si Si6 0.564088 0.750000 0.714137
O O1 0.869035 0.492257 0.431478
O O2 0.685197 0.750000 0.624912
O O3 0.942686 0.750000 0.068799
O O4 0.815756 0.250000 0.259312
O O5 0.831709 0.493069 0.951509
O O6 0.673104 0.750000 0.044151
O O7 0.647187 0.750000 0.395170
O O8 0.388622 0.750000 0.575569
O O9 0.483028 0.502918 0.857586
#
# Coordination Sequence:
#
# PCOD9155724 Si02
#       6
#     2   2   2   2   2   2
#     4  10  16  22  28  32  36  42  48  54  60  64
#     4  10  16  22  28  32  36  42  48  54  60  64
#     4  10  16  20  26  32  38  44  48  52  58  64
#     4  10  14  22  26  32  38  42  48  54  58  64
#     4  10  16  20  26  32  38  44  48  52  58  64
#     4  10  14  22  26  32  38  42  48  54  58  64
#
# _framework density 26.742887
#
# number of rings (size 3 to 8) (size 9 to 14) (size 15 to 20)
#    0.000    2.000    6.667    5.000    0.000    0.000 
#    0.000    0.000    0.000    0.000    0.000    0.000 
#    0.000    0.000    0.000    0.000    0.000    0.000 
#
# Total GULP energy -67084.688408 kJ/mol
# GULP energy per Si atom -5590.390701 kJ/mol
# Density = 2.668202 g / cm^3
# Si number density = 26.742887 Si / 1000 Ang^3
#
#
#
# Elastic Constant Matrix: (Units=GPa)
#
#
# Indices 1 2 3 4 5 6 
#
# 1 69.4877 41.2421 18.4931 0.0000 -30.0955 0.0000
# 2 41.2421 350.9696 40.3241 0.0000 -20.6838 0.0000
# 3 18.4931 40.3241 69.1681 0.0000 -16.2829 0.0000
# 4 0.0000 0.0000 0.0000 23.9540 0.0000 -4.5866
# 5 -30.0955 -20.6838 -16.2829 0.0000 35.2206 0.0000
# 6 0.0000 0.0000 0.0000 -4.5866 0.0000 38.5202
#
#
#
# Elastic Compliance Matrix: (Units=1/GPa)
#
#
# Indices 1 2 3 4 5 6 
#
# 1 0.023792 -0.001565 -0.000986 0.000000 0.018954 0.000000
# 2 -0.001565 0.003194 -0.001478 0.000000 -0.000145 0.000000
# 3 -0.000986 -0.001478 0.017034 0.000000 0.006164 0.000000
# 4 0.000000 0.000000 0.000000 0.042721 0.000000 0.005087
# 5 0.018954 -0.000145 0.006164 0.000000 0.047353 0.000000
# 6 0.000000 0.000000 0.000000 0.005087 0.000000 0.026566
#
#
# Mechanical properties :
#
#
# Convention : Reuss Voigt Hill
#
# Bulk Modulus (GPa) = 27.80797 76.63822 52.22310
# Shear Modulus (GPa) = 27.66910 45.51004 36.58957
#
# Velocity S-wave (km/s) = 3.22006 4.12972 3.70293
# Velocity P-wave (km/s) = 4.92401 7.17350 6.15244
#
# Compressibility (1/GPa) = 0.03596091
#
# Stress axis : x y z
#
# Youngs Moduli (GPa) = 42.03109 313.04185 58.70616
#
# Poissons Ratio (x) = 0.49003 0.05791
# Poissons Ratio (y) = 0.06579 0.08676
# Poissons Ratio (z) = 0.04146 0.46265
#
# Static dielectric constant tensor:
#      x y z
#    x 2.086460 0.000000 0.034920 
#    y 0.000000 2.223970 0.000000 
#    z 0.034920 0.000000 2.042730 
# 
# From -- ./inp_files/19925.got.cif
#   From: 2010.05.17/outbox.cif.g08.bks.cpg/sg11_10_cif.got.tgz:19925.got - 2010.06.03 12:22:45.
