data_PCOD9155826
_publ_section_title
;
Structure prediction by ZEFSAII (Michael W. Deem and Ramdas Pophale) SiO2 
 PCOD9155826
Probable space group: P 21/M
;
_chemical_formula_sum "Si O2"
_cell_formula_units_Z 24
_cell_length_a 8.340532
_cell_length_b 16.599351
_cell_length_c 12.024010
_cell_angle_alpha 90.000000
_cell_angle_beta 47.152333
_cell_angle_gamma 90.000000
_cell_volume 1220.493668
_symmetry_space_group_name_H-M "P 21/M"
_symmetry_group_IT_number 11
_symmetry_cell_setting 'monoclinic'
loop_
_space_group_symop_operation_xyz
x,y,z
-x,1/2+y,-z
-x,-y,-z
x,1/2-y,z
loop_
_atom_site_type_symbol
_atom_site_label
_atom_site_fract_x
_atom_site_fract_y
_atom_site_fract_z
Si Si1 0.161369 0.006700 0.194268
Si Si2 0.626469 0.660943 0.301083
Si Si3 0.321527 0.070413 0.345471
Si Si4 0.963545 0.840363 0.347805
Si Si5 0.698714 0.051839 0.458496
Si Si6 0.256647 0.008315 0.901146
O O1 0.249844 0.060729 0.252782
O O2 0.915981 0.040203 0.286257
O O3 0.288477 0.010503 0.018914
O O4 0.130996 0.914412 0.251608
O O5 0.621883 0.750000 0.255173
O O6 0.813434 0.657249 0.307496
O O7 0.400100 0.638422 0.469860
O O8 0.668769 0.590953 0.192514
O O9 0.199659 0.139661 0.472133
O O10 0.246763 0.991165 0.450070
O O11 0.585560 0.062473 0.220614
O O12 0.054681 0.750000 0.316273
O O13 0.500000 0.000000 0.500000
O O14 0.000000 0.000000 0.000000
#
# Coordination Sequence:
#
# PCOD9155826 Si02
#       6
#     4   4   4   4   4   4
#     4  11  20  36  58  84 112 150 184 225 276 337
#     4  10  20  35  56  84 110 142 186 240 278 314
#     4  10  21  35  55  83 111 146 185 222 276 337
#     4  10  19  35  57  84 111 141 188 236 276 321
#     4  10  16  33  57  80 105 139 184 222 262 325
#     4  11  21  37  59  80 111 148 190 224 271 337
#
# _framework density 19.664175
#
# number of rings (size 3 to 8) (size 9 to 14) (size 15 to 20)
#    0.000    1.667    5.000    3.500    0.000    0.000 
#    0.000   10.833    0.000    0.000    0.000    0.000 
#    0.000    0.000    0.000    0.000    0.000    0.000 
#
# Total GULP energy -133798.617468 kJ/mol
# GULP energy per Si atom -5574.942395 kJ/mol
# Density = 1.961942 g / cm^3
# Si number density = 19.664175 Si / 1000 Ang^3
#
#
#
# Elastic Constant Matrix: (Units=GPa)
#
#
# Indices 1 2 3 4 5 6 
#
# 1 56.0842 9.7132 14.5982 0.0000 12.3104 0.0000
# 2 9.7132 98.4951 26.6210 0.0000 1.5240 0.0000
# 3 14.5982 26.6210 106.1378 0.0000 16.3108 0.0000
# 4 0.0000 0.0000 0.0000 20.1418 0.0000 -0.1671
# 5 12.3104 1.5240 16.3108 0.0000 36.6359 0.0000
# 6 0.0000 0.0000 0.0000 -0.1671 0.0000 14.5094
#
#
#
# Elastic Compliance Matrix: (Units=1/GPa)
#
#
# Indices 1 2 3 4 5 6 
#
# 1 0.019762 -0.001469 -0.001437 0.000000 -0.005940 0.000000
# 2 -0.001469 0.011023 -0.002757 0.000000 0.001262 0.000000
# 3 -0.001437 -0.002757 0.010969 0.000000 -0.004286 0.000000
# 4 0.000000 0.000000 0.000000 0.049653 0.000000 0.000572
# 5 -0.005940 0.001262 -0.004286 0.000000 0.031147 0.000000
# 6 0.000000 0.000000 0.000000 0.000572 0.000000 0.068927
#
#
# Mechanical properties :
#
#
# Convention : Reuss Voigt Hill
#
# Bulk Modulus (GPa) = 32.86187 40.28689 36.57438
# Shear Modulus (GPa) = 23.47961 28.24307 25.86134
#
# Velocity S-wave (km/s) = 3.45922 3.79393 3.63043
# Velocity P-wave (km/s) = 5.71863 6.30268 6.01775
#
# Compressibility (1/GPa) = 0.03043040
#
# Stress axis : x y z
#
# Youngs Moduli (GPa) = 50.60091 90.71789 91.16192
#
# Poissons Ratio (x) = 0.13323 0.13100
# Poissons Ratio (y) = 0.07431 0.25131
# Poissons Ratio (z) = 0.07271 0.25009
#
# Static dielectric constant tensor:
#      x y z
#    x 1.770680 0.000000 -0.007340 
#    y 0.000000 1.686540 0.000000 
#    z -0.007340 0.000000 1.745220 
# 
# From -- ./inp_files/18521.got.cif
#   From: 2010.05.17/outbox.cif.g08.bks.cpg/sg11_10_cif.got.tgz:18521.got - 2010.06.03 12:22:45.
