data_PCOD9155381
_publ_section_title
;
Structure prediction by ZEFSAII (Michael W. Deem and Ramdas Pophale) SiO2 
 PCOD9155381
Probable space group: P 2/M
;
_chemical_formula_sum "Si O2"
_cell_formula_units_Z 24
_cell_length_a 15.000000
_cell_length_b 9.000000
_cell_length_c 30.000000
_cell_angle_alpha 90.000000
_cell_angle_beta 20.000000
_cell_angle_gamma 90.000000
_cell_volume 1385.181580
_symmetry_space_group_name_H-M "P 2/M"
_symmetry_group_IT_number 10
_symmetry_cell_setting 'monoclinic'
loop_
_space_group_symop_operation_xyz
x,y,z
-x,y,-z
-x,-y,-z
x,-y,z
loop_
_atom_site_type_symbol
_atom_site_label
_atom_site_fract_x
_atom_site_fract_y
_atom_site_fract_z
Si Si1 0.439476 0.823654 0.667764
Si Si2 0.306197 0.179009 0.630465
Si Si3 0.242248 0.322367 0.094101
Si Si4 0.282458 0.322717 0.384172
Si Si5 0.834570 0.176900 0.963391
Si Si6 0.708343 0.177877 0.121068
O O1 0.431510 0.782992 0.619501
O O2 0.643574 0.738373 0.602037
O O3 0.144387 0.794278 0.823441
O O4 0.484693 0.000000 0.650512
O O5 0.500000 0.222432 0.500000
O O6 0.022152 0.252232 0.761906
O O7 0.272916 0.000000 0.645327
O O8 0.220646 0.500000 0.104918
O O9 0.260168 0.264936 0.035019
O O10 0.500000 0.278039 0.000000
O O11 0.289498 0.500000 0.381438
O O12 0.497950 0.260745 0.249209
O O13 0.000000 0.272976 0.500000
O O14 0.810987 0.000000 0.965990
O O15 0.692472 0.213005 0.076126
O O16 0.677361 0.000000 0.141314
O O17 0.000000 0.214871 0.000000
#
# Coordination Sequence:
#
# PCOD9155381 Si02
#       6
#     4   4   4   4   4   4
#     4   9  17  34  58  80 105 138 178 225 270 315
#     4   9  19  37  60  83 106 136 181 230 270 316
#     4  10  21  36  54  80 115 148 176 214 267 323
#     4  11  24  38  51  76 114 150 180 215 264 320
#     4   9  18  34  58  84 106 135 179 227 269 313
#     4  10  19  36  60  83 106 134 178 229 268 314
#
# _framework density 17.326248
#
# number of rings (size 3 to 8) (size 9 to 14) (size 15 to 20)
#    0.000    2.333    1.667    2.000    0.000    6.667 
#    3.000    0.000    0.000    0.000    0.000    0.000 
#    0.000    0.000    0.000    0.000    0.000    0.000 
#
# Total GULP energy -133893.388185 kJ/mol
# GULP energy per Si atom -5578.891174 kJ/mol
# Density = 1.728681 g / cm^3
# Si number density = 17.326248 Si / 1000 Ang^3
#
#
#
# Elastic Constant Matrix: (Units=GPa)
#
#
# Indices 1 2 3 4 5 6 
#
# 1 133.1543 55.1350 95.1534 0.0000 -13.0608 0.0000
# 2 55.1350 29.4427 46.6153 0.0000 -9.0137 0.0000
# 3 95.1534 46.6153 103.9593 0.0000 -6.5608 0.0000
# 4 0.0000 0.0000 0.0000 9.4940 0.0000 -17.9494
# 5 -13.0608 -9.0137 -6.5608 0.0000 28.9423 0.0000
# 6 0.0000 0.0000 0.0000 -17.9494 0.0000 13.6438
#
#
#
# Elastic Compliance Matrix: (Units=1/GPa)
#
#
# Indices 1 2 3 4 5 6 
#
# 1 0.036071 -0.054576 -0.008714 0.000000 -0.002694 0.000000
# 2 -0.054576 0.220541 -0.046827 0.000000 0.033441 0.000000
# 3 -0.008714 -0.046827 0.037967 0.000000 -0.009910 0.000000
# 4 0.000000 0.000000 0.000000 -0.070824 0.000000 -0.093173
# 5 -0.002694 0.033441 -0.009910 0.000000 0.041504 0.000000
# 6 0.000000 0.000000 0.000000 -0.093173 0.000000 -0.049283
#
#
# Mechanical properties :
#
#
# Convention : Reuss Voigt Hill
#
# Bulk Modulus (GPa) = 13.45077 73.37374 43.41226
# Shear Modulus (GPa) = 10.84620 15.05953 12.95287
#
# Velocity S-wave (km/s) = 2.50471 2.95137 2.73717
# Velocity P-wave (km/s) = 4.01807 7.35217 5.92449
#
# Compressibility (1/GPa) = 0.07434516
#
# Stress axis : x y z
#
# Youngs Moduli (GPa) = 27.72330 4.53431 26.33882
#
# Poissons Ratio (x) = 0.24746 0.22951
# Poissons Ratio (y) = 1.51302 1.23338
# Poissons Ratio (z) = 0.24157 0.21233
#
# Static dielectric constant tensor:
#      x y z
#    x 1.592970 0.000000 0.012790 
#    y 0.000000 1.576480 0.000000 
#    z 0.012790 0.000000 1.564510 
# 
# From -- ./inp_files/72497.got.cif
#   From: 2010.05.17/outbox.ucp.g08.bks.cvg/sg10_37_cif.got.tgz:72497.got - 2010.06.11 11:31:16.
