data_PCOD9155770
_publ_section_title
;
Structure prediction by ZEFSAII (Michael W. Deem and Ramdas Pophale) SiO2 
 PCOD9155770
Probable space group: P 21/M
;
_chemical_formula_sum "Si O2"
_cell_formula_units_Z 32
_cell_length_a 16.113755
_cell_length_b 18.089201
_cell_length_c 16.413182
_cell_angle_alpha 90.000000
_cell_angle_beta 17.670910
_cell_angle_gamma 90.000000
_cell_volume 1452.239412
_symmetry_space_group_name_H-M "P 21/M"
_symmetry_group_IT_number 11
_symmetry_cell_setting 'monoclinic'
loop_
_space_group_symop_operation_xyz
x,y,z
-x,1/2+y,-z
-x,-y,-z
x,1/2-y,z
loop_
_atom_site_type_symbol
_atom_site_label
_atom_site_fract_x
_atom_site_fract_y
_atom_site_fract_z
Si Si1 0.753491 0.838423 0.234938
Si Si2 0.950763 0.461222 0.959293
Si Si3 0.599847 0.367186 0.673486
Si Si4 0.353845 0.477916 0.445982
Si Si5 0.159023 0.377466 0.206984
Si Si6 0.806254 0.336980 0.299806
Si Si7 0.034321 0.553229 0.321376
Si Si8 0.582498 0.923178 0.878764
O O1 0.753000 0.750000 0.245682
O O2 0.444896 0.868092 0.518779
O O3 0.920949 0.879989 0.147581
O O4 0.900033 0.858855 0.011199
O O5 0.143794 0.502510 0.713143
O O6 0.640555 0.456314 0.218250
O O7 0.000000 0.500000 0.000000
O O8 0.574638 0.455057 0.681644
O O9 0.705619 0.341558 0.486671
O O10 0.850862 0.349081 0.498413
O O11 0.321776 0.344622 0.977541
O O12 0.160858 0.425175 0.571726
O O13 0.116183 0.466442 0.233836
O O14 0.330444 0.369694 0.129101
O O15 0.806297 0.250000 0.282225
O O16 0.845392 0.562042 0.577337
O O17 0.318173 0.595662 0.071403
O O18 0.500000 0.000000 0.000000
#
# Coordination Sequence:
#
# PCOD9155770 Si02
#       8
#     4   4   4   4   4   4   4   4
#     4  10  21  37  54  72  95 128 168 207 245 286
#     4  12  22  34  51  73 100 129 162 200 249 301
#     4  11  19  31  46  70 103 130 160 195 238 289
#     4  11  21  32  47  71 100 129 159 196 246 294
#     4  10  18  27  44  68  96 131 162 191 231 285
#     4  10  20  35  53  70  93 128 166 201 239 285
#     4  10  18  29  43  63  95 130 159 193 232 282
#     4  10  16  27  43  63  92 129 165 189 226 280
#
# _framework density 22.034935000000001
#
# number of rings (size 3 to 8) (size 9 to 14) (size 15 to 20)
#    0.000    1.500    0.000   10.875    0.000    0.000 
#    0.000    0.000    0.000    0.000    0.000    0.000 
#    0.000   20.000    0.000    0.000    0.000    0.000 
#
# Total GULP energy -178529.478261 kJ/mol
# GULP energy per Si atom -5579.046196 kJ/mol
# Density = 2.198478 g / cm^3
# Si number density = 22.034935 Si / 1000 Ang^3
#
#
#
# Elastic Constant Matrix: (Units=GPa)
#
#
# Indices 1 2 3 4 5 6 
#
# 1 104.1902 5.2031 29.0995 0.0000 -31.2726 0.0000
# 2 5.2031 24.2376 1.6403 0.0000 -4.1329 0.0000
# 3 29.0995 1.6403 129.3519 0.0000 -7.7266 0.0000
# 4 0.0000 0.0000 0.0000 11.6544 0.0000 4.7652
# 5 -31.2726 -4.1329 -7.7266 0.0000 56.3862 0.0000
# 6 0.0000 0.0000 0.0000 4.7652 0.0000 5.0363
#
#
#
# Elastic Compliance Matrix: (Units=1/GPa)
#
#
# Indices 1 2 3 4 5 6 
#
# 1 0.012234 -0.001382 -0.002355 0.000000 0.006361 0.000000
# 2 -0.001382 0.041952 -0.000084 0.000000 0.002297 0.000000
# 3 -0.002355 -0.000084 0.008251 0.000000 -0.000181 0.000000
# 4 0.000000 0.000000 0.000000 0.139943 0.000000 -0.132408
# 5 0.006361 0.002297 -0.000181 0.000000 0.021406 0.000000
# 6 0.000000 0.000000 0.000000 -0.132408 0.000000 0.323835
#
#
# Mechanical properties :
#
#
# Convention : Reuss Voigt Hill
#
# Bulk Modulus (GPa) = 18.24971 36.62951 27.43961
# Shear Modulus (GPa) = 8.71798 29.40450 19.06124
#
# Velocity S-wave (km/s) = 1.99124 3.65697 2.94436
# Velocity P-wave (km/s) = 3.68603 5.87288 4.90294
#
# Compressibility (1/GPa) = 0.05479541
#
# Stress axis : x y z
#
# Youngs Moduli (GPa) = 81.74095 23.83658 121.20051
#
# Poissons Ratio (x) = 0.03295 0.28539
# Poissons Ratio (y) = 0.11298 0.01016
# Poissons Ratio (z) = 0.19247 0.00200
#
# Static dielectric constant tensor:
#      x y z
#    x 1.887340 0.000000 -0.017060 
#    y 0.000000 1.885650 0.000000 
#    z -0.017060 0.000000 1.834700 
# 
# From -- ./inp_files/52707.got.cif
#   From: 2010.05.17/outbox.cif.g08.bks.cpg/sg11_27_cif.got.tgz:52707.got - 2010.06.03 12:22:45.
