data_PCOD9155975
_publ_section_title
;
Structure prediction by ZEFSAII (Michael W. Deem and Ramdas Pophale) SiO2 
 PCOD9155975
Probable space group: P 21/M
;
_chemical_formula_sum "Si O2"
_cell_formula_units_Z 32
_cell_length_a 22.093399
_cell_length_b 18.895066
_cell_length_c 7.962518
_cell_angle_alpha 90.000000
_cell_angle_beta 148.966144
_cell_angle_gamma 90.000000
_cell_volume 1713.671290
_symmetry_space_group_name_H-M "P 21/M"
_symmetry_group_IT_number 11
_symmetry_cell_setting 'monoclinic'
loop_
_space_group_symop_operation_xyz
x,y,z
-x,1/2+y,-z
-x,-y,-z
x,1/2-y,z
loop_
_atom_site_type_symbol
_atom_site_label
_atom_site_fract_x
_atom_site_fract_y
_atom_site_fract_z
Si Si1 0.213411 0.524779 0.718202
Si Si2 0.329533 0.011113 0.477476
Si Si3 0.432605 0.466968 0.093310
Si Si4 0.892407 0.040477 0.906569
Si Si5 0.988807 0.396476 0.670392
Si Si6 0.189774 0.107276 0.912500
Si Si7 0.047576 0.169100 0.154530
Si Si8 0.693390 0.671677 0.101225
O O1 0.351451 0.522191 0.003883
O O2 0.151106 0.519991 0.385832
O O3 0.188554 0.458091 0.778693
O O4 0.150526 0.590137 0.661293
O O5 0.226857 0.954090 0.269158
O O6 0.386112 0.029809 0.790944
O O7 0.431080 0.985256 0.594356
O O8 0.266347 0.079497 0.249998
O O9 0.398992 0.390171 0.084647
O O10 0.971306 0.110181 0.072003
O O11 0.959453 0.973820 0.148859
O O12 0.060156 0.377098 0.673635
O O13 0.018211 0.343204 0.889855
O O14 0.257222 0.167092 0.971113
O O15 0.022614 0.250000 0.146437
O O16 0.186804 0.157380 0.509202
O O17 0.649838 0.750000 0.036576
#
# Coordination Sequence:
#
# PCOD9155975 Si02
#       8
#     4   4   4   4   4   4   4   4
#     4   9  16  25  43  67  93 116 142 184 230 271
#     4   9  18  30  51  73  91 113 152 204 237 263
#     4   9  17  33  49  69  92 118 155 193 232 273
#     4   9  16  30  47  67  91 120 154 192 229 272
#     4  10  17  28  47  68  91 120 155 192 228 271
#     4  10  18  28  45  72  95 117 150 193 237 274
#     4  10  19  31  47  66  92 127 159 187 227 279
#     4  10  20  32  46  66  97 130 153 181 227 283
#
# _framework density 18.673359000000001
#
# number of rings (size 3 to 8) (size 9 to 14) (size 15 to 20)
#    0.000    2.500    0.000    6.375    0.000    3.500 
#    0.000    1.250    0.000    0.000    0.000   21.000 
#    0.000    0.000    0.000    0.000    0.000    0.000 
#
# Total GULP energy -178313.390116 kJ/mol
# GULP energy per Si atom -5572.293441 kJ/mol
# Density = 1.863086 g / cm^3
# Si number density = 18.673359 Si / 1000 Ang^3
#
#
#
# Elastic Constant Matrix: (Units=GPa)
#
#
# Indices 1 2 3 4 5 6 
#
# 1 102.2892 7.4204 25.1250 0.0000 30.0839 0.0000
# 2 7.4204 53.9301 4.8246 0.0000 13.6856 0.0000
# 3 25.1250 4.8246 32.1231 0.0000 14.6715 0.0000
# 4 0.0000 0.0000 0.0000 12.1367 0.0000 1.6069
# 5 30.0839 13.6856 14.6715 0.0000 42.2669 0.0000
# 6 0.0000 0.0000 0.0000 1.6069 0.0000 13.5413
#
#
#
# Elastic Compliance Matrix: (Units=1/GPa)
#
#
# Indices 1 2 3 4 5 6 
#
# 1 0.013738 0.000655 -0.007464 0.000000 -0.007400 0.000000
# 2 0.000655 0.020234 -0.000411 0.000000 -0.006875 0.000000
# 3 -0.007464 -0.000411 0.041051 0.000000 -0.008803 0.000000
# 4 0.000000 0.000000 0.000000 0.083710 0.000000 -0.009933
# 5 -0.007400 -0.006875 -0.008803 0.000000 0.034208 0.000000
# 6 0.000000 0.000000 0.000000 -0.009933 0.000000 0.075027
#
#
# Mechanical properties :
#
#
# Convention : Reuss Voigt Hill
#
# Bulk Modulus (GPa) = 16.50645 29.23139 22.86892
# Shear Modulus (GPa) = 16.52333 23.65381 20.08857
#
# Velocity S-wave (km/s) = 2.97789 3.56295 3.28348
# Velocity P-wave (km/s) = 4.54780 5.71089 5.16221
#
# Compressibility (1/GPa) = 0.06058237
#
# Stress axis : x y z
#
# Youngs Moduli (GPa) = 72.78884 49.42212 24.35999
#
# Poissons Ratio (x) = -0.03238 0.18183
# Poissons Ratio (y) = -0.04769 0.01002
# Poissons Ratio (z) = 0.54331 0.02033
#
# Static dielectric constant tensor:
#      x y z
#    x 1.715710 0.000000 -0.003290 
#    y 0.000000 1.631160 0.000000 
#    z -0.003290 0.000000 1.711150 
# 
# From -- ./inp_files/27858.got.cif
#   From: 2010.05.17/outbox.cif.g08.bks.cpg/sg11_14_cif.got.tgz:27858.got - 2010.06.03 12:22:45.
