data_PCOD9155988
_publ_section_title
;
Structure prediction by ZEFSAII (Michael W. Deem and Ramdas Pophale) SiO2 
 PCOD9155988
Probable space group: P 21/M
;
_chemical_formula_sum "Si O2"
_cell_formula_units_Z 32
_cell_length_a 12.233404
_cell_length_b 18.517553
_cell_length_c 14.300509
_cell_angle_alpha 90.000000
_cell_angle_beta 149.297716
_cell_angle_gamma 90.000000
_cell_volume 1654.031677
_symmetry_space_group_name_H-M "P 21/M"
_symmetry_group_IT_number 11
_symmetry_cell_setting 'monoclinic'
loop_
_space_group_symop_operation_xyz
x,y,z
-x,1/2+y,-z
-x,-y,-z
x,1/2-y,z
loop_
_atom_site_type_symbol
_atom_site_label
_atom_site_fract_x
_atom_site_fract_y
_atom_site_fract_z
Si Si1 0.325131 0.042127 0.490973
Si Si2 0.552577 0.337381 0.961287
Si Si3 0.237755 0.594123 0.540251
Si Si4 0.906396 0.666660 0.430226
Si Si5 0.012174 0.332647 0.293615
Si Si6 0.188788 0.536709 0.198405
Si Si7 0.427555 0.164673 0.080626
Si Si8 0.929397 0.166450 0.763905
O O1 0.212180 0.118988 0.414614
O O2 0.582147 0.043625 0.684034
O O3 0.242262 0.988452 0.511029
O O4 0.245861 0.008849 0.333914
O O5 0.573319 0.250000 0.976187
O O6 0.496854 0.357717 0.027134
O O7 0.781454 0.364372 0.093682
O O8 0.341831 0.355438 0.747828
O O9 0.445660 0.618190 0.750538
O O10 0.039618 0.615913 0.460222
O O11 0.217567 0.640345 0.430233
O O12 0.914828 0.750000 0.399452
O O13 0.001332 0.667939 0.603386
O O14 0.037951 0.250000 0.280726
O O15 0.112727 0.614439 0.180019
O O16 0.000000 0.500000 0.000000
O O17 0.483948 0.250000 0.133024
O O18 0.174191 0.157797 0.908966
O O19 0.892684 0.250000 0.758385
#
# Coordination Sequence:
#
# PCOD9155988 Si02
#       8
#     4   4   4   4   4   4   4   4
#     4  10  24  40  58  83 105 144 191 228 281 340
#     4   9  17  30  49  76 113 150 183 217 259 313
#     4  11  19  32  54  80 118 148 177 223 275 325
#     4  10  18  31  53  80 114 155 184 215 267 320
#     4  10  21  38  57  80 114 152 188 224 262 319
#     4  10  22  44  63  76 110 146 178 235 298 333
#     4  10  17  28  50  81 114 147 179 216 267 321
#     4  10  20  33  57  88 109 136 187 234 274 330
#
# _framework density 19.346667
#
# number of rings (size 3 to 8) (size 9 to 14) (size 15 to 20)
#    0.000    2.000    2.500    1.875    0.000    2.000 
#    0.000    1.250    0.000    0.000    0.000    0.000 
#    0.000    0.000    0.000    0.000    0.000    0.000 
#
# Total GULP energy -178610.494041 kJ/mol
# GULP energy per Si atom -5581.577939 kJ/mol
# Density = 1.930263 g / cm^3
# Si number density = 19.346667 Si / 1000 Ang^3
#
#
#
# Elastic Constant Matrix: (Units=GPa)
#
#
# Indices 1 2 3 4 5 6 
#
# 1 27.5948 17.0609 1.7232 0.0000 22.3300 0.0000
# 2 17.0609 66.1558 12.4687 0.0000 20.8846 0.0000
# 3 1.7232 12.4687 81.8167 0.0000 14.1189 0.0000
# 4 0.0000 0.0000 0.0000 20.1240 0.0000 4.6396
# 5 22.3300 20.8846 14.1189 0.0000 28.4571 0.0000
# 6 0.0000 0.0000 0.0000 4.6396 0.0000 25.4399
#
#
#
# Elastic Compliance Matrix: (Units=1/GPa)
#
#
# Indices 1 2 3 4 5 6 
#
# 1 0.112544 -0.002076 0.014133 0.000000 -0.093800 0.000000
# 2 -0.002076 0.019735 -0.000815 0.000000 -0.012450 0.000000
# 3 0.014133 -0.000815 0.015157 0.000000 -0.018012 0.000000
# 4 0.000000 0.000000 0.000000 0.051873 0.000000 -0.009460
# 5 -0.093800 -0.012450 -0.018012 0.000000 0.126818 0.000000
# 6 0.000000 0.000000 0.000000 -0.009460 0.000000 0.041034
#
#
# Mechanical properties :
#
#
# Convention : Reuss Voigt Hill
#
# Bulk Modulus (GPa) = 5.88514 26.45255 16.16885
# Shear Modulus (GPa) = 12.45895 24.42515 18.44205
#
# Velocity S-wave (km/s) = 2.54044 3.55702 3.09081
# Velocity P-wave (km/s) = 3.41374 5.52924 4.59489
#
# Compressibility (1/GPa) = 0.16991936
#
# Stress axis : x y z
#
# Youngs Moduli (GPa) = 8.88543 50.67072 65.97485
#
# Poissons Ratio (x) = 0.10519 -0.93241
# Poissons Ratio (y) = 0.01845 0.05380
# Poissons Ratio (z) = -0.12558 0.04132
#
# Static dielectric constant tensor:
#      x y z
#    x 1.663090 0.000000 0.009030 
#    y 0.000000 1.669980 0.000000 
#    z 0.009030 0.000000 1.688030 
# 
# From -- ./inp_files/50709.got.cif
#   From: 2010.05.17/outbox.cif.g08.bks.cpg/sg11_26_cif.got.tgz:50709.got - 2010.06.03 12:22:45.
