data_PCOD9155307
_publ_section_title
;
Structure prediction by ZEFSAII (Michael W. Deem and Ramdas Pophale) SiO2 
 PCOD9155307
Probable space group: P 2/M
;
_chemical_formula_sum "Si O2"
_cell_formula_units_Z 28
_cell_length_a 30.000000
_cell_length_b 9.000000
_cell_length_c 30.000000
_cell_angle_alpha 90.000000
_cell_angle_beta 170.000000
_cell_angle_gamma 90.000000
_cell_volume 1406.550239
_symmetry_space_group_name_H-M "P 2/M"
_symmetry_group_IT_number 10
_symmetry_cell_setting 'monoclinic'
loop_
_space_group_symop_operation_xyz
x,y,z
-x,y,-z
-x,-y,-z
x,-y,z
loop_
_atom_site_type_symbol
_atom_site_label
_atom_site_fract_x
_atom_site_fract_y
_atom_site_fract_z
Si Si1 0.578088 0.827584 0.743569
Si Si2 0.762173 0.319218 0.736312
Si Si3 0.439752 0.820026 0.891221
Si Si4 0.033665 0.179931 0.634779
Si Si5 0.822599 0.678022 0.516820
Si Si6 0.898996 0.678588 0.770283
Si Si7 0.297793 0.827062 0.029504
O O1 0.307779 0.749544 0.466823
O O2 0.568147 0.000000 0.719644
O O3 0.638819 0.824078 0.855817
O O4 0.815641 0.742461 0.954743
O O5 0.500000 0.265379 0.500000
O O6 0.759557 0.500000 0.735500
O O7 0.798743 0.281426 0.720879
O O8 0.000000 0.267420 0.000000
O O9 0.162864 0.781958 0.598755
O O10 0.444102 0.000000 0.897783
O O11 0.500000 0.763380 0.000000
O O12 0.675701 0.778898 0.091486
O O13 0.934043 0.265228 0.579668
O O14 0.021724 0.000000 0.629906
O O15 0.813794 0.500000 0.511214
O O16 0.029192 0.745632 0.755113
O O17 0.539031 0.746377 0.243911
O O18 0.904151 0.500000 0.770626
O O19 0.280757 0.000000 0.998148
#
# Coordination Sequence:
#
# PCOD9155307 Si02
#       7
#     4   4   4   4   4   4   4
#     4  11  24  41  61  86 120 157 190 237 299 357
#     4   9  17  31  53  82 114 148 191 240 284 330
#     4   9  17  30  52  82 110 141 190 243 279 319
#     4  10  19  33  55  80 111 151 190 231 283 344
#     4  12  25  40  61  90 122 153 192 247 299 342
#     4  11  22  37  62  91 117 152 199 246 288 341
#     4  11  24  43  64  85 114 157 202 237 286 357
#
# _framework density 19.906860999999999
#
# number of rings (size 3 to 8) (size 9 to 14) (size 15 to 20)
#    0.000    1.571    0.000    5.571    0.000   10.857 
#    0.000    0.000    0.000   11.143    0.000    0.000 
#    0.000    0.000    0.000    0.000    0.000    0.000 
#
# Total GULP energy -156509.761687 kJ/mol
# GULP energy per Si atom -5589.634346 kJ/mol
# Density = 1.986155 g / cm^3
# Si number density = 19.906861 Si / 1000 Ang^3
#
#
#
# Elastic Constant Matrix: (Units=GPa)
#
#
# Indices 1 2 3 4 5 6 
#
# 1 45.9372 11.1847 -13.3816 0.0000 0.5400 0.0000
# 2 11.1847 90.3492 10.6200 0.0000 3.8812 0.0000
# 3 -13.3816 10.6200 73.5415 0.0000 2.0314 0.0000
# 4 0.0000 0.0000 0.0000 41.4911 0.0000 6.3175
# 5 0.5400 3.8812 2.0314 0.0000 39.5818 0.0000
# 6 0.0000 0.0000 0.0000 6.3175 0.0000 13.0578
#
#
#
# Elastic Compliance Matrix: (Units=1/GPa)
#
#
# Indices 1 2 3 4 5 6 
#
# 1 0.024061 -0.003544 0.004896 0.000000 -0.000232 0.000000
# 2 -0.003544 0.011823 -0.002325 0.000000 -0.000992 0.000000
# 3 0.004896 -0.002325 0.014841 0.000000 -0.000600 0.000000
# 4 0.000000 0.000000 0.000000 0.026018 0.000000 -0.012588
# 5 -0.000232 -0.000992 -0.000600 0.000000 0.025395 0.000000
# 6 0.000000 0.000000 0.000000 -0.012588 0.000000 0.082673
#
#
# Mechanical properties :
#
#
# Convention : Reuss Voigt Hill
#
# Bulk Modulus (GPa) = 20.50050 25.18601 22.84326
# Shear Modulus (GPa) = 24.62864 32.25314 28.44089
#
# Velocity S-wave (km/s) = 3.52119 4.02954 3.78391
# Velocity P-wave (km/s) = 5.18192 5.85909 5.53088
#
# Compressibility (1/GPa) = 0.04877929
#
# Stress axis : x y z
#
# Youngs Moduli (GPa) = 41.56137 84.58248 67.38087
#
# Poissons Ratio (x) = 0.29977 -0.32992
# Poissons Ratio (y) = 0.14730 0.15665
# Poissons Ratio (z) = -0.20350 0.19664
#
# Static dielectric constant tensor:
#      x y z
#    x 1.719660 0.000000 -0.018130 
#    y 0.000000 1.670170 0.000000 
#    z -0.018130 0.000000 1.675180 
# 
# From -- ./inp_files/96042.got.cif
#   From: 2010.05.17/outbox.ucp.g08.bks.cvg/sg10_49_cif.got.tgz:96042.got - 2010.06.11 11:31:16.
