data_PCOD9155931
_publ_section_title
;
Structure prediction by ZEFSAII (Michael W. Deem and Ramdas Pophale) SiO2 
 PCOD9155931
Probable space group: P 21/M
;
_chemical_formula_sum "Si O2"
_cell_formula_units_Z 32
_cell_length_a 22.425660
_cell_length_b 7.501846
_cell_length_c 13.102035
_cell_angle_alpha 90.000000
_cell_angle_beta 136.927912
_cell_angle_gamma 90.000000
_cell_volume 1505.291767
_symmetry_space_group_name_H-M "P 21/M"
_symmetry_group_IT_number 11
_symmetry_cell_setting 'monoclinic'
loop_
_space_group_symop_operation_xyz
x,y,z
-x,1/2+y,-z
-x,-y,-z
x,1/2-y,z
loop_
_atom_site_type_symbol
_atom_site_label
_atom_site_fract_x
_atom_site_fract_y
_atom_site_fract_z
Si Si1 0.241340 0.033054 0.254783
Si Si2 0.190951 0.037825 0.964621
Si Si3 0.200250 0.032039 0.593394
Si Si4 0.925376 0.961519 0.827457
Si Si5 0.012486 0.035488 0.313052
Si Si6 0.498204 0.538542 0.877400
Si Si7 0.684265 0.542054 0.452951
Si Si8 0.309844 0.031515 0.927816
O O1 0.243857 0.250000 0.247680
O O2 0.160947 0.975240 0.225609
O O3 0.316981 0.977477 0.430078
O O4 0.220038 0.968082 0.113371
O O5 0.202807 0.250000 0.983949
O O6 0.254223 0.969926 0.955015
O O7 0.089306 0.013129 0.805565
O O8 0.200965 0.250000 0.591266
O O9 0.098598 0.979461 0.485145
O O10 0.244909 0.970705 0.542114
O O11 0.261730 0.976449 0.763370
O O12 0.914746 0.750000 0.799682
O O13 0.956907 0.032593 0.759479
O O14 0.000000 0.000000 0.000000
O O15 0.011862 0.250000 0.315755
O O16 0.496026 0.750000 0.861184
O O17 0.410333 0.469217 0.716303
O O18 0.500000 0.500000 0.000000
O O19 0.589848 0.472028 0.946526
O O20 0.707762 0.750000 0.490350
O O21 0.309952 0.250000 0.927408
#
# Coordination Sequence:
#
# PCOD9155931 Si02
#       8
#     4   4   4   4   4   4   4   4
#     4   9  17  30  51  76 102 137 178 213 249 306
#     4  10  20  35  53  73 103 144 185 213 247 308
#     4   9  16  30  52  75 101 137 174 207 256 319
#     4  10  17  27  45  71  98 131 174 217 254 295
#     4  10  19  30  49  76 105 137 177 219 261 304
#     4  11  21  36  59  85 107 131 170 217 269 316
#     4  10  18  33  56  81 106 134 172 216 262 310
#     4   9  19  35  55  75 100 139 177 211 256 321
#
# _framework density 21.258338999999999
#
# number of rings (size 3 to 8) (size 9 to 14) (size 15 to 20)
#    0.000    2.250    3.750    0.375    0.000    0.500 
#    0.000    3.750    0.000    0.000    0.000    0.000 
#    0.000    0.000    0.000    0.000    0.000    0.000 
#
# Total GULP energy -178274.790332 kJ/mol
# GULP energy per Si atom -5571.087198 kJ/mol
# Density = 2.120995 g / cm^3
# Si number density = 21.258339 Si / 1000 Ang^3
#
#
#
# Elastic Constant Matrix: (Units=GPa)
#
#
# Indices 1 2 3 4 5 6 
#
# 1 136.2962 2.9663 57.9388 0.0000 12.9155 0.0000
# 2 2.9663 54.3398 -1.3462 0.0000 -3.4254 0.0000
# 3 57.9388 -1.3462 139.2645 0.0000 23.0321 0.0000
# 4 0.0000 0.0000 0.0000 15.3065 0.0000 10.0055
# 5 12.9155 -3.4254 23.0321 0.0000 26.9216 0.0000
# 6 0.0000 0.0000 0.0000 10.0055 0.0000 2.3168
#
#
#
# Elastic Compliance Matrix: (Units=1/GPa)
#
#
# Indices 1 2 3 4 5 6 
#
# 1 0.008975 -0.000664 -0.003511 0.000000 -0.001387 0.000000
# 2 -0.000664 0.018608 0.000014 0.000000 0.002674 0.000000
# 3 -0.003511 0.000014 0.009741 0.000000 -0.006647 0.000000
# 4 0.000000 0.000000 0.000000 -0.035838 0.000000 0.154770
# 5 -0.001387 0.002674 -0.006647 0.000000 0.043837 0.000000
# 6 0.000000 0.000000 0.000000 0.154770 0.000000 -0.236769
#
#
# Mechanical properties :
#
#
# Convention : Reuss Voigt Hill
#
# Bulk Modulus (GPa) = 34.48150 49.89091 42.18621
# Shear Modulus (GPa) = -28.82589 26.93176 -0.94707
#
# Velocity S-wave (km/s) = -3.68636 3.56319 -0.66819
# Velocity P-wave (km/s) = 1.36512 6.35989 4.39230
#
# Compressibility (1/GPa) = 0.02900106
#
# Stress axis : x y z
#
# Youngs Moduli (GPa) = 111.41567 53.74055 102.66048
#
# Poissons Ratio (x) = 0.03570 0.36046
# Poissons Ratio (y) = 0.07402 -0.00143
# Poissons Ratio (z) = 0.39120 -0.00075
#
# Static dielectric constant tensor:
#      x y z
#    x 1.756250 0.000000 0.004110 
#    y 0.000000 1.828240 0.000000 
#    z 0.004110 0.000000 1.831070 
# 
# From -- ./inp_files/42926.got.cif
#   From: 2010.05.17/outbox.cif.g08.bks.cpg/sg11_22_cif.got.tgz:42926.got - 2010.06.03 12:22:45.
