data_PCOD9155565
_publ_section_title
;
Structure prediction by ZEFSAII (Michael W. Deem and Ramdas Pophale) SiO2 
 PCOD9155565
Probable space group: P 2/M
;
_chemical_formula_sum "Si O2"
_cell_formula_units_Z 32
_cell_length_a 12.000000
_cell_length_b 9.000000
_cell_length_c 30.000000
_cell_angle_alpha 90.000000
_cell_angle_beta 30.000000
_cell_angle_gamma 90.000000
_cell_volume 1620.000000
_symmetry_space_group_name_H-M "P 2/M"
_symmetry_group_IT_number 10
_symmetry_cell_setting 'monoclinic'
loop_
_space_group_symop_operation_xyz
x,y,z
-x,y,-z
-x,-y,-z
x,-y,z
loop_
_atom_site_type_symbol
_atom_site_label
_atom_site_fract_x
_atom_site_fract_y
_atom_site_fract_z
Si Si1 0.550706 0.678498 0.718027
Si Si2 0.126116 0.827816 0.910770
Si Si3 0.063564 0.324531 0.176382
Si Si4 0.659410 0.326972 0.833462
Si Si5 0.667006 0.320891 0.483080
Si Si6 0.274040 0.170402 0.020887
Si Si7 0.551269 0.680263 0.347228
Si Si8 0.856327 0.176244 0.681230
O O1 0.559205 0.500000 0.716718
O O2 0.334931 0.734090 0.820699
O O3 0.538715 0.725682 0.670197
O O4 0.761155 0.749342 0.669582
O O5 0.947632 0.826553 0.932630
O O6 0.196806 0.000000 0.894167
O O7 0.000000 0.777781 0.000000
O O8 0.080333 0.500000 0.158772
O O9 0.138977 0.310638 0.201246
O O10 0.216430 0.233619 0.089411
O O11 0.809601 0.274644 0.259512
O O12 0.639388 0.500000 0.827861
O O13 0.700289 0.229001 0.776011
O O14 0.448711 0.272298 0.934509
O O15 0.500000 0.289487 0.500000
O O16 0.700113 0.500000 0.472511
O O17 0.571477 0.273718 0.564718
O O18 0.899548 0.240558 0.394338
O O19 0.353021 0.000000 0.995944
O O20 0.547781 0.500000 0.349025
O O21 0.856771 0.000000 0.677620
#
# Coordination Sequence:
#
# PCOD9155565 Si02
#       8
#     4   4   4   4   4   4   4   4
#     4  11  22  39  64  90 120 160 210 258 303 363
#     4  10  21  37  56  81 119 166 210 255 306 360
#     4  10  20  38  61  88 122 160 207 259 306 361
#     4  11  23  39  62  88 118 162 214 262 309 365
#     4  10  21  42  71  98 125 160 205 252 304 367
#     4  11  22  35  55  87 127 167 205 250 310 374
#     4   9  19  37  64  94 122 157 204 259 307 356
#     4  12  26  43  62  89 128 162 199 254 315 377
#
# _framework density 19.753086
#
# number of rings (size 3 to 8) (size 9 to 14) (size 15 to 20)
#    0.000    1.500    1.250    4.125    0.000    7.000 
#    0.000    4.375    0.000    0.000    0.000    0.000 
#    0.000    0.000    0.000    0.000    0.000    0.000 
#
# Total GULP energy -178861.261781 kJ/mol
# GULP energy per Si atom -5589.414431 kJ/mol
# Density = 1.970813 g / cm^3
# Si number density = 19.753086 Si / 1000 Ang^3
#
#
#
# Elastic Constant Matrix: (Units=GPa)
#
#
# Indices 1 2 3 4 5 6 
#
# 1 91.8500 42.8261 19.3833 0.0000 5.4040 0.0000
# 2 42.8261 65.1710 13.9757 0.0000 -0.7835 0.0000
# 3 19.3833 13.9757 50.5724 0.0000 16.6486 0.0000
# 4 0.0000 0.0000 0.0000 8.6472 0.0000 5.2609
# 5 5.4040 -0.7835 16.6486 0.0000 36.3513 0.0000
# 6 0.0000 0.0000 0.0000 5.2609 0.0000 16.6243
#
#
#
# Elastic Compliance Matrix: (Units=1/GPa)
#
#
# Indices 1 2 3 4 5 6 
#
# 1 0.016301 -0.010072 -0.003056 0.000000 -0.001241 0.000000
# 2 -0.010072 0.022787 -0.003641 0.000000 0.003656 0.000000
# 3 -0.003056 -0.003641 0.025703 0.000000 -0.011396 0.000000
# 4 0.000000 0.000000 0.000000 0.143218 0.000000 -0.045323
# 5 -0.001241 0.003656 -0.011396 0.000000 0.032992 0.000000
# 6 0.000000 0.000000 0.000000 -0.045323 0.000000 0.074496
#
#
# Mechanical properties :
#
#
# Convention : Reuss Voigt Hill
#
# Bulk Modulus (GPa) = 31.99542 39.99595 35.99569
# Shear Modulus (GPa) = 13.91007 21.08512 17.49759
#
# Velocity S-wave (km/s) = 2.65655 3.27071 2.97949
# Velocity P-wave (km/s) = 5.06385 5.87837 5.48625
#
# Compressibility (1/GPa) = 0.03125447
#
# Stress axis : x y z
#
# Youngs Moduli (GPa) = 61.34494 43.88410 38.90665
#
# Poissons Ratio (x) = 0.44198 0.11890
# Poissons Ratio (y) = 0.61784 0.14164
# Poissons Ratio (z) = 0.18748 0.15976
#
# Static dielectric constant tensor:
#      x y z
#    x 1.712440 0.000000 -0.022100 
#    y 0.000000 1.664080 0.000000 
#    z -0.022100 0.000000 1.674410 
# 
# From -- ./inp_files/94982.got.cif
#   From: 2010.05.17/outbox.ucp.g08.bks.cvg/sg10_48_cif.got.tgz:94982.got - 2010.06.11 11:31:16.
