data_PCOD9155866
_publ_section_title
;
Structure prediction by ZEFSAII (Michael W. Deem and Ramdas Pophale) SiO2 
 PCOD9155866
Probable space group: P 21/M
;
_chemical_formula_sum "Si O2"
_cell_formula_units_Z 28
_cell_length_a 18.583158
_cell_length_b 8.642555
_cell_length_c 17.090132
_cell_angle_alpha 90.000000
_cell_angle_beta 40.476550
_cell_angle_gamma 90.000000
_cell_volume 1781.735784
_symmetry_space_group_name_H-M "P 21/M"
_symmetry_group_IT_number 11
_symmetry_cell_setting 'monoclinic'
loop_
_space_group_symop_operation_xyz
x,y,z
-x,1/2+y,-z
-x,-y,-z
x,1/2-y,z
loop_
_atom_site_type_symbol
_atom_site_label
_atom_site_fract_x
_atom_site_fract_y
_atom_site_fract_z
Si Si1 0.207950 0.563648 0.565846
Si Si2 0.413233 0.565946 0.133781
Si Si3 0.169634 0.065121 0.321661
Si Si4 0.962096 0.565036 0.410239
Si Si5 0.672531 0.064166 0.384291
Si Si6 0.425311 0.435830 0.296527
Si Si7 0.455135 0.936936 0.651972
O O1 0.207454 0.750000 0.562187
O O2 0.098107 0.498157 0.616749
O O3 0.229774 0.513003 0.638004
O O4 0.312770 0.501491 0.428854
O O5 0.417691 0.750000 0.130486
O O6 0.289209 0.510887 0.215564
O O7 0.438811 0.502947 0.199393
O O8 0.500000 0.500000 0.000000
O O9 0.180104 0.250000 0.309877
O O10 0.116536 0.023892 0.450309
O O11 0.081098 0.007273 0.331264
O O12 0.970620 0.750000 0.400461
O O13 0.677211 0.250000 0.379903
O O14 0.651553 0.014582 0.311571
O O15 0.561245 0.010777 0.521107
O O16 0.414782 0.250000 0.300792
O O17 0.526153 0.475517 0.272613
O O18 0.464054 0.750000 0.639070
#
# Coordination Sequence:
#
# PCOD9155866 Si02
#       7
#     4   4   4   4   4   4   4
#     4  10  17  25  41  64  92 123 155 188 224 269
#     4  12  24  37  52  68  91 120 155 195 235 275
#     4  10  20  34  50  68  91 118 153 192 233 276
#     4  10  19  30  47  68  94 123 154 190 229 276
#     4   8  14  23  35  56  84 116 150 182 218 261
#     4  10  18  29  44  63  87 118 155 191 230 273
#     4   8  14  24  38  55  81 115 149 184 220 263
#
# _framework density 15.715013000000001
#
# number of rings (size 3 to 8) (size 9 to 14) (size 15 to 20)
#    0.000    2.286    1.429    3.000    0.000    2.286 
#    0.000    0.000    0.000    0.000    0.000    0.000 
#    0.000    1.143    0.000    3.143    0.000    5.143 
#
# Total GULP energy -155934.800010 kJ/mol
# GULP energy per Si atom -5569.100000 kJ/mol
# Density = 1.567924 g / cm^3
# Si number density = 15.715013 Si / 1000 Ang^3
#
#
#
# Elastic Constant Matrix: (Units=GPa)
#
#
# Indices 1 2 3 4 5 6 
#
# 1 178.6971 37.2970 41.1717 0.0000 12.8141 0.0000
# 2 37.2970 48.2373 21.4505 0.0000 -1.0967 0.0000
# 3 41.1717 21.4505 48.1403 0.0000 0.3226 0.0000
# 4 0.0000 0.0000 0.0000 15.3565 0.0000 -3.0897
# 5 12.8141 -1.0967 0.3226 0.0000 10.2065 0.0000
# 6 0.0000 0.0000 0.0000 -3.0897 0.0000 22.8597
#
#
#
# Elastic Compliance Matrix: (Units=1/GPa)
#
#
# Indices 1 2 3 4 5 6 
#
# 1 0.008533 -0.004535 -0.005203 0.000000 -0.011035 0.000000
# 2 -0.004535 0.028365 -0.008821 0.000000 0.009020 0.000000
# 3 -0.005203 -0.008821 0.029122 0.000000 0.004664 0.000000
# 4 0.000000 0.000000 0.000000 0.066939 0.000000 0.009047
# 5 -0.011035 0.009020 0.004664 0.000000 0.112653 0.000000
# 6 0.000000 0.000000 0.000000 0.009047 0.000000 0.044968
#
#
# Mechanical properties :
#
#
# Convention : Reuss Voigt Hill
#
# Bulk Modulus (GPa) = 34.60005 52.76813 43.68409
# Shear Modulus (GPa) = 14.82226 21.36157 18.09192
#
# Velocity S-wave (km/s) = 3.07447 3.69088 3.39669
# Velocity P-wave (km/s) = 5.88797 7.19823 6.57582
#
# Compressibility (1/GPa) = 0.02890169
#
# Stress axis : x y z
#
# Youngs Moduli (GPa) = 117.19778 35.25506 34.33861
#
# Poissons Ratio (x) = 0.15987 0.17866
# Poissons Ratio (y) = 0.53144 0.30291
# Poissons Ratio (z) = 0.60978 0.31099
#
# Static dielectric constant tensor:
#      x y z
#    x 1.592990 0.000000 0.023110 
#    y 0.000000 1.661300 0.000000 
#    z 0.023110 0.000000 1.474510 
# 
# From -- ./inp_files/53233.got.cif
#   From: 2010.05.17/outbox.cif.g08.bks.cpg/sg11_27_cif.got.tgz:53233.got - 2010.06.03 12:22:45.
