data_PCOD9155091
_publ_section_title
;
Structure prediction by ZEFSAII (Michael W. Deem and Ramdas Pophale) SiO2 
 PCOD9155091
Probable space group: P 2/M
;
_chemical_formula_sum "Si O2"
_cell_formula_units_Z 26
_cell_length_a 30.000000
_cell_length_b 9.000000
_cell_length_c 30.000000
_cell_angle_alpha 90.000000
_cell_angle_beta 170.000000
_cell_angle_gamma 90.000000
_cell_volume 1406.550239
_symmetry_space_group_name_H-M "P 2/M"
_symmetry_group_IT_number 10
_symmetry_cell_setting 'monoclinic'
loop_
_space_group_symop_operation_xyz
x,y,z
-x,y,-z
-x,-y,-z
x,-y,z
loop_
_atom_site_type_symbol
_atom_site_label
_atom_site_fract_x
_atom_site_fract_y
_atom_site_fract_z
Si Si1 0.325812 0.670847 0.209481
Si Si2 0.464066 0.179745 0.059941
Si Si3 0.528096 0.319263 0.834688
Si Si4 0.149913 0.683208 0.315000
Si Si5 0.049742 0.819615 0.312134
Si Si6 0.013585 0.673718 0.460037
Si Si7 0.264872 0.500000 0.234941
O O1 0.336359 0.500000 0.202907
O O2 0.596604 0.732535 0.461756
O O3 0.283657 0.642118 0.220283
O O4 0.088025 0.735750 0.949292
O O5 0.434939 0.257228 0.079218
O O6 0.732843 0.238957 0.305305
O O7 0.458772 0.000000 0.057717
O O8 0.232705 0.242119 0.802117
O O9 0.524715 0.500000 0.829349
O O10 0.261308 0.250383 0.553871
O O11 0.770106 0.251904 0.046054
O O12 0.146184 0.500000 0.315748
O O13 0.135556 0.760784 0.348338
O O14 0.042925 0.000000 0.308507
O O15 0.020998 0.500000 0.452326
O O16 0.000000 0.673264 0.500000
O O17 0.500000 0.500000 0.500000
O O18 0.000000 0.500000 0.000000
#
# Coordination Sequence:
#
# PCOD9155091 Si02
#       7
#     4   4   4   4   4   4   2
#     4   8  17  27  45  72 103 147 181 231 279 349
#     4  12  25  42  65  92 126 159 195 253 306 353
#     4  12  25  44  64  88 118 161 207 239 299 367
#     4  10  17  33  51  73 107 149 190 226 289 344
#     4  12  25  40  61  90 122 153 201 258 301 349
#     4  11  24  43  66  93 123 160 203 245 297 365
#     4  10  16  26  44  74 116 148 182 240 308 346
#
# _framework density 18.484942
#
# number of rings (size 3 to 8) (size 9 to 14) (size 15 to 20)
#    0.462    0.769    0.000    7.846    0.000    4.308 
#    0.000    0.000    0.000    0.000    0.000    0.000 
#    0.000   12.308    0.000    0.000    0.000    0.000 
#
# Total GULP energy -145062.280540 kJ/mol
# GULP energy per Si atom -5579.318482 kJ/mol
# Density = 1.844287 g / cm^3
# Si number density = 18.484942 Si / 1000 Ang^3
#
#
#
# Elastic Constant Matrix: (Units=GPa)
#
#
# Indices 1 2 3 4 5 6 
#
# 1 77.6228 17.7035 12.8158 0.0000 0.8979 0.0000
# 2 17.7035 137.6165 30.3925 0.0000 -0.1503 0.0000
# 3 12.8158 30.3925 113.5971 0.0000 -0.2915 0.0000
# 4 0.0000 0.0000 0.0000 7.4612 0.0000 -4.2644
# 5 0.8979 -0.1503 -0.2915 0.0000 42.9824 0.0000
# 6 0.0000 0.0000 0.0000 -4.2644 0.0000 6.1355
#
#
#
# Elastic Compliance Matrix: (Units=1/GPa)
#
#
# Indices 1 2 3 4 5 6 
#
# 1 0.013408 -0.001478 -0.001118 0.000000 -0.000293 0.000000
# 2 -0.001478 0.007886 -0.001943 0.000000 0.000045 0.000000
# 3 -0.001118 -0.001943 0.009449 0.000000 0.000081 0.000000
# 4 0.000000 0.000000 0.000000 0.222355 0.000000 0.154545
# 5 -0.000293 0.000045 0.000081 0.000000 0.023272 0.000000
# 6 0.000000 0.000000 0.000000 0.154545 0.000000 0.270402
#
#
# Mechanical properties :
#
#
# Convention : Reuss Voigt Hill
#
# Bulk Modulus (GPa) = 46.15791 50.07332 48.11562
# Shear Modulus (GPa) = 8.87986 29.17747 19.02866
#
# Velocity S-wave (km/s) = 2.19414 3.97728 3.21193
# Velocity P-wave (km/s) = 5.60747 6.94544 6.31201
#
# Compressibility (1/GPa) = 0.02166476
#
# Stress axis : x y z
#
# Youngs Moduli (GPa) = 74.58282 126.80876 105.82913
#
# Poissons Ratio (x) = 0.18746 0.11831
# Poissons Ratio (y) = 0.11025 0.20562
# Poissons Ratio (z) = 0.08338 0.24638
#
# Static dielectric constant tensor:
#      x y z
#    x 1.640920 0.000000 0.005210 
#    y 0.000000 1.607960 0.000000 
#    z 0.005210 0.000000 1.655250 
# 
# From -- ./inp_files/95964.got.cif
#   From: 2010.05.17/outbox.ucp.g08.bks.cvg/sg10_48_cif.got.tgz:95964.got - 2010.06.11 11:31:16.
