data_PCOD9155957
_publ_section_title
;
Structure prediction by ZEFSAII (Michael W. Deem and Ramdas Pophale) SiO2 
 PCOD9155957
Probable space group: P 21/M
;
_chemical_formula_sum "Si O2"
_cell_formula_units_Z 32
_cell_length_a 27.855349
_cell_length_b 7.693117
_cell_length_c 15.073951
_cell_angle_alpha 90.000000
_cell_angle_beta 34.563366
_cell_angle_gamma 90.000000
_cell_volume 1832.584842
_symmetry_space_group_name_H-M "P 21/M"
_symmetry_group_IT_number 11
_symmetry_cell_setting 'monoclinic'
loop_
_space_group_symop_operation_xyz
x,y,z
-x,1/2+y,-z
-x,-y,-z
x,1/2-y,z
loop_
_atom_site_type_symbol
_atom_site_label
_atom_site_fract_x
_atom_site_fract_y
_atom_site_fract_z
Si Si1 0.903345 0.541907 0.249056
Si Si2 0.547737 0.039086 0.184367
Si Si3 0.742791 0.050465 0.198612
Si Si4 0.410978 0.960193 0.684488
Si Si5 0.580897 0.045602 0.938476
Si Si6 0.729293 0.959425 0.582368
Si Si7 0.906250 0.039123 0.038641
Si Si8 0.650680 0.540437 0.515289
O O1 0.906727 0.750000 0.254420
O O2 0.825942 0.476593 0.427102
O O3 0.884459 0.508069 0.173728
O O4 0.998006 0.475274 0.123456
O O5 0.557300 0.250000 0.170270
O O6 0.587588 0.976730 0.216013
O O7 0.448085 0.002581 0.341655
O O8 0.577841 0.970481 0.042896
O O9 0.755914 0.250000 0.149744
O O10 0.671394 0.972163 0.242917
O O11 0.835479 0.973254 0.077647
O O12 0.699877 0.046972 0.360617
O O13 0.406102 0.750000 0.692088
O O14 0.500000 0.000000 0.500000
O O15 0.573496 0.250000 0.961023
O O16 0.668412 0.008178 0.755349
O O17 0.500000 0.000000 0.000000
O O18 0.731799 0.750000 0.577270
O O19 0.683914 0.015605 0.560426
O O20 0.905958 0.250000 0.035192
O O21 0.662183 0.750000 0.490315
#
# Coordination Sequence:
#
# PCOD9155957 Si02
#       8
#     4   4   4   4   4   4   4   4
#     4   9  17  29  45  63  89 123 151 178 219 271
#     4   9  18  32  45  59  85 119 149 179 214 259
#     4  10  19  28  42  68  94 116 149 188 222 254
#     4  10  19  31  46  64  88 118 150 183 217 260
#     4  11  21  33  48  66  88 117 151 186 224 263
#     4  10  19  31  45  65  89 119 155 182 217 266
#     4   9  17  28  42  65  94 118 146 185 223 262
#     4  10  17  28  45  62  89 123 151 177 214 265
#
# _framework density 17.461673999999999
#
# number of rings (size 3 to 8) (size 9 to 14) (size 15 to 20)
#    0.000    2.250    3.750    0.375    0.000    1.000 
#    0.000    1.250    0.000    0.000    0.000    0.875 
#    0.000    0.000    0.000    0.000    0.000    0.000 
#
# Total GULP energy -178364.859363 kJ/mol
# GULP energy per Si atom -5573.901855 kJ/mol
# Density = 1.742193 g / cm^3
# Si number density = 17.461674 Si / 1000 Ang^3
#
#
#
# Elastic Constant Matrix: (Units=GPa)
#
#
# Indices 1 2 3 4 5 6 
#
# 1 145.0311 4.8809 73.2083 0.0000 -11.8682 0.0000
# 2 4.8809 27.2346 5.8278 0.0000 -3.6347 0.0000
# 3 73.2083 5.8278 102.7406 0.0000 -7.8434 0.0000
# 4 0.0000 0.0000 0.0000 16.1884 0.0000 2.8122
# 5 -11.8682 -3.6347 -7.8434 0.0000 28.1204 0.0000
# 6 0.0000 0.0000 0.0000 2.8122 0.0000 5.9784
#
#
#
# Elastic Compliance Matrix: (Units=1/GPa)
#
#
# Indices 1 2 3 4 5 6 
#
# 1 0.010937 0.000000 -0.007603 0.000000 0.002495 0.000000
# 2 0.000000 0.037687 -0.001804 0.000000 0.004368 0.000000
# 3 -0.007603 -0.001804 0.015316 0.000000 0.000830 0.000000
# 4 0.000000 0.000000 0.000000 0.067270 0.000000 -0.031643
# 5 0.002495 0.004368 0.000830 0.000000 0.037411 0.000000
# 6 0.000000 0.000000 0.000000 -0.031643 0.000000 0.182154
#
#
# Mechanical properties :
#
#
# Convention : Reuss Voigt Hill
#
# Bulk Modulus (GPa) = 22.16007 49.20447 35.68227
# Shear Modulus (GPa) = 12.99950 22.79672 17.89811
#
# Velocity S-wave (km/s) = 2.73144 3.61713 3.20503
# Velocity P-wave (km/s) = 4.76087 6.75904 5.84596
#
# Compressibility (1/GPa) = 0.04512622
#
# Stress axis : x y z
#
# Youngs Moduli (GPa) = 91.43350 26.53434 65.29011
#
# Poissons Ratio (x) = 0.00001 0.49638
# Poissons Ratio (y) = 0.00002 0.11779
# Poissons Ratio (z) = 0.69514 0.04787
#
# Static dielectric constant tensor:
#      x y z
#    x 1.619700 0.000000 -0.011100 
#    y 0.000000 1.648720 0.000000 
#    z -0.011100 0.000000 1.568310 
# 
# From -- ./inp_files/52924.got.cif
#   From: 2010.05.17/outbox.cif.g08.bks.cpg/sg11_27_cif.got.tgz:52924.got - 2010.06.03 12:22:45.
