data_PCOD9155412
_publ_section_title
;
Structure prediction by ZEFSAII (Michael W. Deem and Ramdas Pophale) SiO2 
 PCOD9155412
Probable space group: P 2/M
;
_chemical_formula_sum "Si O2"
_cell_formula_units_Z 32
_cell_length_a 21.000000
_cell_length_b 9.000000
_cell_length_c 30.000000
_cell_angle_alpha 90.000000
_cell_angle_beta 160.000000
_cell_angle_gamma 90.000000
_cell_volume 1939.254213
_symmetry_space_group_name_H-M "P 2/M"
_symmetry_group_IT_number 10
_symmetry_cell_setting 'monoclinic'
loop_
_space_group_symop_operation_xyz
x,y,z
-x,y,-z
-x,-y,-z
x,-y,z
loop_
_atom_site_type_symbol
_atom_site_label
_atom_site_fract_x
_atom_site_fract_y
_atom_site_fract_z
Si Si1 0.554931 0.322129 0.714983
Si Si2 0.397090 0.177401 0.346752
Si Si3 0.926617 0.678862 0.807815
Si Si4 0.325510 0.680992 0.108061
Si Si5 0.956663 0.318859 0.400027
Si Si6 0.797413 0.320795 0.624784
Si Si7 0.884288 0.678124 0.585369
Si Si8 0.702007 0.319244 0.310107
O O1 0.581552 0.500000 0.726313
O O2 0.630891 0.236700 0.722057
O O3 0.643600 0.276141 0.820190
O O4 0.331856 0.296761 0.570031
O O5 0.236757 0.241333 0.272765
O O6 0.595910 0.244097 0.492704
O O7 0.401776 0.000000 0.350964
O O8 0.908086 0.500000 0.801614
O O9 0.904535 0.709774 0.740801
O O10 0.127231 0.726043 0.958250
O O11 0.330600 0.500000 0.110899
O O12 0.500703 0.732922 0.193764
O O13 0.950893 0.500000 0.394931
O O14 0.780659 0.269866 0.313833
O O15 0.985184 0.263595 0.368418
O O16 0.140939 0.280718 0.549939
O O17 0.768392 0.500000 0.602589
O O18 0.900620 0.270926 0.647223
O O19 0.910740 0.500000 0.603590
O O20 0.696526 0.500000 0.305568
#
# Coordination Sequence:
#
# PCOD9155412 Si02
#       8
#     4   4   4   4   4   4   4   4
#     4   9  16  29  48  68  91 120 151 183 222 268
#     4  11  22  34  49  68  89 112 145 194 240 276
#     4  10  20  33  48  66  88 120 157 190 223 264
#     4   9  16  27  44  64  91 125 158 184 211 263
#     4   8  11  16  32  60  93 119 144 178 219 259
#     4   9  18  32  50  68  88 116 153 192 228 264
#     4   8  12  21  39  62  87 116 147 181 218 259
#     4   8  12  18  32  60  93 121 146 178 216 258
#
# _framework density 16.501189
#
# number of rings (size 3 to 8) (size 9 to 14) (size 15 to 20)
#    0.000    3.000    1.250    3.000    0.000    2.500 
#    0.000    3.125    0.000    0.750    0.000    5.250 
#    0.000   12.000    0.000    5.625    0.000    6.250 
#
# Total GULP energy -178179.075208 kJ/mol
# GULP energy per Si atom -5568.096100 kJ/mol
# Density = 1.646363 g / cm^3
# Si number density = 16.501189 Si / 1000 Ang^3
#
#
#
# Elastic Constant Matrix: (Units=GPa)
#
#
# Indices 1 2 3 4 5 6 
#
# 1 119.4851 24.2831 33.1676 0.0000 -23.2568 0.0000
# 2 24.2831 15.0289 13.8240 0.0000 -7.4263 0.0000
# 3 33.1676 13.8240 42.7866 0.0000 -25.7085 0.0000
# 4 0.0000 0.0000 0.0000 1.7844 0.0000 -2.1955
# 5 -23.2568 -7.4263 -25.7085 0.0000 13.8928 0.0000
# 6 0.0000 0.0000 0.0000 -2.1955 0.0000 -1.1942
#
#
#
# Elastic Compliance Matrix: (Units=1/GPa)
#
#
# Indices 1 2 3 4 5 6 
#
# 1 0.011292 -0.011927 -0.023484 0.000000 -0.030929 0.000000
# 2 -0.011927 0.103009 0.026349 0.000000 0.083855 0.000000
# 3 -0.023484 0.026349 -0.160043 0.000000 -0.321386 0.000000
# 4 0.000000 0.000000 0.000000 0.171799 0.000000 -0.315852
# 5 -0.030929 0.083855 -0.321386 0.000000 -0.529693 0.000000
# 6 0.000000 0.000000 0.000000 -0.315852 0.000000 -0.256719
#
#
# Mechanical properties :
#
#
# Convention : Reuss Voigt Hill
#
# Bulk Modulus (GPa) = -15.65752 35.53889 9.94068
# Shear Modulus (GPa) = -7.53555 9.96501 1.21473
#
# Velocity S-wave (km/s) = -2.13930 2.46010 0.85892
# Velocity P-wave (km/s) = 3.95113 5.44549 2.64971
#
# Compressibility (1/GPa) = -0.06386707
#
# Stress axis : x y z
#
# Youngs Moduli (GPa) = 88.55912 9.70792 -6.24831
#
# Poissons Ratio (x) = 0.11579 -0.14673
# Poissons Ratio (y) = 1.05625 0.16464
# Poissons Ratio (z) = 2.07971 -0.25579
#
# Static dielectric constant tensor:
#      x y z
#    x 1.591850 0.000000 -0.003960 
#    y 0.000000 1.534780 0.000000 
#    z -0.003960 0.000000 1.534800 
# 
# From -- ./inp_files/54950.got.cif
#   From: 2010.05.17/outbox.ucp.g08.bks.cvg/sg10_28_cif.got.tgz:54950.got - 2010.06.11 11:31:16.
