data_PCOD9155717
_publ_section_title
;
Structure prediction by ZEFSAII (Michael W. Deem and Ramdas Pophale) SiO2 
 PCOD9155717
Probable space group: P 2/M
;
_chemical_formula_sum "Si O2"
_cell_formula_units_Z 24
_cell_length_a 9.000000
_cell_length_b 12.000000
_cell_length_c 12.000000
_cell_angle_alpha 90.000000
_cell_angle_beta 70.000000
_cell_angle_gamma 90.000000
_cell_volume 1217.841637
_symmetry_space_group_name_H-M "P 2/M"
_symmetry_group_IT_number 10
_symmetry_cell_setting 'monoclinic'
loop_
_space_group_symop_operation_xyz
x,y,z
-x,y,-z
-x,-y,-z
x,-y,z
loop_
_atom_site_type_symbol
_atom_site_label
_atom_site_fract_x
_atom_site_fract_y
_atom_site_fract_z
Si Si1 0.631604 0.866137 0.636813
Si Si2 0.186668 0.633619 0.983891
Si Si3 0.179986 0.500000 0.339773
Si Si4 0.205336 0.264036 0.226727
Si Si5 0.675500 0.716428 0.287655
Si Si6 0.887403 0.133036 0.370729
Si Si7 0.200435 0.500000 0.601852
O O1 0.680199 0.830163 0.750174
O O2 0.496440 0.772957 0.645913
O O3 0.778310 0.851813 0.510522
O O4 0.588878 0.000000 0.640543
O O5 0.220649 0.500000 0.993568
O O6 0.286333 0.677550 0.850032
O O7 0.208209 0.705521 0.093432
O O8 0.000000 0.640706 0.000000
O O9 0.241922 0.383396 0.274866
O O10 0.220195 0.500000 0.461951
O O11 0.993330 0.500000 0.347267
O O12 0.038575 0.214616 0.317563
O O13 0.783875 0.821935 0.294464
O O14 0.726457 0.609926 0.353914
O O15 0.926765 0.000000 0.355622
#
# Coordination Sequence:
#
# PCOD9155717 Si02
#       7
#     4   4   2   4   4   4   2
#     4  11  27  47  68  99 142 186 225 284 347 401
#     4  11  22  43  72  98 138 182 223 281 343 411
#     4  11  22  38  67 105 139 168 218 293 346 394
#     4  12  23  43  70 104 135 181 232 279 344 407
#     4  12  23  44  69 102 138 182 226 274 349 410
#     4  11  23  43  70  97 134 183 235 283 334 403
#     4  11  22  38  67 102 139 172 219 287 346 401
#
# _framework density 19.706996
#
# number of rings (size 3 to 8) (size 9 to 14) (size 15 to 20)
#    0.000    0.667    5.000    3.000    2.333    4.000 
#    0.000    9.167    0.000    0.000    0.000    0.000 
#    0.000    0.000    0.000    0.000    0.000    0.000 
#
# Total GULP energy -133874.455074 kJ/mol
# GULP energy per Si atom -5578.102295 kJ/mol
# Density = 1.966214 g / cm^3
# Si number density = 19.706996 Si / 1000 Ang^3
#
#
#
# Elastic Constant Matrix: (Units=GPa)
#
#
# Indices 1 2 3 4 5 6 
#
# 1 61.2777 26.1438 25.4355 0.0000 10.8221 0.0000
# 2 26.1438 149.7253 62.7611 0.0000 6.1543 0.0000
# 3 25.4355 62.7611 147.5624 0.0000 19.7699 0.0000
# 4 0.0000 0.0000 0.0000 45.5714 0.0000 3.6910
# 5 10.8221 6.1543 19.7699 0.0000 28.7554 0.0000
# 6 0.0000 0.0000 0.0000 3.6910 0.0000 41.9480
#
#
#
# Elastic Compliance Matrix: (Units=1/GPa)
#
#
# Indices 1 2 3 4 5 6 
#
# 1 0.018971 -0.002466 -0.001471 0.000000 -0.005601 0.000000
# 2 -0.002466 0.008461 -0.003365 0.000000 0.001431 0.000000
# 3 -0.001471 -0.003365 0.009132 0.000000 -0.005005 0.000000
# 4 0.000000 0.000000 0.000000 0.022101 0.000000 -0.001945
# 5 -0.005601 0.001431 -0.005005 0.000000 0.040019 0.000000
# 6 0.000000 0.000000 0.000000 -0.001945 0.000000 0.024010
#
#
# Mechanical properties :
#
#
# Convention : Reuss Voigt Hill
#
# Bulk Modulus (GPa) = 45.53703 65.24959 55.39331
# Shear Modulus (GPa) = 34.57374 39.53664 37.05519
#
# Velocity S-wave (km/s) = 4.19309 4.48395 4.34095
# Velocity P-wave (km/s) = 6.82641 7.74529 7.30032
#
# Compressibility (1/GPa) = 0.02196015
#
# Stress axis : x y z
#
# Youngs Moduli (GPa) = 52.71255 118.18457 109.50206
#
# Poissons Ratio (x) = 0.29141 0.16107
# Poissons Ratio (y) = 0.12997 0.36852
# Poissons Ratio (z) = 0.07754 0.39774
#
# Static dielectric constant tensor:
#      x y z
#    x 1.820230 0.000000 -0.002250 
#    y 0.000000 1.667150 0.000000 
#    z -0.002250 0.000000 1.691340 
# 
# From -- ./inp_files/41952.got.cif
#   From: 2010.05.17/outbox.ucp.g08.bks.cvg/sg10_21_cif.got.tgz:41952.got - 2010.06.11 11:31:16.
