data_PCOD9155713
_publ_section_title
;
Structure prediction by ZEFSAII (Michael W. Deem and Ramdas Pophale) SiO2 
 PCOD9155713
Probable space group: P 2/M
;
_chemical_formula_sum "Si O2"
_cell_formula_units_Z 28
_cell_length_a 30.000000
_cell_length_b 9.000000
_cell_length_c 30.000000
_cell_angle_alpha 90.000000
_cell_angle_beta 10.000000
_cell_angle_gamma 90.000000
_cell_volume 1406.550239
_symmetry_space_group_name_H-M "P 2/M"
_symmetry_group_IT_number 10
_symmetry_cell_setting 'monoclinic'
loop_
_space_group_symop_operation_xyz
x,y,z
-x,y,-z
-x,-y,-z
x,-y,z
loop_
_atom_site_type_symbol
_atom_site_label
_atom_site_fract_x
_atom_site_fract_y
_atom_site_fract_z
Si Si1 0.255121 0.670648 0.273430
Si Si2 0.378127 0.671729 0.575599
Si Si3 0.426413 0.680020 0.769880
Si Si4 0.866559 0.329715 0.029985
Si Si5 0.921816 0.172356 0.418293
Si Si6 0.037191 0.827686 0.728488
Si Si7 0.458182 0.320029 0.920011
O O1 0.179071 0.500000 0.359833
O O2 0.384753 0.733641 0.190465
O O3 0.000000 0.734896 0.500000
O O4 0.500000 0.667231 0.000000
O O5 0.500000 0.744091 0.500000
O O6 0.303390 0.500000 0.661241
O O7 0.624974 0.666379 0.300880
O O8 0.123587 0.733683 0.801016
O O9 0.456472 0.500000 0.738522
O O10 0.268254 0.733284 0.881511
O O11 0.706566 0.753084 0.502009
O O12 0.220599 0.732997 0.008919
O O13 0.942572 0.500000 0.943187
O O14 0.942040 0.169231 0.345169
O O15 0.664243 0.267037 0.680776
O O16 0.897806 0.000000 0.457400
O O17 0.178220 0.246810 0.187593
O O18 0.013069 0.000000 0.767693
O O19 0.428189 0.500000 0.951300
#
# Coordination Sequence:
#
# PCOD9155713 Si02
#       7
#     4   4   4   4   4   4   4
#     4   9  17  31  53  82 114 145 180 226 276 321
#     4   9  15  24  40  64 100 143 176 206 258 329
#     4  11  22  37  59  85 114 147 184 235 290 331
#     4   9  17  28  43  69 104 137 172 218 273 323
#     4  11  24  41  59  81 116 155 184 227 292 343
#     4  11  24  41  59  81 112 151 192 230 277 343
#     4  11  22  37  62  91 114 145 194 240 272 323
#
# _framework density 19.906860999999999
#
# number of rings (size 3 to 8) (size 9 to 14) (size 15 to 20)
#    0.000    1.857    0.000    4.714    0.000   12.000 
#    0.000    0.000    0.000    8.571    0.000    0.000 
#    0.000   40.000    0.000    0.000    0.000    0.000 
#
# Total GULP energy -155985.451319 kJ/mol
# GULP energy per Si atom -5570.908976 kJ/mol
# Density = 1.986155 g / cm^3
# Si number density = 19.906861 Si / 1000 Ang^3
#
#
#
# Elastic Constant Matrix: (Units=GPa)
#
#
# Indices 1 2 3 4 5 6 
#
# 1 51.9892 3.3694 -17.1890 0.0000 -16.0947 0.0000
# 2 3.3694 56.3692 16.6390 0.0000 -12.0846 0.0000
# 3 -17.1890 16.6390 90.6916 0.0000 -31.6741 0.0000
# 4 0.0000 0.0000 0.0000 107.6158 0.0000 50.8244
# 5 -16.0947 -12.0846 -31.6741 0.0000 49.1527 0.0000
# 6 0.0000 0.0000 0.0000 50.8244 0.0000 51.0753
#
#
#
# Elastic Compliance Matrix: (Units=1/GPa)
#
#
# Indices 1 2 3 4 5 6 
#
# 1 0.027970 -0.001543 0.011163 0.000000 0.015973 0.000000
# 2 -0.001543 0.019212 -0.003025 0.000000 0.002269 0.000000
# 3 0.011163 -0.003025 0.018987 0.000000 0.015147 0.000000
# 4 0.000000 0.000000 0.000000 0.017531 0.000000 -0.017445
# 5 0.015973 0.002269 0.015147 0.000000 0.035893 0.000000
# 6 0.000000 0.000000 0.000000 -0.017445 0.000000 0.036938
#
#
# Mechanical properties :
#
#
# Convention : Reuss Voigt Hill
#
# Bulk Modulus (GPa) = 12.60081 22.74321 17.67201
# Shear Modulus (GPa) = 29.44740 54.65079 42.04910
#
# Velocity S-wave (km/s) = 3.85029 5.24527 4.60095
# Velocity P-wave (km/s) = 5.10978 6.93782 6.09275
#
# Compressibility (1/GPa) = 0.07935997
#
# Stress axis : x y z
#
# Youngs Moduli (GPa) = 35.75234 52.05172 52.66747
#
# Poissons Ratio (x) = 0.08030 -0.58791
# Poissons Ratio (y) = 0.05515 0.15930
# Poissons Ratio (z) = -0.39909 0.15744
#
# Static dielectric constant tensor:
#      x y z
#    x 1.834890 0.000000 0.067260 
#    y 0.000000 1.703880 0.000000 
#    z 0.067260 0.000000 1.705770 
# 
# From -- ./inp_files/95994.got.cif
#   From: 2010.05.17/outbox.ucp.g08.bks.cvg/sg10_48_cif.got.tgz:95994.got - 2010.06.11 11:31:16.
