data_PCOD9155346
_publ_section_title
;
Structure prediction by ZEFSAII (Michael W. Deem and Ramdas Pophale) SiO2 
 PCOD9155346
Probable space group: P 2/M
;
_chemical_formula_sum "Si O2"
_cell_formula_units_Z 28
_cell_length_a 12.000000
_cell_length_b 9.000000
_cell_length_c 15.000000
_cell_angle_alpha 90.000000
_cell_angle_beta 60.000000
_cell_angle_gamma 90.000000
_cell_volume 1402.961154
_symmetry_space_group_name_H-M "P 2/M"
_symmetry_group_IT_number 10
_symmetry_cell_setting 'monoclinic'
loop_
_space_group_symop_operation_xyz
x,y,z
-x,y,-z
-x,-y,-z
x,-y,z
loop_
_atom_site_type_symbol
_atom_site_label
_atom_site_fract_x
_atom_site_fract_y
_atom_site_fract_z
Si Si1 0.893827 0.828490 0.469001
Si Si2 0.634675 0.672685 0.308153
Si Si3 0.167689 0.820179 0.109078
Si Si4 0.635449 0.821589 0.812887
Si Si5 0.105584 0.171665 0.736160
Si Si6 0.641475 0.677089 0.616452
Si Si7 0.631719 0.326383 0.093952
O O1 0.939520 0.827800 0.349072
O O2 0.771805 0.721574 0.516636
O O3 0.000000 0.785636 0.500000
O O4 0.855720 0.000000 0.505595
O O5 0.641001 0.500000 0.331906
O O6 0.758091 0.751634 0.300557
O O7 0.487982 0.727198 0.383620
O O8 0.638864 0.683836 0.198435
O O9 0.251187 0.779388 0.163963
O O10 0.020696 0.765162 0.165220
O O11 0.164975 0.000000 0.107574
O O12 0.246742 0.754218 0.996196
O O13 0.656496 0.756795 0.705867
O O14 0.496115 0.753999 0.891786
O O15 0.627995 0.000000 0.813544
O O16 0.123290 0.000000 0.755305
O O17 0.629598 0.500000 0.634684
O O18 0.627345 0.500000 0.072209
#
# Coordination Sequence:
#
# PCOD9155346 Si02
#       7
#     4   4   4   4   4   4   4
#     4  10  21  39  61  85 114 145 178 222 276 329
#     4   9  21  40  56  76 110 147 182 224 276 326
#     4  10  21  36  54  80 112 146 184 228 279 327
#     4  10  19  34  57  83 113 147 182 225 278 330
#     4  10  22  38  57  81 108 142 187 231 269 322
#     4  10  21  37  58  84 113 146 184 226 273 326
#     4  10  21  36  55  81 112 146 185 228 274 327
#
# _framework density 19.957787
#
# number of rings (size 3 to 8) (size 9 to 14) (size 15 to 20)
#    0.000    2.143    0.000    3.429    0.000   11.143 
#    0.000    7.143    0.000    0.000    0.000    0.000 
#    0.000    0.000    0.000    0.000    0.000    0.000 
#
# Total GULP energy -156206.624675 kJ/mol
# GULP energy per Si atom -5578.808024 kJ/mol
# Density = 1.991236 g / cm^3
# Si number density = 19.957787 Si / 1000 Ang^3
#
#
#
# Elastic Constant Matrix: (Units=GPa)
#
#
# Indices 1 2 3 4 5 6 
#
# 1 116.6921 34.8003 8.0411 0.0000 -21.4443 0.0000
# 2 34.8003 35.3071 2.5066 0.0000 -6.6267 0.0000
# 3 8.0411 2.5066 26.5373 0.0000 -17.3919 0.0000
# 4 0.0000 0.0000 0.0000 -17.8843 0.0000 -42.8703
# 5 -21.4443 -6.6267 -17.3919 0.0000 27.7319 0.0000
# 6 0.0000 0.0000 0.0000 -42.8703 0.0000 -27.1225
#
#
#
# Elastic Compliance Matrix: (Units=1/GPa)
#
#
# Indices 1 2 3 4 5 6 
#
# 1 0.013701 -0.011886 0.003486 0.000000 0.009940 0.000000
# 2 -0.011886 0.040118 0.000121 0.000000 0.000471 0.000000
# 3 0.003486 0.000121 0.065198 0.000000 0.043613 0.000000
# 4 0.000000 0.000000 0.000000 0.020049 0.000000 -0.031690
# 5 0.009940 0.000471 0.043613 0.000000 0.071210 0.000000
# 6 0.000000 0.000000 0.000000 -0.031690 0.000000 0.013220
#
#
# Mechanical properties :
#
#
# Convention : Reuss Voigt Hill
#
# Bulk Modulus (GPa) = 9.75999 29.91472 19.83736
# Shear Modulus (GPa) = 18.23438 5.42425 11.82931
#
# Velocity S-wave (km/s) = 3.02594 1.65038 2.43722
# Velocity P-wave (km/s) = 4.13634 4.31894 4.22863
#
# Compressibility (1/GPa) = 0.10245908
#
# Stress axis : x y z
#
# Youngs Moduli (GPa) = 72.98896 24.92643 15.33789
#
# Poissons Ratio (x) = 0.29627 -0.05347
# Poissons Ratio (y) = 0.86754 -0.00186
# Poissons Ratio (z) = -0.25443 -0.00302
#
# Static dielectric constant tensor:
#      x y z
#    x 1.674840 0.000000 -0.027840 
#    y 0.000000 1.674790 0.000000 
#    z -0.027840 0.000000 1.799500 
# 
# From -- ./inp_files/49372.got.cif
#   From: 2010.05.17/outbox.ucp.g08.bks.cvg/sg10_25_cif.got.tgz:49372.got - 2010.06.11 11:31:16.
