data_PCOD9155261
_publ_section_title
;
Structure prediction by ZEFSAII (Michael W. Deem and Ramdas Pophale) SiO2 
 PCOD9155261
Probable space group: P 2/M
;
_chemical_formula_sum "Si O2"
_cell_formula_units_Z 32
_cell_length_a 27.000000
_cell_length_b 9.000000
_cell_length_c 21.000000
_cell_angle_alpha 90.000000
_cell_angle_beta 20.000000
_cell_angle_gamma 90.000000
_cell_volume 1745.328791
_symmetry_space_group_name_H-M "P 2/M"
_symmetry_group_IT_number 10
_symmetry_cell_setting 'monoclinic'
loop_
_space_group_symop_operation_xyz
x,y,z
-x,y,-z
-x,-y,-z
x,-y,z
loop_
_atom_site_type_symbol
_atom_site_label
_atom_site_fract_x
_atom_site_fract_y
_atom_site_fract_z
Si Si1 0.950103 0.678269 0.462956
Si Si2 0.673774 0.822757 0.447996
Si Si3 0.910598 0.679472 0.254752
Si Si4 0.030668 0.822690 0.231689
Si Si5 0.348873 0.177099 0.879463
Si Si6 0.359237 0.821213 0.126896
Si Si7 0.273066 0.677806 0.105297
Si Si8 0.859668 0.669458 0.123017
O O1 0.932653 0.500000 0.487388
O O2 0.795977 0.754012 0.663940
O O3 0.990937 0.735795 0.343648
O O4 0.099795 0.713970 0.320750
O O5 0.775235 0.742404 0.378101
O O6 0.504418 0.784943 0.661318
O O7 0.739520 0.770178 0.301054
O O8 0.690352 0.000000 0.434461
O O9 0.900486 0.500000 0.269994
O O10 0.929128 0.756840 0.299825
O O11 0.062443 0.717534 0.035654
O O12 0.009312 0.000000 0.264556
O O13 0.203866 0.797010 0.012889
O O14 0.350980 0.000000 0.891232
O O15 0.324873 0.265851 0.973919
O O16 0.367166 0.757849 0.045702
O O17 0.350488 0.000000 0.137327
O O18 0.500000 0.780007 0.000000
O O19 0.285962 0.500000 0.094736
O O20 0.806493 0.500000 0.182069
O O21 0.000000 0.666914 0.000000
#
# Coordination Sequence:
#
# PCOD9155261 Si02
#       8
#     4   4   4   4   4   4   4   4
#     4  10  21  38  59  82 107 137 176 217 259 312
#     4  10  19  32  53  79 105 136 176 220 265 314
#     4  10  20  34  52  76 106 139 176 219 265 313
#     4  10  20  36  57  79 105 139 177 216 261 311
#     4   9  20  37  55  78 108 139 173 216 263 312
#     4  11  24  39  56  81 112 143 175 214 259 306
#     4  10  21  37  59  83 105 137 179 217 257 311
#     4   8  16  31  49  71 102 138 176 217 261 312
#
# _framework density 18.334654
#
# number of rings (size 3 to 8) (size 9 to 14) (size 15 to 20)
#    0.000    2.250    0.000    3.375    0.000    9.250 
#    0.000    1.875    0.000    3.750    0.000    0.000 
#    0.000    0.000    0.000    0.000    0.000    0.000 
#
# Total GULP energy -178390.679236 kJ/mol
# GULP energy per Si atom -5574.708726 kJ/mol
# Density = 1.829292 g / cm^3
# Si number density = 18.334654 Si / 1000 Ang^3
#
#
#
# Elastic Constant Matrix: (Units=GPa)
#
#
# Indices 1 2 3 4 5 6 
#
# 1 39.0797 4.9841 -18.8188 0.0000 -11.6847 0.0000
# 2 4.9841 48.8845 18.8231 0.0000 -9.0369 0.0000
# 3 -18.8188 18.8231 69.2461 0.0000 -7.4523 0.0000
# 4 0.0000 0.0000 0.0000 29.9492 0.0000 3.9087
# 5 -11.6847 -9.0369 -7.4523 0.0000 20.7886 0.0000
# 6 0.0000 0.0000 0.0000 3.9087 0.0000 22.6251
#
#
#
# Elastic Compliance Matrix: (Units=1/GPa)
#
#
# Indices 1 2 3 4 5 6 
#
# 1 0.041870 -0.005362 0.015725 0.000000 0.026840 0.000000
# 2 -0.005362 0.024895 -0.007680 0.000000 0.005055 0.000000
# 3 0.015725 -0.007680 0.022253 0.000000 0.013477 0.000000
# 4 0.000000 0.000000 0.000000 0.034160 0.000000 -0.005902
# 5 0.026840 0.005055 0.013477 0.000000 0.070218 0.000000
# 6 0.000000 0.000000 0.000000 -0.005902 0.000000 0.045218
#
#
# Mechanical properties :
#
#
# Convention : Reuss Voigt Hill
#
# Bulk Modulus (GPa) = 10.59516 18.57636 14.58576
# Shear Modulus (GPa) = 18.88858 24.82071 21.85464
#
# Velocity S-wave (km/s) = 3.21317 3.68334 3.45626
# Velocity P-wave (km/s) = 4.42236 5.31443 4.88878
#
# Compressibility (1/GPa) = 0.09438275
#
# Stress axis : x y z
#
# Youngs Moduli (GPa) = 23.88340 40.16892 44.93788
#
# Poissons Ratio (x) = 0.21539 -0.70665
# Poissons Ratio (y) = 0.12807 0.34514
# Poissons Ratio (z) = -0.37557 0.30851
#
# Static dielectric constant tensor:
#      x y z
#    x 1.660490 0.000000 0.042950 
#    y 0.000000 1.608010 0.000000 
#    z 0.042950 0.000000 1.645260 
# 
# From -- ./inp_files/86763.got.cif
#   From: 2010.05.17/outbox.ucp.g08.bks.cvg/sg10_44_cif.got.tgz:86763.got - 2010.06.11 11:31:16.
