data_PCOD9155651
_publ_section_title
;
Structure prediction by ZEFSAII (Michael W. Deem and Ramdas Pophale) SiO2 
 PCOD9155651
Probable space group: P 2/M
;
_chemical_formula_sum "Si O2"
_cell_formula_units_Z 32
_cell_length_a 24.000000
_cell_length_b 9.000000
_cell_length_c 15.000000
_cell_angle_alpha 90.000000
_cell_angle_beta 150.000000
_cell_angle_gamma 90.000000
_cell_volume 1620.000000
_symmetry_space_group_name_H-M "P 2/M"
_symmetry_group_IT_number 10
_symmetry_cell_setting 'monoclinic'
loop_
_space_group_symop_operation_xyz
x,y,z
-x,y,-z
-x,-y,-z
x,-y,z
loop_
_atom_site_type_symbol
_atom_site_label
_atom_site_fract_x
_atom_site_fract_y
_atom_site_fract_z
Si Si1 0.743936 0.679793 0.055813
Si Si2 0.975551 0.178308 0.314142
Si Si3 0.214878 0.676241 0.218751
Si Si4 0.260907 0.177667 0.461968
Si Si5 0.385264 0.321412 0.296611
Si Si6 0.024681 0.320805 0.190631
Si Si7 0.381253 0.321408 0.788005
Si Si8 0.224697 0.822371 0.716835
O O1 0.745244 0.500000 0.061721
O O2 0.722269 0.750402 0.121884
O O3 0.866326 0.740330 0.199339
O O4 0.655137 0.728562 0.857090
O O5 0.996598 0.245899 0.245877
O O6 0.091045 0.203845 0.527857
O O7 0.957440 0.000000 0.286425
O O8 0.224798 0.500000 0.254029
O O9 0.271017 0.772689 0.373576
O O10 0.282210 0.703403 0.220924
O O11 0.083473 0.707400 0.021785
O O12 0.140911 0.249610 0.321232
O O13 0.356019 0.247994 0.657066
O O14 0.258005 0.000000 0.468656
O O15 0.500000 0.263631 0.500000
O O16 0.398967 0.500000 0.307969
O O17 0.035902 0.500000 0.213815
O O18 0.372540 0.500000 0.769112
O O19 0.283827 0.255052 0.715211
O O20 0.500000 0.286782 0.000000
O O21 0.241280 0.000000 0.736793
#
# Coordination Sequence:
#
# PCOD9155651 Si02
#       8
#     4   4   4   4   4   4   4   4
#     4  11  22  38  62  93 123 162 210 254 302 362
#     4  11  22  37  60  90 126 164 199 247 314 374
#     4  10  21  39  62  91 123 161 206 254 306 360
#     4  12  25  40  61  93 127 163 200 247 312 373
#     4   9  19  38  62  87 117 155 204 257 302 347
#     4  11  21  37  63  92 123 160 204 253 304 365
#     4  11  25  45  68  91 117 159 213 261 304 360
#     4  11  24  41  62  92 127 162 198 249 315 373
#
# _framework density 19.753086
#
# number of rings (size 3 to 8) (size 9 to 14) (size 15 to 20)
#    0.000    1.250    2.500    3.750    0.000    7.500 
#    0.000    2.500    0.000    2.625    0.000    0.000 
#    0.000    0.000    0.000    0.000    0.000    0.000 
#
# Total GULP energy -178850.317043 kJ/mol
# GULP energy per Si atom -5589.072408 kJ/mol
# Density = 1.970813 g / cm^3
# Si number density = 19.753086 Si / 1000 Ang^3
#
#
#
# Elastic Constant Matrix: (Units=GPa)
#
#
# Indices 1 2 3 4 5 6 
#
# 1 23.2752 5.9930 11.0660 0.0000 -24.2524 0.0000
# 2 5.9930 86.3826 49.5703 0.0000 -13.8351 0.0000
# 3 11.0660 49.5703 144.8104 0.0000 -24.5821 0.0000
# 4 0.0000 0.0000 0.0000 6.9356 0.0000 11.7669
# 5 -24.2524 -13.8351 -24.5821 0.0000 39.7070 0.0000
# 6 0.0000 0.0000 0.0000 11.7669 0.0000 -9.5031
#
#
#
# Elastic Compliance Matrix: (Units=1/GPa)
#
#
# Indices 1 2 3 4 5 6 
#
# 1 0.120184 0.002117 0.002992 0.000000 0.075997 0.000000
# 2 0.002117 0.014617 -0.004561 0.000000 0.003562 0.000000
# 3 0.002992 -0.004561 0.009251 0.000000 0.005965 0.000000
# 4 0.000000 0.000000 0.000000 0.046500 0.000000 0.057577
# 5 0.075997 0.003562 0.005965 0.000000 0.076537 0.000000
# 6 0.000000 0.000000 0.000000 0.057577 0.000000 -0.033937
#
#
# Mechanical properties :
#
#
# Convention : Reuss Voigt Hill
#
# Bulk Modulus (GPa) = 6.88952 43.08073 24.98512
# Shear Modulus (GPa) = 17.82924 19.95049 18.88986
#
# Velocity S-wave (km/s) = 3.00760 3.18149 3.09576
# Velocity P-wave (km/s) = 3.94414 5.94582 5.04525
#
# Compressibility (1/GPa) = 0.14514806
#
# Stress axis : x y z
#
# Youngs Moduli (GPa) = 8.32057 68.41234 108.09920
#
# Poissons Ratio (x) = -0.14480 -0.32344
# Poissons Ratio (y) = -0.01761 0.49300
# Poissons Ratio (z) = -0.02490 0.31201
#
# Static dielectric constant tensor:
#      x y z
#    x 1.735960 0.000000 -0.017030 
#    y 0.000000 1.649420 0.000000 
#    z -0.017030 0.000000 1.694850 
# 
# From -- ./inp_files/71632.got.cif
#   From: 2010.05.17/outbox.ucp.g08.bks.cvg/sg10_36_cif.got.tgz:71632.got - 2010.06.11 11:31:16.
