data_PCOD9155882
_publ_section_title
;
Structure prediction by ZEFSAII (Michael W. Deem and Ramdas Pophale) SiO2 
 PCOD9155882
Probable space group: P 21/M
;
_chemical_formula_sum "Si O2"
_cell_formula_units_Z 32
_cell_length_a 12.506400
_cell_length_b 8.766994
_cell_length_c 29.153756
_cell_angle_alpha 90.000000
_cell_angle_beta 40.538375
_cell_angle_gamma 90.000000
_cell_volume 2077.601728
_symmetry_space_group_name_H-M "P 21/M"
_symmetry_group_IT_number 11
_symmetry_cell_setting 'monoclinic'
loop_
_space_group_symop_operation_xyz
x,y,z
-x,1/2+y,-z
-x,-y,-z
x,1/2-y,z
loop_
_atom_site_type_symbol
_atom_site_label
_atom_site_fract_x
_atom_site_fract_y
_atom_site_fract_z
Si Si1 0.663601 0.065532 0.971066
Si Si2 0.309165 0.433768 0.258461
Si Si3 0.156961 0.071010 0.168099
Si Si4 0.000709 0.432225 0.695472
Si Si5 0.810573 0.067978 0.612940
Si Si6 0.823392 0.067621 0.503979
Si Si7 0.665972 0.567587 0.466451
Si Si8 0.502410 0.070330 0.111618
O O1 0.659795 0.250000 0.970704
O O2 0.811748 0.003770 0.891648
O O3 0.642683 0.013188 0.030930
O O4 0.500000 0.000000 0.000000
O O5 0.308860 0.250000 0.258732
O O6 0.307079 0.496711 0.310452
O O7 0.456365 0.490453 0.176935
O O8 0.140026 0.490403 0.289871
O O9 0.122517 0.250000 0.174853
O O10 0.330507 0.056715 0.139402
O O11 0.026898 0.990289 0.243752
O O12 0.977930 0.250000 0.701055
O O13 0.178111 0.470369 0.616865
O O14 0.816334 0.250000 0.616681
O O15 0.766949 0.032734 0.574383
O O16 0.994164 0.002447 0.560800
O O17 0.834787 0.250000 0.495504
O O18 0.707807 0.999838 0.502649
O O19 0.500000 0.500000 0.500000
O O20 0.654922 0.750000 0.472912
O O21 0.535114 0.250000 0.106760
#
# Coordination Sequence:
#
# PCOD9155882 Si02
#       8
#     4   4   4   4   4   4   4   4
#     4   9  14  22  34  49  72 103 139 176 210 249
#     4  10  17  26  42  62  85 115 145 179 219 260
#     4   9  16  25  37  53  74 103 138 176 215 256
#     4  10  19  30  43  61  82 107 143 184 218 261
#     4  10  19  30  45  67  91 115 146 184 224 267
#     4  10  20  33  49  66  87 115 147 184 226 266
#     4  11  23  36  51  68  89 114 147 186 228 275
#     4   7  13  22  32  50  75 104 139 171 205 248
#
# _framework density 15.402374
#
# number of rings (size 3 to 8) (size 9 to 14) (size 15 to 20)
#    0.000    2.500    1.250    4.125    0.000    3.000 
#    0.000    1.875    0.000    0.000    0.000    0.000 
#    0.000    0.000    0.000    1.125    0.000   13.625 
#
# Total GULP energy -178161.546469 kJ/mol
# GULP energy per Si atom -5567.548327 kJ/mol
# Density = 1.536732 g / cm^3
# Si number density = 15.402374 Si / 1000 Ang^3
#
#
#
# Elastic Constant Matrix: (Units=GPa)
#
#
# Indices 1 2 3 4 5 6 
#
# 1 58.3964 24.9009 43.3209 0.0000 14.0136 0.0000
# 2 24.9009 53.6406 46.9341 0.0000 12.1368 0.0000
# 3 43.3209 46.9341 140.0587 0.0000 40.8209 0.0000
# 4 0.0000 0.0000 0.0000 26.5940 0.0000 5.7883
# 5 14.0136 12.1368 40.8209 0.0000 19.7625 0.0000
# 6 0.0000 0.0000 0.0000 5.7883 0.0000 16.0155
#
#
#
# Elastic Compliance Matrix: (Units=1/GPa)
#
#
# Indices 1 2 3 4 5 6 
#
# 1 0.023962 -0.006789 -0.003516 0.000000 -0.005559 0.000000
# 2 -0.006789 0.028512 -0.009433 0.000000 0.006789 0.000000
# 3 -0.003516 -0.009433 0.022548 0.000000 -0.038287 0.000000
# 4 0.000000 0.000000 0.000000 0.040813 0.000000 -0.014750
# 5 -0.005559 0.006789 -0.038287 0.000000 0.129458 0.000000
# 6 0.000000 0.000000 0.000000 -0.014750 0.000000 0.067771
#
#
# Mechanical properties :
#
#
# Convention : Reuss Voigt Hill
#
# Bulk Modulus (GPa) = 28.13423 53.60080 40.86752
# Shear Modulus (GPa) = 13.72164 21.60372 17.66268
#
# Velocity S-wave (km/s) = 2.98800 3.74922 3.39004
# Velocity P-wave (km/s) = 5.49636 7.32244 6.47411
#
# Compressibility (1/GPa) = 0.03554389
#
# Stress axis : x y z
#
# Youngs Moduli (GPa) = 41.73309 35.07305 44.35063
#
# Poissons Ratio (x) = 0.23811 0.15595
# Poissons Ratio (y) = 0.28333 0.41837
# Poissons Ratio (z) = 0.14675 0.33086
#
# Static dielectric constant tensor:
#      x y z
#    x 1.475660 0.000000 0.035540 
#    y 0.000000 1.811570 0.000000 
#    z 0.035540 0.000000 1.575900 
# 
# From -- ./inp_files/71176.got.cif
#   From: 2010.05.17/outbox.cif.g08.bks.cpg/sg11_36_cif.got.tgz:71176.got - 2010.06.03 12:22:45.
