data_PCOD9155731
_publ_section_title
;
Structure prediction by ZEFSAII (Michael W. Deem and Ramdas Pophale) SiO2 
 PCOD9155731
Probable space group: P 21/M
;
_chemical_formula_sum "Si O2"
_cell_formula_units_Z 32
_cell_length_a 12.508770
_cell_length_b 15.880999
_cell_length_c 7.797350
_cell_angle_alpha 90.000000
_cell_angle_beta 89.332213
_cell_angle_gamma 90.000000
_cell_volume 1548.852126
_symmetry_space_group_name_H-M "P 21/M"
_symmetry_group_IT_number 11
_symmetry_cell_setting 'monoclinic'
loop_
_space_group_symop_operation_xyz
x,y,z
-x,1/2+y,-z
-x,-y,-z
x,1/2-y,z
loop_
_atom_site_type_symbol
_atom_site_label
_atom_site_fract_x
_atom_site_fract_y
_atom_site_fract_z
Si Si1 0.498274 0.903603 0.446723
Si Si2 0.730899 0.843706 0.449325
Si Si3 0.730795 0.344743 0.969397
Si Si4 0.734405 0.654003 0.028200
Si Si5 0.124753 0.497945 0.543889
Si Si6 0.123135 0.498980 0.950020
Si Si7 0.499666 0.648765 0.056786
Si Si8 0.732631 0.342895 0.556390
O O1 0.607978 0.860028 0.503557
O O2 0.499153 0.897174 0.239628
O O3 0.387054 0.862166 0.507628
O O4 0.500000 0.000000 0.500000
O O5 0.764590 0.750000 0.499963
O O6 0.731019 0.845712 0.238756
O O7 0.808310 0.916306 0.518849
O O8 0.755584 0.250000 0.030956
O O9 0.611735 0.370721 0.034406
O O10 0.723658 0.340505 0.763044
O O11 0.817272 0.414760 0.006736
O O12 0.760774 0.750000 0.976252
O O13 0.815895 0.581629 0.972629
O O14 0.613985 0.632008 0.969847
O O15 0.130156 0.491335 0.747137
O O16 0.186410 0.582614 0.489370
O O17 0.000000 0.500000 0.500000
O O18 0.000000 0.500000 0.000000
O O19 0.497466 0.750000 0.091221
O O20 0.767468 0.250000 0.497200
#
# Coordination Sequence:
#
# PCOD9155731 Si02
#       8
#     4   4   4   4   4   4   4   4
#     4  10  15  26  52  86 112 139 175 223 275 331
#     4   9  17  32  53  79 110 142 179 224 275 334
#     4   9  19  36  58  82 110 145 183 220 273 340
#     4   8  16  32  55  79 104 136 179 226 272 329
#     4  11  23  38  56  81 111 144 193 242 280 329
#     4  11  23  37  55  81 107 145 190 236 284 323
#     4   8  15  30  53  81 108 139 182 225 268 333
#     4  10  20  36  58  84 114 150 184 225 277 338
#
# _framework density 20.660461000000002
#
# number of rings (size 3 to 8) (size 9 to 14) (size 15 to 20)
#    0.000    2.500    1.250    3.375    0.000    2.000 
#    0.000    2.500    0.000    2.250    0.000    0.000 
#    0.000    0.000    0.000    0.000    0.000    0.000 
#
# Total GULP energy -178598.052161 kJ/mol
# GULP energy per Si atom -5581.189130 kJ/mol
# Density = 2.061344 g / cm^3
# Si number density = 20.660461 Si / 1000 Ang^3
#
#
#
# Elastic Constant Matrix: (Units=GPa)
#
#
# Indices 1 2 3 4 5 6 
#
# 1 198.1592 122.9789 9.4398 0.0000 3.9734 0.0000
# 2 122.9789 173.6512 7.5101 0.0000 3.2662 0.0000
# 3 9.4398 7.5101 25.9617 0.0000 2.4218 0.0000
# 4 0.0000 0.0000 0.0000 17.7465 0.0000 7.5257
# 5 3.9734 3.2662 2.4218 0.0000 16.0864 0.0000
# 6 0.0000 0.0000 0.0000 7.5257 0.0000 10.3060
#
#
#
# Elastic Compliance Matrix: (Units=1/GPa)
#
#
# Indices 1 2 3 4 5 6 
#
# 1 0.009066 -0.006347 -0.001392 0.000000 -0.000741 0.000000
# 2 -0.006347 0.010289 -0.000629 0.000000 -0.000427 0.000000
# 3 -0.001392 -0.000629 0.039720 0.000000 -0.005508 0.000000
# 4 0.000000 0.000000 0.000000 0.081625 0.000000 -0.059604
# 5 -0.000741 -0.000427 -0.005508 0.000000 0.063263 0.000000
# 6 0.000000 0.000000 0.000000 -0.059604 0.000000 0.140555
#
#
# Mechanical properties :
#
#
# Convention : Reuss Voigt Hill
#
# Bulk Modulus (GPa) = 23.61771 75.29220 49.45496
# Shear Modulus (GPa) = 13.32033 26.01733 19.66883
#
# Velocity S-wave (km/s) = 2.54190 3.55248 3.08880
# Velocity P-wave (km/s) = 4.48009 7.30401 6.05887
#
# Compressibility (1/GPa) = 0.04234110
#
# Stress axis : x y z
#
# Youngs Moduli (GPa) = 110.29785 97.19556 25.17625
#
# Poissons Ratio (x) = 0.61686 0.03503
# Poissons Ratio (y) = 0.70002 0.01583
# Poissons Ratio (z) = 0.15348 0.06111
#
# Static dielectric constant tensor:
#      x y z
#    x 1.641020 0.000000 -0.012230 
#    y 0.000000 1.730170 0.000000 
#    z -0.012230 0.000000 1.784310 
# 
# From -- ./inp_files/18068.got.cif
#   From: 2010.05.17/outbox.cif.g08.bks.cpg/sg11_10_cif.got.tgz:18068.got - 2010.06.03 12:22:45.
