data_PCOD9155572
_publ_section_title
;
Structure prediction by ZEFSAII (Michael W. Deem and Ramdas Pophale) SiO2 
 PCOD9155572
Probable space group: P 2/M
;
_chemical_formula_sum "Si O2"
_cell_formula_units_Z 28
_cell_length_a 15.000000
_cell_length_b 9.000000
_cell_length_c 21.000000
_cell_angle_alpha 90.000000
_cell_angle_beta 150.000000
_cell_angle_gamma 90.000000
_cell_volume 1417.500000
_symmetry_space_group_name_H-M "P 2/M"
_symmetry_group_IT_number 10
_symmetry_cell_setting 'monoclinic'
loop_
_space_group_symop_operation_xyz
x,y,z
-x,y,-z
-x,-y,-z
x,-y,z
loop_
_atom_site_type_symbol
_atom_site_label
_atom_site_fract_x
_atom_site_fract_y
_atom_site_fract_z
Si Si1 0.844376 0.821270 0.087411
Si Si2 0.936259 0.327367 0.281232
Si Si3 0.924841 0.321418 0.882833
Si Si4 0.351935 0.672340 0.576233
Si Si5 0.869843 0.832872 0.365193
Si Si6 0.569758 0.173488 0.612735
Si Si7 0.500011 0.167371 0.208609
O O1 0.897424 0.751959 0.189149
O O2 0.966743 0.753639 0.107455
O O3 0.863631 0.000000 0.103896
O O4 0.649379 0.789039 0.935866
O O5 0.889079 0.500000 0.243938
O O6 0.837708 0.250132 0.279185
O O7 0.138064 0.323495 0.435268
O O8 0.934975 0.500000 0.885341
O O9 0.726757 0.265764 0.743669
O O10 0.000000 0.278890 0.000000
O O11 0.403653 0.500000 0.594697
O O12 0.408720 0.794557 0.560073
O O13 0.450464 0.723147 0.702375
O O14 0.682682 0.844554 0.283820
O O15 0.000000 0.764115 0.500000
O O16 0.941594 0.000000 0.395654
O O17 0.500000 0.222782 0.500000
O O18 0.619430 0.000000 0.639092
O O19 0.451459 0.000000 0.203049
#
# Coordination Sequence:
#
# PCOD9155572 Si02
#       7
#     4   4   4   4   4   4   4
#     4  11  24  41  62  89 123 161 204 251 301 359
#     4  11  24  40  61  90 126 164 202 249 305 362
#     4  11  24  42  64  90 123 161 202 248 303 364
#     4  11  23  38  60  89 120 157 199 249 303 358
#     4  10  20  38  65  92 121 159 203 251 302 357
#     4  11  24  40  61  89 119 156 202 250 300 357
#     4  10  22  40  63  91 120 156 202 251 299 356
#
# _framework density 19.753086
#
# number of rings (size 3 to 8) (size 9 to 14) (size 15 to 20)
#    0.000    1.286    1.429    3.857    0.000   11.143 
#    0.000    2.857    0.000    0.000    0.000    0.000 
#    0.000    0.000    0.000    0.000    0.000    0.000 
#
# Total GULP energy -156037.373205 kJ/mol
# GULP energy per Si atom -5572.763329 kJ/mol
# Density = 1.970813 g / cm^3
# Si number density = 19.753086 Si / 1000 Ang^3
#
#
#
# Elastic Constant Matrix: (Units=GPa)
#
#
# Indices 1 2 3 4 5 6 
#
# 1 82.9625 31.6845 18.9774 0.0000 -37.9063 0.0000
# 2 31.6845 78.2356 33.1728 0.0000 -28.8895 0.0000
# 3 18.9774 33.1728 85.2631 0.0000 -34.3168 0.0000
# 4 0.0000 0.0000 0.0000 31.0992 0.0000 -6.8109
# 5 -37.9063 -28.8895 -34.3168 0.0000 49.8185 0.0000
# 6 0.0000 0.0000 0.0000 -6.8109 0.0000 31.7315
#
#
#
# Elastic Compliance Matrix: (Units=1/GPa)
#
#
# Indices 1 2 3 4 5 6 
#
# 1 0.019554 -0.003749 0.003071 0.000000 0.014820 0.000000
# 2 -0.003749 0.017777 -0.004263 0.000000 0.004520 0.000000
# 3 0.003071 -0.004263 0.017501 0.000000 0.011920 0.000000
# 4 0.000000 0.000000 0.000000 0.033741 0.000000 0.007242
# 5 0.014820 0.004520 0.011920 0.000000 0.042181 0.000000
# 6 0.000000 0.000000 0.000000 0.007242 0.000000 0.033069
#
#
# Mechanical properties :
#
#
# Convention : Reuss Voigt Hill
#
# Bulk Modulus (GPa) = 22.24653 46.01453 34.13053
# Shear Modulus (GPa) = 26.49876 33.37162 29.93519
#
# Velocity S-wave (km/s) = 3.66662 4.11474 3.89713
# Velocity P-wave (km/s) = 5.40484 6.77644 6.12913
#
# Compressibility (1/GPa) = 0.04495083
#
# Stress axis : x y z
#
# Youngs Moduli (GPa) = 51.13944 56.25383 57.13976
#
# Poissons Ratio (x) = 0.21089 -0.17548
# Poissons Ratio (y) = 0.19172 0.24357
# Poissons Ratio (z) = -0.15705 0.23979
#
# Static dielectric constant tensor:
#      x y z
#    x 1.735140 0.000000 0.098120 
#    y 0.000000 1.716450 0.000000 
#    z 0.098120 0.000000 1.761950 
# 
# From -- ./inp_files/82167.got.cif
#   From: 2010.05.17/outbox.ucp.g08.bks.cvg/sg10_42_cif.got.tgz:82167.got - 2010.06.11 11:31:16.
