data_PCOD9155660
_publ_section_title
;
Structure prediction by ZEFSAII (Michael W. Deem and Ramdas Pophale) SiO2 
 PCOD9155660
Probable space group: P 2/M
;
_chemical_formula_sum "Si O2"
_cell_formula_units_Z 28
_cell_length_a 27.000000
_cell_length_b 9.000000
_cell_length_c 9.000000
_cell_angle_alpha 90.000000
_cell_angle_beta 40.000000
_cell_angle_gamma 90.000000
_cell_volume 1405.776502
_symmetry_space_group_name_H-M "P 2/M"
_symmetry_group_IT_number 10
_symmetry_cell_setting 'monoclinic'
loop_
_space_group_symop_operation_xyz
x,y,z
-x,y,-z
-x,-y,-z
x,-y,z
loop_
_atom_site_type_symbol
_atom_site_label
_atom_site_fract_x
_atom_site_fract_y
_atom_site_fract_z
Si Si1 0.208401 0.177995 0.480390
Si Si2 0.921867 0.174075 0.989688
Si Si3 0.518038 0.321006 0.786910
Si Si4 0.149675 0.331917 0.105707
Si Si5 0.915727 0.331140 0.420091
Si Si6 0.331463 0.677499 0.749007
Si Si7 0.369227 0.179098 0.979572
O O1 0.157207 0.234021 0.462063
O O2 0.296826 0.227470 0.252275
O O3 0.211335 0.000000 0.480939
O O4 0.151299 0.228288 0.743924
O O5 0.890291 0.206838 0.899607
O O6 0.003471 0.258511 0.814585
O O7 0.934815 0.000000 0.990456
O O8 0.511365 0.500000 0.791894
O O9 0.603461 0.282828 0.525346
O O10 0.500000 0.279450 0.000000
O O11 0.450123 0.246798 0.846931
O O12 0.145030 0.500000 0.049393
O O13 0.098779 0.338839 0.371318
O O14 0.241045 0.299093 0.917266
O O15 0.911058 0.500000 0.372108
O O16 0.339089 0.500000 0.758474
O O17 0.350579 0.763660 0.856821
O O18 0.373103 0.000000 0.972318
#
# Coordination Sequence:
#
# PCOD9155660 Si02
#       7
#     4   4   4   4   4   4   4
#     4  10  23  41  59  85 121 159 198 243 294 353
#     4  11  24  39  58  85 121 160 197 242 301 355
#     4  10  23  41  64  93 123 156 194 239 295 354
#     4  10  22  39  60  88 119 153 199 249 292 345
#     4  11  22  39  62  88 116 152 202 250 295 348
#     4  10  21  41  64  88 120 158 198 243 293 348
#     4  11  23  40  63  90 121 158 200 242 291 349
#
# _framework density 19.917818
#
# number of rings (size 3 to 8) (size 9 to 14) (size 15 to 20)
#    0.000    1.571    1.429    2.571    2.000    9.429 
#    0.000    0.000    0.000    0.000    0.000    0.000 
#    0.000    0.000    0.000    0.000    0.000    0.000 
#
# Total GULP energy -156180.644044 kJ/mol
# GULP energy per Si atom -5577.880144 kJ/mol
# Density = 1.987248 g / cm^3
# Si number density = 19.917818 Si / 1000 Ang^3
#
#
#
# Elastic Constant Matrix: (Units=GPa)
#
#
# Indices 1 2 3 4 5 6 
#
# 1 32.5370 -0.0565 5.7069 0.0000 -12.7690 0.0000
# 2 -0.0565 -12.5193 23.4865 0.0000 -6.5780 0.0000
# 3 5.7069 23.4865 133.2906 0.0000 -16.0548 0.0000
# 4 0.0000 0.0000 0.0000 35.1238 0.0000 -3.7015
# 5 -12.7690 -6.5780 -16.0548 0.0000 32.8029 0.0000
# 6 0.0000 0.0000 0.0000 -3.7015 0.0000 18.3133
#
#
#
# Elastic Compliance Matrix: (Units=1/GPa)
#
#
# Indices 1 2 3 4 5 6 
#
# 1 0.035794 -0.005290 0.001010 0.000000 0.013366 0.000000
# 2 -0.005290 -0.057653 0.009293 0.000000 -0.009072 0.000000
# 3 0.001010 0.009293 0.006475 0.000000 0.005426 0.000000
# 4 0.000000 0.000000 0.000000 0.029090 0.000000 0.005880
# 5 0.013366 -0.009072 0.005426 0.000000 0.036524 0.000000
# 6 0.000000 0.000000 0.000000 0.005880 0.000000 0.055794
#
#
# Mechanical properties :
#
#
# Convention : Reuss Voigt Hill
#
# Bulk Modulus (GPa) = -186.54290 23.50914 -81.51688
# Shear Modulus (GPa) = 53.07088 25.52609 39.29849
#
# Velocity S-wave (km/s) = 5.16747 3.58379 4.44670
# Velocity P-wave (km/s) = 7.63256 5.38084 3.82770
#
# Compressibility (1/GPa) = -0.00536070
#
# Stress axis : x y z
#
# Youngs Moduli (GPa) = 27.93800 -17.34512 154.43276
#
# Poissons Ratio (x) = -0.09176 -0.15592
# Poissons Ratio (y) = 0.14780 -1.43507
# Poissons Ratio (z) = -0.02821 0.16118
#
# Static dielectric constant tensor:
#      x y z
#    x 1.728550 0.000000 0.063810 
#    y 0.000000 1.684390 0.000000 
#    z 0.063810 0.000000 1.766400 
# 
# From -- ./inp_files/37057.got.cif
#   From: 2010.05.17/outbox.ucp.g08.bks.cvg/sg10_19_cif.got.tgz:37057.got - 2010.06.11 11:31:16.
