data_PCOD9155407
_publ_section_title
;
Structure prediction by ZEFSAII (Michael W. Deem and Ramdas Pophale) SiO2 
 PCOD9155407
Probable space group: P 2/M
;
_chemical_formula_sum "Si O2"
_cell_formula_units_Z 28
_cell_length_a 9.000000
_cell_length_b 9.000000
_cell_length_c 30.000000
_cell_angle_alpha 90.000000
_cell_angle_beta 40.000000
_cell_angle_gamma 90.000000
_cell_volume 1561.973892
_symmetry_space_group_name_H-M "P 2/M"
_symmetry_group_IT_number 10
_symmetry_cell_setting 'monoclinic'
loop_
_space_group_symop_operation_xyz
x,y,z
-x,y,-z
-x,-y,-z
x,-y,z
loop_
_atom_site_type_symbol
_atom_site_label
_atom_site_fract_x
_atom_site_fract_y
_atom_site_fract_z
Si Si1 0.105387 0.322441 0.428625
Si Si2 0.941458 0.673647 0.152892
Si Si3 0.048165 0.823351 0.707093
Si Si4 0.241782 0.322237 0.572827
Si Si5 0.677679 0.681191 0.998448
Si Si6 0.687670 0.673815 0.850464
Si Si7 0.593396 0.823841 0.295089
O O1 0.142046 0.500000 0.423547
O O2 0.346782 0.247831 0.361031
O O3 0.000000 0.271069 0.500000
O O4 0.923322 0.294528 0.431233
O O5 0.882549 0.500000 0.161102
O O6 0.722000 0.760854 0.221818
O O7 0.133110 0.681921 0.148734
O O8 0.071559 0.726880 0.077964
O O9 0.135360 0.752657 0.641115
O O10 0.240729 0.790252 0.700764
O O11 0.808723 0.759216 0.782178
O O12 0.029357 0.000000 0.706715
O O13 0.500000 0.272005 0.500000
O O14 0.252449 0.500000 0.578345
O O15 0.679840 0.500000 0.998782
O O16 0.557093 0.727903 0.072464
O O17 0.500000 0.725302 0.000000
O O18 0.665677 0.500000 0.843714
O O19 0.572374 0.000000 0.296173
#
# Coordination Sequence:
#
# PCOD9155407 Si02
#       7
#     4   4   4   4   4   4   4
#     4  10  21  37  57  78  97 121 157 200 245 292
#     4   8  13  23  41  64  92 127 165 204 243 282
#     4  10  20  32  47  71 103 136 167 198 237 287
#     4  10  21  37  57  78  97 121 157 200 245 292
#     4   7  10  18  35  61  90 121 160 203 244 282
#     4   8  13  23  41  64  92 127 165 204 243 282
#     4  10  20  32  47  71 103 136 167 198 237 287
#
# _framework density 17.926036
#
# number of rings (size 3 to 8) (size 9 to 14) (size 15 to 20)
#    0.000    3.000    0.000    3.429    0.000    4.000 
#    0.000    0.714    0.000    4.286    0.000    1.000 
#    0.000    8.000    0.000    0.000    0.000    0.000 
#
# Total GULP energy -155958.659183 kJ/mol
# GULP energy per Si atom -5569.952114 kJ/mol
# Density = 1.788524 g / cm^3
# Si number density = 17.926036 Si / 1000 Ang^3
#
#
#
# Elastic Constant Matrix: (Units=GPa)
#
#
# Indices 1 2 3 4 5 6 
#
# 1 16.3409 36.5483 55.4195 0.0000 1.9402 0.0000
# 2 36.5483 27.8255 67.2245 0.0000 2.4382 0.0000
# 3 55.4195 67.2245 241.3756 0.0000 7.2915 0.0000
# 4 0.0000 0.0000 0.0000 -7.3774 0.0000 -0.0977
# 5 1.9402 2.4382 7.2915 0.0000 21.0923 0.0000
# 6 0.0000 0.0000 0.0000 -0.0977 0.0000 15.4660
#
#
#
# Elastic Compliance Matrix: (Units=1/GPa)
#
#
# Indices 1 2 3 4 5 6 
#
# 1 -0.022038 0.051147 -0.009163 0.000000 -0.000718 0.000000
# 2 0.051147 -0.008755 -0.009290 0.000000 -0.000481 0.000000
# 3 -0.009163 -0.009290 0.008869 0.000000 -0.001149 0.000000
# 4 0.000000 0.000000 0.000000 -0.135537 0.000000 -0.000856
# 5 -0.000718 -0.000481 -0.001149 0.000000 0.047930 0.000000
# 6 0.000000 0.000000 0.000000 -0.000856 0.000000 0.064653
#
#
# Mechanical properties :
#
#
# Convention : Reuss Voigt Hill
#
# Bulk Modulus (GPa) = 23.00836 67.10293 45.05564
# Shear Modulus (GPa) = -52.20359 14.25950 -18.97205
#
# Velocity S-wave (km/s) = -5.40230 2.82346 -3.25676
# Velocity P-wave (km/s) = 5.10393 6.93857 3.32367
#
# Compressibility (1/GPa) = 0.04346246
#
# Stress axis : x y z
#
# Youngs Moduli (GPa) = -45.37608 -114.21735 112.75385
#
# Poissons Ratio (x) = 5.84186 1.03318
# Poissons Ratio (y) = 2.32084 1.04752
# Poissons Ratio (z) = -0.41579 -1.06112
#
# Static dielectric constant tensor:
#      x y z
#    x 1.613200 0.000000 -0.004050 
#    y 0.000000 1.596470 0.000000 
#    z -0.004050 0.000000 1.634480 
# 
# From -- ./inp_files/37929.got.cif
#   From: 2010.05.17/outbox.ucp.g08.bks.cvg/sg10_19_cif.got.tgz:37929.got - 2010.06.11 11:31:16.
