data_PCOD9155537
_publ_section_title
;
Structure prediction by ZEFSAII (Michael W. Deem and Ramdas Pophale) SiO2 
 PCOD9155537
Probable space group: P 2/M
;
_chemical_formula_sum "Si O2"
_cell_formula_units_Z 20
_cell_length_a 9.000000
_cell_length_b 12.000000
_cell_length_c 12.000000
_cell_angle_alpha 90.000000
_cell_angle_beta 130.000000
_cell_angle_gamma 90.000000
_cell_volume 992.793598
_symmetry_space_group_name_H-M "P 2/M"
_symmetry_group_IT_number 10
_symmetry_cell_setting 'monoclinic'
loop_
_space_group_symop_operation_xyz
x,y,z
-x,y,-z
-x,-y,-z
x,-y,z
loop_
_atom_site_type_symbol
_atom_site_label
_atom_site_fract_x
_atom_site_fract_y
_atom_site_fract_z
Si Si1 0.952749 0.738361 0.725444
Si Si2 0.677615 0.500000 0.354157
Si Si3 0.294399 0.867656 0.941585
Si Si4 0.271294 0.868640 0.190675
Si Si5 0.968009 0.500000 0.295010
Si Si6 0.585729 0.281952 0.418653
O O1 0.854279 0.793166 0.786531
O O2 0.807525 0.741384 0.552286
O O3 0.136827 0.811699 0.789140
O O4 0.014025 0.610770 0.768974
O O5 0.779329 0.500000 0.283225
O O6 0.562280 0.386613 0.325424
O O7 0.849525 0.500000 0.530719
O O8 0.289480 0.000000 0.928428
O O9 0.500000 0.825694 0.000000
O O10 0.250369 0.843862 0.050095
O O11 0.485937 0.829509 0.327193
O O12 0.234273 0.000000 0.191039
O O13 0.500000 0.312677 0.500000
#
# Coordination Sequence:
#
# PCOD9155537 Si02
#       6
#     4   2   4   4   2   4
#     4  10  20  37  59  82 114 148 190 228 277 333
#     4   9  17  34  55  80 120 151 179 227 283 334
#     4  10  22  39  58  80 112 151 191 232 281 338
#     4  10  21  37  58  86 115 148 187 231 282 335
#     4   9  20  34  55  85 112 148 191 228 276 335
#     4   9  19  33  58  89 113 146 186 232 276 335
#
# _framework density 20.145174000000001
#
# number of rings (size 3 to 8) (size 9 to 14) (size 15 to 20)
#    0.000    2.400    0.000    1.500    2.800    8.400 
#    0.000    3.500    0.000    3.600    0.000    0.000 
#    0.000    0.000    0.000    0.000    0.000    0.000 
#
# Total GULP energy -111438.400548 kJ/mol
# GULP energy per Si atom -5571.920027 kJ/mol
# Density = 2.009932 g / cm^3
# Si number density = 20.145174 Si / 1000 Ang^3
#
#
#
# Elastic Constant Matrix: (Units=GPa)
#
#
# Indices 1 2 3 4 5 6 
#
# 1 29.1956 42.2797 26.4659 0.0000 5.1689 0.0000
# 2 42.2797 30.7476 34.0637 0.0000 -27.6866 0.0000
# 3 26.4659 34.0637 49.5883 0.0000 15.5953 0.0000
# 4 0.0000 0.0000 0.0000 -63.6241 0.0000 14.2094
# 5 5.1689 -27.6866 15.5953 0.0000 18.3685 0.0000
# 6 0.0000 0.0000 0.0000 14.2094 0.0000 34.3687
#
#
#
# Elastic Compliance Matrix: (Units=1/GPa)
#
#
# Indices 1 2 3 4 5 6 
#
# 1 0.060373 0.008924 -0.050805 0.000000 0.039598 0.000000
# 2 0.008924 -0.008469 0.007993 0.000000 -0.022062 0.000000
# 3 -0.050805 0.007993 0.045712 0.000000 -0.012467 0.000000
# 4 0.000000 0.000000 0.000000 -0.014389 0.000000 0.005949
# 5 0.039598 -0.022062 -0.012467 0.000000 0.020630 0.000000
# 6 0.000000 0.000000 0.000000 0.005949 0.000000 0.026637
#
#
# Mechanical properties :
#
#
# Convention : Reuss Voigt Hill
#
# Bulk Modulus (GPa) = 33.51297 35.01667 34.26482
# Shear Modulus (GPa) = 24.01336 -1.72924 11.14206
#
# Velocity S-wave (km/s) = 3.45630 -0.92750 2.35433
# Velocity P-wave (km/s) = 5.70963 4.03397 4.94332
#
# Compressibility (1/GPa) = 0.02983920
#
# Stress axis : x y z
#
# Youngs Moduli (GPa) = 16.56376 -118.08402 21.87610
#
# Poissons Ratio (x) = 1.05382 1.11142
# Poissons Ratio (y) = -0.14782 -0.17485
# Poissons Ratio (z) = 0.84153 0.94380
#
# Static dielectric constant tensor:
#      x y z
#    x 1.771640 0.000000 0.088320 
#    y 0.000000 1.704030 0.000000 
#    z 0.088320 0.000000 1.753380 
# 
# From -- ./inp_files/42157.got.cif
#   From: 2010.05.17/outbox.ucp.g08.bks.cvg/sg10_22_cif.got.tgz:42157.got - 2010.06.11 11:31:16.
