data_PCOD9155351
_publ_section_title
;
Structure prediction by ZEFSAII (Michael W. Deem and Ramdas Pophale) SiO2 
 PCOD9155351
Probable space group: P 2/M
;
_chemical_formula_sum "Si O2"
_cell_formula_units_Z 28
_cell_length_a 15.000000
_cell_length_b 9.000000
_cell_length_c 12.000000
_cell_angle_alpha 90.000000
_cell_angle_beta 60.000000
_cell_angle_gamma 90.000000
_cell_volume 1402.961154
_symmetry_space_group_name_H-M "P 2/M"
_symmetry_group_IT_number 10
_symmetry_cell_setting 'monoclinic'
loop_
_space_group_symop_operation_xyz
x,y,z
-x,y,-z
-x,-y,-z
x,-y,z
loop_
_atom_site_type_symbol
_atom_site_label
_atom_site_fract_x
_atom_site_fract_y
_atom_site_fract_z
Si Si1 0.269857 0.680059 0.007500
Si Si2 0.286262 0.680748 0.240482
Si Si3 0.194215 0.174258 0.643503
Si Si4 0.120644 0.676434 0.908284
Si Si5 0.900562 0.679006 0.491427
Si Si6 0.501753 0.327948 0.170866
Si Si7 0.587992 0.672018 0.525313
O O1 0.275324 0.500000 0.997524
O O2 0.182364 0.723546 0.978473
O O3 0.384702 0.737235 0.909282
O O4 0.240559 0.718433 0.150438
O O5 0.293372 0.500000 0.246746
O O6 0.205383 0.728501 0.383044
O O7 0.403131 0.738806 0.170124
O O8 0.167255 0.224416 0.783228
O O9 0.105893 0.248689 0.623955
O O10 0.305919 0.241611 0.545204
O O11 0.195892 0.000000 0.626663
O O12 0.139547 0.500000 0.873365
O O13 0.000000 0.695158 0.000000
O O14 0.899335 0.500000 0.483228
O O15 0.000000 0.720648 0.500000
O O16 0.511142 0.500000 0.126773
O O17 0.461900 0.329587 0.321915
O O18 0.500000 0.733728 0.500000
O O19 0.609190 0.500000 0.479381
#
# Coordination Sequence:
#
# PCOD9155351 Si02
#       7
#     4   4   4   4   4   4   4
#     4   9  17  29  50  84 117 144 180 234 300 349
#     4   9  16  28  50  83 115 142 178 232 296 350
#     4  12  25  40  59  84 122 161 196 240 295 368
#     4  10  22  39  61  85 112 148 198 251 293 344
#     4  10  21  37  62  89 115 148 197 255 300 346
#     4   9  15  26  47  80 117 145 174 228 293 350
#     4  10  19  34  59  87 117 154 200 250 296 344
#
# _framework density 19.957787
#
# number of rings (size 3 to 8) (size 9 to 14) (size 15 to 20)
#    0.000    2.143    1.429    2.571    2.000    4.857 
#    0.000    0.000    0.000    0.000    0.000    1.000 
#    0.000    0.000    0.000    0.000    0.000    0.000 
#
# Total GULP energy -156040.190682 kJ/mol
# GULP energy per Si atom -5572.863953 kJ/mol
# Density = 1.991236 g / cm^3
# Si number density = 19.957787 Si / 1000 Ang^3
#
#
#
# Elastic Constant Matrix: (Units=GPa)
#
#
# Indices 1 2 3 4 5 6 
#
# 1 132.5146 20.2800 27.2496 0.0000 29.3892 0.0000
# 2 20.2800 -4.6589 -1.7752 0.0000 -1.3751 0.0000
# 3 27.2496 -1.7752 29.2328 0.0000 13.5685 0.0000
# 4 0.0000 0.0000 0.0000 -0.8391 0.0000 14.4917
# 5 29.3892 -1.3751 13.5685 0.0000 27.4640 0.0000
# 6 0.0000 0.0000 0.0000 14.4917 0.0000 -109.8537
#
#
#
# Elastic Compliance Matrix: (Units=1/GPa)
#
#
# Indices 1 2 3 4 5 6 
#
# 1 0.005037 0.023566 -0.001700 0.000000 -0.003370 0.000000
# 2 0.023566 -0.098890 -0.018126 0.000000 -0.021215 0.000000
# 3 -0.001700 -0.018126 0.044465 0.000000 -0.021057 0.000000
# 4 0.000000 0.000000 0.000000 0.932277 0.000000 0.122984
# 5 -0.003370 -0.021215 -0.021057 0.000000 0.049359 0.000000
# 6 0.000000 0.000000 0.000000 0.122984 0.000000 0.007121
#
#
# Mechanical properties :
#
#
# Convention : Reuss Voigt Hill
#
# Bulk Modulus (GPa) = -23.86256 27.62190 1.87967
# Shear Modulus (GPa) = 5.44711 -9.22349 -1.88819
#
# Velocity S-wave (km/s) = 1.65386 -2.15210 -0.97373
# Velocity P-wave (km/s) = 2.88712 2.77396 0.56597
#
# Compressibility (1/GPa) = -0.04190665
#
# Stress axis : x y z
#
# Youngs Moduli (GPa) = 198.54371 -10.11220 22.48937
#
# Poissons Ratio (x) = 0.23831 0.03822
# Poissons Ratio (y) = -4.67897 0.40764
# Poissons Ratio (z) = 0.33745 -0.18329
#
# Static dielectric constant tensor:
#      x y z
#    x 1.731550 0.000000 0.036820 
#    y 0.000000 1.661720 0.000000 
#    z 0.036820 0.000000 1.702200 
# 
# From -- ./inp_files/49189.got.cif
#   From: 2010.05.17/outbox.ucp.g08.bks.cvg/sg10_25_cif.got.tgz:49189.got - 2010.06.11 11:31:16.
