data_PCOD9155063
_publ_section_title
;
Structure prediction by ZEFSAII (Michael W. Deem and Ramdas Pophale) SiO2 
 PCOD9155063
Probable space group: P 2/M
;
_chemical_formula_sum "Si O2"
_cell_formula_units_Z 32
_cell_length_a 24.731303
_cell_length_b 7.729043
_cell_length_c 17.146814
_cell_angle_alpha 90.000000
_cell_angle_beta 28.668327
_cell_angle_gamma 90.000000
_cell_volume 1572.391789
_symmetry_space_group_name_H-M "P 2/M"
_symmetry_group_IT_number 10
_symmetry_cell_setting 'monoclinic'
loop_
_space_group_symop_operation_xyz
x,y,z
-x,y,-z
-x,-y,-z
x,-y,z
loop_
_atom_site_type_symbol
_atom_site_label
_atom_site_fract_x
_atom_site_fract_y
_atom_site_fract_z
Si Si1 0.769433 0.709874 0.978699
Si Si2 0.528992 0.695007 0.234191
Si Si3 0.904438 0.207604 0.955851
Si Si4 0.181197 0.196470 0.779391
Si Si5 0.981294 0.295280 0.609877
Si Si6 0.588164 0.699046 0.449677
Si Si7 0.710401 0.793954 0.516256
Si Si8 0.115472 0.209158 0.583861
O O1 0.764784 0.500000 0.983081
O O2 0.873291 0.773897 0.794067
O O3 0.651888 0.776628 0.091754
O O4 0.800009 0.754499 0.029601
O O5 0.547438 0.500000 0.182024
O O6 0.477666 0.689703 0.385852
O O7 0.423217 0.766223 0.319779
O O8 0.897758 0.276156 0.053242
O O9 0.911693 0.000000 0.953851
O O10 0.013995 0.268046 0.769579
O O11 0.299685 0.195227 0.676538
O O12 0.220368 0.277082 0.647261
O O13 0.142101 0.000000 0.813073
O O14 0.960477 0.500000 0.627789
O O15 0.000000 0.222412 0.500000
O O16 0.086904 0.271574 0.533730
O O17 0.500000 0.771529 0.500000
O O18 0.617998 0.500000 0.388910
O O19 0.769859 0.733174 0.519851
O O20 0.726474 0.000000 0.490895
O O21 0.112649 0.000000 0.584948
#
# Coordination Sequence:
#
# PCOD9155063 Si02
#       8
#     4   4   4   4   4   4   4   4
#     4   9  17  30  48  69  93 119 147 183 229 275
#     4   9  17  28  43  63  87 118 154 188 222 265
#     4   9  17  28  43  65  91 119 154 194 232 268
#     4   9  17  27  39  58  85 118 155 192 226 258
#     4   9  18  33  54  78  98 114 137 176 227 279
#     4   9  16  25  37  54  79 113 152 191 228 263
#     4   9  18  31  45  63  90 125 161 192 222 257
#     4   9  18  32  49  69  93 121 152 185 223 269
#
# _framework density 20.351161999999999
#
# number of rings (size 3 to 8) (size 9 to 14) (size 15 to 20)
#    0.000    3.000    0.000    0.750    0.000    3.500 
#    0.000    5.000    0.000    0.750    0.000   12.250 
#    0.000    0.000    0.000    0.000    0.000    0.000 
#
# Total GULP energy -178230.512137 kJ/mol
# GULP energy per Si atom -5569.703504 kJ/mol
# Density = 2.030484 g / cm^3
# Si number density = 20.351162 Si / 1000 Ang^3
#
#
#
# Elastic Constant Matrix: (Units=GPa)
#
#
# Indices 1 2 3 4 5 6 
#
# 1 126.1689 -2.0556 42.7063 0.0000 -9.6202 0.0000
# 2 -2.0556 30.9497 1.8091 0.0000 3.0423 0.0000
# 3 42.7063 1.8091 42.7764 0.0000 -5.5954 0.0000
# 4 0.0000 0.0000 0.0000 11.1783 0.0000 -4.1235
# 5 -9.6202 3.0423 -5.5954 0.0000 30.6233 0.0000
# 6 0.0000 0.0000 0.0000 -4.1235 0.0000 17.8158
#
#
#
# Elastic Compliance Matrix: (Units=1/GPa)
#
#
# Indices 1 2 3 4 5 6 
#
# 1 0.012106 0.001357 -0.011949 0.000000 0.001485 0.000000
# 2 0.001357 0.032924 -0.003195 0.000000 -0.003429 0.000000
# 3 -0.011949 -0.003195 0.035849 0.000000 0.003114 0.000000
# 4 0.000000 0.000000 0.000000 0.097811 0.000000 0.022639
# 5 0.001485 -0.003429 0.003114 0.000000 0.034031 0.000000
# 6 0.000000 0.000000 0.000000 0.022639 0.000000 0.061370
#
#
# Mechanical properties :
#
#
# Convention : Reuss Voigt Hill
#
# Bulk Modulus (GPa) = 18.76034 31.64608 25.20321
# Shear Modulus (GPa) = 15.65265 22.41914 19.03590
#
# Velocity S-wave (km/s) = 2.77632 3.32266 3.06170
# Velocity P-wave (km/s) = 4.41765 5.50489 4.99097
#
# Compressibility (1/GPa) = 0.05330392
#
# Stress axis : x y z
#
# Youngs Moduli (GPa) = 82.60485 30.37261 27.89443
#
# Poissons Ratio (x) = -0.04120 0.33331
# Poissons Ratio (y) = -0.11206 0.08913
# Poissons Ratio (z) = 0.98706 0.09705
#
# Static dielectric constant tensor:
#      x y z
#    x 1.751160 0.000000 -0.019910 
#    y 0.000000 1.783830 0.000000 
#    z -0.019910 0.000000 1.758380 
# 
# From -- ./inp_files/79931.got.cif
#   From: 2010.05.17/outbox.cif.g08.bks.cpg/sg10_40_cif.got.tgz:79931.got - 2010.06.03 11:33:40.
