data_PCOD9155693
_publ_section_title
;
Structure prediction by ZEFSAII (Michael W. Deem and Ramdas Pophale) SiO2 
 PCOD9155693
Probable space group: P 2/M
;
_chemical_formula_sum "Si O2"
_cell_formula_units_Z 30
_cell_length_a 15.000000
_cell_length_b 21.000000
_cell_length_c 15.000000
_cell_angle_alpha 90.000000
_cell_angle_beta 20.000000
_cell_angle_gamma 90.000000
_cell_volume 1616.045177
_symmetry_space_group_name_H-M "P 2/M"
_symmetry_group_IT_number 10
_symmetry_cell_setting 'monoclinic'
loop_
_space_group_symop_operation_xyz
x,y,z
-x,y,-z
-x,-y,-z
x,-y,z
loop_
_atom_site_type_symbol
_atom_site_label
_atom_site_fract_x
_atom_site_fract_y
_atom_site_fract_z
Si Si1 0.737701 0.850516 0.430285
Si Si2 0.774166 0.103994 0.782868
Si Si3 0.231968 0.735513 0.468246
Si Si4 0.957816 0.426432 0.145801
Si Si5 0.466589 0.653493 0.671510
Si Si6 0.684401 0.748702 0.902316
Si Si7 0.751340 0.924838 0.017223
Si Si8 0.500000 0.764041 0.500000
O O1 0.834881 0.795620 0.406665
O O2 0.667880 0.812175 0.404669
O O3 0.977324 0.899242 0.196118
O O4 0.487737 0.885085 0.712458
O O5 0.767140 0.181216 0.790837
O O6 0.783423 0.084327 0.878802
O O7 0.000000 0.084611 0.500000
O O8 0.500000 0.081673 0.000000
O O9 0.364914 0.682470 0.405682
O O10 0.959773 0.717924 0.674508
O O11 0.472130 0.756446 0.179932
O O12 0.964729 0.500000 0.171634
O O13 0.677534 0.394015 0.427865
O O14 0.203349 0.383365 0.947444
O O15 0.000000 0.427879 0.000000
O O16 0.391105 0.712908 0.676284
O O17 0.500000 0.716769 0.000000
O O18 0.712033 0.000000 0.070250
#
# Coordination Sequence:
#
# PCOD9155693 Si02
#       8
#     4   4   4   4   4   4   4   2
#     4  11  23  42  59  84 109 147 188 241 305 335
#     4  11  21  35  57  80 109 143 181 219 282 366
#     4  11  20  36  58  84 115 149 188 245 275 346
#     4  11  21  36  55  84 129 166 193 229 277 331
#     4  11  22  37  59  89 118 155 210 229 274 327
#     4  11  20  34  56  85 118 148 180 224 306 361
#     4  12  25  42  60  80 110 144 192 244 292 355
#     4  10  24  40  66  84 116 150 198 246 278 346
#
# _framework density 18.563836999999999
#
# number of rings (size 3 to 8) (size 9 to 14) (size 15 to 20)
#    0.000    0.933    4.000    4.400    0.000    6.400 
#    0.000    2.000    0.000    0.000    0.000    0.000 
#    0.000   37.333    0.000    0.000    0.000    0.000 
#
# Total GULP energy -167406.162019 kJ/mol
# GULP energy per Si atom -5580.205401 kJ/mol
# Density = 1.852159 g / cm^3
# Si number density = 18.563837 Si / 1000 Ang^3
#
#
#
# Elastic Constant Matrix: (Units=GPa)
#
#
# Indices 1 2 3 4 5 6 
#
# 1 94.9386 37.5027 34.3922 0.0000 -21.2839 0.0000
# 2 37.5027 85.4549 20.9676 0.0000 -11.9549 0.0000
# 3 34.3922 20.9676 113.9116 0.0000 -21.4911 0.0000
# 4 0.0000 0.0000 0.0000 19.7944 0.0000 -4.8294
# 5 -21.2839 -11.9549 -21.4911 0.0000 28.9660 0.0000
# 6 0.0000 0.0000 0.0000 -4.8294 0.0000 19.5145
#
#
#
# Elastic Compliance Matrix: (Units=1/GPa)
#
#
# Indices 1 2 3 4 5 6 
#
# 1 0.014940 -0.004995 -0.002220 0.000000 0.007269 0.000000
# 2 -0.004995 0.014324 -0.000820 0.000000 0.001633 0.000000
# 3 -0.002220 -0.000820 0.010730 0.000000 0.005992 0.000000
# 4 0.000000 0.000000 0.000000 0.053766 0.000000 0.013306
# 5 0.007269 0.001633 0.005992 0.000000 0.044984 0.000000
# 6 0.000000 0.000000 0.000000 0.013306 0.000000 0.054537
#
#
# Mechanical properties :
#
#
# Convention : Reuss Voigt Hill
#
# Bulk Modulus (GPa) = 41.79931 53.33670 47.56801
# Shear Modulus (GPa) = 23.00689 27.08445 25.04567
#
# Velocity S-wave (km/s) = 3.52424 3.82382 3.67708
# Velocity P-wave (km/s) = 6.25506 6.94905 6.61117
#
# Compressibility (1/GPa) = 0.02392384
#
# Stress axis : x y z
#
# Youngs Moduli (GPa) = 66.93404 69.81329 93.19348
#
# Poissons Ratio (x) = 0.34872 0.20687
# Poissons Ratio (y) = 0.33433 0.07646
# Poissons Ratio (z) = 0.14858 0.05728
#
# Static dielectric constant tensor:
#      x y z
#    x 1.702070 0.000000 0.004330 
#    y 0.000000 1.643790 0.000000 
#    z 0.004330 0.000000 1.647260 
# 
# From -- ./inp_files/67854.got.cif
#   From: 2010.05.17/outbox.ucp.g08.bks.cvg/sg10_34_cif.got.tgz:67854.got - 2010.06.11 11:31:16.
