data_PCOD9155241
_publ_section_title
;
Structure prediction by ZEFSAII (Michael W. Deem and Ramdas Pophale) SiO2 
 PCOD9155241
Probable space group: P 2/M
;
_chemical_formula_sum "Si O2"
_cell_formula_units_Z 32
_cell_length_a 24.000000
_cell_length_b 9.000000
_cell_length_c 12.000000
_cell_angle_alpha 90.000000
_cell_angle_beta 140.000000
_cell_angle_gamma 90.000000
_cell_volume 1666.105484
_symmetry_space_group_name_H-M "P 2/M"
_symmetry_group_IT_number 10
_symmetry_cell_setting 'monoclinic'
loop_
_space_group_symop_operation_xyz
x,y,z
-x,y,-z
-x,-y,-z
x,-y,z
loop_
_atom_site_type_symbol
_atom_site_label
_atom_site_fract_x
_atom_site_fract_y
_atom_site_fract_z
Si Si1 0.298890 0.173369 0.243030
Si Si2 0.460193 0.334564 0.563993
Si Si3 0.170070 0.678653 0.441688
Si Si4 0.978662 0.322158 0.198958
Si Si5 0.380885 0.168608 0.134523
Si Si6 0.231709 0.830316 0.734819
Si Si7 0.905939 0.168993 0.299298
Si Si8 0.157929 0.677737 0.174868
O O1 0.383836 0.216834 0.443090
O O2 0.322199 0.213211 0.151313
O O3 0.223128 0.264788 0.182324
O O4 0.279759 0.000000 0.218382
O O5 0.500000 0.338093 0.500000
O O6 0.429313 0.500000 0.544437
O O7 0.539486 0.277997 0.757941
O O8 0.170316 0.500000 0.440322
O O9 0.238468 0.739749 0.632739
O O10 0.178155 0.734937 0.328539
O O11 0.077434 0.729169 0.349624
O O12 0.978425 0.500000 0.210506
O O13 0.921565 0.255191 0.209797
O O14 0.936707 0.284063 0.016113
O O15 0.411733 0.000000 0.207639
O O16 0.321041 0.165832 0.936523
O O17 0.161679 0.766241 0.715703
O O18 0.203910 0.000000 0.667690
O O19 0.000000 0.163857 0.500000
O O20 0.876627 0.000000 0.229499
O O21 0.162949 0.500000 0.187181
#
# Coordination Sequence:
#
# PCOD9155241 Si02
#       8
#     4   4   4   4   4   4   4   4
#     4  10  19  33  54  79 106 135 168 204 249 305
#     4   9  17  30  51  79 109 136 163 199 248 302
#     4  10  21  36  52  70  97 135 177 217 258 301
#     4  10  20  34  53  74  98 131 174 218 259 305
#     4   9  18  32  51  77 108 137 166 202 249 304
#     4  10  20  34  51  73 103 138 172 209 254 302
#     4  10  19  32  50  72 102 135 166 206 256 303
#     4  10  21  36  52  72 100 134 172 217 261 299
#
# _framework density 19.206467
#
# number of rings (size 3 to 8) (size 9 to 14) (size 15 to 20)
#    0.000    2.250    1.250    1.875    0.000    6.750 
#    0.000    0.000    0.000    3.000    0.000    5.250 
#    0.000    0.000    0.000    0.000    0.000    0.000 
#
# Total GULP energy -178306.385612 kJ/mol
# GULP energy per Si atom -5572.074550 kJ/mol
# Density = 1.916275 g / cm^3
# Si number density = 19.206467 Si / 1000 Ang^3
#
#
#
# Elastic Constant Matrix: (Units=GPa)
#
#
# Indices 1 2 3 4 5 6 
#
# 1 20.4146 7.9484 30.6310 0.0000 -19.4488 0.0000
# 2 7.9484 -2.2215 28.3865 0.0000 -16.4626 0.0000
# 3 30.6310 28.3865 88.1618 0.0000 -16.8615 0.0000
# 4 0.0000 0.0000 0.0000 21.6084 0.0000 -7.5098
# 5 -19.4488 -16.4626 -16.8615 0.0000 17.7569 0.0000
# 6 0.0000 0.0000 0.0000 -7.5098 0.0000 27.4915
#
#
#
# Elastic Compliance Matrix: (Units=1/GPa)
#
#
# Indices 1 2 3 4 5 6 
#
# 1 0.215362 -0.133467 -0.012712 0.000000 0.100072 0.000000
# 2 -0.133467 0.032052 0.016834 0.000000 -0.100484 0.000000
# 3 -0.012712 0.016834 0.013027 0.000000 0.014054 0.000000
# 4 0.000000 0.000000 0.000000 0.051133 0.000000 0.013968
# 5 0.100072 -0.100484 0.014054 0.000000 0.086110 0.000000
# 6 0.000000 0.000000 0.000000 0.013968 0.000000 0.040190
#
#
# Mechanical properties :
#
#
# Convention : Reuss Voigt Hill
#
# Bulk Modulus (GPa) = 571.41628 26.69853 299.05740
# Shear Modulus (GPa) = 7.17208 15.99729 11.58469
#
# Velocity S-wave (km/s) = 1.93450 2.88915 2.45861
# Velocity P-wave (km/s) = 17.41115 5.00605 12.81032
#
# Compressibility (1/GPa) = 0.00175004
#
# Stress axis : x y z
#
# Youngs Moduli (GPa) = 4.64335 31.19910 76.76260
#
# Poissons Ratio (x) = 4.16405 0.97579
# Poissons Ratio (y) = 0.61974 -1.29218
# Poissons Ratio (z) = 0.05903 -0.52519
#
# Static dielectric constant tensor:
#      x y z
#    x 1.645720 0.000000 0.010700 
#    y 0.000000 1.660370 0.000000 
#    z 0.010700 0.000000 1.740810 
# 
# From -- ./inp_files/55202.got.cif
#   From: 2010.05.17/outbox.ucp.g08.bks.cvg/sg10_28_cif.got.tgz:55202.got - 2010.06.11 11:31:16.
