data_PCOD9155709
_publ_section_title
;
Structure prediction by ZEFSAII (Michael W. Deem and Ramdas Pophale) SiO2 
 PCOD9155709
Probable space group: P 2/M
;
_chemical_formula_sum "Si O2"
_cell_formula_units_Z 32
_cell_length_a 15.000000
_cell_length_b 9.000000
_cell_length_c 27.000000
_cell_angle_alpha 90.000000
_cell_angle_beta 30.000000
_cell_angle_gamma 90.000000
_cell_volume 1822.500000
_symmetry_space_group_name_H-M "P 2/M"
_symmetry_group_IT_number 10
_symmetry_cell_setting 'monoclinic'
loop_
_space_group_symop_operation_xyz
x,y,z
-x,y,-z
-x,-y,-z
x,-y,z
loop_
_atom_site_type_symbol
_atom_site_label
_atom_site_fract_x
_atom_site_fract_y
_atom_site_fract_z
Si Si1 0.306862 0.320573 0.847712
Si Si2 0.011873 0.828788 0.819887
Si Si3 0.690161 0.825021 0.649442
Si Si4 0.985484 0.673787 0.687245
Si Si5 0.294008 0.821701 0.602573
Si Si6 0.698749 0.826123 0.889743
Si Si7 0.011614 0.823746 0.571903
Si Si8 0.019996 0.676923 0.062974
O O1 0.319368 0.500000 0.841198
O O2 0.504414 0.258063 0.746162
O O3 0.163744 0.272333 0.874682
O O4 0.199831 0.271658 0.948650
O O5 0.193269 0.792567 0.702945
O O6 0.841081 0.817403 0.866039
O O7 0.983037 0.724063 0.879559
O O8 0.024193 0.000000 0.830306
O O9 0.837664 0.802972 0.621326
O O10 0.805933 0.788093 0.545033
O O11 0.650114 0.000000 0.666877
O O12 0.993243 0.500000 0.692619
O O13 0.801106 0.737298 0.798083
O O14 0.993073 0.718523 0.627003
O O15 0.158262 0.749292 0.629174
O O16 0.500000 0.772808 0.500000
O O17 0.290902 0.000000 0.596660
O O18 0.684342 0.000000 0.882341
O O19 0.500000 0.775206 0.000000
O O20 0.017784 0.000000 0.582177
O O21 0.019998 0.500000 0.057547
#
# Coordination Sequence:
#
# PCOD9155709 Si02
#       8
#     4   4   4   4   4   4   4   4
#     4   9  19  35  52  72 102 137 169 203 250 306
#     4   9  18  32  52  78 101 126 168 216 257 296
#     4   9  19  35  56  78  98 129 173 215 252 294
#     4  11  22  34  52  80 109 136 170 212 257 306
#     4   9  19  37  57  75 101 138 175 213 259 308
#     4   9  19  37  57  75 101 138 175 213 259 308
#     4   9  19  37  55  73 103 138 170 206 253 307
#     4   9  19  35  51  69 101 142 170 196 249 311
#
# _framework density 17.558299000000002
#
# number of rings (size 3 to 8) (size 9 to 14) (size 15 to 20)
#    0.000    2.750    0.000    3.375    0.000    6.500 
#    0.000   10.000    0.000    0.000    0.000    0.000 
#    0.000    0.000    0.000    0.000    0.000    0.000 
#
# Total GULP energy -178216.698265 kJ/mol
# GULP energy per Si atom -5569.271821 kJ/mol
# Density = 1.751834 g / cm^3
# Si number density = 17.558299 Si / 1000 Ang^3
#
#
#
# Elastic Constant Matrix: (Units=GPa)
#
#
# Indices 1 2 3 4 5 6 
#
# 1 21.9589 30.7675 48.5707 0.0000 2.6066 0.0000
# 2 30.7675 17.7228 55.7031 0.0000 4.2931 0.0000
# 3 48.5707 55.7031 162.4739 0.0000 -29.3160 0.0000
# 4 0.0000 0.0000 0.0000 24.2369 0.0000 3.2243
# 5 2.6066 4.2931 -29.3160 0.0000 22.6309 0.0000
# 6 0.0000 0.0000 0.0000 3.2243 0.0000 24.8742
#
#
#
# Elastic Compliance Matrix: (Units=1/GPa)
#
#
# Indices 1 2 3 4 5 6 
#
# 1 0.602663 0.214416 -0.356975 0.000000 -0.572514 0.000000
# 2 0.214416 0.000752 -0.089836 0.000000 -0.141212 0.000000
# 3 -0.356975 -0.089836 0.201189 0.000000 0.318778 0.000000
# 4 0.000000 0.000000 0.000000 0.041983 0.000000 -0.005442
# 5 -0.572514 -0.141212 0.318778 0.000000 0.549860 0.000000
# 6 0.000000 0.000000 0.000000 -0.005442 0.000000 0.040908
#
#
# Mechanical properties :
#
#
# Convention : Reuss Voigt Hill
#
# Bulk Modulus (GPa) = 2.94279 52.47091 27.70685
# Shear Modulus (GPa) = 2.48088 18.82268 10.65178
#
# Velocity S-wave (km/s) = 1.18996 3.27771 2.46570
# Velocity P-wave (km/s) = 1.88882 6.65381 4.89085
#
# Compressibility (1/GPa) = 0.33981374
#
# Stress axis : x y z
#
# Youngs Moduli (GPa) = 1.65930 1329.12726 4.97045
#
# Poissons Ratio (x) = -284.98652 1.77433
# Poissons Ratio (y) = -0.35578 0.44653
# Poissons Ratio (z) = 0.59233 119.40367
#
# Static dielectric constant tensor:
#      x y z
#    x 1.556040 0.000000 0.001360 
#    y 0.000000 1.592600 0.000000 
#    z 0.001360 0.000000 1.571250 
# 
# From -- ./inp_files/72214.got.cif
#   From: 2010.05.17/outbox.ucp.g08.bks.cvg/sg10_37_cif.got.tgz:72214.got - 2010.06.11 11:31:16.
