data_PCOD9155180
_publ_section_title
;
Structure prediction by ZEFSAII (Michael W. Deem and Ramdas Pophale) SiO2 
 PCOD9155180
Probable space group: P 2/M
;
_chemical_formula_sum "Si O2"
_cell_formula_units_Z 32
_cell_length_a 21.000000
_cell_length_b 9.000000
_cell_length_c 12.000000
_cell_angle_alpha 90.000000
_cell_angle_beta 50.000000
_cell_angle_gamma 90.000000
_cell_volume 1737.388797
_symmetry_space_group_name_H-M "P 2/M"
_symmetry_group_IT_number 10
_symmetry_cell_setting 'monoclinic'
loop_
_space_group_symop_operation_xyz
x,y,z
-x,y,-z
-x,-y,-z
x,-y,z
loop_
_atom_site_type_symbol
_atom_site_label
_atom_site_fract_x
_atom_site_fract_y
_atom_site_fract_z
Si Si1 0.731439 0.680880 0.644213
Si Si2 0.420182 0.819701 0.331418
Si Si3 0.891899 0.820907 0.342053
Si Si4 0.400648 0.679273 0.831230
Si Si5 0.166474 0.822248 0.841711
Si Si6 0.757470 0.181462 0.862035
Si Si7 0.651816 0.322802 0.364384
Si Si8 0.919167 0.820772 0.827899
O O1 0.726196 0.500000 0.651180
O O2 0.648447 0.749500 0.677314
O O3 0.813619 0.736077 0.484568
O O4 0.744330 0.747382 0.754291
O O5 0.514088 0.752667 0.217487
O O6 0.390328 0.768028 0.488019
O O7 0.420598 0.000000 0.320921
O O8 0.883263 0.798078 0.217919
O O9 0.983212 0.773615 0.286235
O O10 0.882907 0.000000 0.371581
O O11 0.401162 0.500000 0.850178
O O12 0.391129 0.701802 0.707911
O O13 0.319005 0.754787 0.978041
O O14 0.252631 0.732138 0.746674
O O15 0.185059 0.000000 0.826220
O O16 0.114876 0.782693 0.010461
O O17 0.847148 0.223099 0.819012
O O18 0.753816 0.000000 0.861220
O O19 0.647895 0.500000 0.392501
O O20 0.922273 0.000000 0.817785
#
# Coordination Sequence:
#
# PCOD9155180 Si02
#       8
#     4   4   4   4   4   4   4   4
#     4  12  26  44  63  87 123 163 206 259 317 370
#     4  12  25  42  66  94 122 160 209 256 302 364
#     4  10  20  37  63  94 126 163 207 253 302 365
#     4  11  24  42  64  94 130 165 199 247 310 370
#     4  10  18  33  61  93 126 163 204 248 301 363
#     4  11  23  42  66  91 121 162 214 261 302 359
#     4  11  22  37  61  93 132 167 197 242 307 370
#     4   9  19  36  62  95 127 161 205 255 304 356
#
# _framework density 18.418444999999998
#
# number of rings (size 3 to 8) (size 9 to 14) (size 15 to 20)
#    0.000    1.250    2.500    4.125    0.000    5.500 
#    0.000    6.875    0.000    1.500    0.000    0.000 
#    0.000    0.000    0.000    0.000    0.000    0.000 
#
# Total GULP energy -178735.027840 kJ/mol
# GULP energy per Si atom -5585.469620 kJ/mol
# Density = 1.837652 g / cm^3
# Si number density = 18.418445 Si / 1000 Ang^3
#
#
#
# Elastic Constant Matrix: (Units=GPa)
#
#
# Indices 1 2 3 4 5 6 
#
# 1 192.8890 63.8669 59.0338 0.0000 -11.3692 0.0000
# 2 63.8669 119.7231 32.5249 0.0000 0.1877 0.0000
# 3 59.0338 32.5249 66.4681 0.0000 1.0068 0.0000
# 4 0.0000 0.0000 0.0000 29.4287 0.0000 2.3877
# 5 -11.3692 0.1877 1.0068 0.0000 45.3173 0.0000
# 6 0.0000 0.0000 0.0000 2.3877 0.0000 31.4305
#
#
#
# Elastic Compliance Matrix: (Units=1/GPa)
#
#
# Indices 1 2 3 4 5 6 
#
# 1 0.007974 -0.002681 -0.005803 0.000000 0.002141 0.000000
# 2 -0.002681 0.010535 -0.002764 0.000000 -0.000655 0.000000
# 3 -0.005803 -0.002764 0.021580 0.000000 -0.001924 0.000000
# 4 0.000000 0.000000 0.000000 0.034191 0.000000 -0.002597
# 5 0.002141 -0.000655 -0.001924 0.000000 0.022649 0.000000
# 6 0.000000 0.000000 0.000000 -0.002597 0.000000 0.032014
#
#
# Mechanical properties :
#
#
# Convention : Reuss Voigt Hill
#
# Bulk Modulus (GPa) = 56.83870 76.65904 66.74887
# Shear Modulus (GPa) = 31.78584 36.14560 33.96572
#
# Velocity S-wave (km/s) = 4.15874 4.43478 4.29897
# Velocity P-wave (km/s) = 7.34757 8.24222 7.80772
#
# Compressibility (1/GPa) = 0.01759365
#
# Stress axis : x y z
#
# Youngs Moduli (GPa) = 125.40661 94.92531 46.33849
#
# Poissons Ratio (x) = 0.25447 0.26890
# Poissons Ratio (y) = 0.33618 0.12809
# Poissons Ratio (z) = 0.72772 0.26238
#
# Static dielectric constant tensor:
#      x y z
#    x 1.633630 0.000000 0.001700 
#    y 0.000000 1.618320 0.000000 
#    z 0.001700 0.000000 1.649460 
# 
# From -- ./inp_files/55184.got.cif
#   From: 2010.05.17/outbox.ucp.g08.bks.cvg/sg10_28_cif.got.tgz:55184.got - 2010.06.11 11:31:16.
