data_PCOD9155130
_publ_section_title
;
Structure prediction by ZEFSAII (Michael W. Deem and Ramdas Pophale) SiO2 
 PCOD9155130
Probable space group: P 2/M
;
_chemical_formula_sum "Si O2"
_cell_formula_units_Z 28
_cell_length_a 9.000000
_cell_length_b 9.000000
_cell_length_c 30.000000
_cell_angle_alpha 90.000000
_cell_angle_beta 40.000000
_cell_angle_gamma 90.000000
_cell_volume 1561.973892
_symmetry_space_group_name_H-M "P 2/M"
_symmetry_group_IT_number 10
_symmetry_cell_setting 'monoclinic'
loop_
_space_group_symop_operation_xyz
x,y,z
-x,y,-z
-x,-y,-z
x,-y,z
loop_
_atom_site_type_symbol
_atom_site_label
_atom_site_fract_x
_atom_site_fract_y
_atom_site_fract_z
Si Si1 0.258925 0.680860 0.928480
Si Si2 0.691130 0.320970 0.355638
Si Si3 0.879291 0.679780 0.215402
Si Si4 0.964039 0.820562 0.651200
Si Si5 0.675953 0.172961 0.501954
Si Si6 0.396849 0.318569 0.071551
Si Si7 0.468650 0.679765 0.784515
O O1 0.251754 0.500000 0.929264
O O2 0.430945 0.725022 0.928448
O O3 0.360356 0.725222 0.857110
O O4 0.000000 0.731623 0.000000
O O5 0.697653 0.500000 0.356501
O O6 0.768610 0.273095 0.288090
O O7 0.442602 0.264549 0.431048
O O8 0.876239 0.251066 0.347205
O O9 0.893647 0.500000 0.214776
O O10 0.711965 0.715417 0.212961
O O11 0.138338 0.732264 0.143861
O O12 0.709054 0.758522 0.717802
O O13 0.081181 0.780160 0.576391
O O14 0.972210 0.000000 0.652449
O O15 0.500000 0.181399 0.500000
O O16 0.690117 0.000000 0.511915
O O17 0.390267 0.500000 0.071612
O O18 0.500000 0.270659 0.000000
O O19 0.503329 0.500000 0.777667
#
# Coordination Sequence:
#
# PCOD9155130 Si02
#       7
#     4   4   4   4   4   4   4
#     4   9  16  26  44  72 101 129 163 202 245 291
#     4  10  18  30  51  76 100 127 162 204 249 297
#     4   9  18  30  44  69 102 131 162 203 247 288
#     4  10  20  34  51  72  99 129 164 206 249 295
#     4   8  16  31  49  70  97 127 161 203 247 293
#     4   9  15  24  40  64  98 134 162 194 240 291
#     4  10  19  32  50  71  99 133 168 206 245 290
#
# _framework density 17.926036
#
# number of rings (size 3 to 8) (size 9 to 14) (size 15 to 20)
#    0.000    2.714    0.000    3.429    0.000    8.857 
#    0.000    2.143    0.000    4.714    0.000    0.000 
#    0.000    6.857    0.000    0.000    0.000    0.000 
#
# Total GULP energy -156047.237764 kJ/mol
# GULP energy per Si atom -5573.115634 kJ/mol
# Density = 1.788524 g / cm^3
# Si number density = 17.926036 Si / 1000 Ang^3
#
#
#
# Elastic Constant Matrix: (Units=GPa)
#
#
# Indices 1 2 3 4 5 6 
#
# 1 105.7552 25.6015 106.0565 0.0000 9.1127 0.0000
# 2 25.6015 29.5647 42.4463 0.0000 1.3978 0.0000
# 3 106.0565 42.4463 240.9984 0.0000 7.3235 0.0000
# 4 0.0000 0.0000 0.0000 15.0368 0.0000 -6.0574
# 5 9.1127 1.3978 7.3235 0.0000 32.9151 0.0000
# 6 0.0000 0.0000 0.0000 -6.0574 0.0000 2.9943
#
#
#
# Elastic Compliance Matrix: (Units=1/GPa)
#
#
# Indices 1 2 3 4 5 6 
#
# 1 0.017900 -0.005594 -0.006795 0.000000 -0.003206 0.000000
# 2 -0.005594 0.047021 -0.005846 0.000000 0.000853 0.000000
# 3 -0.006795 -0.005846 0.008160 0.000000 0.000314 0.000000
# 4 0.000000 0.000000 0.000000 0.359307 0.000000 0.726855
# 5 -0.003206 0.000853 0.000314 0.000000 0.031163 0.000000
# 6 0.000000 0.000000 0.000000 0.726855 0.000000 1.804347
#
#
# Mechanical properties :
#
#
# Convention : Reuss Voigt Hill
#
# Bulk Modulus (GPa) = 27.31364 80.50299 53.90831
# Shear Modulus (GPa) = 2.15836 23.67019 12.91428
#
# Velocity S-wave (km/s) = 1.09848 3.63772 2.68698
# Velocity P-wave (km/s) = 4.10838 7.91517 6.30590
#
# Compressibility (1/GPa) = 0.03661175
#
# Stress axis : x y z
#
# Youngs Moduli (GPa) = 55.86453 21.26724 122.55416
#
# Poissons Ratio (x) = 0.11897 0.83273
# Poissons Ratio (y) = 0.31250 0.71643
# Poissons Ratio (z) = 0.37959 0.12432
#
# Static dielectric constant tensor:
#      x y z
#    x 1.609160 0.000000 -0.010660 
#    y 0.000000 1.593900 0.000000 
#    z -0.010660 0.000000 1.629710 
# 
# From -- ./inp_files/94497.got.cif
#   From: 2010.05.17/outbox.ucp.g08.bks.cvg/sg10_48_cif.got.tgz:94497.got - 2010.06.11 11:31:16.
