data_PCOD9155541
_publ_section_title
;
Structure prediction by ZEFSAII (Michael W. Deem and Ramdas Pophale) SiO2 
 PCOD9155541
Probable space group: P 2/M
;
_chemical_formula_sum "Si O2"
_cell_formula_units_Z 28
_cell_length_a 27.000000
_cell_length_b 9.000000
_cell_length_c 9.000000
_cell_angle_alpha 90.000000
_cell_angle_beta 40.000000
_cell_angle_gamma 90.000000
_cell_volume 1405.776502
_symmetry_space_group_name_H-M "P 2/M"
_symmetry_group_IT_number 10
_symmetry_cell_setting 'monoclinic'
loop_
_space_group_symop_operation_xyz
x,y,z
-x,y,-z
-x,-y,-z
x,-y,z
loop_
_atom_site_type_symbol
_atom_site_label
_atom_site_fract_x
_atom_site_fract_y
_atom_site_fract_z
Si Si1 0.641928 0.677123 0.446509
Si Si2 0.484987 0.827894 0.855813
Si Si3 0.930759 0.170331 0.473682
Si Si4 0.141959 0.830806 0.681637
Si Si5 0.209770 0.177953 0.998329
Si Si6 0.090705 0.327303 0.068578
Si Si7 0.679525 0.177773 0.678534
O O1 0.644596 0.500000 0.435705
O O2 0.554313 0.734355 0.624781
O O3 0.667556 0.735691 0.551447
O O4 0.706586 0.747245 0.189920
O O5 0.493227 0.000000 0.791565
O O6 0.500000 0.820670 0.000000
O O7 0.394847 0.783043 0.047942
O O8 0.902596 0.166513 0.370063
O O9 0.854247 0.224534 0.734081
O O10 0.009094 0.262492 0.310411
O O11 0.945669 0.000000 0.487267
O O12 0.234102 0.799864 0.457719
O O13 0.134582 0.000000 0.762427
O O14 0.099156 0.707246 0.876094
O O15 0.163906 0.234215 0.959440
O O16 0.218627 0.000000 0.979975
O O17 0.097935 0.500000 0.088721
O O18 0.671849 0.000000 0.665776
#
# Coordination Sequence:
#
# PCOD9155541 Si02
#       7
#     4   4   4   4   4   4   4
#     4  11  20  30  49  79 110 139 176 219 269 322
#     4   8  15  28  47  74 106 139 175 214 263 315
#     4  10  23  40  58  80 105 142 186 224 269 321
#     4  10  20  37  60  82 108 142 181 223 267 319
#     4  11  22  38  58  78 106 143 184 228 269 315
#     4  12  24  37  56  83 110 140 179 223 273 325
#     4   9  17  31  53  78 106 141 176 216 266 317
#
# _framework density 19.917818
#
# number of rings (size 3 to 8) (size 9 to 14) (size 15 to 20)
#    0.000    1.857    1.429    4.714    0.000    7.714 
#    0.000    0.000    0.000    0.857    0.000    6.000 
#    0.000    0.000    0.000    0.000    0.000    0.000 
#
# Total GULP energy -156170.795300 kJ/mol
# GULP energy per Si atom -5577.528404 kJ/mol
# Density = 1.987248 g / cm^3
# Si number density = 19.917818 Si / 1000 Ang^3
#
#
#
# Elastic Constant Matrix: (Units=GPa)
#
#
# Indices 1 2 3 4 5 6 
#
# 1 23.8669 5.4628 14.6062 0.0000 -12.6525 0.0000
# 2 5.4628 68.6712 50.9414 0.0000 -25.1675 0.0000
# 3 14.6062 50.9414 134.3504 0.0000 -41.4908 0.0000
# 4 0.0000 0.0000 0.0000 7.5150 0.0000 -13.0926
# 5 -12.6525 -25.1675 -41.4908 0.0000 34.2522 0.0000
# 6 0.0000 0.0000 0.0000 -13.0926 0.0000 1.5709
#
#
#
# Elastic Compliance Matrix: (Units=1/GPa)
#
#
# Indices 1 2 3 4 5 6 
#
# 1 0.052936 0.004285 -0.000589 0.000000 0.021989 0.000000
# 2 0.004285 0.022469 -0.005429 0.000000 0.011516 0.000000
# 3 -0.000589 -0.005429 0.013207 0.000000 0.011792 0.000000
# 4 0.000000 0.000000 0.000000 -0.009842 0.000000 -0.082029
# 5 0.021989 0.011516 0.011792 0.000000 0.060064 0.000000
# 6 0.000000 0.000000 0.000000 -0.082029 0.000000 -0.047083
#
#
# Mechanical properties :
#
#
# Convention : Reuss Voigt Hill
#
# Bulk Modulus (GPa) = 11.74457 40.98993 26.36725
# Shear Modulus (GPa) = 40.45362 19.05949 29.75655
#
# Velocity S-wave (km/s) = 4.51158 3.09675 3.86938
# Velocity P-wave (km/s) = 5.74878 5.78019 5.76451
#
# Compressibility (1/GPa) = 0.08514571
#
# Stress axis : x y z
#
# Youngs Moduli (GPa) = 18.89087 44.50551 75.71522
#
# Poissons Ratio (x) = -0.19068 0.04458
# Poissons Ratio (y) = -0.08094 0.41105
# Poissons Ratio (z) = 0.01112 0.24162
#
# Static dielectric constant tensor:
#      x y z
#    x 1.739650 0.000000 0.053650 
#    y 0.000000 1.683760 0.000000 
#    z 0.053650 0.000000 1.774200 
# 
# From -- ./inp_files/36967.got.cif
#   From: 2010.05.17/outbox.ucp.g08.bks.cvg/sg10_19_cif.got.tgz:36967.got - 2010.06.11 11:31:16.
