data_PCOD9155172
_publ_section_title
;
Structure prediction by ZEFSAII (Michael W. Deem and Ramdas Pophale) SiO2 
 PCOD9155172
Probable space group: P 2/M
;
_chemical_formula_sum "Si O2"
_cell_formula_units_Z 32
_cell_length_a 30.000000
_cell_length_b 9.000000
_cell_length_c 12.000000
_cell_angle_alpha 90.000000
_cell_angle_beta 30.000000
_cell_angle_gamma 90.000000
_cell_volume 1620.000000
_symmetry_space_group_name_H-M "P 2/M"
_symmetry_group_IT_number 10
_symmetry_cell_setting 'monoclinic'
loop_
_space_group_symop_operation_xyz
x,y,z
-x,y,-z
-x,-y,-z
x,-y,z
loop_
_atom_site_type_symbol
_atom_site_label
_atom_site_fract_x
_atom_site_fract_y
_atom_site_fract_z
Si Si1 0.496289 0.321914 0.378386
Si Si2 0.329845 0.169591 0.019170
Si Si3 0.956916 0.336312 0.472953
Si Si4 0.676859 0.675139 0.377505
Si Si5 0.754657 0.334368 0.982542
Si Si6 0.795766 0.676856 0.314498
Si Si7 0.015370 0.173681 0.140680
Si Si8 0.822601 0.175432 0.474870
O O1 0.500000 0.270979 0.500000
O O2 0.489863 0.500000 0.395732
O O3 0.412178 0.265239 0.488645
O O4 0.588484 0.272448 0.123382
O O5 0.304434 0.212731 0.948849
O O6 0.239038 0.192139 0.283995
O O7 0.357251 0.000000 0.970714
O O8 0.021413 0.500000 0.623715
O O9 0.852209 0.330039 0.721319
O O10 0.990195 0.206856 0.322481
O O11 0.000000 0.328724 0.500000
O O12 0.659342 0.500000 0.436321
O O13 0.720553 0.738392 0.393754
O O14 0.753154 0.683860 0.117676
O O15 0.715818 0.500000 0.044183
O O16 0.799215 0.500000 0.295917
O O17 0.776973 0.728144 0.479382
O O18 0.893653 0.741924 0.079244
O O19 0.925324 0.222311 0.271135
O O20 0.027701 0.000000 0.092025
O O21 0.823839 0.000000 0.443703
#
# Coordination Sequence:
#
# PCOD9155172 Si02
#       8
#     4   4   4   4   4   4   4   4
#     4  10  19  36  63  88 113 151 189 228 286 350
#     4  11  22  37  57  85 118 148 186 237 283 332
#     4  10  20  33  53  82 116 152 193 242 286 333
#     4   9  19  37  59  86 118 147 183 236 293 342
#     4  10  18  33  57  81 112 151 187 227 284 344
#     4  11  23  39  61  87 114 147 195 248 289 337
#     4  11  22  38  58  81 115 157 196 237 287 346
#     4  10  23  42  59  79 116 159 195 237 287 338
#
# _framework density 19.753086
#
# number of rings (size 3 to 8) (size 9 to 14) (size 15 to 20)
#    0.000    1.750    2.500    2.250    0.000    6.000 
#    0.000    4.375    0.000    3.750    0.000    0.000 
#    0.000    0.000    0.000    0.000    0.000    0.000 
#
# Total GULP energy -178353.771065 kJ/mol
# GULP energy per Si atom -5573.555346 kJ/mol
# Density = 1.970813 g / cm^3
# Si number density = 19.753086 Si / 1000 Ang^3
#
#
#
# Elastic Constant Matrix: (Units=GPa)
#
#
# Indices 1 2 3 4 5 6 
#
# 1 113.3140 48.9920 20.4464 0.0000 -7.4592 0.0000
# 2 48.9920 3.0855 22.9755 0.0000 -20.3475 0.0000
# 3 20.4464 22.9755 27.1469 0.0000 -20.0396 0.0000
# 4 0.0000 0.0000 0.0000 25.0140 0.0000 5.6741
# 5 -7.4592 -20.3475 -20.0396 0.0000 -0.8292 0.0000
# 6 0.0000 0.0000 0.0000 5.6741 0.0000 28.4928
#
#
#
# Elastic Compliance Matrix: (Units=1/GPa)
#
#
# Indices 1 2 3 4 5 6 
#
# 1 0.006275 0.012060 -0.014600 0.000000 0.000451 0.000000
# 2 0.012060 -0.040819 0.036347 0.000000 0.014744 0.000000
# 3 -0.014600 0.036347 -0.028894 0.000000 -0.062268 0.000000
# 4 0.000000 0.000000 0.000000 0.041869 0.000000 -0.008338
# 5 0.000451 0.014744 -0.062268 0.000000 -0.066987 0.000000
# 6 0.000000 0.000000 0.000000 -0.008338 0.000000 0.036757
#
#
# Mechanical properties :
#
#
# Convention : Reuss Voigt Hill
#
# Bulk Modulus (GPa) = 239.46191 36.48601 137.97396
# Shear Modulus (GPa) = -42.36506 13.94437 -14.21035
#
# Velocity S-wave (km/s) = -4.63615 2.65982 -2.68507
# Velocity P-wave (km/s) = 9.63495 5.28621 7.77098
#
# Compressibility (1/GPa) = 0.00417603
#
# Stress axis : x y z
#
# Youngs Moduli (GPa) = 159.36741 -24.49856 -34.60894
#
# Poissons Ratio (x) = 0.29546 -0.50529
# Poissons Ratio (y) = -1.92203 1.25792
# Poissons Ratio (z) = 2.32675 0.89044
#
# Static dielectric constant tensor:
#      x y z
#    x 1.735070 0.000000 0.002120 
#    y 0.000000 1.697010 0.000000 
#    z 0.002120 0.000000 1.713780 
# 
# From -- ./inp_files/58163.got.cif
#   From: 2010.05.17/outbox.ucp.g08.bks.cvg/sg10_30_cif.got.tgz:58163.got - 2010.06.11 11:31:16.
