data_PCOD9155700
_publ_section_title
;
Structure prediction by ZEFSAII (Michael W. Deem and Ramdas Pophale) SiO2 
 PCOD9155700
Probable space group: P 2/M
;
_chemical_formula_sum "Si O2"
_cell_formula_units_Z 28
_cell_length_a 9.000000
_cell_length_b 12.000000
_cell_length_c 21.000000
_cell_angle_alpha 90.000000
_cell_angle_beta 50.000000
_cell_angle_gamma 90.000000
_cell_volume 1737.388797
_symmetry_space_group_name_H-M "P 2/M"
_symmetry_group_IT_number 10
_symmetry_cell_setting 'monoclinic'
loop_
_space_group_symop_operation_xyz
x,y,z
-x,y,-z
-x,-y,-z
x,-y,z
loop_
_atom_site_type_symbol
_atom_site_label
_atom_site_fract_x
_atom_site_fract_y
_atom_site_fract_z
Si Si1 0.996467 0.773464 0.429414
Si Si2 0.318280 0.000000 0.634244
Si Si3 0.243154 0.000000 0.505721
Si Si4 0.574200 0.137963 0.730656
Si Si5 0.283297 0.364332 0.590752
Si Si6 0.830500 0.136103 0.903152
Si Si7 0.226267 0.215583 0.732835
Si Si8 0.473211 0.133403 0.905410
O O1 0.875750 0.887976 0.473430
O O2 0.876055 0.697492 0.411482
O O3 0.000000 0.720870 0.500000
O O4 0.212046 0.810868 0.345248
O O5 0.218917 0.107453 0.690143
O O6 0.290599 0.000000 0.567116
O O7 0.548273 0.000000 0.585806
O O8 0.411750 0.191913 0.728147
O O9 0.509792 0.166623 0.821623
O O10 0.578937 0.000000 0.724627
O O11 0.500000 0.340795 0.500000
O O12 0.259554 0.500000 0.597899
O O13 0.259628 0.313820 0.670070
O O14 0.665784 0.157167 0.894491
O O15 0.026223 0.204140 0.829744
O O16 0.869318 0.000000 0.894070
O O17 0.718817 0.168340 0.000457
O O18 0.456569 0.000000 0.908610
#
# Coordination Sequence:
#
# PCOD9155700 Si02
#       8
#     4   2   2   4   4   4   4   4
#     4  12  23  35  55  82 113 144 177 224 279 324
#     4  11  20  30  50  79 107 138 179 214 272 334
#     4  11  21  32  50  77 114 141 169 215 274 337
#     4  11  21  32  49  86 122 149 175 214 270 340
#     4  11  25  44  60  75 101 145 197 237 269 315
#     4   9  16  31  50  77 110 152 184 217 262 328
#     4  12  21  34  55  80 110 146 182 225 274 325
#     4   8  17  29  47  73 115 153 185 211 256 326
#
# _framework density 16.116139
#
# number of rings (size 3 to 8) (size 9 to 14) (size 15 to 20)
#    0.000    1.429    3.571    4.500    0.000    0.857 
#    0.000    2.857    0.000    0.000    0.000   10.000 
#    0.000    0.000    0.000    0.000    0.000    0.000 
#
# Total GULP energy -156003.790221 kJ/mol
# GULP energy per Si atom -5571.563936 kJ/mol
# Density = 1.607946 g / cm^3
# Si number density = 16.116139 Si / 1000 Ang^3
#
#
#
# Elastic Constant Matrix: (Units=GPa)
#
#
# Indices 1 2 3 4 5 6 
#
# 1 107.3425 30.6260 59.1537 0.0000 1.8932 0.0000
# 2 30.6260 69.1811 28.2139 0.0000 -1.4673 0.0000
# 3 59.1537 28.2139 154.1580 0.0000 -4.6551 0.0000
# 4 0.0000 0.0000 0.0000 29.5894 0.0000 -8.7593
# 5 1.8932 -1.4673 -4.6551 0.0000 42.8836 0.0000
# 6 0.0000 0.0000 0.0000 -8.7593 0.0000 32.5657
#
#
#
# Elastic Compliance Matrix: (Units=1/GPa)
#
#
# Indices 1 2 3 4 5 6 
#
# 1 0.012793 -0.003968 -0.004218 0.000000 -0.001158 0.000000
# 2 -0.003968 0.016854 -0.001544 0.000000 0.000584 0.000000
# 3 -0.004218 -0.001544 0.008420 0.000000 0.001047 0.000000
# 4 0.000000 0.000000 0.000000 0.036720 0.000000 0.009877
# 5 -0.001158 0.000584 0.001047 0.000000 0.023504 0.000000
# 6 0.000000 0.000000 0.000000 0.009877 0.000000 0.033364
#
#
# Mechanical properties :
#
#
# Convention : Reuss Voigt Hill
#
# Bulk Modulus (GPa) = 53.74539 62.96320 58.35430
# Shear Modulus (GPa) = 31.78353 35.18696 33.48524
#
# Velocity S-wave (km/s) = 4.44571 4.67769 4.56317
# Velocity P-wave (km/s) = 7.73134 8.26605 8.00316
#
# Compressibility (1/GPa) = 0.01860625
#
# Stress axis : x y z
#
# Youngs Moduli (GPa) = 78.16981 59.33474 118.77165
#
# Poissons Ratio (x) = 0.23542 0.50093
# Poissons Ratio (y) = 0.31016 0.18343
# Poissons Ratio (z) = 0.32969 0.09164
#
# Static dielectric constant tensor:
#      x y z
#    x 1.582980 0.000000 0.007430 
#    y 0.000000 1.520320 0.000000 
#    z 0.007430 0.000000 1.576670 
# 
# From -- ./inp_files/82465.got.cif
#   From: 2010.05.17/outbox.ucp.g08.bks.cvg/sg10_42_cif.got.tgz:82465.got - 2010.06.11 11:31:16.
