data_PCOD9155144
_publ_section_title
;
Structure prediction by ZEFSAII (Michael W. Deem and Ramdas Pophale) SiO2 
 PCOD9155144
Probable space group: P 2/M
;
_chemical_formula_sum "Si O2"
_cell_formula_units_Z 32
_cell_length_a 15.000000
_cell_length_b 9.000000
_cell_length_c 15.000000
_cell_angle_alpha 90.000000
_cell_angle_beta 60.000000
_cell_angle_gamma 90.000000
_cell_volume 1753.701443
_symmetry_space_group_name_H-M "P 2/M"
_symmetry_group_IT_number 10
_symmetry_cell_setting 'monoclinic'
loop_
_space_group_symop_operation_xyz
x,y,z
-x,y,-z
-x,-y,-z
x,-y,z
loop_
_atom_site_type_symbol
_atom_site_label
_atom_site_fract_x
_atom_site_fract_y
_atom_site_fract_z
Si Si1 0.813150 0.171418 0.752449
Si Si2 0.066113 0.827677 0.792744
Si Si3 0.849538 0.674598 0.914012
Si Si4 0.770703 0.823844 0.130280
Si Si5 0.058162 0.831690 0.596552
Si Si6 0.361532 0.821329 0.483525
Si Si7 0.600245 0.179515 0.340300
Si Si8 0.782470 0.673965 0.589611
O O1 0.797681 0.248258 0.854761
O O2 0.762371 0.252088 0.694696
O O3 0.936435 0.179055 0.672292
O O4 0.783703 0.000000 0.770654
O O5 0.148895 0.806690 0.828415
O O6 0.105563 0.809814 0.671808
O O7 0.969290 0.722035 0.853985
O O8 0.029329 0.000000 0.816290
O O9 0.840268 0.500000 0.910826
O O10 0.803825 0.734950 0.028067
O O11 0.662631 0.769841 0.223884
O O12 0.767383 0.000000 0.110861
O O13 0.105000 0.719165 0.503273
O O14 0.082271 0.000000 0.554125
O O15 0.350562 0.769350 0.591136
O O16 0.480195 0.789219 0.400462
O O17 0.290703 0.742530 0.448372
O O18 0.345859 0.000000 0.488102
O O19 0.610312 0.000000 0.337430
O O20 0.772000 0.500000 0.601271
#
# Coordination Sequence:
#
# PCOD9155144 Si02
#       8
#     4   4   4   4   4   4   4   4
#     4  10  21  38  56  71  93 132 177 216 251 290
#     4   9  18  32  51  74 102 137 174 210 246 290
#     4  11  22  34  48  71 104 137 169 209 255 300
#     4  10  18  31  52  76 101 133 174 212 248 294
#     4   9  18  33  52  74 100 133 173 211 247 290
#     4   9  17  34  57  79 103 132 168 208 249 292
#     4   8  16  32  57  82 101 128 170 214 247 286
#     4  12  23  32  48  77 108 136 165 201 251 306
#
# _framework density 18.247119999999999
#
# number of rings (size 3 to 8) (size 9 to 14) (size 15 to 20)
#    0.000    2.250    0.000    5.625    0.000    8.000 
#    0.000    3.750    0.000    0.750    0.000    5.250 
#    0.000    0.000    0.000    0.000    0.000    0.000 
#
# Total GULP energy -178547.028038 kJ/mol
# GULP energy per Si atom -5579.594626 kJ/mol
# Density = 1.820559 g / cm^3
# Si number density = 18.247120 Si / 1000 Ang^3
#
#
#
# Elastic Constant Matrix: (Units=GPa)
#
#
# Indices 1 2 3 4 5 6 
#
# 1 51.1623 36.2691 24.6120 0.0000 14.5803 0.0000
# 2 36.2691 91.3014 57.4310 0.0000 14.4654 0.0000
# 3 24.6120 57.4310 73.9508 0.0000 17.1021 0.0000
# 4 0.0000 0.0000 0.0000 96.1002 0.0000 10.4472
# 5 14.5803 14.4654 17.1021 0.0000 19.6028 0.0000
# 6 0.0000 0.0000 0.0000 10.4472 0.0000 -12.4015
#
#
#
# Elastic Compliance Matrix: (Units=1/GPa)
#
#
# Indices 1 2 3 4 5 6 
#
# 1 0.031159 -0.011019 0.002088 0.000000 -0.016866 0.000000
# 2 -0.011019 0.025351 -0.017025 0.000000 0.004341 0.000000
# 3 0.002088 -0.017025 0.029444 0.000000 -0.014677 0.000000
# 4 0.000000 0.000000 0.000000 0.009533 0.000000 0.008031
# 5 -0.016866 0.004341 -0.014677 0.000000 0.073159 0.000000
# 6 0.000000 0.000000 0.000000 0.008031 0.000000 -0.073871
#
#
# Mechanical properties :
#
#
# Convention : Reuss Voigt Hill
#
# Bulk Modulus (GPa) = 29.37547 50.33764 39.85656
# Shear Modulus (GPa) = 31.63865 27.20047 29.41956
#
# Velocity S-wave (km/s) = 4.16853 3.86511 4.01968
# Velocity P-wave (km/s) = 6.26917 6.89676 6.59044
#
# Compressibility (1/GPa) = 0.03404201
#
# Stress axis : x y z
#
# Youngs Moduli (GPa) = 32.09329 39.44602 33.96317
#
# Poissons Ratio (x) = 0.43465 -0.07090
# Poissons Ratio (y) = 0.35363 0.57821
# Poissons Ratio (z) = -0.06700 0.67156
#
# Static dielectric constant tensor:
#      x y z
#    x 1.667420 0.000000 -0.029870 
#    y 0.000000 1.608250 0.000000 
#    z -0.029870 0.000000 1.658800 
# 
# From -- ./inp_files/66478.got.cif
#   From: 2010.05.17/outbox.ucp.g08.bks.cvg/sg10_34_cif.got.tgz:66478.got - 2010.06.11 11:31:16.
