data_PCOD9155183
_publ_section_title
;
Structure prediction by ZEFSAII (Michael W. Deem and Ramdas Pophale) SiO2 
 PCOD9155183
Probable space group: P 2/M
;
_chemical_formula_sum "Si O2"
_cell_formula_units_Z 32
_cell_length_a 21.000000
_cell_length_b 9.000000
_cell_length_c 15.000000
_cell_angle_alpha 90.000000
_cell_angle_beta 140.000000
_cell_angle_gamma 90.000000
_cell_volume 1822.302873
_symmetry_space_group_name_H-M "P 2/M"
_symmetry_group_IT_number 10
_symmetry_cell_setting 'monoclinic'
loop_
_space_group_symop_operation_xyz
x,y,z
-x,y,-z
-x,-y,-z
x,-y,z
loop_
_atom_site_type_symbol
_atom_site_label
_atom_site_fract_x
_atom_site_fract_y
_atom_site_fract_z
Si Si1 0.966793 0.678222 0.662115
Si Si2 0.169217 0.819979 0.628254
Si Si3 0.110415 0.179535 0.090834
Si Si4 0.835894 0.820725 0.051119
Si Si5 0.741294 0.676318 0.107011
Si Si6 0.338134 0.822290 0.666664
Si Si7 0.542151 0.173187 0.945093
Si Si8 0.818665 0.821941 0.643254
O O1 0.974460 0.500000 0.664293
O O2 0.920734 0.748444 0.523154
O O3 0.896087 0.727948 0.668386
O O4 0.068623 0.757135 0.795665
O O5 0.183978 0.752519 0.741687
O O6 0.265015 0.777894 0.669051
O O7 0.162166 0.000000 0.623442
O O8 0.176985 0.213931 0.248133
O O9 0.103402 0.000000 0.076583
O O10 0.150994 0.227597 0.038207
O O11 0.000000 0.232673 0.000000
O O12 0.749860 0.748256 0.017986
O O13 0.831615 0.000000 0.050100
O O14 0.756736 0.500000 0.120747
O O15 0.635139 0.722887 0.031675
O O16 0.449165 0.766909 0.789580
O O17 0.284481 0.794008 0.516209
O O18 0.346840 0.000000 0.687024
O O19 0.568630 0.000000 0.952234
O O20 0.500000 0.171795 0.000000
O O21 0.842387 0.000000 0.658317
#
# Coordination Sequence:
#
# PCOD9155183 Si02
#       8
#     4   4   4   4   4   4   4   4
#     4  11  21  33  50  80 115 145 177 221 267 320
#     4  10  19  36  57  78 105 146 187 219 259 318
#     4   9  16  30  56  85 106 133 184 237 269 309
#     4  11  22  38  57  76 104 148 189 225 271 325
#     4  12  25  38  52  79 113 143 178 227 279 328
#     4   8  15  28  53  82 106 134 174 224 264 310
#     4  10  18  34  57  81 107 141 186 224 262 323
#     4   9  16  31  54  81 110 142 180 224 273 320
#
# _framework density 17.560198
#
# number of rings (size 3 to 8) (size 9 to 14) (size 15 to 20)
#    0.000    2.000    2.500    3.750    0.000    0.750 
#    0.000    5.000    0.000    0.750    0.000    5.250 
#    0.000    0.000    0.000    0.000    0.000    0.000 
#
# Total GULP energy -178391.851879 kJ/mol
# GULP energy per Si atom -5574.745371 kJ/mol
# Density = 1.752023 g / cm^3
# Si number density = 17.560198 Si / 1000 Ang^3
#
#
#
# Elastic Constant Matrix: (Units=GPa)
#
#
# Indices 1 2 3 4 5 6 
#
# 1 81.8247 26.6644 40.5852 0.0000 -27.6792 0.0000
# 2 26.6644 77.7728 18.3888 0.0000 -9.7244 0.0000
# 3 40.5852 18.3888 79.8817 0.0000 -18.0213 0.0000
# 4 0.0000 0.0000 0.0000 8.8159 0.0000 -5.3213
# 5 -27.6792 -9.7244 -18.0213 0.0000 28.2095 0.0000
# 6 0.0000 0.0000 0.0000 -5.3213 0.0000 5.1661
#
#
#
# Elastic Compliance Matrix: (Units=1/GPa)
#
#
# Indices 1 2 3 4 5 6 
#
# 1 0.022402 -0.004044 -0.006784 0.000000 0.016253 0.000000
# 2 -0.004044 0.014571 -0.001240 0.000000 0.000262 0.000000
# 3 -0.006784 -0.001240 0.017120 0.000000 0.003853 0.000000
# 4 0.000000 0.000000 0.000000 0.299879 0.000000 0.308889
# 5 0.016253 0.000262 0.003853 0.000000 0.053948 0.000000
# 6 0.000000 0.000000 0.000000 0.308889 0.000000 0.511740
#
#
# Mechanical properties :
#
#
# Convention : Reuss Voigt Hill
#
# Bulk Modulus (GPa) = 33.38300 45.63954 39.51127
# Shear Modulus (GPa) = 5.24229 18.69435 11.96832
#
# Velocity S-wave (km/s) = 1.72968 3.26634 2.61350
# Velocity P-wave (km/s) = 4.80010 6.34603 5.62641
#
# Compressibility (1/GPa) = 0.02995536
#
# Stress axis : x y z
#
# Youngs Moduli (GPa) = 44.63881 68.63139 58.41140
#
# Poissons Ratio (x) = 0.27757 0.39627
# Poissons Ratio (y) = 0.18053 0.07244
# Poissons Ratio (z) = 0.30283 0.08512
#
# Static dielectric constant tensor:
#      x y z
#    x 1.646870 0.000000 0.039050 
#    y 0.000000 1.581030 0.000000 
#    z 0.039050 0.000000 1.668630 
# 
# From -- ./inp_files/70051.got.cif
#   From: 2010.05.17/outbox.ucp.g08.bks.cvg/sg10_36_cif.got.tgz:70051.got - 2010.06.11 11:31:16.
