data_PCOD9155686
_publ_section_title
;
Structure prediction by ZEFSAII (Michael W. Deem and Ramdas Pophale) SiO2 
 PCOD9155686
Probable space group: P 2/M
;
_chemical_formula_sum "Si O2"
_cell_formula_units_Z 28
_cell_length_a 27.000000
_cell_length_b 9.000000
_cell_length_c 9.000000
_cell_angle_alpha 90.000000
_cell_angle_beta 40.000000
_cell_angle_gamma 90.000000
_cell_volume 1405.776502
_symmetry_space_group_name_H-M "P 2/M"
_symmetry_group_IT_number 10
_symmetry_cell_setting 'monoclinic'
loop_
_space_group_symop_operation_xyz
x,y,z
-x,y,-z
-x,-y,-z
x,-y,z
loop_
_atom_site_type_symbol
_atom_site_label
_atom_site_fract_x
_atom_site_fract_y
_atom_site_fract_z
Si Si1 0.114596 0.173268 0.441079
Si Si2 0.311826 0.320235 0.512014
Si Si3 0.555150 0.181569 0.594409
Si Si4 0.263529 0.821037 0.305001
Si Si5 0.165502 0.176443 0.979744
Si Si6 0.970500 0.676553 0.900702
Si Si7 0.594915 0.319864 0.180946
O O1 0.180506 0.199890 0.415241
O O2 0.141537 0.189829 0.208115
O O3 0.043706 0.281977 0.631967
O O4 0.090024 0.000000 0.514574
O O5 0.319362 0.500000 0.483458
O O6 0.390126 0.247342 0.400925
O O7 0.281982 0.249112 0.424502
O O8 0.243163 0.270743 0.779692
O O9 0.584256 0.245793 0.368069
O O10 0.468473 0.249250 0.787027
O O11 0.554864 0.000000 0.597110
O O12 0.276768 0.000000 0.279468
O O13 0.323136 0.734789 0.063506
O O14 0.101701 0.237495 0.008632
O O15 0.178599 0.000000 0.920375
O O16 0.953782 0.500000 0.940659
O O17 0.000000 0.719026 0.000000
O O18 0.587276 0.500000 0.205262
#
# Coordination Sequence:
#
# PCOD9155686 Si02
#       7
#     4   4   4   4   4   4   4
#     4  10  23  41  63  89 118 155 201 248 295 356
#     4  12  25  41  61  90 124 158 201 254 309 361
#     4  11  22  40  64  90 121 162 207 249 300 365
#     4  11  23  41  63  89 122 162 204 248 304 368
#     4  11  23  41  64  90 120 157 202 248 299 363
#     4  11  24  40  60  89 124 159 198 246 300 356
#     4  11  22  39  63  93 125 159 201 253 307 357
#
# _framework density 19.917818
#
# number of rings (size 3 to 8) (size 9 to 14) (size 15 to 20)
#    0.000    1.000    0.000    8.143    0.000    9.143 
#    0.000    2.857    0.000    0.000    0.000    0.000 
#    0.000    0.000    0.000    0.000    0.000    0.000 
#
# Total GULP energy -156456.033435 kJ/mol
# GULP energy per Si atom -5587.715480 kJ/mol
# Density = 1.987248 g / cm^3
# Si number density = 19.917818 Si / 1000 Ang^3
#
#
#
# Elastic Constant Matrix: (Units=GPa)
#
#
# Indices 1 2 3 4 5 6 
#
# 1 116.8084 33.1911 -21.9526 0.0000 -5.3963 0.0000
# 2 33.1911 149.8740 -0.0041 0.0000 -7.2072 0.0000
# 3 -21.9526 -0.0041 19.1062 0.0000 -5.1926 0.0000
# 4 0.0000 0.0000 0.0000 32.5700 0.0000 -1.9385
# 5 -5.3963 -7.2072 -5.1926 0.0000 34.3505 0.0000
# 6 0.0000 0.0000 0.0000 -1.9385 0.0000 33.5408
#
#
#
# Elastic Compliance Matrix: (Units=1/GPa)
#
#
# Indices 1 2 3 4 5 6 
#
# 1 0.012299 -0.002546 0.015132 0.000000 0.003685 0.000000
# 2 -0.002546 0.007270 -0.002730 0.000000 0.000713 0.000000
# 3 0.015132 -0.002730 0.073223 0.000000 0.012873 0.000000
# 4 0.000000 0.000000 0.000000 0.030809 0.000000 0.001781
# 5 0.003685 0.000713 0.012873 0.000000 0.031786 0.000000
# 6 0.000000 0.000000 0.000000 0.001781 0.000000 0.029917
#
#
# Mechanical properties :
#
#
# Convention : Reuss Voigt Hill
#
# Bulk Modulus (GPa) = 8.88860 34.25081 21.56971
# Shear Modulus (GPa) = 24.61912 38.39590 31.50751
#
# Velocity S-wave (km/s) = 3.51954 4.39534 3.98159
# Velocity P-wave (km/s) = 4.58133 6.55683 5.65600
#
# Compressibility (1/GPa) = 0.11250359
#
# Stress axis : x y z
#
# Youngs Moduli (GPa) = 81.31041 137.54577 13.65688
#
# Poissons Ratio (x) = 0.35019 -0.20665
# Poissons Ratio (y) = 0.20702 0.03728
# Poissons Ratio (z) = -1.23037 0.37550
#
# Static dielectric constant tensor:
#      x y z
#    x 1.685400 0.000000 0.005180 
#    y 0.000000 1.666040 0.000000 
#    z 0.005180 0.000000 1.771850 
# 
# From -- ./inp_files/37108.got.cif
#   From: 2010.05.17/outbox.ucp.g08.bks.cvg/sg10_19_cif.got.tgz:37108.got - 2010.06.11 11:31:16.
