data_PCOD9155036
_publ_section_title
;
Structure prediction by ZEFSAII (Michael W. Deem and Ramdas Pophale) SiO2 
 PCOD9155036
Probable space group: P 2/M
;
_chemical_formula_sum "Si O2"
_cell_formula_units_Z 32
_cell_length_a 27.178904
_cell_length_b 7.357904
_cell_length_c 21.585565
_cell_angle_alpha 90.000000
_cell_angle_beta 159.270638
_cell_angle_gamma 90.000000
_cell_volume 1527.905594
_symmetry_space_group_name_H-M "P 2/M"
_symmetry_group_IT_number 10
_symmetry_cell_setting 'monoclinic'
loop_
_space_group_symop_operation_xyz
x,y,z
-x,y,-z
-x,-y,-z
x,-y,z
loop_
_atom_site_type_symbol
_atom_site_label
_atom_site_fract_x
_atom_site_fract_y
_atom_site_fract_z
Si Si1 0.357626 0.280807 0.801222
Si Si2 0.656394 0.778165 0.849120
Si Si3 0.945868 0.780012 0.247316
Si Si4 0.923292 0.711863 0.468904
Si Si5 0.771214 0.214732 0.482021
Si Si6 0.840506 0.778235 0.811152
Si Si7 0.651571 0.778711 0.701719
Si Si8 0.650652 0.222227 0.470968
O O1 0.357511 0.500000 0.804112
O O2 0.224575 0.211513 0.683120
O O3 0.329370 0.237366 0.695876
O O4 0.500000 0.216681 0.000000
O O5 0.671055 0.720666 0.795050
O O6 0.507810 0.720560 0.701683
O O7 0.654804 0.000000 0.847960
O O8 0.794536 0.719239 0.047501
O O9 0.979185 0.724241 0.356381
O O10 0.076480 0.715052 0.359284
O O11 0.947609 0.000000 0.247136
O O12 0.896537 0.500000 0.423097
O O13 0.000000 0.792557 0.500000
O O14 0.708013 0.284750 0.471881
O O15 0.789426 0.000000 0.512974
O O16 0.763896 0.720030 0.783715
O O17 0.751948 0.722560 0.646614
O O18 0.840023 0.000000 0.809902
O O19 0.000000 0.719605 0.000000
O O20 0.500000 0.723538 0.500000
O O21 0.653951 0.000000 0.704896
O O22 0.649375 0.000000 0.469298
#
# Coordination Sequence:
#
# PCOD9155036 Si02
#       8
#     4   4   4   4   4   4   4   4
#     4   9  18  33  51  69  89 115 147 180 216 260
#     4   9  16  25  38  56  83 118 151 182 220 264
#     4   9  18  30  44  65  91 119 148 178 217 264
#     4   9  18  33  51  69  90 115 144 181 220 258
#     4   9  18  30  44  64  92 120 145 179 221 262
#     4   9  16  22  32  52  78 112 152 186 218 258
#     4   9  14  22  34  50  76 112 150 184 217 257
#     4   9  16  26  37  55  85 118 150 183 220 262
#
# _framework density 20.943701999999998
#
# number of rings (size 3 to 8) (size 9 to 14) (size 15 to 20)
#    0.000    3.000    1.250    0.000    1.750    1.500 
#    0.000    0.000    0.000    0.000    0.000    0.000 
#    0.000    2.000    0.000    0.125    0.000    0.000 
#
# Total GULP energy -178596.801810 kJ/mol
# GULP energy per Si atom -5581.150057 kJ/mol
# Density = 2.089603 g / cm^3
# Si number density = 20.943702 Si / 1000 Ang^3
#
#
#
# Elastic Constant Matrix: (Units=GPa)
#
#
# Indices 1 2 3 4 5 6 
#
# 1 228.5481 1.0298 114.2602 0.0000 14.3956 0.0000
# 2 1.0298 75.2115 -8.2303 0.0000 4.6291 0.0000
# 3 114.2602 -8.2303 185.0996 0.0000 13.7848 0.0000
# 4 0.0000 0.0000 0.0000 -3.4546 0.0000 -26.6494
# 5 14.3956 4.6291 13.7848 0.0000 20.2097 0.0000
# 6 0.0000 0.0000 0.0000 -26.6494 0.0000 7.3555
#
#
#
# Elastic Compliance Matrix: (Units=1/GPa)
#
#
# Indices 1 2 3 4 5 6 
#
# 1 0.006413 -0.000393 -0.003838 0.000000 -0.001860 0.000000
# 2 -0.000393 0.013646 0.001118 0.000000 -0.003608 0.000000
# 3 -0.003838 0.001118 0.008045 0.000000 -0.003010 0.000000
# 4 0.000000 0.000000 0.000000 -0.009999 0.000000 -0.036228
# 5 -0.001860 -0.003608 -0.003010 0.000000 0.053686 0.000000
# 6 0.000000 0.000000 0.000000 -0.036228 0.000000 0.004696
#
#
# Mechanical properties :
#
#
# Convention : Reuss Voigt Hill
#
# Bulk Modulus (GPa) = 45.70670 78.10872 61.90771
# Shear Modulus (GPa) = 55.55239 30.27542 42.91391
#
# Velocity S-wave (km/s) = 5.15579 3.80618 4.53151
# Velocity P-wave (km/s) = 7.57060 7.52938 7.55002
#
# Compressibility (1/GPa) = 0.02187863
#
# Stress axis : x y z
#
# Youngs Moduli (GPa) = 155.93402 73.28338 124.29613
#
# Poissons Ratio (x) = 0.02882 0.47700
# Poissons Ratio (y) = 0.06132 -0.13899
# Poissons Ratio (z) = 0.59841 -0.08195
#
# Static dielectric constant tensor:
#      x y z
#    x 1.728430 0.000000 0.016100 
#    y 0.000000 1.803260 0.000000 
#    z 0.016100 0.000000 1.710660 
# 
# From -- ./inp_files/34839.got.cif
#   From: 2010.05.17/outbox.cif.g08.bks.cpg/sg10_18_cif.got.tgz:34839.got - 2010.06.03 11:33:40.
