data_PCOD9155705
_publ_section_title
;
Structure prediction by ZEFSAII (Michael W. Deem and Ramdas Pophale) SiO2 
 PCOD9155705
Probable space group: P 2/M
;
_chemical_formula_sum "Si O2"
_cell_formula_units_Z 28
_cell_length_a 9.000000
_cell_length_b 9.000000
_cell_length_c 27.000000
_cell_angle_alpha 90.000000
_cell_angle_beta 140.000000
_cell_angle_gamma 90.000000
_cell_volume 1405.776502
_symmetry_space_group_name_H-M "P 2/M"
_symmetry_group_IT_number 10
_symmetry_cell_setting 'monoclinic'
loop_
_space_group_symop_operation_xyz
x,y,z
-x,y,-z
-x,-y,-z
x,-y,z
loop_
_atom_site_type_symbol
_atom_site_label
_atom_site_fract_x
_atom_site_fract_y
_atom_site_fract_z
Si Si1 0.710551 0.323225 0.762650
Si Si2 0.831368 0.324940 0.249402
Si Si3 0.297850 0.178571 0.343842
Si Si4 0.113284 0.827608 0.921618
Si Si5 0.829477 0.178904 0.500008
Si Si6 0.247524 0.826007 0.673876
Si Si7 0.565191 0.173620 0.094219
O O1 0.741232 0.500000 0.761033
O O2 0.755087 0.217145 0.726885
O O3 0.441497 0.283604 0.702185
O O4 0.887328 0.270570 0.851110
O O5 0.804843 0.500000 0.254112
O O6 0.732541 0.209224 0.263769
O O7 0.692955 0.283575 0.164394
O O8 0.101403 0.279345 0.318223
O O9 0.561214 0.224502 0.426098
O O10 0.270704 0.000000 0.345900
O O11 0.276447 0.822811 0.914589
O O12 0.042895 0.000000 0.911401
O O13 0.299120 0.786338 0.012063
O O14 0.000000 0.234145 0.500000
O O15 0.986784 0.207951 0.588398
O O16 0.815784 0.000000 0.491536
O O17 0.294020 0.000000 0.673240
O O18 0.566401 0.000000 0.111287
#
# Coordination Sequence:
#
# PCOD9155705 Si02
#       7
#     4   4   4   4   4   4   4
#     4  12  23  36  57  92 126 155 193 242 299 354
#     4  12  25  40  57  88 128 159 193 242 302 357
#     4  11  21  38  64  88 116 156 204 247 288 349
#     4   9  18  34  60  90 117 151 200 248 286 341
#     4   9  18  36  63  92 113 144 202 257 290 334
#     4  11  23  42  65  85 115 160 203 244 295 355
#     4   9  18  35  60  88 117 154 200 244 289 343
#
# _framework density 19.917818
#
# number of rings (size 3 to 8) (size 9 to 14) (size 15 to 20)
#    0.000    1.571    2.857    4.286    0.000    1.143 
#    0.000    8.571    0.000    4.286    0.000    0.000 
#    0.000    0.000    0.000    0.000    0.000    0.000 
#
# Total GULP energy -155980.617172 kJ/mol
# GULP energy per Si atom -5570.736328 kJ/mol
# Density = 1.987248 g / cm^3
# Si number density = 19.917818 Si / 1000 Ang^3
#
#
#
# Elastic Constant Matrix: (Units=GPa)
#
#
# Indices 1 2 3 4 5 6 
#
# 1 1.3542 -13.3513 -0.1583 0.0000 -6.3825 0.0000
# 2 -13.3513 70.1197 42.4005 0.0000 7.2737 0.0000
# 3 -0.1583 42.4005 121.7025 0.0000 15.0531 0.0000
# 4 0.0000 0.0000 0.0000 23.7964 0.0000 9.5301
# 5 -6.3825 7.2737 15.0531 0.0000 24.2013 0.0000
# 6 0.0000 0.0000 0.0000 9.5301 0.0000 17.4750
#
#
#
# Elastic Compliance Matrix: (Units=1/GPa)
#
#
# Indices 1 2 3 4 5 6 
#
# 1 -0.294935 -0.067999 0.032933 0.000000 -0.077829 0.000000
# 2 -0.067999 0.002451 0.001481 0.000000 -0.019591 0.000000
# 3 0.032933 0.001481 0.007285 0.000000 0.003709 0.000000
# 4 0.000000 0.000000 0.000000 0.053766 0.000000 -0.029322
# 5 -0.077829 -0.019591 0.003709 0.000000 0.024376 0.000000
# 6 0.000000 0.000000 0.000000 -0.029322 0.000000 0.073215
#
#
# Mechanical properties :
#
#
# Convention : Reuss Voigt Hill
#
# Bulk Modulus (GPa) = -2.83793 27.88422 12.52314
# Shear Modulus (GPa) = -27.15472 24.04692 -1.55390
#
# Velocity S-wave (km/s) = -3.69635 3.47840 -0.88422
# Velocity P-wave (km/s) = 4.43229 5.49203 2.29316
#
# Compressibility (1/GPa) = -0.35236966
#
# Stress axis : x y z
#
# Youngs Moduli (GPa) = -3.39057 408.07656 137.27004
#
# Poissons Ratio (x) = 27.74874 -4.52074
# Poissons Ratio (y) = -0.23056 -0.20328
# Poissons Ratio (z) = 0.11166 -0.60432
#
# Static dielectric constant tensor:
#      x y z
#    x 1.869950 0.000000 -0.032320 
#    y 0.000000 1.649100 0.000000 
#    z -0.032320 0.000000 1.719190 
# 
# From -- ./inp_files/92088.got.cif
#   From: 2010.05.17/outbox.ucp.g08.bks.cvg/sg10_47_cif.got.tgz:92088.got - 2010.06.11 11:31:16.
