data_PCOD9155685
_publ_section_title
;
Structure prediction by ZEFSAII (Michael W. Deem and Ramdas Pophale) SiO2 
 PCOD9155685
Probable space group: P 2/M
;
_chemical_formula_sum "Si O2"
_cell_formula_units_Z 21
_cell_length_a 12.000000
_cell_length_b 12.000000
_cell_length_c 15.000000
_cell_angle_alpha 90.000000
_cell_angle_beta 30.000000
_cell_angle_gamma 90.000000
_cell_volume 1080.000000
_symmetry_space_group_name_H-M "P 2/M"
_symmetry_group_IT_number 10
_symmetry_cell_setting 'monoclinic'
loop_
_space_group_symop_operation_xyz
x,y,z
-x,y,-z
-x,-y,-z
x,-y,z
loop_
_atom_site_type_symbol
_atom_site_label
_atom_site_fract_x
_atom_site_fract_y
_atom_site_fract_z
Si Si1 0.146182 0.764951 0.614847
Si Si2 0.281901 0.799465 0.214300
Si Si3 0.880342 0.000000 0.987310
Si Si4 0.575993 0.366507 0.723702
Si Si5 0.886631 0.751098 0.979746
Si Si6 0.000000 0.000000 0.500000
Si Si7 0.701993 0.000000 0.432062
O O1 0.298680 0.679347 0.452638
O O2 0.277250 0.884997 0.526808
O O3 0.917493 0.771833 0.717025
O O4 0.067204 0.741531 0.772812
O O5 0.336057 0.702177 0.249750
O O6 0.500000 0.821159 0.000000
O O7 0.178547 0.902633 0.341275
O O8 0.776789 0.876819 0.050452
O O9 0.071690 0.000000 0.781004
O O10 0.000000 0.000000 0.000000
O O11 0.606365 0.500000 0.712211
O O12 0.314433 0.334959 0.894199
O O13 0.000000 0.741492 0.000000
O O14 0.500000 0.000000 0.500000
#
# Coordination Sequence:
#
# PCOD9155685 Si02
#       7
#     4   4   2   4   4   1   2
#     4  11  24  44  70 107 141 184 234 301 359 422
#     4  12  25  48  73 107 142 185 236 294 364 436
#     4   8  18  36  63  97 128 172 211 279 342 406
#     4  12  28  46  72 100 137 198 249 298 354 417
#     4  10  23  44  69 104 143 181 238 294 361 431
#     4  12  24  44  70 114 150 170 210 296 376 432
#     4  10  23  38  67 106 141 176 223 273 354 443
#
# _framework density 19.444444000000001
#
# number of rings (size 3 to 8) (size 9 to 14) (size 15 to 20)
#    0.000    1.143    3.810    0.857    8.000    3.810 
#    0.000    0.952    0.000    0.000    0.000    0.000 
#    0.000    0.000    0.000    0.000    0.000    0.000 
#
# Total GULP energy -116953.786541 kJ/mol
# GULP energy per Si atom -5569.227931 kJ/mol
# Density = 1.940019 g / cm^3
# Si number density = 19.444444 Si / 1000 Ang^3
#
#
#
# Elastic Constant Matrix: (Units=GPa)
#
#
# Indices 1 2 3 4 5 6 
#
# 1 122.5824 54.2848 30.6127 0.0000 8.4636 0.0000
# 2 54.2848 178.2476 69.4532 0.0000 10.0819 0.0000
# 3 30.6127 69.4532 135.9863 0.0000 18.0956 0.0000
# 4 0.0000 0.0000 0.0000 34.8985 0.0000 1.4660
# 5 8.4636 10.0819 18.0956 0.0000 42.8801 0.0000
# 6 0.0000 0.0000 0.0000 1.4660 0.0000 19.5530
#
#
#
# Elastic Compliance Matrix: (Units=1/GPa)
#
#
# Indices 1 2 3 4 5 6 
#
# 1 0.009542 -0.002577 -0.000701 0.000000 -0.000982 0.000000
# 2 -0.002577 0.007701 -0.003369 0.000000 0.000120 0.000000
# 3 -0.000701 -0.003369 0.009650 0.000000 -0.003142 0.000000
# 4 0.000000 0.000000 0.000000 0.028745 0.000000 -0.002155
# 5 -0.000982 0.000120 -0.003142 0.000000 0.024812 0.000000
# 6 0.000000 0.000000 0.000000 -0.002155 0.000000 0.051305
#
#
# Mechanical properties :
#
#
# Convention : Reuss Voigt Hill
#
# Bulk Modulus (GPa) = 73.53726 82.83529 78.18627
# Shear Modulus (GPa) = 33.42631 38.29736 35.86183
#
# Velocity S-wave (km/s) = 4.15066 4.44281 4.29922
# Velocity P-wave (km/s) = 7.80205 8.30732 8.05864
#
# Compressibility (1/GPa) = 0.01359855
#
# Stress axis : x y z
#
# Youngs Moduli (GPa) = 104.80015 129.85354 103.62422
#
# Poissons Ratio (x) = 0.33467 0.07265
# Poissons Ratio (y) = 0.27010 0.34910
# Poissons Ratio (z) = 0.07348 0.43747
#
# Static dielectric constant tensor:
#      x y z
#    x 1.680570 0.000000 0.002080 
#    y 0.000000 1.701110 0.000000 
#    z 0.002080 0.000000 1.696170 
# 
# From -- ./inp_files/64629.got.cif
#   From: 2010.05.17/outbox.ucp.g08.bks.cvg/sg10_33_cif.got.tgz:64629.got - 2010.06.11 11:31:16.
