data_PCOD9155812
_publ_section_title
;
Structure prediction by ZEFSAII (Michael W. Deem and Ramdas Pophale) SiO2 
 PCOD9155812
Probable space group: P 21/M
;
_chemical_formula_sum "Si O2"
_cell_formula_units_Z 24
_cell_length_a 9.565072
_cell_length_b 16.457112
_cell_length_c 9.407125
_cell_angle_alpha 90.000000
_cell_angle_beta 59.805370
_cell_angle_gamma 90.000000
_cell_volume 1279.894940
_symmetry_space_group_name_H-M "P 21/M"
_symmetry_group_IT_number 11
_symmetry_cell_setting 'monoclinic'
loop_
_space_group_symop_operation_xyz
x,y,z
-x,1/2+y,-z
-x,-y,-z
x,1/2-y,z
loop_
_atom_site_type_symbol
_atom_site_label
_atom_site_fract_x
_atom_site_fract_y
_atom_site_fract_z
Si Si1 0.635827 0.896732 0.365923
Si Si2 0.925318 0.087736 0.994260
Si Si3 0.959532 0.656911 0.337345
Si Si4 0.026740 0.348774 0.342288
Si Si5 0.707028 0.414239 0.352756
Si Si6 0.772306 0.842754 0.015695
O O1 0.777765 0.846251 0.368008
O O2 0.458855 0.874055 0.511280
O O3 0.654616 0.887905 0.185591
O O4 0.677895 0.989563 0.383804
O O5 0.933255 0.101573 0.822578
O O6 0.053651 0.151656 0.993609
O O7 0.758484 0.099116 0.162354
O O8 0.000000 0.000000 0.000000
O O9 0.018186 0.750000 0.302271
O O10 0.957010 0.629333 0.501440
O O11 0.019865 0.250000 0.334907
O O12 0.861940 0.385574 0.363204
O O13 0.178559 0.374893 0.165185
O O14 0.718209 0.750000 0.032380
#
# Coordination Sequence:
#
# PCOD9155812 Si02
#       6
#     4   4   4   4   4   4
#     4  10  19  33  52  78 105 137 171 215 256 316
#     4  10  16  31  53  77 100 136 171 215 250 307
#     4  10  20  36  55  78 104 137 177 216 259 311
#     4   9  20  35  53  77 104 135 178 219 256 310
#     4  10  20  33  52  79 108 133 173 213 263 309
#     4   9  17  32  52  73  99 138 177 209 252 310
#
# _framework density 18.751539000000001
#
# number of rings (size 3 to 8) (size 9 to 14) (size 15 to 20)
#    0.000    2.333    3.333    2.000    0.000    2.667 
#    0.000    1.667    0.000    8.000    0.000    0.000 
#    0.000    0.000    0.000    0.000    0.000    0.000 
#
# Total GULP energy -133655.843385 kJ/mol
# GULP energy per Si atom -5568.993474 kJ/mol
# Density = 1.870886 g / cm^3
# Si number density = 18.751539 Si / 1000 Ang^3
#
#
#
# Elastic Constant Matrix: (Units=GPa)
#
#
# Indices 1 2 3 4 5 6 
#
# 1 34.9915 9.5464 65.0129 0.0000 -2.4236 0.0000
# 2 9.5464 39.5969 28.8170 0.0000 5.2278 0.0000
# 3 65.0129 28.8170 214.7418 0.0000 -0.3128 0.0000
# 4 0.0000 0.0000 0.0000 28.6418 0.0000 2.7200
# 5 -2.4236 5.2278 -0.3128 0.0000 40.3578 0.0000
# 6 0.0000 0.0000 0.0000 2.7200 0.0000 4.8029
#
#
#
# Elastic Compliance Matrix: (Units=1/GPa)
#
#
# Indices 1 2 3 4 5 6 
#
# 1 0.066057 -0.002123 -0.019708 0.000000 0.004089 0.000000
# 2 -0.002123 0.028606 -0.003202 0.000000 -0.003858 0.000000
# 3 -0.019708 -0.003202 0.011052 0.000000 -0.000683 0.000000
# 4 0.000000 0.000000 0.000000 0.036898 0.000000 -0.020896
# 5 0.004089 -0.003858 -0.000683 0.000000 0.025518 0.000000
# 6 0.000000 0.000000 0.000000 -0.020896 0.000000 0.220039
#
#
# Mechanical properties :
#
#
# Convention : Reuss Voigt Hill
#
# Bulk Modulus (GPa) = 17.96943 55.12030 36.54486
# Shear Modulus (GPa) = 10.94604 27.15745 19.05174
#
# Velocity S-wave (km/s) = 2.41869 3.80975 3.19095
# Velocity P-wave (km/s) = 4.17179 6.98650 5.75391
#
# Compressibility (1/GPa) = 0.05565007
#
# Stress axis : x y z
#
# Youngs Moduli (GPa) = 15.13834 34.95816 90.48162
#
# Poissons Ratio (x) = 0.07421 1.78321
# Poissons Ratio (y) = 0.03214 0.28969
# Poissons Ratio (z) = 0.29835 0.11192
#
# Static dielectric constant tensor:
#      x y z
#    x 1.619750 0.000000 0.006160 
#    y 0.000000 1.696500 0.000000 
#    z 0.006160 0.000000 1.727860 
# 
# From -- ./inp_files/18540.got.cif
#   From: 2010.05.17/outbox.cif.g08.bks.cpg/sg11_10_cif.got.tgz:18540.got - 2010.06.03 12:22:45.
