data_PCOD9155796
_publ_section_title
;
Structure prediction by ZEFSAII (Michael W. Deem and Ramdas Pophale) SiO2 
 PCOD9155796
Probable space group: P 21/M
;
_chemical_formula_sum "Si O2"
_cell_formula_units_Z 24
_cell_length_a 8.470901
_cell_length_b 17.680890
_cell_length_c 9.888920
_cell_angle_alpha 90.000000
_cell_angle_beta 134.141868
_cell_angle_gamma 90.000000
_cell_volume 1062.859015
_symmetry_space_group_name_H-M "P 21/M"
_symmetry_group_IT_number 11
_symmetry_cell_setting 'monoclinic'
loop_
_space_group_symop_operation_xyz
x,y,z
-x,1/2+y,-z
-x,-y,-z
x,1/2-y,z
loop_
_atom_site_type_symbol
_atom_site_label
_atom_site_fract_x
_atom_site_fract_y
_atom_site_fract_z
Si Si1 0.274998 0.750000 0.470543
Si Si2 0.046751 0.618599 0.069323
Si Si3 0.756014 0.413277 0.072088
Si Si4 0.279643 0.031030 0.706647
Si Si5 0.859980 0.090463 0.566867
Si Si6 0.403072 0.750000 0.981501
Si Si7 0.193780 0.250000 0.976615
Si Si8 0.592751 0.250000 0.725128
O O1 0.272038 0.668371 0.537907
O O2 0.465256 0.750000 0.467854
O O3 0.026492 0.750000 0.251642
O O4 0.066781 0.573648 0.941726
O O5 0.084258 0.584724 0.240346
O O6 0.251564 0.676534 0.173644
O O7 0.836003 0.673385 0.955782
O O8 0.516802 0.434481 0.869617
O O9 0.742472 0.325997 0.110727
O O10 0.773807 0.468636 0.209679
O O11 0.263147 0.984017 0.559183
O O12 0.088390 0.091686 0.618948
O O13 0.587344 0.750000 0.977970
O O14 0.527539 0.750000 0.203449
#
# Coordination Sequence:
#
# PCOD9155796 Si02
#       8
#     2   4   4   4   4   2   2   2
#     4   8  14  29  51  69  90 126 171 203 239 290
#     4   8  15  29  49  71  95 127 165 201 242 291
#     4  10  20  33  50  75 103 131 165 208 251 292
#     4  10  21  33  47  75 108 132 163 206 253 294
#     4   9  18  34  52  72  99 133 170 205 244 297
#     4  10  16  29  52  71  95 130 169 205 243 296
#     4   8  14  26  49  77  95 121 167 209 243 293
#     4   6  12  24  42  71  92 115 159 207 239 279
#
# _framework density 22.580604000000001
#
# number of rings (size 3 to 8) (size 9 to 14) (size 15 to 20)
#    0.000    3.667    0.000    2.500    0.000    2.000 
#    0.000    0.000    0.000    0.000    0.000   14.000 
#    0.000    1.333    0.000    0.000    0.000    0.000 
#
# Total GULP energy -133657.137917 kJ/mol
# GULP energy per Si atom -5569.047413 kJ/mol
# Density = 2.252921 g / cm^3
# Si number density = 22.580604 Si / 1000 Ang^3
#
#
#
# Elastic Constant Matrix: (Units=GPa)
#
#
# Indices 1 2 3 4 5 6 
#
# 1 124.7599 44.8667 15.6760 0.0000 -28.0308 0.0000
# 2 44.8667 103.6759 23.0300 0.0000 -22.6196 0.0000
# 3 15.6760 23.0300 30.7635 0.0000 -3.3917 0.0000
# 4 0.0000 0.0000 0.0000 1.6278 0.0000 -24.6464
# 5 -28.0308 -22.6196 -3.3917 0.0000 21.1131 0.0000
# 6 0.0000 0.0000 0.0000 -24.6464 0.0000 36.4027
#
#
#
# Elastic Compliance Matrix: (Units=1/GPa)
#
#
# Indices 1 2 3 4 5 6 
#
# 1 0.012116 -0.001386 -0.003590 0.000000 0.014024 0.000000
# 2 -0.001386 0.015086 -0.009170 0.000000 0.012849 0.000000
# 3 -0.003590 -0.009170 0.040306 0.000000 -0.008116 0.000000
# 4 0.000000 0.000000 0.000000 -0.066406 0.000000 -0.044960
# 5 0.014024 0.012849 -0.008116 0.000000 0.078444 0.000000
# 6 0.000000 0.000000 0.000000 -0.044960 0.000000 -0.002969
#
#
# Mechanical properties :
#
#
# Convention : Reuss Voigt Hill
#
# Bulk Modulus (GPa) = 25.50109 47.37164 36.43636
# Shear Modulus (GPa) = 42.39409 23.53715 32.96562
#
# Velocity S-wave (km/s) = 4.33766 3.23207 3.82502
# Velocity P-wave (km/s) = 6.03365 5.91209 5.97318
#
# Compressibility (1/GPa) = 0.03921401
#
# Stress axis : x y z
#
# Youngs Moduli (GPa) = 82.53692 66.28825 24.81038
#
# Poissons Ratio (x) = 0.09188 0.08907
# Poissons Ratio (y) = 0.11440 0.22752
# Poissons Ratio (z) = 0.29631 0.60789
#
# Static dielectric constant tensor:
#      x y z
#    x 1.872410 0.000000 -0.064560 
#    y 0.000000 1.946090 0.000000 
#    z -0.064560 0.000000 1.899190 
# 
# From -- ./inp_files/13778.got.cif
#   From: 2010.05.17/outbox.cif.g08.bks.cpg/sg11_7_cif.got.tgz:13778.got - 2010.06.03 12:22:45.
