data_PCOD9155404
_publ_section_title
;
Structure prediction by ZEFSAII (Michael W. Deem and Ramdas Pophale) SiO2 
 PCOD9155404
Probable space group: P 2/M
;
_chemical_formula_sum "Si O2"
_cell_formula_units_Z 32
_cell_length_a 24.000000
_cell_length_b 9.000000
_cell_length_c 15.000000
_cell_angle_alpha 90.000000
_cell_angle_beta 150.000000
_cell_angle_gamma 90.000000
_cell_volume 1620.000000
_symmetry_space_group_name_H-M "P 2/M"
_symmetry_group_IT_number 10
_symmetry_cell_setting 'monoclinic'
loop_
_space_group_symop_operation_xyz
x,y,z
-x,y,-z
-x,-y,-z
x,-y,z
loop_
_atom_site_type_symbol
_atom_site_label
_atom_site_fract_x
_atom_site_fract_y
_atom_site_fract_z
Si Si1 0.116253 0.674725 0.688794
Si Si2 0.288856 0.678423 0.256636
Si Si3 0.671267 0.321082 0.495350
Si Si4 0.446553 0.319218 0.103917
Si Si5 0.727712 0.326883 0.270511
Si Si6 0.168638 0.825405 0.413803
Si Si7 0.698947 0.318088 0.926912
Si Si8 0.942940 0.824438 0.016230
O O1 0.096215 0.500000 0.681327
O O2 0.193176 0.678758 0.707430
O O3 0.000000 0.746285 0.500000
O O4 0.182634 0.731908 0.866934
O O5 0.296123 0.500000 0.262577
O O6 0.353478 0.724038 0.436621
O O7 0.321139 0.732969 0.202237
O O8 0.163782 0.728607 0.106424
O O9 0.681215 0.500000 0.508489
O O10 0.573211 0.277148 0.292446
O O11 0.778898 0.248665 0.601486
O O12 0.438848 0.500000 0.090570
O O13 0.386236 0.274152 0.112749
O O14 0.386936 0.267210 0.931350
O O15 0.714313 0.500000 0.277989
O O16 0.779685 0.243005 0.425541
O O17 0.036648 0.802777 0.221555
O O18 0.190661 0.000000 0.441007
O O19 0.697478 0.500000 0.923495
O O20 0.912959 0.000000 0.970510
O O21 0.000000 0.787919 0.000000
#
# Coordination Sequence:
#
# PCOD9155404 Si02
#       8
#     4   4   4   4   4   4   4   4
#     4   8  14  25  44  72 102 131 163 202 249 298
#     4  10  20  31  52  84 107 129 169 219 255 289
#     4  10  20  34  53  78 105 135 173 214 255 299
#     4   8  16  33  54  76 107 140 167 203 256 313
#     4   9  18  33  54  77 101 134 173 211 251 300
#     4  11  23  37  53  74 102 137 174 213 260 309
#     4   8  15  28  46  75 109 134 162 203 254 304
#     4  10  21  38  54  68  99 144 174 203 258 319
#
# _framework density 19.753086
#
# number of rings (size 3 to 8) (size 9 to 14) (size 15 to 20)
#    0.000    2.750    1.250    1.875    1.750    2.250 
#    0.000    5.625    0.000    4.125    0.000    1.750 
#    0.000    0.000    0.000    0.000    0.000    0.000 
#
# Total GULP energy -178197.771883 kJ/mol
# GULP energy per Si atom -5568.680371 kJ/mol
# Density = 1.970813 g / cm^3
# Si number density = 19.753086 Si / 1000 Ang^3
#
#
#
# Elastic Constant Matrix: (Units=GPa)
#
#
# Indices 1 2 3 4 5 6 
#
# 1 13.4082 -0.6651 0.5649 0.0000 -22.3372 0.0000
# 2 -0.6651 -1.9165 18.4652 0.0000 -9.0302 0.0000
# 3 0.5649 18.4652 91.5496 0.0000 -21.0773 0.0000
# 4 0.0000 0.0000 0.0000 4.8281 0.0000 -1.2431
# 5 -22.3372 -9.0302 -21.0773 0.0000 34.3932 0.0000
# 6 0.0000 0.0000 0.0000 -1.2431 0.0000 -15.9019
#
#
#
# Elastic Compliance Matrix: (Units=1/GPa)
#
#
# Indices 1 2 3 4 5 6 
#
# 1 -3.227749 2.199957 -0.900503 0.000000 -2.070546 0.000000
# 2 2.199957 -1.655347 0.639401 0.000000 1.386012 0.000000
# 3 -0.900503 0.639401 -0.242729 0.000000 -0.565716 0.000000
# 4 0.000000 0.000000 0.000000 0.203036 0.000000 -0.015872
# 5 -2.070546 1.386012 -0.565716 0.000000 -1.298449 0.000000
# 6 0.000000 0.000000 0.000000 -0.015872 0.000000 -0.061645
#
#
# Mechanical properties :
#
#
# Convention : Reuss Voigt Hill
#
# Bulk Modulus (GPa) = -0.80121 15.53015 7.36447
# Shear Modulus (GPa) = -0.47274 10.30897 4.91811
#
# Velocity S-wave (km/s) = -0.48974 2.28697 1.57962
# Velocity P-wave (km/s) = 0.85222 3.85394 2.65769
#
# Compressibility (1/GPa) = -1.24811665
#
# Stress axis : x y z
#
# Youngs Moduli (GPa) = -0.30981 -0.60410 -4.11983
#
# Poissons Ratio (x) = 1.32900 -3.70992
# Poissons Ratio (y) = 0.68158 2.63422
# Poissons Ratio (z) = -0.27899 0.38626
#
# Static dielectric constant tensor:
#      x y z
#    x 1.684450 0.000000 0.014630 
#    y 0.000000 1.661310 0.000000 
#    z 0.014630 0.000000 1.782900 
# 
# From -- ./inp_files/66557.got.cif
#   From: 2010.05.17/outbox.ucp.g08.bks.cvg/sg10_34_cif.got.tgz:66557.got - 2010.06.11 11:31:16.
