data_PCOD9155630
_publ_section_title
;
Structure prediction by ZEFSAII (Michael W. Deem and Ramdas Pophale) SiO2 
 PCOD9155630
Probable space group: P 2/M
;
_chemical_formula_sum "Si O2"
_cell_formula_units_Z 32
_cell_length_a 24.000000
_cell_length_b 9.000000
_cell_length_c 15.000000
_cell_angle_alpha 90.000000
_cell_angle_beta 150.000000
_cell_angle_gamma 90.000000
_cell_volume 1620.000000
_symmetry_space_group_name_H-M "P 2/M"
_symmetry_group_IT_number 10
_symmetry_cell_setting 'monoclinic'
loop_
_space_group_symop_operation_xyz
x,y,z
-x,y,-z
-x,-y,-z
x,-y,z
loop_
_atom_site_type_symbol
_atom_site_label
_atom_site_fract_x
_atom_site_fract_y
_atom_site_fract_z
Si Si1 0.553820 0.323985 0.979494
Si Si2 0.876276 0.175913 0.790322
Si Si3 0.778011 0.174725 0.111696
Si Si4 0.517897 0.177700 0.750584
Si Si5 0.077427 0.672902 0.323917
Si Si6 0.179380 0.671163 0.005938
Si Si7 0.320547 0.322352 0.370318
Si Si8 0.182967 0.676909 0.657395
O O1 0.544882 0.500000 0.946660
O O2 0.494001 0.234438 0.817694
O O3 0.500000 0.295340 0.000000
O O4 0.685191 0.288411 0.170850
O O5 0.871569 0.224394 0.681114
O O6 0.780264 0.264180 0.708242
O O7 0.858544 0.000000 0.776704
O O8 0.000000 0.210674 0.000000
O O9 0.842070 0.249371 0.282568
O O10 0.777424 0.000000 0.125381
O O11 0.647938 0.223514 0.921991
O O12 0.828107 0.221592 0.087808
O O13 0.434437 0.249609 0.563505
O O14 0.509786 0.000000 0.733491
O O15 0.113891 0.500000 0.364093
O O16 0.113663 0.720473 0.473728
O O17 0.944296 0.674994 0.124457
O O18 0.199046 0.500000 0.004327
O O19 0.276634 0.713688 0.209755
O O20 0.329914 0.500000 0.389098
O O21 0.170419 0.500000 0.648971
#
# Coordination Sequence:
#
# PCOD9155630 Si02
#       8
#     4   4   4   4   4   4   4   4
#     4   9  18  33  54  83 113 147 193 237 283 342
#     4  11  23  38  58  86 122 159 191 235 290 344
#     4  10  22  40  61  83 115 154 190 239 298 351
#     4  10  22  39  57  83 116 151 191 237 295 352
#     4  10  21  38  60  87 117 155 198 239 286 341
#     4  10  22  39  60  85 113 149 198 245 288 342
#     4  11  23  39  61  87 116 154 197 241 287 342
#     4   9  19  36  58  83 115 151 190 239 286 338
#
# _framework density 19.753086
#
# number of rings (size 3 to 8) (size 9 to 14) (size 15 to 20)
#    0.000    2.000    1.250    1.500    1.750    5.250 
#    0.000    5.000    0.000    0.000    0.000    0.000 
#    0.000    0.000    0.000    0.000    0.000    0.000 
#
# Total GULP energy -178582.231999 kJ/mol
# GULP energy per Si atom -5580.694750 kJ/mol
# Density = 1.970813 g / cm^3
# Si number density = 19.753086 Si / 1000 Ang^3
#
#
#
# Elastic Constant Matrix: (Units=GPa)
#
#
# Indices 1 2 3 4 5 6 
#
# 1 37.9685 16.7801 9.3612 0.0000 -18.1721 0.0000
# 2 16.7801 17.4850 22.5583 0.0000 -12.2475 0.0000
# 3 9.3612 22.5583 81.5449 0.0000 -33.8609 0.0000
# 4 0.0000 0.0000 0.0000 63.4325 0.0000 -41.8873
# 5 -18.1721 -12.2475 -33.8609 0.0000 28.8839 0.0000
# 6 0.0000 0.0000 0.0000 -41.8873 0.0000 66.5543
#
#
#
# Elastic Compliance Matrix: (Units=1/GPa)
#
#
# Indices 1 2 3 4 5 6 
#
# 1 0.091464 -0.097712 0.045247 0.000000 0.069156 0.000000
# 2 -0.097712 0.197977 -0.066678 0.000000 -0.055695 0.000000
# 3 0.045247 -0.066678 0.049873 0.000000 0.058661 0.000000
# 4 0.000000 0.000000 0.000000 0.026976 0.000000 0.016978
# 5 0.069156 -0.055695 0.058661 0.000000 0.123283 0.000000
# 6 0.000000 0.000000 0.000000 0.016978 0.000000 0.025711
#
#
# Mechanical properties :
#
#
# Convention : Reuss Voigt Hill
#
# Bulk Modulus (GPa) = 9.89809 26.04417 17.97113
# Shear Modulus (GPa) = 6.35126 37.66072 22.00599
#
# Velocity S-wave (km/s) = 1.79508 4.37117 3.34136
# Velocity P-wave (km/s) = 3.05257 6.22010 4.89938
#
# Compressibility (1/GPa) = 0.10102956
#
# Stress axis : x y z
#
# Youngs Moduli (GPa) = 10.93323 5.05108 20.05099
#
# Poissons Ratio (x) = 0.49355 -0.90726
# Poissons Ratio (y) = 1.06831 1.33695
# Poissons Ratio (z) = -0.49470 0.33679
#
# Static dielectric constant tensor:
#      x y z
#    x 1.730600 0.000000 0.014390 
#    y 0.000000 1.664640 0.000000 
#    z 0.014390 0.000000 1.671500 
# 
# From -- ./inp_files/66635.got.cif
#   From: 2010.05.17/outbox.ucp.g08.bks.cvg/sg10_34_cif.got.tgz:66635.got - 2010.06.11 11:31:16.
