data_PCOD9155422
_publ_section_title
;
Structure prediction by ZEFSAII (Michael W. Deem and Ramdas Pophale) SiO2 
 PCOD9155422
Probable space group: P 2/M
;
_chemical_formula_sum "Si O2"
_cell_formula_units_Z 28
_cell_length_a 18.000000
_cell_length_b 9.000000
_cell_length_c 15.000000
_cell_angle_alpha 90.000000
_cell_angle_beta 140.000000
_cell_angle_gamma 90.000000
_cell_volume 1561.973892
_symmetry_space_group_name_H-M "P 2/M"
_symmetry_group_IT_number 10
_symmetry_cell_setting 'monoclinic'
loop_
_space_group_symop_operation_xyz
x,y,z
-x,y,-z
-x,-y,-z
x,-y,z
loop_
_atom_site_type_symbol
_atom_site_label
_atom_site_fract_x
_atom_site_fract_y
_atom_site_fract_z
Si Si1 0.860484 0.669600 0.383499
Si Si2 0.134493 0.677328 0.101243
Si Si3 0.709661 0.177046 0.894017
Si Si4 0.488483 0.322468 0.596117
Si Si5 0.163817 0.824788 0.815081
Si Si6 0.917941 0.321713 0.631576
Si Si7 0.245721 0.177923 0.374781
O O1 0.822822 0.500000 0.333460
O O2 0.809326 0.774263 0.260834
O O3 0.847500 0.707792 0.475105
O O4 0.000000 0.672438 0.500000
O O5 0.153700 0.500000 0.114127
O O6 0.177751 0.756268 0.051818
O O7 0.212282 0.749283 0.249706
O O8 0.000000 0.702534 0.000000
O O9 0.598195 0.256451 0.749427
O O10 0.702190 0.000000 0.871699
O O11 0.733714 0.203538 0.020609
O O12 0.500000 0.295881 0.500000
O O13 0.481511 0.500000 0.603021
O O14 0.370308 0.242500 0.516650
O O15 0.048509 0.735840 0.738361
O O16 0.137221 0.000000 0.792978
O O17 0.919522 0.500000 0.648169
O O18 0.852968 0.235944 0.649541
O O19 0.248073 0.000000 0.371478
#
# Coordination Sequence:
#
# PCOD9155422 Si02
#       7
#     4   4   4   4   4   4   4
#     4   8  16  31  52  78 109 147 184 220 265 321
#     4  11  23  37  54  78 109 145 181 219 266 320
#     4  11  23  37  55  80 110 143 181 225 273 321
#     4  11  23  40  61  80 102 139 189 230 269 322
#     4  10  20  33  53  84 117 146 180 223 273 327
#     4  10  20  35  55  81 114 148 185 224 267 324
#     4  12  24  37  57  81 109 142 179 226 277 324
#
# _framework density 17.926036
#
# number of rings (size 3 to 8) (size 9 to 14) (size 15 to 20)
#    0.000    1.571    1.429    5.143    0.000    9.429 
#    0.000    0.000    0.000    0.857    0.000    6.000 
#    0.000    0.000    0.000    0.000    0.000    0.000 
#
# Total GULP energy -156339.392251 kJ/mol
# GULP energy per Si atom -5583.549723 kJ/mol
# Density = 1.788524 g / cm^3
# Si number density = 17.926036 Si / 1000 Ang^3
#
#
#
# Elastic Constant Matrix: (Units=GPa)
#
#
# Indices 1 2 3 4 5 6 
#
# 1 10.3216 3.6200 5.7193 0.0000 -5.2310 0.0000
# 2 3.6200 81.5528 50.8058 0.0000 -2.3197 0.0000
# 3 5.7193 50.8058 103.7213 0.0000 -6.6276 0.0000
# 4 0.0000 0.0000 0.0000 18.7976 0.0000 -12.9559
# 5 -5.2310 -2.3197 -6.6276 0.0000 27.6815 0.0000
# 6 0.0000 0.0000 0.0000 -12.9559 0.0000 7.1044
#
#
#
# Elastic Compliance Matrix: (Units=1/GPa)
#
#
# Indices 1 2 3 4 5 6 
#
# 1 0.109641 -0.001905 -0.003858 0.000000 0.019636 0.000000
# 2 -0.001905 0.017690 -0.008620 0.000000 -0.000941 0.000000
# 3 -0.003858 -0.008620 0.014201 0.000000 0.001949 0.000000
# 4 0.000000 0.000000 0.000000 -0.207067 0.000000 -0.377617
# 5 0.019636 -0.000941 0.001949 0.000000 0.040223 0.000000
# 6 0.000000 0.000000 0.000000 -0.377617 0.000000 -0.547881
#
#
# Mechanical properties :
#
#
# Convention : Reuss Voigt Hill
#
# Bulk Modulus (GPa) = 8.86793 35.09844 21.98318
# Shear Modulus (GPa) = -9.86508 19.74673 4.94083
#
# Velocity S-wave (km/s) = -2.34844 3.32259 1.66199
# Velocity P-wave (km/s) = 1.54785 5.86017 3.99660
#
# Compressibility (1/GPa) = 0.11276587
#
# Stress axis : x y z
#
# Youngs Moduli (GPa) = 9.12067 56.52911 70.41801
#
# Poissons Ratio (x) = 0.10768 0.27168
# Poissons Ratio (y) = 0.01737 0.60702
# Poissons Ratio (z) = 0.03519 0.48729
#
# Static dielectric constant tensor:
#      x y z
#    x 1.636400 0.000000 -0.036340 
#    y 0.000000 1.591670 0.000000 
#    z -0.036340 0.000000 1.624860 
# 
# From -- ./inp_files/68668.got.cif
#   From: 2010.05.17/outbox.ucp.g08.bks.cvg/sg10_35_cif.got.tgz:68668.got - 2010.06.11 11:31:16.
