data_PCOD9155219
_publ_section_title
;
Structure prediction by ZEFSAII (Michael W. Deem and Ramdas Pophale) SiO2 
 PCOD9155219
Probable space group: P 2/M
;
_chemical_formula_sum "Si O2"
_cell_formula_units_Z 24
_cell_length_a 21.000000
_cell_length_b 9.000000
_cell_length_c 9.000000
_cell_angle_alpha 90.000000
_cell_angle_beta 130.000000
_cell_angle_gamma 90.000000
_cell_volume 1303.041598
_symmetry_space_group_name_H-M "P 2/M"
_symmetry_group_IT_number 10
_symmetry_cell_setting 'monoclinic'
loop_
_space_group_symop_operation_xyz
x,y,z
-x,y,-z
-x,-y,-z
x,-y,z
loop_
_atom_site_type_symbol
_atom_site_label
_atom_site_fract_x
_atom_site_fract_y
_atom_site_fract_z
Si Si1 0.221527 0.177551 0.071800
Si Si2 0.230089 0.334606 0.526961
Si Si3 0.700242 0.822681 0.093767
Si Si4 0.638487 0.667198 0.543936
Si Si5 0.902714 0.178794 0.861397
Si Si6 0.486706 0.179076 0.156016
O O1 0.310434 0.226837 0.270464
O O2 0.144674 0.227274 0.058010
O O3 0.216573 0.000000 0.065289
O O4 0.230645 0.233118 0.918252
O O5 0.218652 0.500000 0.571167
O O6 0.269858 0.223599 0.701708
O O7 0.296575 0.343902 0.494386
O O8 0.145738 0.266203 0.338222
O O9 0.696504 0.000000 0.076333
O O10 0.605371 0.770770 0.934009
O O11 0.625150 0.500000 0.582511
O O12 0.555121 0.739666 0.357252
O O13 0.891270 0.000000 0.827464
O O14 0.000000 0.209295 0.000000
O O15 0.494284 0.000000 0.184026
O O16 0.500000 0.211433 0.000000
#
# Coordination Sequence:
#
# PCOD9155219 Si02
#       6
#     4   4   4   4   4   4
#     4   9  19  35  54  75 102 132 166 209 255 299
#     4  10  20  33  52  77 104 135 168 204 250 302
#     4  10  20  34  52  75 102 135 171 210 252 292
#     4  10  20  33  50  73 102 137 174 210 249 295
#     4   9  18  35  59  81  99 126 166 208 249 300
#     4  10  19  31  50  73  99 134 177 215 245 285
#
# _framework density 18.418444999999998
#
# number of rings (size 3 to 8) (size 9 to 14) (size 15 to 20)
#    0.000    2.333    1.667    1.000    0.000    4.000 
#    0.000    4.167    0.000    5.000    0.000    0.000 
#    0.000    0.000    0.000    0.000    0.000    0.000 
#
# Total GULP energy -133613.603654 kJ/mol
# GULP energy per Si atom -5567.233486 kJ/mol
# Density = 1.837652 g / cm^3
# Si number density = 18.418445 Si / 1000 Ang^3
#
#
#
# Elastic Constant Matrix: (Units=GPa)
#
#
# Indices 1 2 3 4 5 6 
#
# 1 60.6758 18.1421 15.5736 0.0000 23.1695 0.0000
# 2 18.1421 -37.3287 -14.7827 0.0000 11.4484 0.0000
# 3 15.5736 -14.7827 13.5103 0.0000 23.3853 0.0000
# 4 0.0000 0.0000 0.0000 81.6836 0.0000 5.5863
# 5 23.1695 11.4484 23.3853 0.0000 26.0277 0.0000
# 6 0.0000 0.0000 0.0000 5.5863 0.0000 7.8131
#
#
#
# Elastic Compliance Matrix: (Units=1/GPa)
#
#
# Indices 1 2 3 4 5 6 
#
# 1 0.035656 -0.021932 0.048372 0.000000 -0.065554 0.000000
# 2 -0.021932 0.037635 -0.110446 0.000000 0.102203 0.000000
# 3 0.048372 -0.110446 0.201987 0.000000 -0.175961 0.000000
# 4 0.000000 0.000000 0.000000 0.012872 0.000000 -0.009203
# 5 -0.065554 0.102203 -0.175961 0.000000 0.209919 0.000000
# 6 0.000000 0.000000 0.000000 -0.009203 0.000000 0.134570
#
#
# Mechanical properties :
#
#
# Convention : Reuss Voigt Hill
#
# Bulk Modulus (GPa) = 9.32269 8.30261 8.81265
# Shear Modulus (GPa) = 5.97796 24.29984 15.13890
#
# Velocity S-wave (km/s) = 1.80352 3.63619 2.87006
# Velocity P-wave (km/s) = 3.06749 4.70603 3.97217
#
# Compressibility (1/GPa) = 0.10726516
#
# Stress axis : x y z
#
# Youngs Moduli (GPa) = 28.04613 26.57117 4.95081
#
# Poissons Ratio (x) = 0.58275 -0.23948
# Poissons Ratio (y) = 0.61510 0.54680
# Poissons Ratio (z) = -1.35664 2.93468
#
# Static dielectric constant tensor:
#      x y z
#    x 1.663890 0.000000 -0.031750 
#    y 0.000000 1.652860 0.000000 
#    z -0.031750 0.000000 1.631250 
# 
# From -- ./inp_files/26999.got.cif
#   From: 2010.05.17/outbox.ucp.g08.bks.cvg/sg10_14_cif.got.tgz:26999.got - 2010.06.11 11:31:16.
