data_PCOD9155316
_publ_section_title
;
Structure prediction by ZEFSAII (Michael W. Deem and Ramdas Pophale) SiO2 
 PCOD9155316
Probable space group: P 2/M
;
_chemical_formula_sum "Si O2"
_cell_formula_units_Z 32
_cell_length_a 21.000000
_cell_length_b 9.000000
_cell_length_c 27.000000
_cell_angle_alpha 90.000000
_cell_angle_beta 160.000000
_cell_angle_gamma 90.000000
_cell_volume 1745.328791
_symmetry_space_group_name_H-M "P 2/M"
_symmetry_group_IT_number 10
_symmetry_cell_setting 'monoclinic'
loop_
_space_group_symop_operation_xyz
x,y,z
-x,y,-z
-x,-y,-z
x,-y,z
loop_
_atom_site_type_symbol
_atom_site_label
_atom_site_fract_x
_atom_site_fract_y
_atom_site_fract_z
Si Si1 0.283472 0.180110 0.347810
Si Si2 0.971808 0.323643 0.182225
Si Si3 0.353024 0.823937 0.778433
Si Si4 0.722075 0.675759 0.090451
Si Si5 0.688513 0.828480 0.899327
Si Si6 0.104016 0.323879 0.676534
Si Si7 0.680845 0.676601 0.353684
Si Si8 0.978340 0.826550 0.930967
O O1 0.500000 0.218424 0.500000
O O2 0.164053 0.247336 0.305782
O O3 0.172181 0.233752 0.217604
O O4 0.268808 0.000000 0.340324
O O5 0.986433 0.500000 0.185126
O O6 0.900301 0.296567 0.185547
O O7 0.804788 0.258529 0.026241
O O8 0.188410 0.772260 0.694253
O O9 0.328632 0.740423 0.708732
O O10 0.352635 0.000000 0.771083
O O11 0.546943 0.770362 0.944483
O O12 0.674396 0.500000 0.050528
O O13 0.779081 0.704102 0.188430
O O14 0.490968 0.754786 0.744891
O O15 0.665403 0.000000 0.898034
O O16 0.823346 0.824973 0.950859
O O17 0.121111 0.500000 0.676830
O O18 0.885770 0.292828 0.524553
O O19 0.652341 0.500000 0.332161
O O20 0.923115 0.000000 0.897790
O O21 0.000000 0.753800 0.000000
#
# Coordination Sequence:
#
# PCOD9155316 Si02
#       8
#     4   4   4   4   4   4   4   4
#     4   9  18  33  53  78 108 142 180 223 270 319
#     4  10  19  33  57  82 107 144 187 224 267 323
#     4  12  24  37  59  86 111 141 183 233 280 330
#     4  10  21  39  60  81 109 149 189 226 274 333
#     4  10  19  33  56  83 110 142 184 230 272 321
#     4  10  23  41  58  79 111 149 186 225 277 335
#     4  11  22  38  59  81 109 148 188 227 275 332
#     4   8  15  30  52  76 105 140 177 214 260 319
#
# _framework density 18.334654
#
# number of rings (size 3 to 8) (size 9 to 14) (size 15 to 20)
#    0.000    2.000    1.250    3.750    0.000    5.250 
#    2.250    0.000    0.000    9.375    0.000    0.000 
#    0.000    0.000    0.000    0.000    0.000    0.000 
#
# Total GULP energy -178549.950756 kJ/mol
# GULP energy per Si atom -5579.685961 kJ/mol
# Density = 1.829292 g / cm^3
# Si number density = 18.334654 Si / 1000 Ang^3
#
#
#
# Elastic Constant Matrix: (Units=GPa)
#
#
# Indices 1 2 3 4 5 6 
#
# 1 28.6422 8.9066 6.4189 0.0000 3.9218 0.0000
# 2 8.9066 36.2881 15.7802 0.0000 8.7319 0.0000
# 3 6.4189 15.7802 54.6841 0.0000 19.3649 0.0000
# 4 0.0000 0.0000 0.0000 24.8382 0.0000 14.5309
# 5 3.9218 8.7319 19.3649 0.0000 25.2110 0.0000
# 6 0.0000 0.0000 0.0000 14.5309 0.0000 17.6409
#
#
#
# Elastic Compliance Matrix: (Units=1/GPa)
#
#
# Indices 1 2 3 4 5 6 
#
# 1 0.038065 -0.008263 -0.001374 0.000000 -0.002004 0.000000
# 2 -0.008263 0.033849 -0.007008 0.000000 -0.005056 0.000000
# 3 -0.001374 -0.007008 0.026834 0.000000 -0.017971 0.000000
# 4 0.000000 0.000000 0.000000 0.077706 0.000000 -0.064006
# 5 -0.002004 -0.005056 -0.017971 0.000000 0.055532 0.000000
# 6 0.000000 0.000000 0.000000 -0.064006 0.000000 0.109409
#
#
# Mechanical properties :
#
#
# Convention : Reuss Voigt Hill
#
# Bulk Modulus (GPa) = 15.27665 20.20288 17.73976
# Shear Modulus (GPa) = 12.61022 19.43860 16.02441
#
# Velocity S-wave (km/s) = 2.62540 3.25962 2.95955
# Velocity P-wave (km/s) = 4.18814 5.02093 4.62332
#
# Compressibility (1/GPa) = 0.06545939
#
# Stress axis : x y z
#
# Youngs Moduli (GPa) = 26.27065 29.54279 37.26591
#
# Poissons Ratio (x) = 0.24411 0.05120
# Poissons Ratio (y) = 0.21708 0.26114
# Poissons Ratio (z) = 0.03610 0.20702
#
# Static dielectric constant tensor:
#      x y z
#    x 1.656640 0.000000 0.000130 
#    y 0.000000 1.620370 0.000000 
#    z 0.000130 0.000000 1.617020 
# 
# From -- ./inp_files/86881.got.cif
#   From: 2010.05.17/outbox.ucp.g08.bks.cvg/sg10_44_cif.got.tgz:86881.got - 2010.06.11 11:31:16.
