data_PCOD9155921
_publ_section_title
;
Structure prediction by ZEFSAII (Michael W. Deem and Ramdas Pophale) SiO2 
 PCOD9155921
Probable space group: P 21/M
;
_chemical_formula_sum "Si O2"
_cell_formula_units_Z 32
_cell_length_a 12.307599
_cell_length_b 8.684292
_cell_length_c 21.219660
_cell_angle_alpha 90.000000
_cell_angle_beta 115.767526
_cell_angle_gamma 90.000000
_cell_volume 2042.496818
_symmetry_space_group_name_H-M "P 21/M"
_symmetry_group_IT_number 11
_symmetry_cell_setting 'monoclinic'
loop_
_space_group_symop_operation_xyz
x,y,z
-x,1/2+y,-z
-x,-y,-z
x,1/2-y,z
loop_
_atom_site_type_symbol
_atom_site_label
_atom_site_fract_x
_atom_site_fract_y
_atom_site_fract_z
Si Si1 0.090947 0.933611 0.611357
Si Si2 0.820364 0.566742 0.493474
Si Si3 0.060600 0.436016 0.737534
Si Si4 0.207002 0.433324 0.305521
Si Si5 0.111765 0.069224 0.885054
Si Si6 0.821365 0.069810 0.833624
Si Si7 0.135863 0.436228 0.026233
Si Si8 0.632635 0.066732 0.543640
O O1 0.106394 0.750000 0.614549
O O2 0.950590 0.966545 0.558369
O O3 0.168488 0.009859 0.575431
O O4 0.113908 0.000684 0.686218
O O5 0.801445 0.750000 0.491258
O O6 0.717912 0.482129 0.507043
O O7 0.059535 0.250000 0.736929
O O8 0.127737 0.492757 0.818389
O O9 0.922305 0.493541 0.708204
O O10 0.197287 0.250000 0.307964
O O11 0.232972 0.483221 0.240179
O O12 0.305947 0.495741 0.378649
O O13 0.141846 0.250000 0.889702
O O14 0.967047 0.057979 0.860366
O O15 0.172731 0.010205 0.964887
O O16 0.791155 0.250000 0.824426
O O17 0.794176 0.998844 0.895236
O O18 0.133065 0.250000 0.026900
O O19 0.000000 0.500000 0.000000
O O20 0.628843 0.250000 0.548151
O O21 0.500000 0.000000 0.500000
#
# Coordination Sequence:
#
# PCOD9155921 Si02
#       8
#     4   4   4   4   4   4   4   4
#     4  10  19  30  47  69  94 120 151 190 231 274
#     4  10  20  34  50  69  92 117 151 189 231 277
#     4  10  17  27  43  63  88 119 150 186 228 268
#     4  11  20  31  45  64  86 112 149 188 227 273
#     4   7  13  22  33  51  77 108 143 177 214 259
#     4   9  16  26  38  54  76 106 143 183 223 262
#     4   9  14  22  34  50  74 106 143 181 217 259
#     4  12  24  38  54  70  92 120 151 190 234 278
#
# _framework density 15.667099
#
# number of rings (size 3 to 8) (size 9 to 14) (size 15 to 20)
#    0.000    2.250    1.250    5.625    0.000    1.000 
#    0.000    1.875    0.000    0.000    0.000    0.000 
#    0.000    0.000    0.000    1.125    0.000   14.375 
#
# Total GULP energy -178264.718343 kJ/mol
# GULP energy per Si atom -5570.772448 kJ/mol
# Density = 1.563144 g / cm^3
# Si number density = 15.667099 Si / 1000 Ang^3
#
#
#
# Elastic Constant Matrix: (Units=GPa)
#
#
# Indices 1 2 3 4 5 6 
#
# 1 30.9512 19.4611 39.2053 0.0000 -10.2225 0.0000
# 2 19.4611 65.7765 28.8262 0.0000 -9.4032 0.0000
# 3 39.2053 28.8262 124.1818 0.0000 -40.3917 0.0000
# 4 0.0000 0.0000 0.0000 26.2052 0.0000 -6.7651
# 5 -10.2225 -9.4032 -40.3917 0.0000 24.8315 0.0000
# 6 0.0000 0.0000 0.0000 -6.7651 0.0000 17.9254
#
#
#
# Elastic Compliance Matrix: (Units=1/GPa)
#
#
# Indices 1 2 3 4 5 6 
#
# 1 0.061698 -0.010825 -0.021315 0.000000 -0.013371 0.000000
# 2 -0.010825 0.018824 -0.000176 0.000000 0.002385 0.000000
# 3 -0.021315 -0.000176 0.025370 0.000000 0.032426 0.000000
# 4 0.000000 0.000000 0.000000 0.042280 0.000000 0.015957
# 5 -0.013371 0.002385 0.032426 0.000000 0.088415 0.000000
# 6 0.000000 0.000000 0.000000 0.015957 0.000000 0.061809
#
#
# Mechanical properties :
#
#
# Convention : Reuss Voigt Hill
#
# Bulk Modulus (GPa) = 24.23670 43.98830 34.11250
# Shear Modulus (GPa) = 13.27033 22.68690 17.97861
#
# Velocity S-wave (km/s) = 2.91352 3.80947 3.39121
# Velocity P-wave (km/s) = 5.17895 6.89110 6.09544
#
# Compressibility (1/GPa) = 0.04125974
#
# Stress axis : x y z
#
# Youngs Moduli (GPa) = 16.20792 53.12382 39.41688
#
# Poissons Ratio (x) = 0.57505 0.84017
# Poissons Ratio (y) = 0.17545 0.00695
# Poissons Ratio (z) = 0.34547 0.00937
#
# Static dielectric constant tensor:
#      x y z
#    x 1.501370 0.000000 -0.031890 
#    y 0.000000 1.522820 0.000000 
#    z -0.031890 0.000000 1.572750 
# 
# From -- ./inp_files/64213.got.cif
#   From: 2010.05.17/outbox.cif.g08.bks.cpg/sg11_33_cif.got.tgz:64213.got - 2010.06.03 12:22:45.
