data_PCOD9155620
_publ_section_title
;
Structure prediction by ZEFSAII (Michael W. Deem and Ramdas Pophale) SiO2 
 PCOD9155620
Probable space group: P 2/M
;
_chemical_formula_sum "Si O2"
_cell_formula_units_Z 28
_cell_length_a 9.000000
_cell_length_b 12.000000
_cell_length_c 15.000000
_cell_angle_alpha 90.000000
_cell_angle_beta 60.000000
_cell_angle_gamma 90.000000
_cell_volume 1402.961154
_symmetry_space_group_name_H-M "P 2/M"
_symmetry_group_IT_number 10
_symmetry_cell_setting 'monoclinic'
loop_
_space_group_symop_operation_xyz
x,y,z
-x,y,-z
-x,-y,-z
x,-y,z
loop_
_atom_site_type_symbol
_atom_site_label
_atom_site_fract_x
_atom_site_fract_y
_atom_site_fract_z
Si Si1 0.952390 0.130620 0.211219
Si Si2 0.976457 0.210536 0.408447
Si Si3 0.695303 0.680317 0.226093
Si Si4 0.700310 0.623804 0.428528
Si Si5 0.667891 0.699523 0.745728
Si Si6 0.329261 0.500000 0.109848
Si Si7 0.664630 0.133450 0.895653
Si Si8 0.197510 0.500000 0.952968
O O1 0.961043 0.143549 0.318054
O O2 0.809407 0.206729 0.204729
O O3 0.146519 0.166842 0.125153
O O4 0.926555 0.000000 0.199073
O O5 0.809525 0.287203 0.449748
O O6 0.000000 0.155505 0.500000
O O7 0.142893 0.290284 0.350887
O O8 0.735031 0.626619 0.311165
O O9 0.488924 0.689709 0.275974
O O10 0.736993 0.607006 0.124849
O O11 0.500000 0.646528 0.500000
O O12 0.738548 0.500000 0.450304
O O13 0.673022 0.605098 0.821991
O O14 0.642173 0.815751 0.805110
O O15 0.500000 0.500000 0.000000
O O16 0.208851 0.500000 0.058451
O O17 0.663924 0.000000 0.893961
O O18 0.500000 0.173380 0.000000
O O19 0.000000 0.500000 0.000000
#
# Coordination Sequence:
#
# PCOD9155620 Si02
#       8
#     4   4   4   4   4   2   4   2
#     4   9  21  40  64  91 124 161 203 256 310 368
#     4  10  22  39  62  91 120 158 203 255 304 368
#     4  11  22  40  59  88 124 160 205 251 307 364
#     4  10  21  37  59  84 124 160 200 250 306 365
#     4  11  23  37  63  87 122 160 206 249 303 366
#     4  12  24  42  59  88 125 164 203 254 299 362
#     4   9  19  37  60  84 115 155 201 253 303 353
#     4  12  28  38  61  88 125 166 207 248 307 364
#
# _framework density 19.957787
#
# number of rings (size 3 to 8) (size 9 to 14) (size 15 to 20)
#    0.000    1.714    2.143    1.286    7.000    1.143 
#    0.000    0.000    0.000   17.571    0.000    0.000 
#    0.000    0.000    0.000    0.000    0.000    0.000 
#
# Total GULP energy -155885.647446 kJ/mol
# GULP energy per Si atom -5567.344552 kJ/mol
# Density = 1.991236 g / cm^3
# Si number density = 19.957787 Si / 1000 Ang^3
#
#
#
# Elastic Constant Matrix: (Units=GPa)
#
#
# Indices 1 2 3 4 5 6 
#
# 1 6.8653 37.2781 -33.9198 0.0000 44.2653 0.0000
# 2 37.2781 59.6602 12.0987 0.0000 -6.9804 0.0000
# 3 -33.9198 12.0987 40.6073 0.0000 16.6922 0.0000
# 4 0.0000 0.0000 0.0000 -15.6340 0.0000 -1.7344
# 5 44.2653 -6.9804 16.6922 0.0000 30.8235 0.0000
# 6 0.0000 0.0000 0.0000 -1.7344 0.0000 18.3530
#
#
#
# Elastic Compliance Matrix: (Units=1/GPa)
#
#
# Indices 1 2 3 4 5 6 
#
# 1 -0.003578 0.005459 -0.009308 0.000000 0.011416 0.000000
# 2 0.005459 0.011634 0.004159 0.000000 -0.007458 0.000000
# 3 -0.009308 0.004159 0.012516 0.000000 0.007532 0.000000
# 4 0.000000 0.000000 0.000000 -0.063300 0.000000 -0.005982
# 5 0.011416 -0.007458 0.007532 0.000000 0.010281 0.000000
# 6 0.000000 0.000000 0.000000 -0.005982 0.000000 0.053922
#
#
# Mechanical properties :
#
#
# Convention : Reuss Voigt Hill
#
# Bulk Modulus (GPa) = 47.18690 15.33853 31.26272
# Shear Modulus (GPa) = 179.09117 12.82024 95.95570
#
# Velocity S-wave (km/s) = 9.48313 2.53725 6.94145
# Velocity P-wave (km/s) = 11.98337 4.03555 8.94111
#
# Compressibility (1/GPa) = 0.02119232
#
# Stress axis : x y z
#
# Youngs Moduli (GPa) = -279.46109 85.95165 79.89968
#
# Poissons Ratio (x) = -0.46923 0.74372
# Poissons Ratio (y) = 1.52563 -0.33232
# Poissons Ratio (z) = -2.60128 -0.35749
#
# Static dielectric constant tensor:
#      x y z
#    x 1.660680 0.000000 -0.076450 
#    y 0.000000 1.713510 0.000000 
#    z -0.076450 0.000000 1.740090 
# 
# From -- ./inp_files/61161.got.cif
#   From: 2010.05.17/outbox.ucp.g08.bks.cvg/sg10_31_cif.got.tgz:61161.got - 2010.06.11 11:31:16.
