data_PCOD9155031
_publ_section_title
;
Structure prediction by ZEFSAII (Michael W. Deem and Ramdas Pophale) SiO2 
 PCOD9155031
Probable space group: P 2/M
;
_chemical_formula_sum "Si O2"
_cell_formula_units_Z 28
_cell_length_a 12.073948
_cell_length_b 7.447829
_cell_length_c 20.298184
_cell_angle_alpha 90.000000
_cell_angle_beta 128.398781
_cell_angle_gamma 90.000000
_cell_volume 1430.506143
_symmetry_space_group_name_H-M "P 2/M"
_symmetry_group_IT_number 10
_symmetry_cell_setting 'monoclinic'
loop_
_space_group_symop_operation_xyz
x,y,z
-x,y,-z
-x,-y,-z
x,-y,z
loop_
_atom_site_type_symbol
_atom_site_label
_atom_site_fract_x
_atom_site_fract_y
_atom_site_fract_z
Si Si1 0.948244 0.280663 0.675616
Si Si2 0.608169 0.280496 0.352578
Si Si3 0.699937 0.707420 0.799760
Si Si4 0.987854 0.284112 0.837026
Si Si5 0.143835 0.788613 0.020114
Si Si6 0.900382 0.719223 0.401954
Si Si7 0.641696 0.281287 0.516335
O O1 0.950463 0.500000 0.676208
O O2 0.000177 0.221668 0.766573
O O3 0.785748 0.225278 0.604733
O O4 0.037430 0.222101 0.645103
O O5 0.606860 0.500000 0.350021
O O6 0.452752 0.215923 0.274393
O O7 0.740009 0.223623 0.356659
O O8 0.639918 0.228348 0.439449
O O9 0.694555 0.500000 0.776455
O O10 0.839851 0.783569 0.815024
O O11 0.730287 0.712932 0.889261
O O12 0.979673 0.500000 0.833180
O O13 0.117748 0.239488 0.933395
O O14 0.148428 0.000000 0.033584
O O15 0.000000 0.713124 0.000000
O O16 0.903047 0.500000 0.402876
O O17 0.000000 0.774196 0.500000
O O18 0.500000 0.220224 0.500000
O O19 0.640784 0.500000 0.517209
#
# Coordination Sequence:
#
# PCOD9155031 Si02
#       7
#     4   4   4   4   4   4   4
#     4   9  15  22  34  54  82 114 144 172 205 247
#     4   9  15  22  34  54  82 114 144 172 205 247
#     4   9  16  26  41  63  89 113 138 172 214 254
#     4   9  16  26  41  63  89 113 138 172 214 254
#     4   9  17  29  45  64  85 110 140 173 212 261
#     4   9  14  22  34  51  81 118 148 173 205 244
#     4   9  14  19  29  49  80 113 139 166 204 249
#
# _framework density 19.57349
#
# number of rings (size 3 to 8) (size 9 to 14) (size 15 to 20)
#    0.000    3.000    1.429    1.286    0.000    5.143 
#    0.000    0.000    0.000    0.857    0.000    8.000 
#    0.000    6.857    0.000    0.000    0.000    0.000 
#
# Total GULP energy -156119.849928 kJ/mol
# GULP energy per Si atom -5575.708926 kJ/mol
# Density = 1.952894 g / cm^3
# Si number density = 19.573490 Si / 1000 Ang^3
#
#
#
# Elastic Constant Matrix: (Units=GPa)
#
#
# Indices 1 2 3 4 5 6 
#
# 1 88.3822 -2.3182 14.0223 0.0000 -26.2828 0.0000
# 2 -2.3182 58.8374 -9.3238 0.0000 0.5754 0.0000
# 3 14.0223 -9.3238 81.0767 0.0000 -31.3749 0.0000
# 4 0.0000 0.0000 0.0000 -75.4925 0.0000 9.9784
# 5 -26.2828 0.5754 -31.3749 0.0000 25.6396 0.0000
# 6 0.0000 0.0000 0.0000 9.9784 0.0000 -8.3078
#
#
#
# Elastic Compliance Matrix: (Units=1/GPa)
#
#
# Indices 1 2 3 4 5 6 
#
# 1 0.018789 0.001775 0.008343 0.000000 0.029431 0.000000
# 2 0.001775 0.017686 0.004326 0.000000 0.006716 0.000000
# 3 0.008343 0.004326 0.027848 0.000000 0.042533 0.000000
# 4 0.000000 0.000000 0.000000 -0.015746 0.000000 -0.018912
# 5 0.029431 0.006716 0.042533 0.000000 0.121067 0.000000
# 6 0.000000 0.000000 0.000000 -0.018912 0.000000 -0.143084
#
#
# Mechanical properties :
#
#
# Convention : Reuss Voigt Hill
#
# Bulk Modulus (GPa) = 10.72841 25.89520 18.31181
# Shear Modulus (GPa) = 173.96021 3.42892 88.69456
#
# Velocity S-wave (km/s) = 9.43760 1.32500 6.73884
# Velocity P-wave (km/s) = 11.14678 3.94959 8.36212
#
# Compressibility (1/GPa) = 0.09321043
#
# Stress axis : x y z
#
# Youngs Moduli (GPa) = 53.22178 56.54276 35.90970
#
# Poissons Ratio (x) = -0.10034 -0.29961
# Poissons Ratio (y) = -0.09445 -0.15534
# Poissons Ratio (z) = -0.44405 -0.24459
#
# Static dielectric constant tensor:
#      x y z
#    x 1.665540 0.000000 -0.010190 
#    y 0.000000 1.757010 0.000000 
#    z -0.010190 0.000000 1.689080 
# 
# From -- ./inp_files/53394.got.cif
#   From: 2010.05.17/outbox.cif.g08.bks.cpg/sg10_27_cif.got.tgz:53394.got - 2010.06.03 11:33:40.
