data_PCOD9155934
_publ_section_title
;
Structure prediction by ZEFSAII (Michael W. Deem and Ramdas Pophale) SiO2 
 PCOD9155934
Probable space group: P 21/M
;
_chemical_formula_sum "Si O2"
_cell_formula_units_Z 32
_cell_length_a 12.182115
_cell_length_b 8.761655
_cell_length_c 20.378142
_cell_angle_alpha 90.000000
_cell_angle_beta 121.339808
_cell_angle_gamma 90.000000
_cell_volume 1857.723033
_symmetry_space_group_name_H-M "P 21/M"
_symmetry_group_IT_number 11
_symmetry_cell_setting 'monoclinic'
loop_
_space_group_symop_operation_xyz
x,y,z
-x,1/2+y,-z
-x,-y,-z
x,1/2-y,z
loop_
_atom_site_type_symbol
_atom_site_label
_atom_site_fract_x
_atom_site_fract_y
_atom_site_fract_z
Si Si1 0.880527 0.426531 0.167242
Si Si2 0.398984 0.433368 0.771357
Si Si3 0.423321 0.434168 0.538078
Si Si4 0.418417 0.564021 0.284873
Si Si5 0.868295 0.426335 0.322986
Si Si6 0.149472 0.933314 0.258407
Si Si7 0.609977 0.567056 0.080085
Si Si8 0.851491 0.935073 0.595115
O O1 0.879176 0.250000 0.147265
O O2 0.877455 0.432045 0.246128
O O3 0.751561 0.509509 0.104025
O O4 0.014082 0.505126 0.189745
O O5 0.400628 0.250000 0.772536
O O6 0.514045 0.488545 0.760818
O O7 0.260587 0.483905 0.700133
O O8 0.410226 0.484450 0.850401
O O9 0.500000 0.500000 0.500000
O O10 0.430113 0.250000 0.537183
O O11 0.492930 0.483736 0.626271
O O12 0.273389 0.477020 0.485732
O O13 0.418297 0.750000 0.283907
O O14 0.272532 0.517211 0.254123
O O15 0.853226 0.250000 0.337830
O O16 0.008799 0.484190 0.388699
O O17 0.146004 0.750000 0.260589
O O18 0.166523 0.996950 0.337637
O O19 0.606738 0.750000 0.077401
O O20 0.500000 0.500000 0.000000
O O21 0.856991 0.750000 0.602760
#
# Coordination Sequence:
#
# PCOD9155934 Si02
#       8
#     4   4   4   4   4   4   4   4
#     4   9  17  30  48  72 101 127 156 196 237 281
#     4   9  18  33  50  69  94 127 162 191 231 291
#     4  10  18  30  46  66  93 126 163 205 247 286
#     4   9  18  31  47  68  96 129 162 199 243 287
#     4   8  15  28  44  64  90 122 156 196 240 278
#     4  10  17  27  46  70  95 125 162 201 238 279
#     4  10  19  32  54  80 102 126 156 194 237 284
#     4   9  17  28  44  65  92 123 159 204 250 288
#
# _framework density 17.225387999999999
#
# number of rings (size 3 to 8) (size 9 to 14) (size 15 to 20)
#    0.000    2.750    1.250    1.875    0.000    3.500 
#    0.000    2.500    0.000    0.750    0.000    0.000 
#    0.000    0.000    0.000    0.000    0.000    0.000 
#
# Total GULP energy -178286.376393 kJ/mol
# GULP energy per Si atom -5571.449262 kJ/mol
# Density = 1.718618 g / cm^3
# Si number density = 17.225388 Si / 1000 Ang^3
#
#
#
# Elastic Constant Matrix: (Units=GPa)
#
#
# Indices 1 2 3 4 5 6 
#
# 1 141.3739 27.9924 62.7562 0.0000 26.3581 0.0000
# 2 27.9924 26.4667 22.5342 0.0000 10.2118 0.0000
# 3 62.7562 22.5342 80.9172 0.0000 29.9766 0.0000
# 4 0.0000 0.0000 0.0000 18.0950 0.0000 8.5403
# 5 26.3581 10.2118 29.9766 0.0000 30.0951 0.0000
# 6 0.0000 0.0000 0.0000 8.5403 0.0000 22.2442
#
#
#
# Elastic Compliance Matrix: (Units=1/GPa)
#
#
# Indices 1 2 3 4 5 6 
#
# 1 0.011497 -0.005867 -0.006798 0.000000 -0.001307 0.000000
# 2 -0.005867 0.052973 -0.008632 0.000000 -0.004238 0.000000
# 3 -0.006798 -0.008632 0.026536 0.000000 -0.017548 0.000000
# 4 0.000000 0.000000 0.000000 0.067494 0.000000 -0.025914
# 5 -0.001307 -0.004238 -0.017548 0.000000 0.053289 0.000000
# 6 0.000000 0.000000 0.000000 -0.025914 0.000000 0.054905
#
#
# Mechanical properties :
#
#
# Convention : Reuss Voigt Hill
#
# Bulk Modulus (GPa) = 20.65655 52.81369 36.73512
# Shear Modulus (GPa) = 15.36453 23.11853 19.24153
#
# Velocity S-wave (km/s) = 2.98983 3.66747 3.34585
# Velocity P-wave (km/s) = 4.89252 6.97572 6.02484
#
# Compressibility (1/GPa) = 0.04841079
#
# Stress axis : x y z
#
# Youngs Moduli (GPa) = 86.98295 18.87751 37.68536
#
# Poissons Ratio (x) = 0.11075 0.25620
# Poissons Ratio (y) = 0.51032 0.32530
# Poissons Ratio (z) = 0.59134 0.16295
#
# Static dielectric constant tensor:
#      x y z
#    x 1.600850 0.000000 0.015190 
#    y 0.000000 1.583920 0.000000 
#    z 0.015190 0.000000 1.574250 
# 
# From -- ./inp_files/40669.got.cif
#   From: 2010.05.17/outbox.cif.g08.bks.cpg/sg11_21_cif.got.tgz:40669.got - 2010.06.03 12:22:45.
