data_PCOD9155665
_publ_section_title
;
Structure prediction by ZEFSAII (Michael W. Deem and Ramdas Pophale) SiO2 
 PCOD9155665
Probable space group: P 2/M
;
_chemical_formula_sum "Si O2"
_cell_formula_units_Z 32
_cell_length_a 24.000000
_cell_length_b 9.000000
_cell_length_c 15.000000
_cell_angle_alpha 90.000000
_cell_angle_beta 30.000000
_cell_angle_gamma 90.000000
_cell_volume 1620.000000
_symmetry_space_group_name_H-M "P 2/M"
_symmetry_group_IT_number 10
_symmetry_cell_setting 'monoclinic'
loop_
_space_group_symop_operation_xyz
x,y,z
-x,y,-z
-x,-y,-z
x,-y,z
loop_
_atom_site_type_symbol
_atom_site_label
_atom_site_fract_x
_atom_site_fract_y
_atom_site_fract_z
Si Si1 0.889626 0.176270 0.205503
Si Si2 0.531918 0.675661 0.230558
Si Si3 0.671930 0.824905 0.385328
Si Si4 0.532759 0.822269 0.852383
Si Si5 0.856171 0.320293 0.607796
Si Si6 0.882504 0.319712 0.766402
Si Si7 0.709614 0.677238 0.142792
Si Si8 0.771403 0.679330 0.532624
O O1 0.787476 0.193954 0.278158
O O2 0.860716 0.262132 0.336741
O O3 0.900341 0.000000 0.211053
O O4 0.000000 0.225651 0.000000
O O5 0.525018 0.500000 0.222937
O O6 0.420553 0.737499 0.430775
O O7 0.546126 0.756546 0.115715
O O8 0.624216 0.698859 0.179097
O O9 0.679854 0.762198 0.274070
O O10 0.644649 0.000000 0.421203
O O11 0.653057 0.748585 0.670031
O O12 0.539125 0.000000 0.834283
O O13 0.500000 0.787242 0.000000
O O14 0.844786 0.500000 0.625135
O O15 0.828713 0.268054 0.746669
O O16 0.795723 0.270689 0.601209
O O17 0.987116 0.285339 0.415092
O O18 0.872507 0.500000 0.779672
O O19 0.824377 0.270448 0.937834
O O20 0.712835 0.500000 0.158120
O O21 0.768014 0.500000 0.535005
#
# Coordination Sequence:
#
# PCOD9155665 Si02
#       8
#     4   4   4   4   4   4   4   4
#     4  10  23  42  61  83 119 166 205 242 296 358
#     4  11  23  40  62  89 117 149 193 249 302 348
#     4  11  23  40  61  83 115 158 198 239 293 356
#     4  11  25  43  62  86 120 164 203 240 296 364
#     4   8  16  30  53  83 117 151 186 225 285 347
#     4   8  15  32  53  80 118 154 183 229 284 343
#     4  10  22  36  59  88 116 149 192 245 298 345
#     4  11  22  36  62  96 121 151 197 252 302 352
#
# _framework density 19.753086
#
# number of rings (size 3 to 8) (size 9 to 14) (size 15 to 20)
#    0.000    2.000    1.250    2.625    3.500    4.250 
#    0.000    0.000    0.000    0.000    0.000    4.375 
#    0.000    0.000    0.000    0.000    0.000    0.000 
#
# Total GULP energy -178626.077393 kJ/mol
# GULP energy per Si atom -5582.064919 kJ/mol
# Density = 1.970813 g / cm^3
# Si number density = 19.753086 Si / 1000 Ang^3
#
#
#
# Elastic Constant Matrix: (Units=GPa)
#
#
# Indices 1 2 3 4 5 6 
#
# 1 86.5503 22.9637 -3.8128 0.0000 28.4713 0.0000
# 2 22.9637 35.7803 7.0816 0.0000 9.7302 0.0000
# 3 -3.8128 7.0816 51.4593 0.0000 17.5691 0.0000
# 4 0.0000 0.0000 0.0000 21.3929 0.0000 9.6102
# 5 28.4713 9.7302 17.5691 0.0000 35.7764 0.0000
# 6 0.0000 0.0000 0.0000 9.6102 0.0000 27.6169
#
#
#
# Elastic Compliance Matrix: (Units=1/GPa)
#
#
# Indices 1 2 3 4 5 6 
#
# 1 0.020588 -0.010090 0.009096 0.000000 -0.018107 0.000000
# 2 -0.010090 0.035238 -0.006087 0.000000 0.001435 0.000000
# 3 0.009096 -0.006087 0.027454 0.000000 -0.019065 0.000000
# 4 0.000000 0.000000 0.000000 0.055406 0.000000 -0.019280
# 5 -0.018107 0.001435 -0.019065 0.000000 0.051334 0.000000
# 6 0.000000 0.000000 0.000000 -0.019280 0.000000 0.042919
#
#
# Mechanical properties :
#
#
# Convention : Reuss Voigt Hill
#
# Bulk Modulus (GPa) = 14.46770 25.13944 19.80357
# Shear Modulus (GPa) = 18.50902 26.79440 22.65171
#
# Velocity S-wave (km/s) = 3.06440 3.68702 3.39003
# Velocity P-wave (km/s) = 4.45655 5.55697 5.03691
#
# Compressibility (1/GPa) = 0.06911949
#
# Stress axis : x y z
#
# Youngs Moduli (GPa) = 48.57177 28.37820 36.42502
#
# Poissons Ratio (x) = 0.28632 -0.33132
# Poissons Ratio (y) = 0.49007 0.22171
# Poissons Ratio (z) = -0.44181 0.17273
#
# Static dielectric constant tensor:
#      x y z
#    x 1.705730 0.000000 -0.020120 
#    y 0.000000 1.662590 0.000000 
#    z -0.020120 0.000000 1.723720 
# 
# From -- ./inp_files/71413.got.cif
#   From: 2010.05.17/outbox.ucp.g08.bks.cvg/sg10_36_cif.got.tgz:71413.got - 2010.06.11 11:31:16.
