data_PCOD9155616
_publ_section_title
;
Structure prediction by ZEFSAII (Michael W. Deem and Ramdas Pophale) SiO2 
 PCOD9155616
Probable space group: P 2/M
;
_chemical_formula_sum "Si O2"
_cell_formula_units_Z 22
_cell_length_a 12.000000
_cell_length_b 18.000000
_cell_length_c 6.000000
_cell_angle_alpha 90.000000
_cell_angle_beta 70.000000
_cell_angle_gamma 90.000000
_cell_volume 1217.841637
_symmetry_space_group_name_H-M "P 2/M"
_symmetry_group_IT_number 10
_symmetry_cell_setting 'monoclinic'
loop_
_space_group_symop_operation_xyz
x,y,z
-x,y,-z
-x,-y,-z
x,-y,z
loop_
_atom_site_type_symbol
_atom_site_label
_atom_site_fract_x
_atom_site_fract_y
_atom_site_fract_z
Si Si1 0.000000 0.844720 0.000000
Si Si2 0.844906 0.917756 0.471046
Si Si3 0.773087 0.807362 0.901465
Si Si4 0.643040 0.585801 0.402605
Si Si5 0.644187 0.345979 0.901259
Si Si6 0.378742 0.084210 0.704261
O O1 0.049558 0.896516 0.768436
O O2 0.884957 0.799184 0.994106
O O3 0.826804 0.854075 0.662272
O O4 0.725281 0.919330 0.406735
O O5 0.860703 0.000000 0.558632
O O6 0.712749 0.731892 0.866052
O O7 0.670719 0.858338 0.082358
O O8 0.500000 0.589187 0.500000
O O9 0.681475 0.500000 0.379491
O O10 0.675182 0.619265 0.630790
O O11 0.674719 0.617296 0.128483
O O12 0.500000 0.339164 0.000000
O O13 0.500000 0.107074 0.500000
O O14 0.395292 0.000000 0.783487
#
# Coordination Sequence:
#
# PCOD9155616 Si02
#       6
#     2   4   4   4   4   4
#     4  10  23  40  54  76 107 150 204 256 307 348
#     4  10  21  37  57  78 105 146 204 260 303 347
#     4  11  23  35  56  80 115 150 197 246 306 350
#     4   9  18  36  59  88 124 159 191 228 281 353
#     4  10  22  34  58  92 125 157 191 235 293 356
#     4   9  20  35  52  76 111 154 195 238 297 363
#
# _framework density 18.064746
#
# number of rings (size 3 to 8) (size 9 to 14) (size 15 to 20)
#    0.000    2.182    0.000    1.909    7.636    5.818 
#    0.000    2.727    0.000    0.000    0.000    3.818 
#    0.000    0.000    0.000    0.000    0.000    0.000 
#
# Total GULP energy -122482.060713 kJ/mol
# GULP energy per Si atom -5567.366396 kJ/mol
# Density = 1.802363 g / cm^3
# Si number density = 18.064746 Si / 1000 Ang^3
#
#
#
# Elastic Constant Matrix: (Units=GPa)
#
#
# Indices 1 2 3 4 5 6 
#
# 1 55.1023 48.2916 39.9587 0.0000 -10.0717 0.0000
# 2 48.2916 130.5800 83.7726 0.0000 15.2451 0.0000
# 3 39.9587 83.7726 144.7543 0.0000 6.8687 0.0000
# 4 0.0000 0.0000 0.0000 29.9624 0.0000 13.1261
# 5 -10.0717 15.2451 6.8687 0.0000 31.9352 0.0000
# 6 0.0000 0.0000 0.0000 13.1261 0.0000 19.7579
#
#
#
# Elastic Compliance Matrix: (Units=1/GPa)
#
#
# Indices 1 2 3 4 5 6 
#
# 1 0.035155 -0.013252 -0.002891 0.000000 0.018035 0.000000
# 2 -0.013252 0.017803 -0.006105 0.000000 -0.011365 0.000000
# 3 -0.002891 -0.006105 0.011259 0.000000 -0.000419 0.000000
# 4 0.000000 0.000000 0.000000 0.047076 0.000000 -0.031275
# 5 0.018035 -0.011365 -0.000419 0.000000 0.042517 0.000000
# 6 0.000000 0.000000 0.000000 -0.031275 0.000000 0.071390
#
#
# Mechanical properties :
#
#
# Convention : Reuss Voigt Hill
#
# Bulk Modulus (GPa) = 50.70854 74.94250 62.82552
# Shear Modulus (GPa) = 18.09814 26.89202 22.49508
#
# Velocity S-wave (km/s) = 3.16863 3.86248 3.53263
# Velocity P-wave (km/s) = 6.44347 7.84011 7.17585
#
# Compressibility (1/GPa) = 0.01972054
#
# Stress axis : x y z
#
# Youngs Moduli (GPa) = 28.44524 56.17046 88.81394
#
# Poissons Ratio (x) = 0.74439 0.25674
# Poissons Ratio (y) = 0.37697 0.54225
# Poissons Ratio (z) = 0.08223 0.34295
#
# Static dielectric constant tensor:
#      x y z
#    x 1.630450 0.000000 0.041810 
#    y 0.000000 1.622330 0.000000 
#    z 0.041810 0.000000 1.655070 
# 
# From -- ./inp_files/7166.got.cif
#   From: 2010.05.17/outbox.ucp.g08.bks.cvg/sg10_4_cif.got.tgz:7166.got - 2010.06.11 11:31:16.
