data_PCOD9155041
_publ_section_title
;
Structure prediction by ZEFSAII (Michael W. Deem and Ramdas Pophale) SiO2 
 PCOD9155041
Probable space group: P 2/M
;
_chemical_formula_sum "Si O2"
_cell_formula_units_Z 20
_cell_length_a 13.305089
_cell_length_b 7.731158
_cell_length_c 18.897485
_cell_angle_alpha 90.000000
_cell_angle_beta 146.821960
_cell_angle_gamma 90.000000
_cell_volume 1063.766083
_symmetry_space_group_name_H-M "P 2/M"
_symmetry_group_IT_number 10
_symmetry_cell_setting 'monoclinic'
loop_
_space_group_symop_operation_xyz
x,y,z
-x,y,-z
-x,-y,-z
x,-y,z
loop_
_atom_site_type_symbol
_atom_site_label
_atom_site_fract_x
_atom_site_fract_y
_atom_site_fract_z
Si Si1 0.619217 0.792752 0.403646
Si Si2 0.790151 0.788727 0.360376
Si Si3 0.653192 0.705230 0.645119
Si Si4 0.927368 0.793816 0.696167
Si Si5 0.694168 0.212057 0.145372
O O1 0.662813 0.730683 0.350477
O O2 0.422659 0.753449 0.322708
O O3 0.777812 0.725184 0.550889
O O4 0.636553 0.000000 0.412506
O O5 0.726555 0.732943 0.245453
O O6 0.000000 0.736883 0.500000
O O7 0.789440 0.000000 0.359044
O O8 0.500000 0.779650 0.500000
O O9 0.648211 0.500000 0.637672
O O10 0.846952 0.760583 0.726748
O O11 0.130067 0.730206 0.797001
O O12 0.931645 0.000000 0.689095
O O13 0.692599 0.000000 0.143958
O O14 0.500000 0.269801 0.000000
#
# Coordination Sequence:
#
# PCOD9155041 Si02
#       5
#     4   4   4   4   4
#     4   9  15  24  42  65  87 112 144 178 212 257
#     4   9  14  23  40  63  89 115 142 174 215 260
#     4   9  17  27  40  61  89 115 141 180 225 258
#     4   9  15  25  42  63  87 114 145 177 211 257
#     4   9  16  25  40  65  93 116 140 176 219 258
#
# _framework density 18.801124999999999
#
# number of rings (size 3 to 8) (size 9 to 14) (size 15 to 20)
#    0.000    3.000    2.000    0.600    0.000    2.400 
#    0.000    0.000    0.000    3.600    0.000    8.400 
#    0.000    0.000    0.000    0.000    0.000    0.000 
#
# Total GULP energy -111406.816432 kJ/mol
# GULP energy per Si atom -5570.340822 kJ/mol
# Density = 1.875833 g / cm^3
# Si number density = 18.801125 Si / 1000 Ang^3
#
#
#
# Elastic Constant Matrix: (Units=GPa)
#
#
# Indices 1 2 3 4 5 6 
#
# 1 229.1662 4.7494 86.4998 0.0000 20.3046 0.0000
# 2 4.7494 26.7868 5.1968 0.0000 2.0510 0.0000
# 3 86.4998 5.1968 100.0504 0.0000 5.8315 0.0000
# 4 0.0000 0.0000 0.0000 -0.6511 0.0000 -6.2737
# 5 20.3046 2.0510 5.8315 0.0000 19.0739 0.0000
# 6 0.0000 0.0000 0.0000 -6.2737 0.0000 -39.2410
#
#
#
# Elastic Compliance Matrix: (Units=1/GPa)
#
#
# Indices 1 2 3 4 5 6 
#
# 1 0.007047 0.000312 -0.005773 0.000000 -0.005771 0.000000
# 2 0.000312 0.037959 -0.002020 0.000000 -0.003796 0.000000
# 3 -0.005773 -0.002020 0.014987 0.000000 0.001781 0.000000
# 4 0.000000 0.000000 0.000000 2.841848 0.000000 -0.454340
# 5 -0.005771 -0.003796 0.001781 0.000000 0.058435 0.000000
# 6 0.000000 0.000000 0.000000 -0.454340 0.000000 0.047154
#
#
# Mechanical properties :
#
#
# Convention : Reuss Voigt Hill
#
# Bulk Modulus (GPa) = 22.20653 60.98836 41.59744
# Shear Modulus (GPa) = 1.64614 13.14018 7.39316
#
# Velocity S-wave (km/s) = 0.93673 2.64655 1.98515
# Velocity P-wave (km/s) = 3.60650 6.46901 5.23712
#
# Compressibility (1/GPa) = 0.04503181
#
# Stress axis : x y z
#
# Youngs Moduli (GPa) = 141.89514 26.34413 66.72403
#
# Poissons Ratio (x) = -0.00823 0.38519
# Poissons Ratio (y) = -0.04431 0.13481
# Poissons Ratio (z) = 0.81914 0.05323
#
# Static dielectric constant tensor:
#      x y z
#    x 1.696960 0.000000 0.008770 
#    y 0.000000 1.676010 0.000000 
#    z 0.008770 0.000000 1.618340 
# 
# From -- ./inp_files/23459.got.cif
#   From: 2010.05.17/outbox.cif.g08.bks.cpg/sg10_12_cif.got.tgz:23459.got - 2010.06.03 11:33:40.
