data_PCOD9155635
_publ_section_title
;
Structure prediction by ZEFSAII (Michael W. Deem and Ramdas Pophale) SiO2 
 PCOD9155635
Probable space group: P 2/M
;
_chemical_formula_sum "Si O2"
_cell_formula_units_Z 28
_cell_length_a 9.000000
_cell_length_b 9.000000
_cell_length_c 27.000000
_cell_angle_alpha 90.000000
_cell_angle_beta 40.000000
_cell_angle_gamma 90.000000
_cell_volume 1405.776502
_symmetry_space_group_name_H-M "P 2/M"
_symmetry_group_IT_number 10
_symmetry_cell_setting 'monoclinic'
loop_
_space_group_symop_operation_xyz
x,y,z
-x,y,-z
-x,-y,-z
x,-y,z
loop_
_atom_site_type_symbol
_atom_site_label
_atom_site_fract_x
_atom_site_fract_y
_atom_site_fract_z
Si Si1 0.162524 0.170822 0.364543
Si Si2 0.228798 0.170033 0.081036
Si Si3 0.126927 0.823544 0.918466
Si Si4 0.627324 0.324109 0.782116
Si Si5 0.020326 0.325874 0.221814
Si Si6 0.675170 0.325666 0.499898
Si Si7 0.458276 0.829000 0.645863
O O1 0.266104 0.278027 0.297087
O O2 0.341190 0.174488 0.364338
O O3 0.906502 0.228032 0.441681
O O4 0.152475 0.000000 0.349485
O O5 0.173244 0.294499 0.134978
O O6 0.054045 0.194843 0.080064
O O7 0.183787 0.000000 0.110798
O O8 0.500000 0.175853 0.000000
O O9 0.375488 0.748605 0.849936
O O10 0.168668 0.000000 0.912874
O O11 0.000000 0.768169 0.000000
O O12 0.601832 0.500000 0.793606
O O13 0.818619 0.276213 0.773648
O O14 0.962310 0.500000 0.242564
O O15 0.790950 0.228006 0.273242
O O16 0.500000 0.291387 0.500000
O O17 0.735524 0.500000 0.481920
O O18 0.534404 0.284494 0.584408
O O19 0.441331 0.000000 0.632481
#
# Coordination Sequence:
#
# PCOD9155635 Si02
#       7
#     4   4   4   4   4   4   4
#     4  11  24  41  62  89 119 153 196 242 289 345
#     4  10  21  38  61  88 117 152 195 241 291 348
#     4  10  21  38  61  88 117 152 195 241 291 348
#     4  11  24  40  59  86 119 155 196 241 291 347
#     4  11  24  40  59  86 119 155 196 241 291 347
#     4  11  24  41  62  90 122 155 194 239 288 344
#     4  11  24  41  62  89 119 153 196 242 289 345
#
# _framework density 19.917818
#
# number of rings (size 3 to 8) (size 9 to 14) (size 15 to 20)
#    0.000    1.286    0.000    5.143    0.000   16.571 
#    0.000    0.000    0.000    0.000    0.000    0.000 
#    0.000    0.000    0.000    0.000    0.000    0.000 
#
# Total GULP energy -156394.821105 kJ/mol
# GULP energy per Si atom -5585.529325 kJ/mol
# Density = 1.987248 g / cm^3
# Si number density = 19.917818 Si / 1000 Ang^3
#
#
#
# Elastic Constant Matrix: (Units=GPa)
#
#
# Indices 1 2 3 4 5 6 
#
# 1 75.3822 44.1038 5.5575 0.0000 -16.1784 0.0000
# 2 44.1038 9.5741 5.5497 0.0000 -18.9627 0.0000
# 3 5.5575 5.5497 58.0430 0.0000 -15.9078 0.0000
# 4 0.0000 0.0000 0.0000 51.0559 0.0000 -5.6058
# 5 -16.1784 -18.9627 -15.9078 0.0000 35.2127 0.0000
# 6 0.0000 0.0000 0.0000 -5.6058 0.0000 6.5632
#
#
#
# Elastic Compliance Matrix: (Units=1/GPa)
#
#
# Indices 1 2 3 4 5 6 
#
# 1 0.000628 0.027131 0.001631 0.000000 0.015636 0.000000
# 2 0.027131 -0.052196 -0.002162 0.000000 -0.016620 0.000000
# 3 0.001631 -0.002162 0.019591 0.000000 0.008436 0.000000
# 4 0.000000 0.000000 0.000000 0.021613 0.000000 0.018460
# 5 0.015636 -0.016620 0.008436 0.000000 0.030443 0.000000
# 6 0.000000 0.000000 0.000000 0.018460 0.000000 0.168132
#
#
# Mechanical properties :
#
#
# Convention : Reuss Voigt Hill
#
# Bulk Modulus (GPa) = 47.12035 28.15791 37.63913
# Shear Modulus (GPa) = 35.18997 24.41892 29.80445
#
# Velocity S-wave (km/s) = 4.20784 3.50520 3.87249
# Velocity P-wave (km/s) = 6.87871 5.52718 6.23964
#
# Compressibility (1/GPa) = 0.02122225
#
# Stress axis : x y z
#
# Youngs Moduli (GPa) = 1592.66004 -19.15854 51.04359
#
# Poissons Ratio (x) = 0.51978 -0.08325
# Poissons Ratio (y) = -43.20995 0.11036
# Poissons Ratio (z) = -2.59771 -0.04142
#
# Static dielectric constant tensor:
#      x y z
#    x 1.465940 0.000000 0.161820 
#    y 0.000000 1.668710 0.000000 
#    z 0.161820 0.000000 1.658180 
# 
# From -- ./inp_files/37105.got.cif
#   From: 2010.05.17/outbox.ucp.g08.bks.cvg/sg10_19_cif.got.tgz:37105.got - 2010.06.11 11:31:16.
