data_PCOD9155379
_publ_section_title
;
Structure prediction by ZEFSAII (Michael W. Deem and Ramdas Pophale) SiO2 
 PCOD9155379
Probable space group: P 2/M
;
_chemical_formula_sum "Si O2"
_cell_formula_units_Z 32
_cell_length_a 21.000000
_cell_length_b 9.000000
_cell_length_c 27.000000
_cell_angle_alpha 90.000000
_cell_angle_beta 160.000000
_cell_angle_gamma 90.000000
_cell_volume 1745.328791
_symmetry_space_group_name_H-M "P 2/M"
_symmetry_group_IT_number 10
_symmetry_cell_setting 'monoclinic'
loop_
_space_group_symop_operation_xyz
x,y,z
-x,y,-z
-x,-y,-z
x,-y,z
loop_
_atom_site_type_symbol
_atom_site_label
_atom_site_fract_x
_atom_site_fract_y
_atom_site_fract_z
Si Si1 0.941776 0.678874 0.533469
Si Si2 0.920291 0.180296 0.095129
Si Si3 0.265045 0.180114 0.703796
Si Si4 0.683939 0.178753 0.017003
Si Si5 0.568493 0.170597 0.606731
Si Si6 0.983214 0.179689 0.670729
Si Si7 0.218258 0.676378 0.385268
Si Si8 0.039095 0.322364 0.087027
O O1 0.933831 0.500000 0.525728
O O2 0.777692 0.754777 0.381709
O O3 0.947478 0.741014 0.592926
O O4 0.122798 0.741937 0.637201
O O5 0.102551 0.247803 0.255768
O O6 0.897848 0.254151 0.024808
O O7 0.762475 0.221142 0.020312
O O8 0.935337 0.000000 0.102506
O O9 0.241790 0.000000 0.687412
O O10 0.473051 0.221986 0.870322
O O11 0.818522 0.224379 0.159955
O O12 0.690904 0.000000 0.021856
O O13 0.500000 0.169001 0.500000
O O14 0.432233 0.284388 0.534166
O O15 0.774049 0.232946 0.763373
O O16 0.554142 0.000000 0.614400
O O17 0.844079 0.240545 0.610578
O O18 0.974104 0.000000 0.659470
O O19 0.183420 0.500000 0.361189
O O20 0.056795 0.500000 0.108107
O O21 0.000000 0.299563 0.000000
#
# Coordination Sequence:
#
# PCOD9155379 Si02
#       8
#     4   4   4   4   4   4   4   4
#     4  11  22  37  55  83 118 151 186 232 281 332
#     4  10  19  36  59  83 112 149 189 231 279 342
#     4  10  19  37  61  83 109 150 193 231 278 337
#     4   8  18  35  59  86 110 139 186 236 277 329
#     4  11  22  37  61  87 110 148 196 236 276 338
#     4  10  20  38  60  84 114 149 187 232 279 334
#     4  11  21  35  58  87 117 147 183 235 289 336
#     4  11  24  40  57  82 116 151 188 238 293 339
#
# _framework density 18.334654
#
# number of rings (size 3 to 8) (size 9 to 14) (size 15 to 20)
#    0.000    1.750    1.250    5.625    0.000    2.000 
#    2.250   10.000    0.000    0.000    0.000    0.000 
#    0.000    0.000    0.000    0.000    0.000    0.000 
#
# Total GULP energy -178461.328910 kJ/mol
# GULP energy per Si atom -5576.916528 kJ/mol
# Density = 1.829292 g / cm^3
# Si number density = 18.334654 Si / 1000 Ang^3
#
#
#
# Elastic Constant Matrix: (Units=GPa)
#
#
# Indices 1 2 3 4 5 6 
#
# 1 71.7700 22.8621 0.8243 0.0000 -29.9863 0.0000
# 2 22.8621 112.0416 2.7638 0.0000 -12.5215 0.0000
# 3 0.8243 2.7638 19.4691 0.0000 1.1578 0.0000
# 4 0.0000 0.0000 0.0000 -4.5884 0.0000 -11.9713
# 5 -29.9863 -12.5215 1.1578 0.0000 23.3512 0.0000
# 6 0.0000 0.0000 0.0000 -11.9713 0.0000 29.7316
#
#
#
# Elastic Compliance Matrix: (Units=1/GPa)
#
#
# Indices 1 2 3 4 5 6 
#
# 1 0.030675 -0.001869 -0.003326 0.000000 0.038555 0.000000
# 2 -0.001869 0.009662 -0.001462 0.000000 0.002854 0.000000
# 3 -0.003326 -0.001462 0.052166 0.000000 -0.007642 0.000000
# 4 0.000000 0.000000 0.000000 -0.106286 0.000000 -0.042796
# 5 0.038555 0.002854 -0.007642 0.000000 0.094243 0.000000
# 6 0.000000 0.000000 0.000000 -0.042796 0.000000 0.016403
#
#
# Mechanical properties :
#
#
# Convention : Reuss Voigt Hill
#
# Bulk Modulus (GPa) = 12.62799 28.46457 20.54628
# Shear Modulus (GPa) = 36.61024 21.48759 29.04892
#
# Velocity S-wave (km/s) = 4.47338 3.42711 3.98474
# Velocity P-wave (km/s) = 5.79517 5.58738 5.69222
#
# Compressibility (1/GPa) = 0.07918917
#
# Stress axis : x y z
#
# Youngs Moduli (GPa) = 32.59934 103.50330 19.16951
#
# Poissons Ratio (x) = 0.19340 0.06376
# Poissons Ratio (y) = 0.06091 0.02803
# Poissons Ratio (z) = 0.10844 0.15133
#
# Static dielectric constant tensor:
#      x y z
#    x 1.653290 0.000000 0.028330 
#    y 0.000000 1.603400 0.000000 
#    z 0.028330 0.000000 1.659410 
# 
# From -- ./inp_files/93745.got.cif
#   From: 2010.05.17/outbox.ucp.g08.bks.cvg/sg10_47_cif.got.tgz:93745.got - 2010.06.11 11:31:16.
