data_PCOD9155774
_publ_section_title
;
Structure prediction by ZEFSAII (Michael W. Deem and Ramdas Pophale) SiO2 
 PCOD9155774
Probable space group: P 21/M
;
_chemical_formula_sum "Si O2"
_cell_formula_units_Z 32
_cell_length_a 8.643527
_cell_length_b 23.852826
_cell_length_c 7.398522
_cell_angle_alpha 90.000000
_cell_angle_beta 124.244533
_cell_angle_gamma 90.000000
_cell_volume 1260.938862
_symmetry_space_group_name_H-M "P 21/M"
_symmetry_group_IT_number 11
_symmetry_cell_setting 'monoclinic'
loop_
_space_group_symop_operation_xyz
x,y,z
-x,1/2+y,-z
-x,-y,-z
x,1/2-y,z
loop_
_atom_site_type_symbol
_atom_site_label
_atom_site_fract_x
_atom_site_fract_y
_atom_site_fract_z
Si Si1 0.658950 0.185885 0.820438
Si Si2 0.624488 0.595215 0.332516
Si Si3 0.002979 0.620871 0.455072
Si Si4 0.278181 0.522527 0.972085
Si Si5 0.396058 0.090180 0.235677
Si Si6 0.350802 0.812096 0.746876
Si Si7 0.989858 0.109173 0.103963
Si Si8 0.750322 0.024620 0.480048
O O1 0.653126 0.250000 0.752318
O O2 0.652741 0.187967 0.036619
O O3 0.853540 0.153219 0.914852
O O4 0.482843 0.147377 0.642613
O O5 0.779040 0.622304 0.301003
O O6 0.729947 0.541905 0.503050
O O7 0.452151 0.563242 0.127308
O O8 0.025076 0.617671 0.689134
O O9 0.152057 0.670376 0.523829
O O10 0.072108 0.566248 0.386367
O O11 0.254498 0.524193 0.742367
O O12 0.107587 0.548345 0.973579
O O13 0.325305 0.461148 0.067187
O O14 0.505786 0.140321 0.214991
O O15 0.202668 0.114386 0.185683
O O16 0.572886 0.056899 0.447752
O O17 0.403961 0.750000 0.723683
#
# Coordination Sequence:
#
# PCOD9155774 Si02
#       8
#     4   4   4   4   4   4   4   4
#     4   9  18  32  48  67  89 114 150 191 224 260
#     4  10  16  27  49  70  88 117 151 182 219 262
#     4   9  18  30  45  66  92 121 150 180 218 267
#     4   9  17  30  47  70  95 116 145 184 224 266
#     4  10  16  27  49  70  88 117 151 182 219 262
#     4   9  18  32  48  67  89 114 150 191 224 260
#     4   9  18  30  45  66  92 121 150 180 218 267
#     4   9  17  30  47  70  95 116 145 184 224 266
#
# _framework density 25.377914000000001
#
# number of rings (size 3 to 8) (size 9 to 14) (size 15 to 20)
#    0.000    2.750    0.000    5.250    0.000    1.000 
#    0.000    2.500    0.000   18.000    0.000    0.000 
#    0.000    0.000    0.000    0.000    0.000    0.000 
#
# Total GULP energy -178680.795489 kJ/mol
# GULP energy per Si atom -5583.774859 kJ/mol
# Density = 2.532015 g / cm^3
# Si number density = 25.377914 Si / 1000 Ang^3
#
#
#
# Elastic Constant Matrix: (Units=GPa)
#
#
# Indices 1 2 3 4 5 6 
#
# 1 117.2437 47.5295 33.9297 0.0000 30.7540 0.0000
# 2 47.5295 194.5344 34.2449 0.0000 24.8511 0.0000
# 3 33.9297 34.2449 73.9695 0.0000 27.5152 0.0000
# 4 0.0000 0.0000 0.0000 21.8260 0.0000 3.0425
# 5 30.7540 24.8511 27.5152 0.0000 52.6383 0.0000
# 6 0.0000 0.0000 0.0000 3.0425 0.0000 22.3134
#
#
#
# Elastic Compliance Matrix: (Units=1/GPa)
#
#
# Indices 1 2 3 4 5 6 
#
# 1 0.011127 -0.001692 -0.002730 0.000000 -0.004275 0.000000
# 2 -0.001692 0.005964 -0.001621 0.000000 -0.000980 0.000000
# 3 -0.002730 -0.001621 0.018178 0.000000 -0.007142 0.000000
# 4 0.000000 0.000000 0.000000 0.046705 0.000000 -0.006368
# 5 -0.004275 -0.000980 -0.007142 0.000000 0.025691 0.000000
# 6 0.000000 0.000000 0.000000 -0.006368 0.000000 0.045685
#
#
# Mechanical properties :
#
#
# Convention : Reuss Voigt Hill
#
# Bulk Modulus (GPa) = 43.13350 68.57286 55.85318
# Shear Modulus (GPa) = 28.87452 37.35842 33.11647
#
# Velocity S-wave (km/s) = 3.37676 3.84094 3.61630
# Velocity P-wave (km/s) = 5.67774 6.83738 6.28436
#
# Compressibility (1/GPa) = 0.02318384
#
# Stress axis : x y z
#
# Youngs Moduli (GPa) = 89.87527 167.66354 55.01025
#
# Poissons Ratio (x) = 0.28364 0.15020
# Poissons Ratio (y) = 0.15205 0.08915
# Poissons Ratio (z) = 0.24539 0.27171
#
# Static dielectric constant tensor:
#      x y z
#    x 2.122690 0.000000 -0.047270 
#    y 0.000000 1.964510 0.000000 
#    z -0.047270 0.000000 2.201500 
# 
# From -- ./inp_files/33006.got.cif
#   From: 2010.05.17/outbox.cif.g08.bks.cpg/sg11_17_cif.got.tgz:33006.got - 2010.06.03 12:22:45.
