data_PCOD9155154
_publ_section_title
;
Structure prediction by ZEFSAII (Michael W. Deem and Ramdas Pophale) SiO2 
 PCOD9155154
Probable space group: P 2/M
;
_chemical_formula_sum "Si O2"
_cell_formula_units_Z 24
_cell_length_a 15.000000
_cell_length_b 9.000000
_cell_length_c 15.000000
_cell_angle_alpha 90.000000
_cell_angle_beta 40.000000
_cell_angle_gamma 90.000000
_cell_volume 1301.644910
_symmetry_space_group_name_H-M "P 2/M"
_symmetry_group_IT_number 10
_symmetry_cell_setting 'monoclinic'
loop_
_space_group_symop_operation_xyz
x,y,z
-x,y,-z
-x,-y,-z
x,-y,z
loop_
_atom_site_type_symbol
_atom_site_label
_atom_site_fract_x
_atom_site_fract_y
_atom_site_fract_z
Si Si1 0.949311 0.679804 0.858026
Si Si2 0.734851 0.679588 0.359667
Si Si3 0.434144 0.176218 0.352834
Si Si4 0.907063 0.321448 0.691992
Si Si5 0.810418 0.177328 0.596619
Si Si6 0.286205 0.678984 0.831327
O O1 0.956375 0.500000 0.857679
O O2 0.882937 0.716773 0.813552
O O3 0.108217 0.729730 0.739130
O O4 0.854817 0.729164 0.012471
O O5 0.725316 0.500000 0.376494
O O6 0.630243 0.754042 0.508202
O O7 0.708587 0.717186 0.276917
O O8 0.325641 0.206021 0.356877
O O9 0.581711 0.250186 0.222986
O O10 0.448153 0.000000 0.352502
O O11 0.905200 0.500000 0.683008
O O12 0.805610 0.243665 0.699551
O O13 0.059468 0.259600 0.549418
O O14 0.835801 0.000000 0.579548
O O15 0.292525 0.500000 0.832463
#
# Coordination Sequence:
#
# PCOD9155154 Si02
#       6
#     4   4   4   4   4   4
#     4   9  18  34  56  84 111 135 173 222 271 320
#     4  10  19  35  59  82 105 139 182 224 266 315
#     4  11  23  37  53  77 111 147 181 220 264 312
#     4  10  18  31  56  84 106 131 170 223 271 310
#     4  10  20  34  52  76 107 141 177 216 262 315
#     4  10  21  36  56  80 109 144 178 218 269 320
#
# _framework density 18.438207999999999
#
# number of rings (size 3 to 8) (size 9 to 14) (size 15 to 20)
#    0.000    2.000    1.667    3.500    0.000    6.667 
#    0.000    3.333    0.000    7.000    0.000    0.000 
#    0.000    0.000    0.000    0.000    0.000    0.000 
#
# Total GULP energy -133937.428908 kJ/mol
# GULP energy per Si atom -5580.726205 kJ/mol
# Density = 1.839624 g / cm^3
# Si number density = 18.438208 Si / 1000 Ang^3
#
#
#
# Elastic Constant Matrix: (Units=GPa)
#
#
# Indices 1 2 3 4 5 6 
#
# 1 58.0020 19.2223 12.3941 0.0000 21.3008 0.0000
# 2 19.2223 24.5655 -0.4142 0.0000 9.7665 0.0000
# 3 12.3941 -0.4142 32.4321 0.0000 -17.3660 0.0000
# 4 0.0000 0.0000 0.0000 -16.6738 0.0000 -13.9988
# 5 21.3008 9.7665 -17.3660 0.0000 1.5091 0.0000
# 6 0.0000 0.0000 0.0000 -13.9988 0.0000 21.3855
#
#
#
# Elastic Compliance Matrix: (Units=1/GPa)
#
#
# Indices 1 2 3 4 5 6 
#
# 1 0.013480 -0.019934 0.007403 0.000000 0.023921 0.000000
# 2 -0.019934 0.057059 0.007502 0.000000 -0.001577 0.000000
# 3 0.007403 0.007502 0.010432 0.000000 -0.032997 0.000000
# 4 0.000000 0.000000 0.000000 -0.038704 0.000000 -0.025335
# 5 0.023921 -0.001577 -0.032997 0.000000 -0.044515 0.000000
# 6 0.000000 0.000000 0.000000 -0.025335 0.000000 0.030176
#
#
# Mechanical properties :
#
#
# Convention : Reuss Voigt Hill
#
# Bulk Modulus (GPa) = 14.10180 19.71158 16.90669
# Shear Modulus (GPa) = 81.13690 6.83065 43.98377
#
# Velocity S-wave (km/s) = 6.64081 1.92683 4.88942
# Velocity P-wave (km/s) = 8.15262 3.95778 6.40817
#
# Compressibility (1/GPa) = 0.07091294
#
# Stress axis : x y z
#
# Youngs Moduli (GPa) = 74.18255 17.52578 95.86146
#
# Poissons Ratio (x) = 0.34935 -0.70963
# Poissons Ratio (y) = 1.47874 -0.71917
# Poissons Ratio (z) = -0.54915 -0.13148
#
# Static dielectric constant tensor:
#      x y z
#    x 1.661940 0.000000 0.006890 
#    y 0.000000 1.614620 0.000000 
#    z 0.006890 0.000000 1.612940 
# 
# From -- ./inp_files/33784.got.cif
#   From: 2010.05.17/outbox.ucp.g08.bks.cvg/sg10_17_cif.got.tgz:33784.got - 2010.06.11 11:31:16.
