data_PCOD9155425
_publ_section_title
;
Structure prediction by ZEFSAII (Michael W. Deem and Ramdas Pophale) SiO2 
 PCOD9155425
Probable space group: P 2/M
;
_chemical_formula_sum "Si O2"
_cell_formula_units_Z 32
_cell_length_a 21.000000
_cell_length_b 9.000000
_cell_length_c 27.000000
_cell_angle_alpha 90.000000
_cell_angle_beta 20.000000
_cell_angle_gamma 90.000000
_cell_volume 1745.328791
_symmetry_space_group_name_H-M "P 2/M"
_symmetry_group_IT_number 10
_symmetry_cell_setting 'monoclinic'
loop_
_space_group_symop_operation_xyz
x,y,z
-x,y,-z
-x,-y,-z
x,-y,z
loop_
_atom_site_type_symbol
_atom_site_label
_atom_site_fract_x
_atom_site_fract_y
_atom_site_fract_z
Si Si1 0.192014 0.820160 0.202913
Si Si2 0.605139 0.676532 0.242028
Si Si3 0.783674 0.179640 0.314739
Si Si4 0.561669 0.678408 0.386348
Si Si5 0.394584 0.179540 0.260853
Si Si6 0.795458 0.178053 0.012830
Si Si7 0.567156 0.819930 0.877579
Si Si8 0.202699 0.678163 0.492788
O O1 0.290025 0.777687 0.183502
O O2 0.989303 0.747692 0.346985
O O3 0.172027 0.000000 0.215784
O O4 0.353730 0.775457 0.045675
O O5 0.620175 0.500000 0.222321
O O6 0.634364 0.706369 0.278213
O O7 0.749257 0.756781 0.100564
O O8 0.390971 0.718566 0.385494
O O9 0.647208 0.256442 0.454378
O O10 0.692589 0.239291 0.330245
O O11 0.769176 0.000000 0.328400
O O12 0.002141 0.223081 0.156056
O O13 0.558883 0.500000 0.397110
O O14 0.609437 0.217661 0.117799
O O15 0.366870 0.226189 0.224573
O O16 0.253015 0.257169 0.401854
O O17 0.375257 0.000000 0.279372
O O18 0.800301 0.000000 0.012171
O O19 0.562602 0.000000 0.881629
O O20 0.186980 0.500000 0.503426
#
# Coordination Sequence:
#
# PCOD9155425 Si02
#       8
#     4   4   4   4   4   4   4   4
#     4   9  17  32  52  74  97 127 163 201 243 289
#     4   9  20  36  52  70  97 130 166 203 240 282
#     4  10  20  34  51  76 105 129 155 199 250 290
#     4  10  20  35  53  73  96 130 170 201 232 286
#     4   9  17  33  53  72  95 128 165 201 238 286
#     4   9  19  33  51  74  99 126 161 200 244 292
#     4   8  16  31  52  74  97 124 163 206 240 281
#     4  10  20  34  49  71 101 130 160 201 245 288
#
# _framework density 18.334654
#
# number of rings (size 3 to 8) (size 9 to 14) (size 15 to 20)
#    0.000    2.750    0.000    2.625    0.000    4.500 
#    0.000    8.750    0.000    0.000    0.000    0.000 
#    0.000    0.000    0.000    0.000    0.000    0.000 
#
# Total GULP energy -178365.141394 kJ/mol
# GULP energy per Si atom -5573.910669 kJ/mol
# Density = 1.829292 g / cm^3
# Si number density = 18.334654 Si / 1000 Ang^3
#
#
#
# Elastic Constant Matrix: (Units=GPa)
#
#
# Indices 1 2 3 4 5 6 
#
# 1 17.0712 -4.5777 -32.1095 0.0000 15.0322 0.0000
# 2 -4.5777 27.0286 1.1788 0.0000 -2.3471 0.0000
# 3 -32.1095 1.1788 31.9876 0.0000 -14.4879 0.0000
# 4 0.0000 0.0000 0.0000 15.2869 0.0000 -1.5409
# 5 15.0322 -2.3471 -14.4879 0.0000 20.2745 0.0000
# 6 0.0000 0.0000 0.0000 -1.5409 0.0000 14.6445
#
#
#
# Elastic Compliance Matrix: (Units=1/GPa)
#
#
# Indices 1 2 3 4 5 6 
#
# 1 -0.064133 -0.007984 -0.063525 0.000000 0.001232 0.000000
# 2 -0.007984 0.036396 -0.007047 0.000000 0.005097 0.000000
# 3 -0.063525 -0.007047 -0.016681 0.000000 0.034363 0.000000
# 4 0.000000 0.000000 0.000000 0.066117 0.000000 0.006957
# 5 0.001232 0.005097 0.034363 0.000000 0.073555 0.000000
# 6 0.000000 0.000000 0.000000 0.006957 0.000000 0.069017
#
#
# Mechanical properties :
#
#
# Convention : Reuss Voigt Hill
#
# Bulk Modulus (GPa) = -4.96198 0.56340 -2.19929
# Shear Modulus (GPa) = 19.66903 17.48090 18.57496
#
# Velocity S-wave (km/s) = 3.27888 3.09112 3.18639
# Velocity P-wave (km/s) = 3.40919 3.61220 3.51216
#
# Compressibility (1/GPa) = -0.20153248
#
# Stress axis : x y z
#
# Youngs Moduli (GPa) = -15.59263 27.47589 -59.94699
#
# Poissons Ratio (x) = 0.21938 -3.80814
# Poissons Ratio (y) = -0.12450 -0.42247
# Poissons Ratio (z) = -0.99052 0.19363
#
# Static dielectric constant tensor:
#      x y z
#    x 1.655360 0.000000 0.002010 
#    y 0.000000 1.615000 0.000000 
#    z 0.002010 0.000000 1.615530 
# 
# From -- ./inp_files/93638.got.cif
#   From: 2010.05.17/outbox.ucp.g08.bks.cvg/sg10_47_cif.got.tgz:93638.got - 2010.06.11 11:31:16.
