data_PCOD9155654
_publ_section_title
;
Structure prediction by ZEFSAII (Michael W. Deem and Ramdas Pophale) SiO2 
 PCOD9155654
Probable space group: P 2/M
;
_chemical_formula_sum "Si O2"
_cell_formula_units_Z 32
_cell_length_a 27.000000
_cell_length_b 9.000000
_cell_length_c 15.000000
_cell_angle_alpha 90.000000
_cell_angle_beta 150.000000
_cell_angle_gamma 90.000000
_cell_volume 1822.500000
_symmetry_space_group_name_H-M "P 2/M"
_symmetry_group_IT_number 10
_symmetry_cell_setting 'monoclinic'
loop_
_space_group_symop_operation_xyz
x,y,z
-x,y,-z
-x,-y,-z
x,-y,z
loop_
_atom_site_type_symbol
_atom_site_label
_atom_site_fract_x
_atom_site_fract_y
_atom_site_fract_z
Si Si1 0.650521 0.324618 0.421096
Si Si2 0.032822 0.678428 0.451173
Si Si3 0.383284 0.822855 0.816453
Si Si4 0.144402 0.176893 0.927067
Si Si5 0.523771 0.675751 0.389227
Si Si6 0.256944 0.323598 0.254731
Si Si7 0.677479 0.822547 0.928616
Si Si8 0.735681 0.321697 0.206224
O O1 0.652620 0.500000 0.402548
O O2 0.654678 0.229081 0.339454
O O3 0.551734 0.298836 0.327747
O O4 0.735847 0.294702 0.627846
O O5 0.023154 0.500000 0.431922
O O6 0.146996 0.715787 0.609489
O O7 0.000000 0.725072 0.500000
O O8 0.956768 0.751330 0.264289
O O9 0.323033 0.743577 0.801202
O O10 0.374883 0.000000 0.813599
O O11 0.500000 0.782851 0.000000
O O12 0.232936 0.221796 0.997112
O O13 0.136589 0.000000 0.913404
O O14 0.178575 0.233584 0.076647
O O15 0.505198 0.500000 0.371657
O O16 0.370320 0.711215 0.400404
O O17 0.429826 0.768448 0.271397
O O18 0.242656 0.500000 0.220292
O O19 0.694462 0.746126 0.050421
O O20 0.678547 0.000000 0.939352
O O21 0.725902 0.500000 0.189235
#
# Coordination Sequence:
#
# PCOD9155654 Si02
#       8
#     4   4   4   4   4   4   4   4
#     4   8  17  35  55  77 105 142 186 230 274 321
#     4  10  21  40  62  83 108 145 194 243 286 333
#     4  11  23  36  55  86 120 153 185 224 283 345
#     4  11  23  35  54  82 112 150 187 229 290 346
#     4   8  17  33  53  76 105 145 189 231 276 324
#     4   8  18  36  56  79 107 146 194 239 278 329
#     4  11  22  33  48  77 116 150 184 230 282 340
#     4  11  23  38  59  84 111 149 193 237 283 333
#
# _framework density 17.558299000000002
#
# number of rings (size 3 to 8) (size 9 to 14) (size 15 to 20)
#    0.750    1.500    1.250    2.250    0.000    7.750 
#    0.000    2.500    0.000    0.750    0.000    5.250 
#    0.000    0.000    0.000    0.000    0.000    0.000 
#
# Total GULP energy -178414.008187 kJ/mol
# GULP energy per Si atom -5575.437756 kJ/mol
# Density = 1.751834 g / cm^3
# Si number density = 17.558299 Si / 1000 Ang^3
#
#
#
# Elastic Constant Matrix: (Units=GPa)
#
#
# Indices 1 2 3 4 5 6 
#
# 1 65.5464 25.5593 22.8082 0.0000 -0.6336 0.0000
# 2 25.5593 30.6281 29.0981 0.0000 3.0141 0.0000
# 3 22.8082 29.0981 84.4779 0.0000 -3.5194 0.0000
# 4 0.0000 0.0000 0.0000 21.3366 0.0000 6.9834
# 5 -0.6336 3.0141 -3.5194 0.0000 21.8893 0.0000
# 6 0.0000 0.0000 0.0000 6.9834 0.0000 21.0979
#
#
#
# Elastic Compliance Matrix: (Units=1/GPa)
#
#
# Indices 1 2 3 4 5 6 
#
# 1 0.022908 -0.020428 0.001003 0.000000 0.003637 0.000000
# 2 -0.020428 0.068762 -0.018714 0.000000 -0.013069 0.000000
# 3 0.001003 -0.018714 0.018243 0.000000 0.005539 0.000000
# 4 0.000000 0.000000 0.000000 0.052562 0.000000 -0.017398
# 5 0.003637 -0.013069 0.005539 0.000000 0.048480 0.000000
# 6 0.000000 0.000000 0.000000 -0.017398 0.000000 0.053157
#
#
# Mechanical properties :
#
#
# Convention : Reuss Voigt Hill
#
# Bulk Modulus (GPa) = 29.73020 37.28710 33.50865
# Shear Modulus (GPa) = 14.22063 19.74390 16.98227
#
# Velocity S-wave (km/s) = 2.84898 3.35696 3.11335
# Velocity P-wave (km/s) = 5.27174 6.02560 5.66123
#
# Compressibility (1/GPa) = 0.03363583
#
# Stress axis : x y z
#
# Youngs Moduli (GPa) = 43.65252 14.54293 54.81432
#
# Poissons Ratio (x) = 0.29708 -0.05497
# Poissons Ratio (y) = 0.89172 1.02579
# Poissons Ratio (z) = -0.04377 0.27216
#
# Static dielectric constant tensor:
#      x y z
#    x 1.589810 0.000000 -0.003390 
#    y 0.000000 1.578510 0.000000 
#    z -0.003390 0.000000 1.604990 
# 
# From -- ./inp_files/72208.got.cif
#   From: 2010.05.17/outbox.ucp.g08.bks.cvg/sg10_37_cif.got.tgz:72208.got - 2010.06.11 11:31:16.
