data_PCOD9155466
_publ_section_title
;
Structure prediction by ZEFSAII (Michael W. Deem and Ramdas Pophale) SiO2 
 PCOD9155466
Probable space group: P 2/M
;
_chemical_formula_sum "Si O2"
_cell_formula_units_Z 32
_cell_length_a 15.000000
_cell_length_b 9.000000
_cell_length_c 12.000000
_cell_angle_alpha 90.000000
_cell_angle_beta 90.000000
_cell_angle_gamma 90.000000
_cell_volume 1620.000000
_symmetry_space_group_name_H-M "P 2/M"
_symmetry_group_IT_number 10
_symmetry_cell_setting 'monoclinic'
loop_
_space_group_symop_operation_xyz
x,y,z
-x,y,-z
-x,-y,-z
x,-y,z
loop_
_atom_site_type_symbol
_atom_site_label
_atom_site_fract_x
_atom_site_fract_y
_atom_site_fract_z
Si Si1 0.191032 0.176733 0.264159
Si Si2 0.563239 0.321020 0.220332
Si Si3 0.261320 0.672257 0.890292
Si Si4 0.221287 0.335973 0.629529
Si Si5 0.104334 0.165882 0.503109
Si Si6 0.379722 0.175139 0.544304
Si Si7 0.101852 0.178904 0.031383
Si Si8 0.619822 0.677453 0.694344
O O1 0.141806 0.202765 0.380831
O O2 0.284904 0.262574 0.266216
O O3 0.210716 0.000000 0.257502
O O4 0.128652 0.214646 0.159020
O O5 0.574435 0.500000 0.227860
O O6 0.635189 0.272109 0.126220
O O7 0.586464 0.251317 0.341358
O O8 0.457781 0.290365 0.214574
O O9 0.264222 0.500000 0.928295
O O10 0.231845 0.675729 0.760753
O O11 0.184896 0.756389 0.959099
O O12 0.250831 0.500000 0.594846
O O13 0.124156 0.295474 0.590859
O O14 0.276159 0.214675 0.559949
O O15 0.000000 0.154528 0.500000
O O16 0.136152 0.000000 0.536756
O O17 0.404559 0.246626 0.425318
O O18 0.397641 0.000000 0.543658
O O19 0.102787 0.000000 0.018021
O O20 0.000000 0.228142 0.000000
O O21 0.622454 0.500000 0.677318
#
# Coordination Sequence:
#
# PCOD9155466 Si02
#       8
#     4   4   4   4   4   4   4   4
#     4  10  22  40  58  85 121 152 193 247 291 344
#     4   9  20  37  56  82 118 156 196 241 288 343
#     4   9  20  39  60  84 115 148 192 246 288 333
#     4  10  20  35  55  82 116 153 192 239 289 342
#     4  10  21  35  56  84 116 154 190 233 295 355
#     4  11  20  31  51  82 119 157 195 236 283 340
#     4  10  23  42  65  88 113 150 194 242 295 351
#     4  11  21  35  57  83 115 158 197 235 291 352
#
# _framework density 19.753086
#
# number of rings (size 3 to 8) (size 9 to 14) (size 15 to 20)
#    0.000    2.000    1.250    3.000    1.750    6.000 
#    0.000    0.625    0.000    3.750    0.000    0.000 
#    0.000    0.000    0.000    0.000    0.000    0.000 
#
# Total GULP energy -178193.693979 kJ/mol
# GULP energy per Si atom -5568.552937 kJ/mol
# Density = 1.970813 g / cm^3
# Si number density = 19.753086 Si / 1000 Ang^3
#
#
#
# Elastic Constant Matrix: (Units=GPa)
#
#
# Indices 1 2 3 4 5 6 
#
# 1 105.5825 26.0027 14.5644 0.0000 -9.1298 0.0000
# 2 26.0027 36.6603 11.0779 0.0000 -4.5203 0.0000
# 3 14.5644 11.0779 30.6901 0.0000 -1.8837 0.0000
# 4 0.0000 0.0000 0.0000 22.5318 0.0000 1.2318
# 5 -9.1298 -4.5203 -1.8837 0.0000 15.5034 0.0000
# 6 0.0000 0.0000 0.0000 1.2318 0.0000 22.3954
#
#
#
# Elastic Compliance Matrix: (Units=1/GPa)
#
#
# Indices 1 2 3 4 5 6 
#
# 1 0.012013 -0.007082 -0.002858 0.000000 0.004662 0.000000
# 2 -0.007082 0.035718 -0.009217 0.000000 0.005124 0.000000
# 3 -0.002858 -0.009217 0.037277 0.000000 0.000158 0.000000
# 4 0.000000 0.000000 0.000000 0.044516 0.000000 -0.002448
# 5 0.004662 0.005124 0.000158 0.000000 0.068760 0.000000
# 6 0.000000 0.000000 0.000000 -0.002448 0.000000 0.044787
#
#
# Mechanical properties :
#
#
# Convention : Reuss Voigt Hill
#
# Bulk Modulus (GPa) = 21.41685 30.69143 26.05414
# Shear Modulus (GPa) = 16.83787 20.17198 18.50493
#
# Velocity S-wave (km/s) = 2.92279 3.19910 3.06406
# Velocity P-wave (km/s) = 4.71763 5.40527 5.07311
#
# Compressibility (1/GPa) = 0.04669221
#
# Stress axis : x y z
#
# Youngs Moduli (GPa) = 83.24425 27.99737 26.82617
#
# Poissons Ratio (x) = 0.19828 0.07668
# Poissons Ratio (y) = 0.58954 0.24726
# Poissons Ratio (z) = 0.23794 0.25806
#
# Static dielectric constant tensor:
#      x y z
#    x 1.883210 0.000000 0.045380 
#    y 0.000000 1.704350 0.000000 
#    z 0.045380 0.000000 1.673370 
# 
# From -- ./inp_files/49898.got.cif
#   From: 2010.05.17/outbox.ucp.g08.bks.cvg/sg10_25_cif.got.tgz:49898.got - 2010.06.11 11:31:16.
