data_PCOD9155950
_publ_section_title
;
Structure prediction by ZEFSAII (Michael W. Deem and Ramdas Pophale) SiO2 
 PCOD9155950
Probable space group: P 21/M
;
_chemical_formula_sum "Si O2"
_cell_formula_units_Z 32
_cell_length_a 12.553530
_cell_length_b 13.969289
_cell_length_c 7.860622
_cell_angle_alpha 90.000000
_cell_angle_beta 72.523410
_cell_angle_gamma 90.000000
_cell_volume 1314.838733
_symmetry_space_group_name_H-M "P 21/M"
_symmetry_group_IT_number 11
_symmetry_cell_setting 'monoclinic'
loop_
_space_group_symop_operation_xyz
x,y,z
-x,1/2+y,-z
-x,-y,-z
x,1/2-y,z
loop_
_atom_site_type_symbol
_atom_site_label
_atom_site_fract_x
_atom_site_fract_y
_atom_site_fract_z
Si Si1 0.920662 0.637835 0.118770
Si Si2 0.785723 0.356782 0.349009
Si Si3 0.865737 0.363872 0.832574
Si Si4 0.217134 0.138271 0.165925
Si Si5 0.707713 0.547384 0.370319
Si Si6 0.570691 0.865036 0.137511
Si Si7 0.004995 0.135608 0.427062
Si Si8 0.673412 0.061907 0.719040
O O1 0.930591 0.750000 0.158744
O O2 0.049908 0.604150 0.058104
O O3 0.858978 0.633853 0.967697
O O4 0.828832 0.594251 0.289126
O O5 0.786388 0.250000 0.277566
O O6 0.721266 0.440373 0.283403
O O7 0.722740 0.357952 0.562541
O O8 0.909935 0.391469 0.337478
O O9 0.837895 0.250000 0.857197
O O10 0.757449 0.424996 0.837404
O O11 0.950621 0.380059 0.634536
O O12 0.235160 0.250000 0.204142
O O13 0.339047 0.104221 0.049091
O O14 0.127915 0.095100 0.340746
O O15 0.620826 0.605336 0.297828
O O16 0.676064 0.527682 0.583069
O O17 0.562180 0.750000 0.136445
O O18 0.451426 0.912673 0.172134
O O19 0.013426 0.250000 0.402048
#
# Coordination Sequence:
#
# PCOD9155950 Si02
#       8
#     4   4   4   4   4   4   4   4
#     4   9  17  30  43  65  96 121 141 178 227 273
#     4   8  15  26  42  63  89 115 145 185 223 255
#     4   9  16  27  47  67  88 116 149 184 222 259
#     4   8  15  26  44  65  91 118 143 176 225 267
#     4   9  18  27  42  67  89 118 146 184 222 267
#     4  10  17  28  43  63  91 119 146 183 223 263
#     4   8  13  26  43  64  88 116 148 184 218 258
#     4   9  17  27  42  62  88 113 151 182 220 249
#
# _framework density 24.337585000000001
#
# number of rings (size 3 to 8) (size 9 to 14) (size 15 to 20)
#    0.750    2.500    0.000    3.375    0.000    0.500 
#    0.000    2.500    0.000    0.000    0.000    7.875 
#    0.000   36.000    0.000    0.000    0.000    0.000 
#
# Total GULP energy -178546.817460 kJ/mol
# GULP energy per Si atom -5579.588046 kJ/mol
# Density = 2.428219 g / cm^3
# Si number density = 24.337585 Si / 1000 Ang^3
#
#
#
# Elastic Constant Matrix: (Units=GPa)
#
#
# Indices 1 2 3 4 5 6 
#
# 1 124.7665 17.3023 32.1505 0.0000 -36.0503 0.0000
# 2 17.3023 73.7985 5.5153 0.0000 -6.6154 0.0000
# 3 32.1505 5.5153 93.3172 0.0000 -17.6789 0.0000
# 4 0.0000 0.0000 0.0000 20.1510 0.0000 -8.9634
# 5 -36.0503 -6.6154 -17.6789 0.0000 44.3023 0.0000
# 6 0.0000 0.0000 0.0000 -8.9634 0.0000 31.3669
#
#
#
# Elastic Compliance Matrix: (Units=1/GPa)
#
#
# Indices 1 2 3 4 5 6 
#
# 1 0.011110 -0.001731 -0.002230 0.000000 0.007892 0.000000
# 2 -0.001731 0.014022 -0.000111 0.000000 0.000641 0.000000
# 3 -0.002230 -0.000111 0.012056 0.000000 0.002979 0.000000
# 4 0.000000 0.000000 0.000000 0.056852 0.000000 0.016246
# 5 0.007892 0.000641 0.002979 0.000000 0.030279 0.000000
# 6 0.000000 0.000000 0.000000 0.016246 0.000000 0.036523
#
#
# Mechanical properties :
#
#
# Convention : Reuss Voigt Hill
#
# Bulk Modulus (GPa) = 34.43087 44.64649 39.53868
# Shear Modulus (GPa) = 27.98511 34.95832 31.47171
#
# Velocity S-wave (km/s) = 3.39466 3.79409 3.59992
# Velocity P-wave (km/s) = 5.43533 6.13009 5.79313
#
# Compressibility (1/GPa) = 0.02904370
#
# Stress axis : x y z
#
# Youngs Moduli (GPa) = 90.00840 71.31680 82.94943
#
# Poissons Ratio (x) = 0.12342 0.18500
# Poissons Ratio (y) = 0.15577 0.00921
# Poissons Ratio (z) = 0.20074 0.00792
#
# Static dielectric constant tensor:
#      x y z
#    x 1.948000 0.000000 0.059090 
#    y 0.000000 2.019490 0.000000 
#    z 0.059090 0.000000 2.003890 
# 
# From -- ./inp_files/35888.got.cif
#   From: 2010.05.17/outbox.cif.g08.bks.cpg/sg11_18_cif.got.tgz:35888.got - 2010.06.03 12:22:45.
