data_PCOD9155354
_publ_section_title
;
Structure prediction by ZEFSAII (Michael W. Deem and Ramdas Pophale) SiO2 
 PCOD9155354
Probable space group: P 2/M
;
_chemical_formula_sum "Si O2"
_cell_formula_units_Z 32
_cell_length_a 15.000000
_cell_length_b 9.000000
_cell_length_c 24.000000
_cell_angle_alpha 90.000000
_cell_angle_beta 30.000000
_cell_angle_gamma 90.000000
_cell_volume 1620.000000
_symmetry_space_group_name_H-M "P 2/M"
_symmetry_group_IT_number 10
_symmetry_cell_setting 'monoclinic'
loop_
_space_group_symop_operation_xyz
x,y,z
-x,y,-z
-x,-y,-z
x,-y,z
loop_
_atom_site_type_symbol
_atom_site_label
_atom_site_fract_x
_atom_site_fract_y
_atom_site_fract_z
Si Si1 0.270159 0.677412 0.968802
Si Si2 0.214516 0.173712 0.881979
Si Si3 0.937640 0.321574 0.226645
Si Si4 0.276604 0.823319 0.467385
Si Si5 0.641839 0.678127 0.814571
Si Si6 0.213930 0.673555 0.385138
Si Si7 0.937504 0.177104 0.725632
Si Si8 0.373639 0.678232 0.685222
O O1 0.276015 0.500000 0.954794
O O2 0.285921 0.759842 0.901398
O O3 0.432588 0.712330 0.922670
O O4 0.085977 0.712918 0.099333
O O5 0.284553 0.261281 0.790329
O O6 0.262457 0.000000 0.851068
O O7 0.000000 0.186081 0.000000
O O8 0.938693 0.500000 0.234497
O O9 0.748601 0.278802 0.301471
O O10 0.993333 0.244414 0.253783
O O11 0.284155 0.763503 0.400134
O O12 0.429829 0.746250 0.420760
O O13 0.085773 0.787849 0.598117
O O14 0.300538 0.000000 0.454750
O O15 0.664197 0.500000 0.808053
O O16 0.717267 0.721986 0.712643
O O17 0.752651 0.755525 0.803208
O O18 0.264471 0.500000 0.365062
O O19 0.000000 0.683702 0.500000
O O20 0.923451 0.000000 0.738221
O O21 0.380515 0.500000 0.683541
#
# Coordination Sequence:
#
# PCOD9155354 Si02
#       8
#     4   4   4   4   4   4   4   4
#     4  10  21  39  63  91 121 159 203 247 296 349
#     4  11  22  36  60  94 129 163 194 237 299 360
#     4  10  23  42  63  86 115 155 206 254 296 348
#     4  11  24  40  60  89 123 158 196 246 307 367
#     4  10  21  38  62  89 120 155 195 245 295 351
#     4  10  19  34  60  92 121 155 197 240 292 357
#     4  11  25  42  61  85 118 159 199 246 306 363
#     4  11  23  40  64  90 119 159 203 249 297 352
#
# _framework density 19.753086
#
# number of rings (size 3 to 8) (size 9 to 14) (size 15 to 20)
#    0.000    1.500    2.500    2.250    0.000    6.750 
#    0.000    5.000    0.000    0.000    0.000    0.000 
#    0.000    0.000    0.000    0.000    0.000    0.000 
#
# Total GULP energy -178903.781794 kJ/mol
# GULP energy per Si atom -5590.743181 kJ/mol
# Density = 1.970813 g / cm^3
# Si number density = 19.753086 Si / 1000 Ang^3
#
#
#
# Elastic Constant Matrix: (Units=GPa)
#
#
# Indices 1 2 3 4 5 6 
#
# 1 157.8973 49.5811 8.4731 0.0000 -15.2700 0.0000
# 2 49.5811 47.0141 10.2124 0.0000 -6.3745 0.0000
# 3 8.4731 10.2124 16.2969 0.0000 -16.3789 0.0000
# 4 0.0000 0.0000 0.0000 25.1868 0.0000 0.6296
# 5 -15.2700 -6.3745 -16.3789 0.0000 31.6981 0.0000
# 6 0.0000 0.0000 0.0000 0.6296 0.0000 7.9196
#
#
#
# Elastic Compliance Matrix: (Units=1/GPa)
#
#
# Indices 1 2 3 4 5 6 
#
# 1 0.010298 -0.011955 0.009792 0.000000 0.007617 0.000000
# 2 -0.011955 0.039117 -0.033658 0.000000 -0.015284 0.000000
# 3 0.009792 -0.033658 0.156652 0.000000 0.078893 0.000000
# 4 0.000000 0.000000 0.000000 0.039782 0.000000 -0.003163
# 5 0.007617 -0.015284 0.078893 0.000000 0.072908 0.000000
# 6 0.000000 0.000000 0.000000 -0.003163 0.000000 0.126521
#
#
# Mechanical properties :
#
#
# Convention : Reuss Voigt Hill
#
# Bulk Modulus (GPa) = 7.43904 39.74904 23.59404
# Shear Modulus (GPa) = 8.90111 23.15702 16.02906
#
# Velocity S-wave (km/s) = 2.12508 3.42764 2.85172
# Velocity P-wave (km/s) = 3.12977 5.98595 4.77635
#
# Compressibility (1/GPa) = 0.13442599
#
# Stress axis : x y z
#
# Youngs Moduli (GPa) = 97.10344 25.56458 6.38357
#
# Poissons Ratio (x) = 0.30562 -0.06251
# Poissons Ratio (y) = 1.16086 0.21486
# Poissons Ratio (z) = -0.95085 0.86045
#
# Static dielectric constant tensor:
#      x y z
#    x 1.660220 0.000000 -0.025660 
#    y 0.000000 1.663690 0.000000 
#    z -0.025660 0.000000 1.714730 
# 
# From -- ./inp_files/71585.got.cif
#   From: 2010.05.17/outbox.ucp.g08.bks.cvg/sg10_36_cif.got.tgz:71585.got - 2010.06.11 11:31:16.
