data_PCOD9155259
_publ_section_title
;
Structure prediction by ZEFSAII (Michael W. Deem and Ramdas Pophale) SiO2 
 PCOD9155259
Probable space group: P 2/M
;
_chemical_formula_sum "Si O2"
_cell_formula_units_Z 32
_cell_length_a 24.000000
_cell_length_b 9.000000
_cell_length_c 15.000000
_cell_angle_alpha 90.000000
_cell_angle_beta 30.000000
_cell_angle_gamma 90.000000
_cell_volume 1620.000000
_symmetry_space_group_name_H-M "P 2/M"
_symmetry_group_IT_number 10
_symmetry_cell_setting 'monoclinic'
loop_
_space_group_symop_operation_xyz
x,y,z
-x,y,-z
-x,-y,-z
x,-y,z
loop_
_atom_site_type_symbol
_atom_site_label
_atom_site_fract_x
_atom_site_fract_y
_atom_site_fract_z
Si Si1 0.600360 0.320921 0.298065
Si Si2 0.063009 0.678305 0.632671
Si Si3 0.352560 0.319321 0.961502
Si Si4 0.528437 0.681636 0.862258
Si Si5 0.162164 0.829695 0.006545
Si Si6 0.120910 0.829020 0.853962
Si Si7 0.236169 0.678768 0.542913
Si Si8 0.122629 0.680084 0.355142
O O1 0.500000 0.267486 0.500000
O O2 0.604039 0.500000 0.300440
O O3 0.586394 0.278615 0.214214
O O4 0.722330 0.257668 0.148222
O O5 0.046976 0.500000 0.657957
O O6 0.134665 0.725217 0.618982
O O7 0.133128 0.710291 0.445968
O O8 0.941943 0.752845 0.800262
O O9 0.347106 0.500000 0.969493
O O10 0.429255 0.271159 0.935838
O O11 0.226264 0.265650 0.152736
O O12 0.530524 0.500000 0.860131
O O13 0.647703 0.729422 0.659992
O O14 0.500000 0.732512 0.000000
O O15 0.134069 0.829087 0.940805
O O16 0.175275 0.000000 0.018282
O O17 0.214033 0.740840 0.671369
O O18 0.122471 0.000000 0.819762
O O19 0.000000 0.762457 0.000000
O O20 0.236701 0.500000 0.544623
O O21 0.120525 0.500000 0.347789
O O22 0.000000 0.735730 0.500000
#
# Coordination Sequence:
#
# PCOD9155259 Si02
#       8
#     4   4   4   4   4   4   4   4
#     4  10  22  38  58  83 111 145 184 228 274 319
#     4  10  19  32  52  82 111 136 173 224 273 322
#     4   9  17  31  51  77 111 148 181 218 271 328
#     4   9  17  30  50  80 117 148 176 218 272 327
#     4  11  23  38  57  78 106 146 185 224 272 326
#     4  10  21  38  55  75 107 146 183 219 270 334
#     4  10  20  31  52  83 110 138 177 225 275 320
#     4   9  16  27  48  75 104 138 177 218 265 322
#
# _framework density 19.753086
#
# number of rings (size 3 to 8) (size 9 to 14) (size 15 to 20)
#    0.000    2.250    1.250    1.875    1.750    6.500 
#    0.000    0.000    0.000    3.750    0.000    0.000 
#    0.000    0.000    0.000    0.000    0.000    0.000 
#
# Total GULP energy -178436.062648 kJ/mol
# GULP energy per Si atom -5576.126958 kJ/mol
# Density = 1.970813 g / cm^3
# Si number density = 19.753086 Si / 1000 Ang^3
#
#
#
# Elastic Constant Matrix: (Units=GPa)
#
#
# Indices 1 2 3 4 5 6 
#
# 1 68.3739 6.1591 39.3486 0.0000 2.7417 0.0000
# 2 6.1591 2.5724 16.5816 0.0000 4.2505 0.0000
# 3 39.3486 16.5816 166.5628 0.0000 5.5727 0.0000
# 4 0.0000 0.0000 0.0000 37.8817 0.0000 14.3705
# 5 2.7417 4.2505 5.5727 0.0000 27.1438 0.0000
# 6 0.0000 0.0000 0.0000 14.3705 0.0000 16.6451
#
#
#
# Elastic Compliance Matrix: (Units=1/GPa)
#
#
# Indices 1 2 3 4 5 6 
#
# 1 0.020445 -0.100816 0.004780 0.000000 0.012741 0.000000
# 2 -0.100816 2.906698 -0.252397 0.000000 -0.393168 0.000000
# 3 0.004780 -0.252397 0.028893 0.000000 0.033109 0.000000
# 4 0.000000 0.000000 0.000000 0.039254 0.000000 -0.033890
# 5 0.012741 -0.393168 0.033109 0.000000 0.090324 0.000000
# 6 0.000000 0.000000 0.000000 -0.033890 0.000000 0.089337
#
#
# Mechanical properties :
#
#
# Convention : Reuss Voigt Hill
#
# Bulk Modulus (GPa) = 0.44264 40.18754 20.31509
# Shear Modulus (GPa) = 1.08111 28.02875 14.55493
#
# Velocity S-wave (km/s) = 0.74061 3.77099 2.71743
# Velocity P-wave (km/s) = 0.97770 6.27292 4.48918
#
# Compressibility (1/GPa) = 2.25917247
#
# Stress axis : x y z
#
# Youngs Moduli (GPa) = 48.91168 0.34403 34.61010
#
# Poissons Ratio (x) = 0.03468 -0.16544
# Poissons Ratio (y) = 4.93107 8.73547
# Poissons Ratio (z) = -0.23381 0.08683
#
# Static dielectric constant tensor:
#      x y z
#    x 1.706170 0.000000 0.025700 
#    y 0.000000 1.672920 0.000000 
#    z 0.025700 0.000000 1.662330 
# 
# From -- ./inp_files/71457.got.cif
#   From: 2010.05.17/outbox.ucp.g08.bks.cvg/sg10_36_cif.got.tgz:71457.got - 2010.06.11 11:31:16.
