data_PCOD9155857
_publ_section_title
;
Structure prediction by ZEFSAII (Michael W. Deem and Ramdas Pophale) SiO2 
 PCOD9155857
Probable space group: P 21/M
;
_chemical_formula_sum "Si O2"
_cell_formula_units_Z 32
_cell_length_a 24.842268
_cell_length_b 8.879130
_cell_length_c 17.567168
_cell_angle_alpha 90.000000
_cell_angle_beta 33.943360
_cell_angle_gamma 90.000000
_cell_volume 2163.654365
_symmetry_space_group_name_H-M "P 21/M"
_symmetry_group_IT_number 11
_symmetry_cell_setting 'monoclinic'
loop_
_space_group_symop_operation_xyz
x,y,z
-x,1/2+y,-z
-x,-y,-z
x,1/2-y,z
loop_
_atom_site_type_symbol
_atom_site_label
_atom_site_fract_x
_atom_site_fract_y
_atom_site_fract_z
Si Si1 0.753506 0.929712 0.570291
Si Si2 0.896182 0.069133 0.102259
Si Si3 0.755214 0.426466 0.810269
Si Si4 0.106921 0.931890 0.225702
Si Si5 0.157682 0.930492 0.673395
Si Si6 0.051923 0.568336 0.120134
Si Si7 0.394537 0.070063 0.125893
Si Si8 0.909128 0.073819 0.496393
O O1 0.753909 0.750000 0.563704
O O2 0.664140 0.976545 0.728775
O O3 0.763168 0.002322 0.476159
O O4 0.847957 0.983693 0.505474
O O5 0.902784 0.250000 0.097199
O O6 0.830327 0.025472 0.251520
O O7 0.881317 0.028672 0.031218
O O8 0.000000 0.000000 0.000000
O O9 0.727967 0.250000 0.845080
O O10 0.795318 0.475931 0.845238
O O11 0.669875 0.516405 0.870018
O O12 0.847603 0.438933 0.645676
O O13 0.099517 0.750000 0.240698
O O14 0.097118 0.973052 0.148356
O O15 0.015131 0.005773 0.374438
O O16 0.157006 0.750000 0.667868
O O17 0.052514 0.992602 0.770552
O O18 0.037468 0.750000 0.137319
O O19 0.400388 0.250000 0.118997
O O20 0.500000 0.000000 0.000000
O O21 0.913323 0.250000 0.470778
#
# Coordination Sequence:
#
# PCOD9155857 Si02
#       8
#     4   4   4   4   4   4   4   4
#     4  10  19  30  44  63  85 111 143 175 214 261
#     4   8  15  25  36  53  78 111 148 181 212 246
#     4   9  19  32  44  62  86 113 144 176 211 253
#     4  10  18  27  41  60  86 118 149 178 208 247
#     4  10  17  25  39  59  83 111 147 185 215 246
#     4   9  16  26  39  55  82 119 151 179 212 247
#     4  10  21  36  53  68  84 108 137 175 220 265
#     4  10  18  27  40  58  84 115 146 181 213 241
#
# _framework density 14.789793
#
# number of rings (size 3 to 8) (size 9 to 14) (size 15 to 20)
#    0.000    2.500    1.250    1.875    0.000    3.000 
#    0.000    0.000    0.000    0.000    0.000    0.000 
#    0.000    1.000    0.000    2.000    0.000    2.625 
#
# Total GULP energy -178190.085398 kJ/mol
# GULP energy per Si atom -5568.440169 kJ/mol
# Density = 1.475613 g / cm^3
# Si number density = 14.789793 Si / 1000 Ang^3
#
#
#
# Elastic Constant Matrix: (Units=GPa)
#
#
# Indices 1 2 3 4 5 6 
#
# 1 81.5365 28.6977 50.4438 0.0000 6.1313 0.0000
# 2 28.6977 27.4542 28.8248 0.0000 2.0481 0.0000
# 3 50.4438 28.8248 73.7026 0.0000 0.0471 0.0000
# 4 0.0000 0.0000 0.0000 20.5479 0.0000 0.7538
# 5 6.1313 2.0481 0.0471 0.0000 17.1348 0.0000
# 6 0.0000 0.0000 0.0000 0.7538 0.0000 16.7227
#
#
#
# Elastic Compliance Matrix: (Units=1/GPa)
#
#
# Indices 1 2 3 4 5 6 
#
# 1 0.024646 -0.012751 -0.011877 0.000000 -0.007262 0.000000
# 2 -0.012751 0.069330 -0.018385 0.000000 -0.003674 0.000000
# 3 -0.011877 -0.018385 0.028883 0.000000 0.006368 0.000000
# 4 0.000000 0.000000 0.000000 0.048747 0.000000 -0.002197
# 5 -0.007262 -0.003674 0.006368 0.000000 0.061381 0.000000
# 6 0.000000 0.000000 0.000000 -0.002197 0.000000 0.059898
#
#
# Mechanical properties :
#
#
# Convention : Reuss Voigt Hill
#
# Bulk Modulus (GPa) = 27.14948 44.29174 35.72061
# Shear Modulus (GPa) = 12.78151 15.86286 14.32218
#
# Velocity S-wave (km/s) = 2.94294 3.27854 3.11526
# Velocity P-wave (km/s) = 5.47216 6.65915 6.09462
#
# Compressibility (1/GPa) = 0.03683312
#
# Stress axis : x y z
#
# Youngs Moduli (GPa) = 40.57411 14.42379 34.62206
#
# Poissons Ratio (x) = 0.18392 0.41121
# Poissons Ratio (y) = 0.51735 0.63654
# Poissons Ratio (z) = 0.48190 0.26519
#
# Static dielectric constant tensor:
#      x y z
#    x 1.513920 0.000000 0.054680 
#    y 0.000000 1.506640 0.000000 
#    z 0.054680 0.000000 1.491260 
# 
# From -- ./inp_files/42495.got.cif
#   From: 2010.05.17/outbox.cif.g08.bks.cpg/sg11_22_cif.got.tgz:42495.got - 2010.06.03 12:22:45.
