data_PCOD9155864
_publ_section_title
;
Structure prediction by ZEFSAII (Michael W. Deem and Ramdas Pophale) SiO2 
 PCOD9155864
Probable space group: P 21/M
;
_chemical_formula_sum "Si O2"
_cell_formula_units_Z 32
_cell_length_a 18.569866
_cell_length_b 14.791444
_cell_length_c 18.361189
_cell_angle_alpha 90.000000
_cell_angle_beta 162.461152
_cell_angle_gamma 90.000000
_cell_volume 1519.829125
_symmetry_space_group_name_H-M "P 21/M"
_symmetry_group_IT_number 11
_symmetry_cell_setting 'monoclinic'
loop_
_space_group_symop_operation_xyz
x,y,z
-x,1/2+y,-z
-x,-y,-z
x,1/2-y,z
loop_
_atom_site_type_symbol
_atom_site_label
_atom_site_fract_x
_atom_site_fract_y
_atom_site_fract_z
Si Si1 0.302015 0.096732 0.233042
Si Si2 0.788152 0.898459 0.682150
Si Si3 0.953124 0.586664 0.361444
Si Si4 0.829225 0.111717 0.695131
Si Si5 0.328058 0.441451 0.782228
Si Si6 0.704400 0.344770 0.418662
Si Si7 0.696838 0.097017 0.848841
Si Si8 0.606836 0.481186 0.918248
O O1 0.269055 0.096191 0.287531
O O2 0.562888 0.137765 0.466291
O O3 0.305525 0.994753 0.203359
O O4 0.061729 0.138409 0.965906
O O5 0.557229 0.859312 0.417980
O O6 0.821623 0.002109 0.686670
O O7 0.050476 0.856286 0.924317
O O8 0.799065 0.623011 0.281218
O O9 0.128231 0.509739 0.560749
O O10 0.119575 0.655091 0.479796
O O11 0.798287 0.534936 0.151286
O O12 0.849818 0.147365 0.633558
O O13 0.470565 0.417482 0.846063
O O14 0.500000 0.500000 0.000000
O O15 0.563696 0.250000 0.284011
O O16 0.555245 0.436716 0.268591
O O17 0.695046 0.070893 0.932333
#
# Coordination Sequence:
#
# PCOD9155864 Si02
#       8
#     4   4   4   4   4   4   4   4
#     4  10  17  28  45  61  86 121 163 201 245 289
#     4  10  17  27  43  65  87 121 160 197 245 294
#     4   9  17  31  48  65  86 121 168 200 240 291
#     4  10  18  30  42  62  87 122 166 205 235 278
#     4   8  16  29  48  68  86 113 159 202 246 295
#     4  11  22  32  44  64  95 136 175 206 234 279
#     4  10  17  25  41  62  92 117 154 192 234 289
#     4  10  18  30  45  64  93 127 164 201 247 299
#
# _framework density 21.054998999999999
#
# number of rings (size 3 to 8) (size 9 to 14) (size 15 to 20)
#    0.000    2.250    2.500    5.250    1.750    0.500 
#    0.000    0.000    0.000    0.000    0.000    0.000 
#    0.000    0.000    0.000   12.375   18.500    9.125 
#
# Total GULP energy -178230.587958 kJ/mol
# GULP energy per Si atom -5569.705874 kJ/mol
# Density = 2.100708 g / cm^3
# Si number density = 21.054999 Si / 1000 Ang^3
#
#
#
# Elastic Constant Matrix: (Units=GPa)
#
#
# Indices 1 2 3 4 5 6 
#
# 1 140.7441 15.1782 23.6899 0.0000 -0.6866 0.0000
# 2 15.1782 36.3804 4.5275 0.0000 0.2228 0.0000
# 3 23.6899 4.5275 146.0889 0.0000 -5.5274 0.0000
# 4 0.0000 0.0000 0.0000 -12.3006 0.0000 16.2866
# 5 -0.6866 0.2228 -5.5274 0.0000 41.7102 0.0000
# 6 0.0000 0.0000 0.0000 16.2866 0.0000 -132.1336
#
#
#
# Elastic Compliance Matrix: (Units=1/GPa)
#
#
# Indices 1 2 3 4 5 6 
#
# 1 0.007625 -0.003039 -0.001143 0.000000 -0.000010 0.000000
# 2 -0.003039 0.028808 -0.000410 0.000000 -0.000258 0.000000
# 3 -0.001143 -0.000410 0.007078 0.000000 0.000921 0.000000
# 4 0.000000 0.000000 0.000000 -0.097152 0.000000 -0.011975
# 5 -0.000010 -0.000258 0.000921 0.000000 0.024098 0.000000
# 6 0.000000 0.000000 0.000000 -0.011975 0.000000 -0.009044
#
#
# Mechanical properties :
#
#
# Convention : Reuss Voigt Hill
#
# Bulk Modulus (GPa) = 29.13070 45.55608 37.34339
# Shear Modulus (GPa) = -278.36986 -1.89027 -140.13007
#
# Velocity S-wave (km/s) = -11.51077 -0.94854 -8.16693
# Velocity P-wave (km/s) = 12.75924 4.52593 8.43547
#
# Compressibility (1/GPa) = 0.03432804
#
# Stress axis : x y z
#
# Youngs Moduli (GPa) = 131.14560 34.71281 141.28280
#
# Poissons Ratio (x) = 0.10549 0.16144
# Poissons Ratio (y) = 0.39855 0.05789
# Poissons Ratio (z) = 0.14986 0.01422
#
# Static dielectric constant tensor:
#      x y z
#    x 1.664190 0.000000 0.217110 
#    y 0.000000 1.659410 0.000000 
#    z 0.217110 0.000000 1.622290 
# 
# From -- ./inp_files/61121.got.cif
#   From: 2010.05.17/outbox.cif.g08.bks.cpg/sg11_31_cif.got.tgz:61121.got - 2010.06.03 12:22:45.
