data_PCOD9155887
_publ_section_title
;
Structure prediction by ZEFSAII (Michael W. Deem and Ramdas Pophale) SiO2 
 PCOD9155887
Probable space group: P 21/M
;
_chemical_formula_sum "Si O2"
_cell_formula_units_Z 28
_cell_length_a 18.429931
_cell_length_b 8.782950
_cell_length_c 14.447635
_cell_angle_alpha 90.000000
_cell_angle_beta 128.530791
_cell_angle_gamma 90.000000
_cell_volume 1829.445602
_symmetry_space_group_name_H-M "P 21/M"
_symmetry_group_IT_number 11
_symmetry_cell_setting 'monoclinic'
loop_
_space_group_symop_operation_xyz
x,y,z
-x,1/2+y,-z
-x,-y,-z
x,1/2-y,z
loop_
_atom_site_type_symbol
_atom_site_label
_atom_site_fract_x
_atom_site_fract_y
_atom_site_fract_z
Si Si1 0.586197 0.932221 0.626045
Si Si2 0.469186 0.932038 0.702175
Si Si3 0.228259 0.566635 0.698384
Si Si4 0.293928 0.568409 0.427907
Si Si5 0.040294 0.932720 0.626945
Si Si6 0.430865 0.431012 0.869702
Si Si7 0.146461 0.433087 0.441347
O O1 0.586565 0.750000 0.616950
O O2 0.559010 0.967914 0.710326
O O3 0.500000 0.000000 0.500000
O O4 0.675538 0.001301 0.646828
O O5 0.467778 0.750000 0.718477
O O6 0.377913 0.966672 0.567276
O O7 0.463597 0.020105 0.793249
O O8 0.234421 0.750000 0.696382
O O9 0.148585 0.524524 0.710292
O O10 0.327823 0.498525 0.800023
O O11 0.193843 0.502289 0.571700
O O12 0.287194 0.750000 0.416856
O O13 0.201873 0.497508 0.398285
O O14 0.038109 0.750000 0.619387
O O15 0.963042 0.975541 0.641409
O O16 0.000000 0.000000 0.500000
O O17 0.428207 0.250000 0.875223
O O18 0.500000 0.500000 0.000000
O O19 0.154963 0.250000 0.451348
#
# Coordination Sequence:
#
# PCOD9155887 Si02
#       7
#     4   4   4   4   4   4   4
#     4   9  17  28  43  62  86 115 148 182 219 266
#     4   9  18  32  46  61  86 116 148 186 228 265
#     4  10  18  31  46  61  87 117 148 187 229 266
#     4  10  18  27  42  64  92 122 150 182 221 262
#     4   8  16  27  41  61  85 115 147 181 218 263
#     4  12  24  35  49  66  86 116 155 194 229 267
#     4  10  17  26  42  65  90 119 154 182 216 265
#
# _framework density 15.305184000000001
#
# number of rings (size 3 to 8) (size 9 to 14) (size 15 to 20)
#    0.000    2.286    1.429    3.857    0.000    4.000 
#    0.000    0.000    0.000    0.000    0.000    0.000 
#    0.000    1.143    0.000    3.429    0.000    4.571 
#
# Total GULP energy -155953.293847 kJ/mol
# GULP energy per Si atom -5569.760495 kJ/mol
# Density = 1.527035 g / cm^3
# Si number density = 15.305184 Si / 1000 Ang^3
#
#
#
# Elastic Constant Matrix: (Units=GPa)
#
#
# Indices 1 2 3 4 5 6 
#
# 1 176.6895 61.1960 45.7344 0.0000 22.6556 0.0000
# 2 61.1960 66.5193 30.1050 0.0000 3.0107 0.0000
# 3 45.7344 30.1050 49.1085 0.0000 9.1130 0.0000
# 4 0.0000 0.0000 0.0000 15.8630 0.0000 -1.0118
# 5 22.6556 3.0107 9.1130 0.0000 13.2484 0.0000
# 6 0.0000 0.0000 0.0000 -1.0118 0.0000 26.4560
#
#
#
# Elastic Compliance Matrix: (Units=1/GPa)
#
#
# Indices 1 2 3 4 5 6 
#
# 1 0.011242 -0.008597 -0.002286 0.000000 -0.015698 0.000000
# 2 -0.008597 0.027632 -0.012031 0.000000 0.016698 0.000000
# 3 -0.002286 -0.012031 0.032825 0.000000 -0.015935 0.000000
# 4 0.000000 0.000000 0.000000 0.063194 0.000000 0.002417
# 5 -0.015698 0.016698 -0.015935 0.000000 0.109492 0.000000
# 6 0.000000 0.000000 0.000000 0.002417 0.000000 0.037891
#
#
# Mechanical properties :
#
#
# Convention : Reuss Voigt Hill
#
# Bulk Modulus (GPa) = 38.65588 62.93203 50.79396
# Shear Modulus (GPa) = 14.84885 21.46561 18.15723
#
# Velocity S-wave (km/s) = 3.11816 3.74907 3.44807
# Velocity P-wave (km/s) = 6.18671 7.74261 7.00798
#
# Compressibility (1/GPa) = 0.02586928
#
# Stress axis : x y z
#
# Youngs Moduli (GPa) = 88.95415 36.19052 30.46483
#
# Poissons Ratio (x) = 0.31113 0.06965
# Poissons Ratio (y) = 0.76474 0.36653
# Poissons Ratio (z) = 0.20336 0.43542
#
# Static dielectric constant tensor:
#      x y z
#    x 1.598200 0.000000 0.020360 
#    y 0.000000 1.506520 0.000000 
#    z 0.020360 0.000000 1.463440 
# 
# From -- ./inp_files/52877.got.cif
#   From: 2010.05.17/outbox.cif.g08.bks.cpg/sg11_27_cif.got.tgz:52877.got - 2010.06.03 12:22:45.
