data_PCOD9155432
_publ_section_title
;
Structure prediction by ZEFSAII (Michael W. Deem and Ramdas Pophale) SiO2 
 PCOD9155432
Probable space group: P 2/M
;
_chemical_formula_sum "Si O2"
_cell_formula_units_Z 28
_cell_length_a 21.000000
_cell_length_b 9.000000
_cell_length_c 15.000000
_cell_angle_alpha 90.000000
_cell_angle_beta 150.000000
_cell_angle_gamma 90.000000
_cell_volume 1417.500000
_symmetry_space_group_name_H-M "P 2/M"
_symmetry_group_IT_number 10
_symmetry_cell_setting 'monoclinic'
loop_
_space_group_symop_operation_xyz
x,y,z
-x,y,-z
-x,-y,-z
x,-y,z
loop_
_atom_site_type_symbol
_atom_site_label
_atom_site_fract_x
_atom_site_fract_y
_atom_site_fract_z
Si Si1 0.104526 0.326924 0.046876
Si Si2 0.536113 0.675350 0.644157
Si Si3 0.706631 0.171241 0.601574
Si Si4 0.964070 0.180822 0.224938
Si Si5 0.232861 0.174309 0.520418
Si Si6 0.490992 0.818511 0.093084
Si Si7 0.707124 0.821532 0.995799
O O1 0.144410 0.500000 0.086875
O O2 0.215151 0.222103 0.218481
O O3 0.066047 0.263196 0.904510
O O4 0.000000 0.322908 0.000000
O O5 0.500000 0.725340 0.500000
O O6 0.559758 0.500000 0.670255
O O7 0.411275 0.718770 0.548414
O O8 0.647267 0.756732 0.832156
O O9 0.790192 0.184129 0.613581
O O10 0.663053 0.000000 0.554100
O O11 0.109007 0.228517 0.422165
O O12 0.963507 0.000000 0.210241
O O13 0.857002 0.214262 0.168922
O O14 0.372867 0.236417 0.705399
O O15 0.244296 0.000000 0.556883
O O16 0.374626 0.769803 0.016823
O O17 0.485893 0.000000 0.090135
O O18 0.500000 0.777489 0.000000
O O19 0.694900 0.000000 0.978138
#
# Coordination Sequence:
#
# PCOD9155432 Si02
#       7
#     4   4   4   4   4   4   4
#     4  11  22  33  47  74 112 150 193 232 271 326
#     4  11  23  36  51  75 111 149 185 228 279 327
#     4  11  20  33  54  75 103 143 191 232 269 320
#     4  10  20  34  53  77 110 146 187 230 271 323
#     4   9  17  31  52  78 105 137 175 220 271 325
#     4   9  17  33  58  85 111 140 178 228 285 339
#     4  10  20  35  55  82 109 143 187 230 276 330
#
# _framework density 19.753086
#
# number of rings (size 3 to 8) (size 9 to 14) (size 15 to 20)
#    0.000    1.857    2.857    2.143    0.000    4.571 
#    0.000    0.714    0.000    4.714    0.000    0.000 
#    0.000    2.286    0.000    0.000    0.000    0.000 
#
# Total GULP energy -155961.758441 kJ/mol
# GULP energy per Si atom -5570.062801 kJ/mol
# Density = 1.970813 g / cm^3
# Si number density = 19.753086 Si / 1000 Ang^3
#
#
#
# Elastic Constant Matrix: (Units=GPa)
#
#
# Indices 1 2 3 4 5 6 
#
# 1 146.5538 20.0248 58.2726 0.0000 24.8062 0.0000
# 2 20.0248 7.2431 2.7863 0.0000 0.0791 0.0000
# 3 58.2726 2.7863 49.4724 0.0000 15.4401 0.0000
# 4 0.0000 0.0000 0.0000 -7.1394 0.0000 -5.4660
# 5 24.8062 0.0791 15.4401 0.0000 35.3262 0.0000
# 6 0.0000 0.0000 0.0000 -5.4660 0.0000 10.7753
#
#
#
# Elastic Compliance Matrix: (Units=1/GPa)
#
#
# Indices 1 2 3 4 5 6 
#
# 1 0.027787 -0.066519 -0.026564 0.000000 -0.007753 0.000000
# 2 -0.066519 0.300767 0.054475 0.000000 0.022226 0.000000
# 3 -0.026564 0.054475 0.049388 0.000000 -0.003055 0.000000
# 4 0.000000 0.000000 0.000000 -0.100887 0.000000 -0.051177
# 5 -0.007753 0.022226 -0.003055 0.000000 0.035037 0.000000
# 6 0.000000 0.000000 0.000000 -0.051177 0.000000 0.066844
#
#
# Mechanical properties :
#
#
# Convention : Reuss Voigt Hill
#
# Bulk Modulus (GPa) = 3.32527 40.60406 21.96467
# Shear Modulus (GPa) = 8.98646 15.93815 12.46231
#
# Velocity S-wave (km/s) = 2.13524 2.84363 2.51451
# Velocity P-wave (km/s) = 2.78677 5.60197 4.42426
#
# Compressibility (1/GPa) = 0.30072738
#
# Stress axis : x y z
#
# Youngs Moduli (GPa) = 35.98817 3.32483 20.24799
#
# Poissons Ratio (x) = 0.22116 0.53786
# Poissons Ratio (y) = 2.39388 -1.10301
# Poissons Ratio (z) = 0.95598 -0.18112
#
# Static dielectric constant tensor:
#      x y z
#    x 1.733960 0.000000 0.042480 
#    y 0.000000 1.650060 0.000000 
#    z 0.042480 0.000000 1.816750 
# 
# From -- ./inp_files/49545.got.cif
#   From: 2010.05.17/outbox.ucp.g08.bks.cvg/sg10_25_cif.got.tgz:49545.got - 2010.06.11 11:31:16.
