data_PCOD9155604
_publ_section_title
;
Structure prediction by ZEFSAII (Michael W. Deem and Ramdas Pophale) SiO2 
 PCOD9155604
Probable space group: P 2/M
;
_chemical_formula_sum "Si O2"
_cell_formula_units_Z 24
_cell_length_a 12.000000
_cell_length_b 9.000000
_cell_length_c 12.000000
_cell_angle_alpha 90.000000
_cell_angle_beta 70.000000
_cell_angle_gamma 90.000000
_cell_volume 1217.841637
_symmetry_space_group_name_H-M "P 2/M"
_symmetry_group_IT_number 10
_symmetry_cell_setting 'monoclinic'
loop_
_space_group_symop_operation_xyz
x,y,z
-x,y,-z
-x,-y,-z
x,-y,z
loop_
_atom_site_type_symbol
_atom_site_label
_atom_site_fract_x
_atom_site_fract_y
_atom_site_fract_z
Si Si1 0.628092 0.332154 0.220960
Si Si2 0.974731 0.675054 0.384202
Si Si3 0.259841 0.174661 0.621737
Si Si4 0.198350 0.832033 0.251677
Si Si5 0.394825 0.825985 0.365195
Si Si6 0.359239 0.665007 0.039607
O O1 0.636745 0.500000 0.261789
O O2 0.704038 0.222146 0.268666
O O3 0.493162 0.276019 0.276152
O O4 0.669391 0.331757 0.080358
O O5 0.958949 0.500000 0.395003
O O6 0.090994 0.719615 0.277152
O O7 0.000000 0.733356 0.500000
O O8 0.859226 0.746757 0.373541
O O9 0.365658 0.217575 0.501200
O O10 0.245348 0.000000 0.615010
O O11 0.271461 0.812942 0.340962
O O12 0.154278 0.000000 0.261039
O O13 0.293790 0.794410 0.125707
O O14 0.431719 0.000000 0.348030
O O15 0.329094 0.500000 0.096014
O O16 0.500000 0.680852 0.000000
#
# Coordination Sequence:
#
# PCOD9155604 Si02
#       6
#     4   4   4   4   4   4
#     4  11  23  38  59  87 121 158 199 245 294 351
#     4  11  23  39  62  89 119 155 197 242 291 350
#     4  11  23  40  60  85 123 160 196 242 295 353
#     4  11  22  37  61  91 120 152 197 245 291 346
#     4  10  21  36  57  87 122 157 191 239 297 351
#     4  10  21  39  60  85 119 157 197 244 296 347
#
# _framework density 19.706996
#
# number of rings (size 3 to 8) (size 9 to 14) (size 15 to 20)
#    0.000    1.333    3.333    2.500    0.000    6.333 
#    0.000    0.833    0.000    5.000    0.000    0.000 
#    0.000    0.000    0.000    0.000    0.000    0.000 
#
# Total GULP energy -133965.442279 kJ/mol
# GULP energy per Si atom -5581.893428 kJ/mol
# Density = 1.966214 g / cm^3
# Si number density = 19.706996 Si / 1000 Ang^3
#
#
#
# Elastic Constant Matrix: (Units=GPa)
#
#
# Indices 1 2 3 4 5 6 
#
# 1 52.8977 20.4519 20.4565 0.0000 -6.3255 0.0000
# 2 20.4519 17.0628 12.4819 0.0000 2.6703 0.0000
# 3 20.4565 12.4819 39.0990 0.0000 12.7532 0.0000
# 4 0.0000 0.0000 0.0000 22.8137 0.0000 -1.9214
# 5 -6.3255 2.6703 12.7532 0.0000 11.0455 0.0000
# 6 0.0000 0.0000 0.0000 -1.9214 0.0000 28.0229
#
#
#
# Elastic Compliance Matrix: (Units=1/GPa)
#
#
# Indices 1 2 3 4 5 6 
#
# 1 0.129553 -0.114198 -0.103514 0.000000 0.221317 0.000000
# 2 -0.114198 0.178830 0.061104 0.000000 -0.179181 0.000000
# 3 -0.103514 0.061104 0.135359 0.000000 -0.230337 0.000000
# 4 0.000000 0.000000 0.000000 0.044088 0.000000 0.003023
# 5 0.221317 -0.179181 -0.230337 0.000000 0.526543 0.000000
# 6 0.000000 0.000000 0.000000 0.003023 0.000000 0.035892
#
#
# Mechanical properties :
#
#
# Convention : Reuss Voigt Hill
#
# Bulk Modulus (GPa) = 7.66138 23.98224 15.82181
# Shear Modulus (GPa) = 3.55369 16.08771 9.82070
#
# Velocity S-wave (km/s) = 1.34431 2.86027 2.23477
# Velocity P-wave (km/s) = 2.51111 4.80667 3.83469
#
# Compressibility (1/GPa) = 0.13052471
#
# Stress axis : x y z
#
# Youngs Moduli (GPa) = 7.71886 5.59192 7.38779
#
# Poissons Ratio (x) = 0.63858 0.76474
# Poissons Ratio (y) = 0.88148 -0.45142
# Poissons Ratio (z) = 0.79901 -0.34169
#
# Static dielectric constant tensor:
#      x y z
#    x 1.694610 0.000000 -0.000930 
#    y 0.000000 1.674740 0.000000 
#    z -0.000930 0.000000 1.711780 
# 
# From -- ./inp_files/44991.got.cif
#   From: 2010.05.17/outbox.ucp.g08.bks.cvg/sg10_23_cif.got.tgz:44991.got - 2010.06.11 11:31:16.
