data_PCOD9155077
_publ_section_title
;
Structure prediction by ZEFSAII (Michael W. Deem and Ramdas Pophale) SiO2 
 PCOD9155077
Probable space group: P 2/M
;
_chemical_formula_sum "Si O2"
_cell_formula_units_Z 16
_cell_length_a 9.187656
_cell_length_b 10.187447
_cell_length_c 11.864477
_cell_angle_alpha 90.000000
_cell_angle_beta 140.189865
_cell_angle_gamma 90.000000
_cell_volume 710.992932
_symmetry_space_group_name_H-M "P 2/M"
_symmetry_group_IT_number 10
_symmetry_cell_setting 'monoclinic'
loop_
_space_group_symop_operation_xyz
x,y,z
-x,y,-z
-x,-y,-z
x,-y,z
loop_
_atom_site_type_symbol
_atom_site_label
_atom_site_fract_x
_atom_site_fract_y
_atom_site_fract_z
Si Si1 0.818732 0.350689 0.183714
Si Si2 0.305372 0.745264 0.465269
Si Si3 0.057073 0.143396 0.904181
Si Si4 0.726059 0.851506 0.317272
O O1 0.745175 0.500000 0.133069
O O2 0.703831 0.261920 0.211166
O O3 0.093588 0.349296 0.369487
O O4 0.801709 0.265235 0.059584
O O5 0.500000 0.688905 0.500000
O O6 0.172459 0.849707 0.307352
O O7 0.383651 0.810638 0.628436
O O8 0.160072 0.000000 0.947141
O O9 0.000000 0.159355 0.000000
O O10 0.000000 0.856519 0.500000
O O11 0.663514 0.000000 0.245919
#
# Coordination Sequence:
#
# PCOD9155077 Si02
#       4
#     4   4   4   4
#     4   9  19  32  49  72 100 131 166 198 237 289
#     4   9  19  31  50  77 102 125 158 203 251 283
#     4   9  18  32  50  72  98 128 163 200 239 288
#     4   9  16  28  48  72  96 124 163 205 240 282
#
# _framework density 22.503740000000001
#
# number of rings (size 3 to 8) (size 9 to 14) (size 15 to 20)
#    1.500    1.500    0.000    1.500    0.000    7.500 
#    0.000    0.000    0.000    1.500    0.000    7.000 
#    0.000    0.000    0.000    0.000    0.000    0.000 
#
# Total GULP energy -89144.177026 kJ/mol
# GULP energy per Si atom -5571.511064 kJ/mol
# Density = 2.245252 g / cm^3
# Si number density = 22.503740 Si / 1000 Ang^3
#
#
#
# Elastic Constant Matrix: (Units=GPa)
#
#
# Indices 1 2 3 4 5 6 
#
# 1 128.2004 59.0034 44.2437 0.0000 -11.4514 0.0000
# 2 59.0034 223.6784 55.1522 0.0000 -39.7708 0.0000
# 3 44.2437 55.1522 64.9404 0.0000 -23.7827 0.0000
# 4 0.0000 0.0000 0.0000 7.7813 0.0000 -17.6425
# 5 -11.4514 -39.7708 -23.7827 0.0000 55.1958 0.0000
# 6 0.0000 0.0000 0.0000 -17.6425 0.0000 -2.1502
#
#
#
# Elastic Compliance Matrix: (Units=1/GPa)
#
#
# Indices 1 2 3 4 5 6 
#
# 1 0.010603 -0.001473 -0.006596 0.000000 -0.001704 0.000000
# 2 -0.001473 0.006136 -0.003206 0.000000 0.002734 0.000000
# 3 -0.006596 -0.003206 0.025253 0.000000 0.007203 0.000000
# 4 0.000000 0.000000 0.000000 0.006556 0.000000 -0.053790
# 5 -0.001704 0.002734 0.007203 0.000000 0.022837 0.000000
# 6 0.000000 0.000000 0.000000 -0.053790 0.000000 -0.023724
#
#
# Mechanical properties :
#
#
# Convention : Reuss Voigt Hill
#
# Bulk Modulus (GPa) = 51.43906 81.51309 66.47608
# Shear Modulus (GPa) = 65.19547 29.39338 47.29442
#
# Velocity S-wave (km/s) = 5.38831 3.61800 4.58932
# Velocity P-wave (km/s) = 7.84980 7.33170 7.59517
#
# Compressibility (1/GPa) = 0.01944048
#
# Stress axis : x y z
#
# Youngs Moduli (GPa) = 94.31578 162.97231 39.59871
#
# Poissons Ratio (x) = 0.24012 0.26121
# Poissons Ratio (y) = 0.13896 0.12695
# Poissons Ratio (z) = 0.62214 0.52249
#
# Static dielectric constant tensor:
#      x y z
#    x 1.851280 0.000000 0.062960 
#    y 0.000000 1.775290 0.000000 
#    z 0.062960 0.000000 1.875280 
# 
# From -- ./inp_files/21454.got.cif
#   From: 2010.05.17/outbox.cif.g08.bks.cpg/sg10_11_cif.got.tgz:21454.got - 2010.06.03 11:33:40.
