data_PCOD9155877
_publ_section_title
;
Structure prediction by ZEFSAII (Michael W. Deem and Ramdas Pophale) SiO2 
 PCOD9155877
Probable space group: P 21/M
;
_chemical_formula_sum "Si O2"
_cell_formula_units_Z 32
_cell_length_a 17.641739
_cell_length_b 7.938773
_cell_length_c 20.144484
_cell_angle_alpha 90.000000
_cell_angle_beta 44.416920
_cell_angle_gamma 90.000000
_cell_volume 1974.562890
_symmetry_space_group_name_H-M "P 21/M"
_symmetry_group_IT_number 11
_symmetry_cell_setting 'monoclinic'
loop_
_space_group_symop_operation_xyz
x,y,z
-x,1/2+y,-z
-x,-y,-z
x,1/2-y,z
loop_
_atom_site_type_symbol
_atom_site_label
_atom_site_fract_x
_atom_site_fract_y
_atom_site_fract_z
Si Si1 0.771814 0.956033 0.060436
Si Si2 0.903475 0.051914 0.763087
Si Si3 0.334503 0.054691 0.090962
Si Si4 0.330163 0.945636 0.242540
Si Si5 0.910048 0.047286 0.609259
Si Si6 0.106842 0.450719 0.891293
Si Si7 0.436702 0.457028 0.890420
Si Si8 0.983923 0.948785 0.845530
O O1 0.773401 0.750000 0.058396
O O2 0.796098 0.008826 0.121160
O O3 0.658797 0.010614 0.099266
O O4 0.874223 0.012614 0.951326
O O5 0.877830 0.250000 0.775531
O O6 0.936994 0.995091 0.668220
O O7 0.791692 0.958148 0.850579
O O8 0.987011 0.024074 0.770228
O O9 0.361385 0.250000 0.086552
O O10 0.343845 0.956797 0.154074
O O11 0.403987 0.990767 0.985626
O O12 0.326149 0.750000 0.264750
O O13 0.211238 0.019738 0.331028
O O14 0.442003 0.016889 0.201456
O O15 0.903202 0.250000 0.614194
O O16 0.000000 0.000000 0.500000
O O17 0.112222 0.250000 0.883408
O O18 0.084053 0.517658 0.832086
O O19 0.000000 0.500000 0.000000
O O20 0.436951 0.250000 0.890898
O O21 0.972142 0.750000 0.845865
#
# Coordination Sequence:
#
# PCOD9155877 Si02
#       8
#     4   4   4   4   4   4   4   4
#     4   8  14  24  38  57  81 112 147 174 201 239
#     4  10  19  30  44  64  86 108 141 179 215 252
#     4  10  17  26  41  59  83 113 142 170 206 245
#     4   9  18  30  43  60  82 107 140 176 211 248
#     4   9  19  33  47  63  82 107 137 174 217 260
#     4   9  16  25  38  56  81 114 150 183 212 243
#     4   9  15  25  41  59  83 113 142 175 205 239
#     4  10  17  27  42  60  84 112 147 179 209 251
#
# _framework density 16.206119000000001
#
# number of rings (size 3 to 8) (size 9 to 14) (size 15 to 20)
#    0.000    2.750    1.250    3.375    0.000    2.500 
#    0.000    0.625    0.000    0.000    0.000    0.000 
#    0.000    1.000    0.000    2.000    0.000    2.625 
#
# Total GULP energy -178195.893330 kJ/mol
# GULP energy per Si atom -5568.621667 kJ/mol
# Density = 1.616923 g / cm^3
# Si number density = 16.206119 Si / 1000 Ang^3
#
#
#
# Elastic Constant Matrix: (Units=GPa)
#
#
# Indices 1 2 3 4 5 6 
#
# 1 105.7425 -0.5637 51.9096 0.0000 -4.8762 0.0000
# 2 -0.5637 22.2420 5.7641 0.0000 -0.1240 0.0000
# 3 51.9096 5.7641 82.5974 0.0000 -5.2685 0.0000
# 4 0.0000 0.0000 0.0000 12.6205 0.0000 5.1935
# 5 -4.8762 -0.1240 -5.2685 0.0000 13.2761 0.0000
# 6 0.0000 0.0000 0.0000 5.1935 0.0000 15.3477
#
#
#
# Elastic Compliance Matrix: (Units=1/GPa)
#
#
# Indices 1 2 3 4 5 6 
#
# 1 0.013862 0.002639 -0.008792 0.000000 0.001627 0.000000
# 2 0.002639 0.046300 -0.004925 0.000000 -0.000553 0.000000
# 3 -0.008792 -0.004925 0.018229 0.000000 0.003959 0.000000
# 4 0.000000 0.000000 0.000000 0.092055 0.000000 -0.031151
# 5 0.001627 -0.000553 0.003959 0.000000 0.077487 0.000000
# 6 0.000000 0.000000 0.000000 -0.031151 0.000000 0.075698
#
#
# Mechanical properties :
#
#
# Convention : Reuss Voigt Hill
#
# Bulk Modulus (GPa) = 17.78261 36.08909 26.93585
# Shear Modulus (GPa) = 13.71624 18.48032 16.09828
#
# Velocity S-wave (km/s) = 2.91239 3.38054 3.15516
# Velocity P-wave (km/s) = 4.72291 6.12818 5.47085
#
# Compressibility (1/GPa) = 0.05623472
#
# Stress axis : x y z
#
# Youngs Moduli (GPa) = 72.13846 21.59824 54.85836
#
# Poissons Ratio (x) = -0.05700 0.48233
# Poissons Ratio (y) = -0.19037 0.27017
# Poissons Ratio (z) = 0.63426 0.10637
#
# Static dielectric constant tensor:
#      x y z
#    x 1.605980 0.000000 0.005610 
#    y 0.000000 1.584260 0.000000 
#    z 0.005610 0.000000 1.516570 
# 
# From -- ./inp_files/59892.got.cif
#   From: 2010.05.17/outbox.cif.g08.bks.cpg/sg11_30_cif.got.tgz:59892.got - 2010.06.03 12:22:45.
