data_PCOD9155298
_publ_section_title
;
Structure prediction by ZEFSAII (Michael W. Deem and Ramdas Pophale) SiO2 
 PCOD9155298
Probable space group: P 2/M
;
_chemical_formula_sum "Si O2"
_cell_formula_units_Z 32
_cell_length_a 30.000000
_cell_length_b 9.000000
_cell_length_c 12.000000
_cell_angle_alpha 90.000000
_cell_angle_beta 150.000000
_cell_angle_gamma 90.000000
_cell_volume 1620.000000
_symmetry_space_group_name_H-M "P 2/M"
_symmetry_group_IT_number 10
_symmetry_cell_setting 'monoclinic'
loop_
_space_group_symop_operation_xyz
x,y,z
-x,y,-z
-x,-y,-z
x,-y,z
loop_
_atom_site_type_symbol
_atom_site_label
_atom_site_fract_x
_atom_site_fract_y
_atom_site_fract_z
Si Si1 0.590495 0.178612 0.131931
Si Si2 0.874597 0.178379 0.495299
Si Si3 0.397320 0.679786 0.284183
Si Si4 0.266856 0.679186 0.192288
Si Si5 0.950014 0.829409 0.009641
Si Si6 0.321552 0.178298 0.900044
Si Si7 0.899106 0.322199 0.315470
Si Si8 0.240637 0.321071 0.385353
O O1 0.601767 0.211020 0.024781
O O2 0.679493 0.255188 0.369907
O O3 0.597126 0.000000 0.160021
O O4 0.500000 0.226639 0.000000
O O5 0.781371 0.221352 0.353635
O O6 0.867739 0.231478 0.354302
O O7 0.881052 0.000000 0.519589
O O8 0.970878 0.237975 0.743376
O O9 0.500000 0.726774 0.500000
O O10 0.394608 0.500000 0.276337
O O11 0.345631 0.732700 0.282673
O O12 0.345971 0.741007 0.066406
O O13 0.274003 0.500000 0.210161
O O14 0.267184 0.730190 0.318620
O O15 0.170653 0.713255 0.932302
O O16 0.858192 0.740454 0.804621
O O17 0.929098 0.000000 0.998295
O O18 0.000000 0.836112 0.000000
O O19 0.319956 0.000000 0.912082
O O20 0.894247 0.500000 0.327654
O O21 0.000000 0.286469 0.500000
O O22 0.239117 0.500000 0.388852
#
# Coordination Sequence:
#
# PCOD9155298 Si02
#       8
#     4   4   4   4   4   4   4   4
#     4  10  23  43  64  86 117 159 200 242 299 357
#     4  10  20  34  55  83 112 145 187 236 286 337
#     4  10  21  37  60  86 114 154 196 236 291 353
#     4   9  19  36  54  81 120 155 186 231 292 348
#     4  10  21  39  61  83 115 160 199 238 296 356
#     4  10  21  39  61  87 118 149 192 247 294 344
#     4  10  19  33  54  78 109 150 187 223 277 338
#     4  11  23  39  61  90 122 154 197 250 295 345
#
# _framework density 19.753086
#
# number of rings (size 3 to 8) (size 9 to 14) (size 15 to 20)
#    0.000    2.000    1.250    1.875    1.750    5.000 
#    0.000    3.750    0.000    0.000    0.000    0.000 
#    0.000    0.000    0.000    0.000    0.000    0.000 
#
# Total GULP energy -178429.114749 kJ/mol
# GULP energy per Si atom -5575.909836 kJ/mol
# Density = 1.970813 g / cm^3
# Si number density = 19.753086 Si / 1000 Ang^3
#
#
#
# Elastic Constant Matrix: (Units=GPa)
#
#
# Indices 1 2 3 4 5 6 
#
# 1 109.2037 15.4966 33.7460 0.0000 28.0775 0.0000
# 2 15.4966 -0.2848 11.7757 0.0000 7.6303 0.0000
# 3 33.7460 11.7757 83.2352 0.0000 21.6101 0.0000
# 4 0.0000 0.0000 0.0000 -8.0528 0.0000 -31.3773
# 5 28.0775 7.6303 21.6101 0.0000 40.3964 0.0000
# 6 0.0000 0.0000 0.0000 -31.3773 0.0000 -12.3126
#
#
#
# Elastic Compliance Matrix: (Units=1/GPa)
#
#
# Indices 1 2 3 4 5 6 
#
# 1 0.009006 0.028879 -0.005453 0.000000 -0.008797 0.000000
# 2 0.028879 -0.299259 0.024579 0.000000 0.023305 0.000000
# 3 -0.005453 0.024579 0.012738 0.000000 -0.007667 0.000000
# 4 0.000000 0.000000 0.000000 0.013907 0.000000 -0.035439
# 5 -0.008797 0.023305 -0.007667 0.000000 0.030569 0.000000
# 6 0.000000 0.000000 0.000000 -0.035439 0.000000 0.009095
#
#
# Mechanical properties :
#
#
# Convention : Reuss Voigt Hill
#
# Bulk Modulus (GPa) = -5.50951 34.91007 14.70028
# Shear Modulus (GPa) = -13.14215 12.74860 -0.19678
#
# Velocity S-wave (km/s) = -2.58218 2.54322 -0.31596
# Velocity P-wave (km/s) = 3.41840 5.13182 2.70649
#
# Compressibility (1/GPa) = -0.18150440
#
# Stress axis : x y z
#
# Youngs Moduli (GPa) = 111.03618 -3.34159 78.50428
#
# Poissons Ratio (x) = 0.09650 0.42808
# Poissons Ratio (y) = -3.20664 -1.92954
# Poissons Ratio (z) = 0.60548 0.08213
#
# Static dielectric constant tensor:
#      x y z
#    x 1.712960 0.000000 -0.043640 
#    y 0.000000 1.657310 0.000000 
#    z -0.043640 0.000000 1.750560 
# 
# From -- ./inp_files/58314.got.cif
#   From: 2010.05.17/outbox.ucp.g08.bks.cvg/sg10_30_cif.got.tgz:58314.got - 2010.06.11 11:31:16.
