data_PCOD9155328
_publ_section_title
;
Structure prediction by ZEFSAII (Michael W. Deem and Ramdas Pophale) SiO2 
 PCOD9155328
Probable space group: P 2/M
;
_chemical_formula_sum "Si O2"
_cell_formula_units_Z 28
_cell_length_a 18.000000
_cell_length_b 9.000000
_cell_length_c 15.000000
_cell_angle_alpha 90.000000
_cell_angle_beta 140.000000
_cell_angle_gamma 90.000000
_cell_volume 1561.973892
_symmetry_space_group_name_H-M "P 2/M"
_symmetry_group_IT_number 10
_symmetry_cell_setting 'monoclinic'
loop_
_space_group_symop_operation_xyz
x,y,z
-x,y,-z
-x,-y,-z
x,-y,z
loop_
_atom_site_type_symbol
_atom_site_label
_atom_site_fract_x
_atom_site_fract_y
_atom_site_fract_z
Si Si1 0.602737 0.323239 0.858109
Si Si2 0.023719 0.324021 0.652208
Si Si3 0.157944 0.830467 0.915477
Si Si4 0.866652 0.171414 0.894245
Si Si5 0.171887 0.176908 0.636077
Si Si6 0.558841 0.177322 0.148174
Si Si7 0.381880 0.321981 0.339691
O O1 0.617197 0.500000 0.883595
O O2 0.498025 0.263738 0.821768
O O3 0.593973 0.295147 0.743630
O O4 0.717255 0.235806 0.993834
O O5 0.011992 0.500000 0.631706
O O6 0.061869 0.274121 0.784504
O O7 0.123890 0.262279 0.678555
O O8 0.908546 0.239936 0.516142
O O9 0.146802 0.000000 0.872638
O O10 0.145867 0.830074 0.010431
O O11 0.745008 0.251176 0.752629
O O12 0.864400 0.000000 0.858985
O O13 0.000000 0.228298 0.000000
O O14 0.305162 0.204622 0.737985
O O15 0.154684 0.000000 0.631542
O O16 0.540739 0.000000 0.144651
O O17 0.500000 0.218917 0.000000
O O18 0.500000 0.273346 0.500000
O O19 0.370787 0.500000 0.342467
#
# Coordination Sequence:
#
# PCOD9155328 Si02
#       7
#     4   4   4   4   4   4   4
#     4  10  20  34  55  81 109 140 180 224 265 317
#     4  11  21  34  53  77 105 137 178 222 265 314
#     4  10  19  34  56  77 105 140 176 217 267 323
#     4   9  19  36  57  83 111 138 180 234 278 324
#     4  10  20  35  54  75 105 143 179 216 264 317
#     4  10  21  36  54  77 106 141 179 218 265 318
#     4   9  19  37  58  81 113 150 185 222 275 340
#
# _framework density 17.926036
#
# number of rings (size 3 to 8) (size 9 to 14) (size 15 to 20)
#    0.000    2.143    0.000    4.286    0.000    4.286 
#    2.571    0.000    0.000    0.000    0.000    0.000 
#    0.000    0.000    0.000    0.000    0.000    0.000 
#
# Total GULP energy -156099.279247 kJ/mol
# GULP energy per Si atom -5574.974259 kJ/mol
# Density = 1.788524 g / cm^3
# Si number density = 17.926036 Si / 1000 Ang^3
#
#
#
# Elastic Constant Matrix: (Units=GPa)
#
#
# Indices 1 2 3 4 5 6 
#
# 1 75.5708 36.3680 39.4807 0.0000 33.1766 0.0000
# 2 36.3680 68.2891 33.3775 0.0000 14.9825 0.0000
# 3 39.4807 33.3775 100.5694 0.0000 19.9101 0.0000
# 4 0.0000 0.0000 0.0000 23.0751 0.0000 0.2913
# 5 33.1766 14.9825 19.9101 0.0000 27.1820 0.0000
# 6 0.0000 0.0000 0.0000 0.2913 0.0000 23.3107
#
#
#
# Elastic Compliance Matrix: (Units=1/GPa)
#
#
# Indices 1 2 3 4 5 6 
#
# 1 0.034824 -0.009077 -0.003783 0.000000 -0.034730 0.000000
# 2 -0.009077 0.020818 -0.003822 0.000000 0.002404 0.000000
# 3 -0.003783 -0.003822 0.013293 0.000000 -0.003014 0.000000
# 4 0.000000 0.000000 0.000000 0.043344 0.000000 -0.000542
# 5 -0.034730 0.002404 -0.003014 0.000000 0.080061 0.000000
# 6 0.000000 0.000000 0.000000 -0.000542 0.000000 0.042905
#
#
# Mechanical properties :
#
#
# Convention : Reuss Voigt Hill
#
# Bulk Modulus (GPa) = 28.11166 51.43129 39.77148
# Shear Modulus (GPa) = 17.82743 23.72711 20.77727
#
# Velocity S-wave (km/s) = 3.15699 3.64209 3.40818
# Velocity P-wave (km/s) = 5.38562 6.81466 6.14184
#
# Compressibility (1/GPa) = 0.03557243
#
# Stress axis : x y z
#
# Youngs Moduli (GPa) = 28.71564 48.03441 75.22568
#
# Poissons Ratio (x) = 0.43603 0.28456
# Poissons Ratio (y) = 0.26066 0.28748
# Poissons Ratio (z) = 0.10862 0.18357
#
# Static dielectric constant tensor:
#      x y z
#    x 1.595360 0.000000 -0.010810 
#    y 0.000000 1.614480 0.000000 
#    z -0.010810 0.000000 1.645690 
# 
# From -- ./inp_files/68678.got.cif
#   From: 2010.05.17/outbox.ucp.g08.bks.cvg/sg10_35_cif.got.tgz:68678.got - 2010.06.11 11:31:16.
