data_PCOD9155497
_publ_section_title
;
Structure prediction by ZEFSAII (Michael W. Deem and Ramdas Pophale) SiO2 
 PCOD9155497
Probable space group: P 2/M
;
_chemical_formula_sum "Si O2"
_cell_formula_units_Z 32
_cell_length_a 21.000000
_cell_length_b 9.000000
_cell_length_c 27.000000
_cell_angle_alpha 90.000000
_cell_angle_beta 160.000000
_cell_angle_gamma 90.000000
_cell_volume 1745.328791
_symmetry_space_group_name_H-M "P 2/M"
_symmetry_group_IT_number 10
_symmetry_cell_setting 'monoclinic'
loop_
_space_group_symop_operation_xyz
x,y,z
-x,y,-z
-x,-y,-z
x,-y,z
loop_
_atom_site_type_symbol
_atom_site_label
_atom_site_fract_x
_atom_site_fract_y
_atom_site_fract_z
Si Si1 0.532707 0.174536 0.965129
Si Si2 0.704035 0.673446 0.804800
Si Si3 0.106149 0.681367 0.912655
Si Si4 0.466191 0.822844 0.227142
Si Si5 0.080393 0.678289 0.781015
Si Si6 0.877655 0.823191 0.361176
Si Si7 0.890233 0.671768 0.845957
Si Si8 0.142093 0.322200 0.476455
O O1 0.341612 0.216103 0.796928
O O2 0.566513 0.000000 0.980354
O O3 0.500000 0.192985 0.000000
O O4 0.716191 0.262936 0.084895
O O5 0.640417 0.500000 0.757421
O O6 0.581261 0.771786 0.751305
O O7 0.741944 0.732723 0.777028
O O8 0.908494 0.670971 0.979705
O O9 0.121117 0.500000 0.927910
O O10 0.303870 0.750149 0.074476
O O11 0.052853 0.721010 0.817949
O O12 0.944941 0.734718 0.832726
O O13 0.671371 0.757791 0.368165
O O14 0.462850 0.000000 0.219246
O O15 0.083631 0.500000 0.781106
O O16 0.923974 0.725614 0.627000
O O17 0.000000 0.802175 0.500000
O O18 0.974131 0.727234 0.389170
O O19 0.884836 0.000000 0.353813
O O20 0.834546 0.500000 0.798405
O O21 0.169193 0.500000 0.497146
#
# Coordination Sequence:
#
# PCOD9155497 Si02
#       8
#     4   4   4   4   4   4   4   4
#     4  10  20  36  57  78 104 139 174 210 256 312
#     4   8  13  26  48  74 102 137 174 213 260 309
#     4   9  18  35  55  80 109 138 173 218 266 312
#     4  11  22  34  51  78 109 142 178 218 263 314
#     4  10  22  37  57  81 106 137 176 221 263 308
#     4  10  22  39  57  80 108 138 173 214 259 311
#     4   7  11  23  48  75 102 134 170 211 259 309
#     4  11  23  39  56  77 106 142 179 218 263 313
#
# _framework density 18.334654
#
# number of rings (size 3 to 8) (size 9 to 14) (size 15 to 20)
#    0.000    2.500    1.250    3.000    1.750    2.000 
#    0.000    5.000    0.000    0.750    0.000    5.250 
#    0.000    0.000    0.000    0.000    0.000    0.000 
#
# Total GULP energy -178301.257996 kJ/mol
# GULP energy per Si atom -5571.914312 kJ/mol
# Density = 1.829292 g / cm^3
# Si number density = 18.334654 Si / 1000 Ang^3
#
#
#
# Elastic Constant Matrix: (Units=GPa)
#
#
# Indices 1 2 3 4 5 6 
#
# 1 53.0019 11.7694 -10.2505 0.0000 -17.2991 0.0000
# 2 11.7694 34.6561 7.8319 0.0000 -7.3210 0.0000
# 3 -10.2505 7.8319 31.6417 0.0000 -18.6307 0.0000
# 4 0.0000 0.0000 0.0000 19.9680 0.0000 11.1333
# 5 -17.2991 -7.3210 -18.6307 0.0000 23.0246 0.0000
# 6 0.0000 0.0000 0.0000 11.1333 0.0000 -191.7275
#
#
#
# Elastic Compliance Matrix: (Units=1/GPa)
#
#
# Indices 1 2 3 4 5 6 
#
# 1 0.511544 -0.144367 0.765374 0.000000 0.957748 0.000000
# 2 -0.144367 0.071888 -0.219590 0.000000 -0.263295 0.000000
# 3 0.765374 -0.219590 1.205933 0.000000 1.481025 0.000000
# 4 0.000000 0.000000 0.000000 0.048509 0.000000 0.002817
# 5 0.957748 -0.263295 1.481025 0.000000 1.877690 0.000000
# 6 0.000000 0.000000 0.000000 0.002817 0.000000 -0.005052
#
#
# Mechanical properties :
#
#
# Convention : Reuss Voigt Hill
#
# Bulk Modulus (GPa) = 0.38577 15.33346 7.85962
# Shear Modulus (GPa) = 1.32565 -22.41703 -10.54569
#
# Velocity S-wave (km/s) = 0.85123 -3.50045 -2.40089
# Velocity P-wave (km/s) = 1.08489 2.82068 1.84109
#
# Compressibility (1/GPa) = 2.59219702
#
# Stress axis : x y z
#
# Youngs Moduli (GPa) = 1.95487 13.91058 0.82923
#
# Poissons Ratio (x) = 2.00824 -0.63467
# Poissons Ratio (y) = 0.28222 0.18209
# Poissons Ratio (z) = -1.49621 3.05463
#
# Static dielectric constant tensor:
#      x y z
#    x 1.702990 0.000000 -0.005280 
#    y 0.000000 1.611860 0.000000 
#    z -0.005280 0.000000 1.606680 
# 
# From -- ./inp_files/93776.got.cif
#   From: 2010.05.17/outbox.ucp.g08.bks.cvg/sg10_47_cif.got.tgz:93776.got - 2010.06.11 11:31:16.
