data_PCOD9155911
_publ_section_title
;
Structure prediction by ZEFSAII (Michael W. Deem and Ramdas Pophale) SiO2 
 PCOD9155911
Probable space group: P 21/M
;
_chemical_formula_sum "Si O2"
_cell_formula_units_Z 28
_cell_length_a 15.203924
_cell_length_b 7.639591
_cell_length_c 17.798381
_cell_angle_alpha 90.000000
_cell_angle_beta 49.408894
_cell_angle_gamma 90.000000
_cell_volume 1569.860488
_symmetry_space_group_name_H-M "P 21/M"
_symmetry_group_IT_number 11
_symmetry_cell_setting 'monoclinic'
loop_
_space_group_symop_operation_xyz
x,y,z
-x,1/2+y,-z
-x,-y,-z
x,1/2-y,z
loop_
_atom_site_type_symbol
_atom_site_label
_atom_site_fract_x
_atom_site_fract_y
_atom_site_fract_z
Si Si1 0.577677 0.451109 0.147092
Si Si2 0.316320 0.461688 0.068624
Si Si3 0.951638 0.960447 0.763280
Si Si4 0.079969 0.459894 0.385134
Si Si5 0.188129 0.545520 0.919855
Si Si6 0.657807 0.535519 0.775617
Si Si7 0.039599 0.044751 0.869586
O O1 0.564684 0.250000 0.179953
O O2 0.685945 0.531889 0.132010
O O3 0.448676 0.528678 0.215726
O O4 0.619126 0.455578 0.037317
O O5 0.324512 0.250000 0.058052
O O6 0.180307 0.510112 0.142079
O O7 0.359692 0.514252 0.127180
O O8 0.956133 0.750000 0.760623
O O9 0.969331 0.023150 0.667980
O O10 0.035260 0.021317 0.782982
O O11 0.087307 0.250000 0.374834
O O12 0.213084 0.521837 0.318877
O O13 0.000000 0.500000 0.500000
O O14 0.196472 0.750000 0.936698
O O15 0.145034 0.533737 0.858293
O O16 0.081282 0.470716 0.028509
O O17 0.656172 0.750000 0.775345
O O18 0.041992 0.250000 0.885390
#
# Coordination Sequence:
#
# PCOD9155911 Si02
#       7
#     4   4   4   4   4   4   4
#     4  10  17  27  42  61  87 119 151 180 208 250
#     4   9  16  26  40  60  87 119 148 175 209 252
#     4   9  17  29  45  63  89 120 147 178 221 266
#     4   9  18  33  50  69  90 115 145 180 224 268
#     4   9  18  28  39  59  88 121 153 183 216 252
#     4   8  16  29  44  62  87 117 146 175 215 264
#     4  10  18  28  42  62  86 116 155 190 217 250
#
# _framework density 17.835978999999998
#
# number of rings (size 3 to 8) (size 9 to 14) (size 15 to 20)
#    0.000    2.857    1.429    2.571    0.000    1.714 
#    0.000    2.857    0.000    0.000    0.000    1.000 
#    0.000    0.000    0.000    0.000    0.000    0.000 
#
# Total GULP energy -156019.600647 kJ/mol
# GULP energy per Si atom -5572.128595 kJ/mol
# Density = 1.779538 g / cm^3
# Si number density = 17.835979 Si / 1000 Ang^3
#
#
#
# Elastic Constant Matrix: (Units=GPa)
#
#
# Indices 1 2 3 4 5 6 
#
# 1 167.3846 1.2094 47.9780 0.0000 10.7750 0.0000
# 2 1.2094 34.6711 -3.3281 0.0000 -1.4173 0.0000
# 3 47.9780 -3.3281 71.2864 0.0000 7.0477 0.0000
# 4 0.0000 0.0000 0.0000 17.1029 0.0000 4.7859
# 5 10.7750 -1.4173 7.0477 0.0000 12.3192 0.0000
# 6 0.0000 0.0000 0.0000 4.7859 0.0000 7.3523
#
#
#
# Elastic Compliance Matrix: (Units=1/GPa)
#
#
# Indices 1 2 3 4 5 6 
#
# 1 0.007605 -0.000887 -0.004761 0.000000 -0.004030 0.000000
# 2 -0.000887 0.029162 0.001643 0.000000 0.003191 0.000000
# 3 -0.004761 0.001643 0.017891 0.000000 -0.005882 0.000000
# 4 0.000000 0.000000 0.000000 0.071492 0.000000 -0.046537
# 5 -0.004030 0.003191 -0.005882 0.000000 0.088431 0.000000
# 6 0.000000 0.000000 0.000000 -0.046537 0.000000 0.166305
#
#
# Mechanical properties :
#
#
# Convention : Reuss Voigt Hill
#
# Bulk Modulus (GPa) = 21.43796 40.56231 31.00014
# Shear Modulus (GPa) = 12.36263 22.52039 17.44151
#
# Velocity S-wave (km/s) = 2.63559 3.55722 3.13051
# Velocity P-wave (km/s) = 4.61599 6.29785 5.52134
#
# Compressibility (1/GPa) = 0.04664622
#
# Stress axis : x y z
#
# Youngs Moduli (GPa) = 131.49541 34.29174 55.89523
#
# Poissons Ratio (x) = 0.03042 0.26613
# Poissons Ratio (y) = 0.11664 -0.09183
# Poissons Ratio (z) = 0.62609 -0.05634
#
# Static dielectric constant tensor:
#      x y z
#    x 1.669040 0.000000 0.003880 
#    y 0.000000 1.671360 0.000000 
#    z 0.003880 0.000000 1.584210 
# 
# From -- ./inp_files/50971.got.cif
#   From: 2010.05.17/outbox.cif.g08.bks.cpg/sg11_26_cif.got.tgz:50971.got - 2010.06.03 12:22:45.
