data_PCOD9155472
_publ_section_title
;
Structure prediction by ZEFSAII (Michael W. Deem and Ramdas Pophale) SiO2 
 PCOD9155472
Probable space group: P 2/M
;
_chemical_formula_sum "Si O2"
_cell_formula_units_Z 28
_cell_length_a 15.000000
_cell_length_b 9.000000
_cell_length_c 12.000000
_cell_angle_alpha 90.000000
_cell_angle_beta 120.000000
_cell_angle_gamma 90.000000
_cell_volume 1402.961154
_symmetry_space_group_name_H-M "P 2/M"
_symmetry_group_IT_number 10
_symmetry_cell_setting 'monoclinic'
loop_
_space_group_symop_operation_xyz
x,y,z
-x,y,-z
-x,-y,-z
x,-y,z
loop_
_atom_site_type_symbol
_atom_site_label
_atom_site_fract_x
_atom_site_fract_y
_atom_site_fract_z
Si Si1 0.527166 0.825424 0.705156
Si Si2 0.698907 0.824158 0.487043
Si Si3 0.246474 0.678282 0.112085
Si Si4 0.207854 0.328969 0.673082
Si Si5 0.562796 0.336943 0.150768
Si Si6 0.117878 0.177596 0.222532
Si Si7 0.905421 0.319741 0.182183
O O1 0.421974 0.774640 0.570082
O O2 0.641156 0.748564 0.783718
O O3 0.478737 0.792041 0.796517
O O4 0.544254 0.000000 0.691922
O O5 0.757569 0.753426 0.417611
O O6 0.781274 0.800580 0.636084
O O7 0.689741 0.000000 0.462302
O O8 0.257137 0.500000 0.126963
O O9 0.156198 0.738830 0.136257
O O10 0.194551 0.713034 0.958740
O O11 0.181930 0.500000 0.628661
O O12 0.317765 0.327262 0.804262
O O13 0.123244 0.273814 0.708360
O O14 0.548404 0.500000 0.199072
O O15 0.500000 0.337265 0.000000
O O16 0.011390 0.244782 0.205220
O O17 0.104683 0.000000 0.197191
O O18 0.917982 0.500000 0.188576
#
# Coordination Sequence:
#
# PCOD9155472 Si02
#       7
#     4   4   4   4   4   4   4
#     4  10  20  35  56  82 113 148 187 231 280 336
#     4   9  21  40  58  82 118 154 186 228 284 335
#     4  11  23  40  61  85 115 149 187 234 288 340
#     4   9  18  33  56  83 111 146 188 231 275 333
#     4   9  16  29  50  77 111 149 186 227 279 334
#     4  11  24  41  60  82 112 151 194 238 281 331
#     4  10  22  40  60  85 116 149 186 233 288 336
#
# _framework density 19.957787
#
# number of rings (size 3 to 8) (size 9 to 14) (size 15 to 20)
#    0.000    2.143    0.000    2.571    0.000    8.857 
#    0.000    8.571    0.000    0.000    0.000    0.000 
#    0.000    0.000    0.000    0.000    0.000    0.000 
#
# Total GULP energy -155915.946232 kJ/mol
# GULP energy per Si atom -5568.426651 kJ/mol
# Density = 1.991236 g / cm^3
# Si number density = 19.957787 Si / 1000 Ang^3
#
#
#
# Elastic Constant Matrix: (Units=GPa)
#
#
# Indices 1 2 3 4 5 6 
#
# 1 110.9739 18.9151 1.8853 0.0000 2.7536 0.0000
# 2 18.9151 35.9520 21.8921 0.0000 5.6644 0.0000
# 3 1.8853 21.8921 43.5178 0.0000 6.8305 0.0000
# 4 0.0000 0.0000 0.0000 20.5027 0.0000 3.6062
# 5 2.7536 5.6644 6.8305 0.0000 31.1356 0.0000
# 6 0.0000 0.0000 0.0000 3.6062 0.0000 48.9835
#
#
#
# Elastic Compliance Matrix: (Units=1/GPa)
#
#
# Indices 1 2 3 4 5 6 
#
# 1 0.010212 -0.007331 0.003291 0.000000 -0.000291 0.000000
# 2 -0.007331 0.045628 -0.022199 0.000000 -0.002783 0.000000
# 3 0.003291 -0.022199 0.034608 0.000000 -0.003845 0.000000
# 4 0.000000 0.000000 0.000000 0.049414 0.000000 -0.003638
# 5 -0.000291 -0.002783 -0.003845 0.000000 0.033493 0.000000
# 6 0.000000 0.000000 0.000000 -0.003638 0.000000 0.020683
#
#
# Mechanical properties :
#
#
# Convention : Reuss Voigt Hill
#
# Bulk Modulus (GPa) = 26.33689 30.64762 28.49225
# Shear Modulus (GPa) = 19.29224 29.97444 24.63334
#
# Velocity S-wave (km/s) = 3.11248 3.87963 3.51703
# Velocity P-wave (km/s) = 5.11289 5.95468 5.54977
#
# Compressibility (1/GPa) = 0.03796956
#
# Stress axis : x y z
#
# Youngs Moduli (GPa) = 97.92427 21.91642 28.89545
#
# Poissons Ratio (x) = 0.16067 -0.09510
# Poissons Ratio (y) = 0.71788 0.64146
# Poissons Ratio (z) = -0.32229 0.48653
#
# Static dielectric constant tensor:
#      x y z
#    x 1.683040 0.000000 -0.006230 
#    y 0.000000 1.711640 0.000000 
#    z -0.006230 0.000000 1.796640 
# 
# From -- ./inp_files/50092.got.cif
#   From: 2010.05.17/outbox.ucp.g08.bks.cvg/sg10_26_cif.got.tgz:50092.got - 2010.06.11 11:31:16.
