data_PCOD9155771
_publ_section_title
;
Structure prediction by ZEFSAII (Michael W. Deem and Ramdas Pophale) SiO2 
 PCOD9155771
Probable space group: P 21/M
;
_chemical_formula_sum "Si O2"
_cell_formula_units_Z 24
_cell_length_a 14.140470
_cell_length_b 8.848532
_cell_length_c 19.354019
_cell_angle_alpha 90.000000
_cell_angle_beta 26.622634
_cell_angle_gamma 90.000000
_cell_volume 1085.158251
_symmetry_space_group_name_H-M "P 21/M"
_symmetry_group_IT_number 11
_symmetry_cell_setting 'monoclinic'
loop_
_space_group_symop_operation_xyz
x,y,z
-x,1/2+y,-z
-x,-y,-z
x,1/2-y,z
loop_
_atom_site_type_symbol
_atom_site_label
_atom_site_fract_x
_atom_site_fract_y
_atom_site_fract_z
Si Si1 0.066968 0.750000 0.342573
Si Si2 0.503441 0.992962 0.159186
Si Si3 0.824709 0.926253 0.404621
Si Si4 0.521399 0.750000 0.028598
Si Si5 0.227268 0.250000 0.273520
Si Si6 0.605182 0.068787 0.362593
Si Si7 0.039983 0.067066 0.131773
Si Si8 0.766813 0.250000 0.608845
O O1 0.134512 0.750000 0.377245
O O2 0.939530 0.898182 0.402449
O O3 0.281707 0.750000 0.157936
O O4 0.387873 0.891604 0.291494
O O5 0.331242 0.112854 0.247889
O O6 0.542057 0.893115 0.064786
O O7 0.744345 0.024727 0.022771
O O8 0.830306 0.750000 0.373488
O O9 0.578459 0.968833 0.572284
O O10 0.947907 0.027270 0.268531
O O11 0.677934 0.750000 0.864261
O O12 0.976942 0.250000 0.428231
O O13 0.615721 0.250000 0.360945
O O14 0.849485 0.021667 0.204160
O O15 0.500000 0.000000 0.500000
O O16 0.078634 0.250000 0.102081
#
# Coordination Sequence:
#
# PCOD9155771 Si02
#       8
#     2   4   4   2   2   4   4   2
#     4   8  16  32  52  66 102 122 164 204 238 280
#     4  10  21  36  50  75 103 129 167 205 246 300
#     4   8  15  26  44  69  97 127 162 196 244 289
#     4  10  20  36  51  76 106 124 161 208 251 298
#     4  12  22  34  58  70  94 136 172 202 258 286
#     4   8  14  23  39  65  97 127 153 189 242 297
#     4  10  16  27  44  68 104 127 155 197 249 290
#     4  10  22  40  49  70 100 134 167 216 241 294
#
# _framework density 22.116591
#
# number of rings (size 3 to 8) (size 9 to 14) (size 15 to 20)
#    0.500    2.333    1.667    2.000    1.167    1.333 
#    0.000    0.000    0.000    0.000    0.000    1.167 
#    0.000    8.333    0.000    0.000    0.000    0.000 
#
# Total GULP energy -133669.304092 kJ/mol
# GULP energy per Si atom -5569.554337 kJ/mol
# Density = 2.206625 g / cm^3
# Si number density = 22.116591 Si / 1000 Ang^3
#
#
#
# Elastic Constant Matrix: (Units=GPa)
#
#
# Indices 1 2 3 4 5 6 
#
# 1 56.2077 -12.1498 29.5120 0.0000 -25.4543 0.0000
# 2 -12.1498 34.8174 15.4034 0.0000 7.5487 0.0000
# 3 29.5120 15.4034 118.9039 0.0000 -34.2468 0.0000
# 4 0.0000 0.0000 0.0000 18.7572 0.0000 -5.7199
# 5 -25.4543 7.5487 -34.2468 0.0000 42.1984 0.0000
# 6 0.0000 0.0000 0.0000 -5.7199 0.0000 8.2666
#
#
#
# Elastic Compliance Matrix: (Units=1/GPa)
#
#
# Indices 1 2 3 4 5 6 
#
# 1 0.027259 0.009306 -0.004848 0.000000 0.010843 0.000000
# 2 0.009306 0.038414 -0.009982 0.000000 -0.009359 0.000000
# 3 -0.004848 -0.009982 0.013806 0.000000 0.010065 0.000000
# 4 0.000000 0.000000 0.000000 0.067571 0.000000 0.046755
# 5 0.010843 -0.009359 0.010065 0.000000 0.040081 0.000000
# 6 0.000000 0.000000 0.000000 0.046755 0.000000 0.153321
#
#
# Mechanical properties :
#
#
# Convention : Reuss Voigt Hill
#
# Bulk Modulus (GPa) = 14.61332 30.60670 22.61001
# Shear Modulus (GPa) = 13.35797 25.65531 19.50664
#
# Velocity S-wave (km/s) = 2.46027 3.40958 2.97306
# Velocity P-wave (km/s) = 3.83305 5.41933 4.69369
#
# Compressibility (1/GPa) = 0.06843073
#
# Stress axis : x y z
#
# Youngs Moduli (GPa) = 36.68538 26.03235 72.43470
#
# Poissons Ratio (x) = -0.24226 0.35117
# Poissons Ratio (y) = -0.34140 0.72302
# Poissons Ratio (z) = 0.17785 0.25985
#
# Static dielectric constant tensor:
#      x y z
#    x 1.880090 0.000000 -0.079550 
#    y 0.000000 1.896240 0.000000 
#    z -0.079550 0.000000 1.850210 
# 
# From -- ./inp_files/69517.got.cif
#   From: 2010.05.17/outbox.cif.g08.bks.cpg/sg11_35_cif.got.tgz:69517.got - 2010.06.03 12:22:45.
