data_PCOD9155579
_publ_section_title
;
Structure prediction by ZEFSAII (Michael W. Deem and Ramdas Pophale) SiO2 
 PCOD9155579
Probable space group: P 2/M
;
_chemical_formula_sum "Si O2"
_cell_formula_units_Z 32
_cell_length_a 12.000000
_cell_length_b 9.000000
_cell_length_c 30.000000
_cell_angle_alpha 90.000000
_cell_angle_beta 30.000000
_cell_angle_gamma 90.000000
_cell_volume 1620.000000
_symmetry_space_group_name_H-M "P 2/M"
_symmetry_group_IT_number 10
_symmetry_cell_setting 'monoclinic'
loop_
_space_group_symop_operation_xyz
x,y,z
-x,y,-z
-x,-y,-z
x,-y,z
loop_
_atom_site_type_symbol
_atom_site_label
_atom_site_fract_x
_atom_site_fract_y
_atom_site_fract_z
Si Si1 0.613746 0.174117 0.697681
Si Si2 0.060460 0.329524 0.552246
Si Si3 0.108472 0.822512 0.724179
Si Si4 0.472483 0.328369 0.659489
Si Si5 0.888358 0.677748 0.967257
Si Si6 0.246811 0.178969 0.078814
Si Si7 0.344581 0.322289 0.863055
Si Si8 0.759894 0.322547 0.410845
O O1 0.473992 0.255884 0.707536
O O2 0.541217 0.236623 0.770776
O O3 0.870118 0.218870 0.602816
O O4 0.578152 0.000000 0.706991
O O5 0.973031 0.500000 0.580991
O O6 0.277190 0.324037 0.446278
O O7 0.138062 0.296362 0.575802
O O8 0.319967 0.758858 0.677653
O O9 0.111033 0.755558 0.673961
O O10 0.900452 0.779695 0.827315
O O11 0.120214 0.000000 0.717581
O O12 0.400823 0.500000 0.686788
O O13 0.877942 0.500000 0.964956
O O14 0.849380 0.754461 0.933613
O O15 0.124146 0.709827 0.909635
O O16 0.707155 0.719713 0.068009
O O17 0.241469 0.000000 0.076618
O O18 0.500000 0.226401 0.000000
O O19 0.380909 0.500000 0.848990
O O20 0.500000 0.274974 0.500000
O O21 0.762177 0.500000 0.402244
#
# Coordination Sequence:
#
# PCOD9155579 Si02
#       8
#     4   4   4   4   4   4   4   4
#     4  12  25  37  54  87 124 154 193 240 292 354
#     4  10  22  40  61  83 113 156 199 240 292 350
#     4  11  23  38  61  92 121 155 198 246 300 351
#     4  11  22  40  63  84 114 156 199 243 294 352
#     4   9  19  37  63  89 111 143 195 247 288 339
#     4  10  23  41  57  80 121 162 194 235 293 355
#     4   9  19  38  61  86 116 149 187 238 296 351
#     4  10  20  40  64  87 114 151 201 246 288 350
#
# _framework density 19.753086
#
# number of rings (size 3 to 8) (size 9 to 14) (size 15 to 20)
#    0.000    1.750    1.250    3.750    0.000    8.500 
#    0.000    3.750    0.000    0.000    0.000    0.000 
#    0.000    0.000    0.000    0.000    0.000    0.000 
#
# Total GULP energy -178840.687582 kJ/mol
# GULP energy per Si atom -5588.771487 kJ/mol
# Density = 1.970813 g / cm^3
# Si number density = 19.753086 Si / 1000 Ang^3
#
#
#
# Elastic Constant Matrix: (Units=GPa)
#
#
# Indices 1 2 3 4 5 6 
#
# 1 53.0900 28.3065 18.9050 0.0000 26.5354 0.0000
# 2 28.3065 31.9285 32.2084 0.0000 16.5471 0.0000
# 3 18.9050 32.2084 81.1184 0.0000 24.2443 0.0000
# 4 0.0000 0.0000 0.0000 19.7569 0.0000 9.2166
# 5 26.5354 16.5471 24.2443 0.0000 31.5371 0.0000
# 6 0.0000 0.0000 0.0000 9.2166 0.0000 -28.0703
#
#
#
# Elastic Compliance Matrix: (Units=1/GPa)
#
#
# Indices 1 2 3 4 5 6 
#
# 1 0.055919 -0.048368 0.016423 0.000000 -0.034298 0.000000
# 2 -0.048368 0.100084 -0.032373 0.000000 0.013071 0.000000
# 3 0.016423 -0.032373 0.026495 0.000000 -0.017201 0.000000
# 4 0.000000 0.000000 0.000000 0.043892 0.000000 0.014412
# 5 -0.034298 0.013071 -0.017201 0.000000 0.066933 0.000000
# 6 0.000000 0.000000 0.000000 0.014412 0.000000 -0.030893
#
#
# Mechanical properties :
#
#
# Convention : Reuss Voigt Hill
#
# Bulk Modulus (GPa) = 18.56564 36.10853 27.33708
# Shear Modulus (GPa) = 12.22434 10.42587 11.32511
#
# Velocity S-wave (km/s) = 2.49038 2.29990 2.39704
# Velocity P-wave (km/s) = 4.20578 5.03710 4.64010
#
# Compressibility (1/GPa) = 0.05386295
#
# Stress axis : x y z
#
# Youngs Moduli (GPa) = 17.88285 9.99162 37.74298
#
# Poissons Ratio (x) = 0.48328 -0.61987
# Poissons Ratio (y) = 0.86496 1.22185
# Poissons Ratio (z) = -0.29370 0.32346
#
# Static dielectric constant tensor:
#      x y z
#    x 1.658310 0.000000 -0.008420 
#    y 0.000000 1.663600 0.000000 
#    z -0.008420 0.000000 1.739830 
# 
# From -- ./inp_files/58359.got.cif
#   From: 2010.05.17/outbox.ucp.g08.bks.cvg/sg10_30_cif.got.tgz:58359.got - 2010.06.11 11:31:16.
