data_PCOD9155033
_publ_section_title
;
Structure prediction by ZEFSAII (Michael W. Deem and Ramdas Pophale) SiO2 
 PCOD9155033
Probable space group: P 2/M
;
_chemical_formula_sum "Si O2"
_cell_formula_units_Z 12
_cell_length_a 6.439143
_cell_length_b 14.175987
_cell_length_c 9.090746
_cell_angle_alpha 90.000000
_cell_angle_beta 33.498021
_cell_angle_gamma 90.000000
_cell_volume 457.981286
_symmetry_space_group_name_H-M "P 2/M"
_symmetry_group_IT_number 10
_symmetry_cell_setting 'monoclinic'
loop_
_space_group_symop_operation_xyz
x,y,z
-x,y,-z
-x,-y,-z
x,-y,z
loop_
_atom_site_type_symbol
_atom_site_label
_atom_site_fract_x
_atom_site_fract_y
_atom_site_fract_z
Si Si1 0.556522 0.895347 0.293848
Si Si2 0.351834 0.711503 0.907490
Si Si3 0.847816 0.605813 0.410324
O O1 0.500000 0.868798 0.500000
O O2 0.452679 0.811916 0.242501
O O3 0.384632 0.000000 0.375278
O O4 0.000000 0.905769 0.000000
O O5 0.631147 0.629939 0.688191
O O6 0.000000 0.710634 0.000000
O O7 0.136370 0.685960 0.184228
O O8 0.500000 0.607658 0.500000
O O9 0.002259 0.500000 0.311778
#
# Coordination Sequence:
#
# PCOD9155033 Si02
#       3
#     4   4   4
#     4   9  15  21  27  32  36  41  47  53  59  64
#     4   9  14  20  26  31  37  42  47  53  58  63
#     4   9  15  20  25  31  37  43  48  52  57  63
#
# _framework density 26.201941999999999
#
# number of rings (size 3 to 8) (size 9 to 14) (size 15 to 20)
#    0.000    3.000    0.000    6.000    0.000    4.000 
#    0.000    0.000    0.000    0.000    0.000    0.000 
#    0.000    0.000    0.000    0.000    0.000    0.000 
#
# Total GULP energy -67056.643079 kJ/mol
# GULP energy per Si atom -5588.053590 kJ/mol
# Density = 2.614231 g / cm^3
# Si number density = 26.201942 Si / 1000 Ang^3
#
#
#
# Elastic Constant Matrix: (Units=GPa)
#
#
# Indices 1 2 3 4 5 6 
#
# 1 72.8984 19.4964 42.2085 0.0000 32.0390 0.0000
# 2 19.4964 211.2598 72.9280 0.0000 26.0028 0.0000
# 3 42.2085 72.9280 152.8282 0.0000 38.8196 0.0000
# 4 0.0000 0.0000 0.0000 34.6204 0.0000 7.3732
# 5 32.0390 26.0028 38.8196 0.0000 72.6238 0.0000
# 6 0.0000 0.0000 0.0000 7.3732 0.0000 28.0156
#
#
#
# Elastic Compliance Matrix: (Units=1/GPa)
#
#
# Indices 1 2 3 4 5 6 
#
# 1 0.018538 0.000336 -0.003671 0.000000 -0.006337 0.000000
# 2 0.000336 0.005702 -0.002612 0.000000 -0.000794 0.000000
# 3 -0.003671 -0.002612 0.009436 0.000000 -0.002489 0.000000
# 4 0.000000 0.000000 0.000000 0.030600 0.000000 -0.008053
# 5 -0.006337 -0.000794 -0.002489 0.000000 0.018180 0.000000
# 6 0.000000 0.000000 0.000000 -0.008053 0.000000 0.037814
#
#
# Mechanical properties :
#
#
# Convention : Reuss Voigt Hill
#
# Bulk Modulus (GPa) = 45.90843 78.47246 62.19044
# Shear Modulus (GPa) = 35.86194 47.20886 41.53540
#
# Velocity S-wave (km/s) = 3.70357 4.24929 3.98578
# Velocity P-wave (km/s) = 5.98729 7.35455 6.70586
#
# Compressibility (1/GPa) = 0.02178249
#
# Stress axis : x y z
#
# Youngs Moduli (GPa) = 53.94270 175.38038 105.97875
#
# Poissons Ratio (x) = -0.05898 0.38903
# Poissons Ratio (y) = -0.01814 0.27684
# Poissons Ratio (z) = 0.19802 0.45812
#
# Static dielectric constant tensor:
#      x y z
#    x 2.319930 0.000000 -0.065200 
#    y 0.000000 2.083120 0.000000 
#    z -0.065200 0.000000 1.915120 
# 
# From -- ./inp_files/24318.got.cif
#   From: 2010.05.17/outbox.cif.g08.bks.cpg/sg10_13_cif.got.tgz:24318.got - 2010.06.03 11:33:40.
