data_PCOD9155526
_publ_section_title
;
Structure prediction by ZEFSAII (Michael W. Deem and Ramdas Pophale) SiO2 
 PCOD9155526
Probable space group: P 2/M
;
_chemical_formula_sum "Si O2"
_cell_formula_units_Z 28
_cell_length_a 21.000000
_cell_length_b 9.000000
_cell_length_c 9.000000
_cell_angle_alpha 90.000000
_cell_angle_beta 50.000000
_cell_angle_gamma 90.000000
_cell_volume 1303.041598
_symmetry_space_group_name_H-M "P 2/M"
_symmetry_group_IT_number 10
_symmetry_cell_setting 'monoclinic'
loop_
_space_group_symop_operation_xyz
x,y,z
-x,y,-z
-x,-y,-z
x,-y,z
loop_
_atom_site_type_symbol
_atom_site_label
_atom_site_fract_x
_atom_site_fract_y
_atom_site_fract_z
Si Si1 0.429690 0.327561 0.015048
Si Si2 0.586763 0.321610 0.294047
Si Si3 0.101635 0.165274 0.179307
Si Si4 0.156953 0.835719 0.430482
Si Si5 0.970531 0.665116 0.212069
Si Si6 0.269941 0.831551 0.738454
Si Si7 0.268336 0.337442 0.441062
O O1 0.455342 0.500000 0.943383
O O2 0.361098 0.337424 0.245013
O O3 0.500000 0.242345 0.000000
O O4 0.407326 0.267617 0.886090
O O5 0.500000 0.277017 0.500000
O O6 0.591203 0.500000 0.288793
O O7 0.660973 0.263548 0.283158
O O8 0.114948 0.175177 0.334529
O O9 0.046580 0.298690 0.204534
O O10 0.064688 0.000000 0.204947
O O11 0.187678 0.171859 0.962208
O O12 0.093094 0.795174 0.655732
O O13 0.223728 0.709986 0.356225
O O14 0.192396 0.000000 0.393136
O O15 0.937546 0.500000 0.291818
O O16 0.000000 0.671811 0.000000
O O17 0.253015 0.771832 0.599342
O O18 0.299181 0.000000 0.684805
O O19 0.243270 0.500000 0.530261
#
# Coordination Sequence:
#
# PCOD9155526 Si02
#       7
#     4   4   4   4   4   4   4
#     4   9  18  34  57  85 115 148 188 236 288 338
#     4  10  20  36  60  87 115 150 193 239 287 340
#     4  10  23  41  60  84 115 153 192 233 285 342
#     4  11  23  40  61  85 116 151 189 233 285 343
#     4  11  24  40  60  88 118 149 190 237 282 333
#     4  11  23  39  59  84 117 154 192 235 285 340
#     4  11  22  37  59  86 116 150 192 238 284 338
#
# _framework density 21.488185999999999
#
# number of rings (size 3 to 8) (size 9 to 14) (size 15 to 20)
#    0.000    1.571    0.000    4.714    0.000   10.000 
#    0.000    0.714    0.000    3.000    0.000    0.000 
#    0.000    0.000    0.000    0.000    0.000    0.000 
#
# Total GULP energy -156029.007777 kJ/mol
# GULP energy per Si atom -5572.464563 kJ/mol
# Density = 2.143928 g / cm^3
# Si number density = 21.488186 Si / 1000 Ang^3
#
#
#
# Elastic Constant Matrix: (Units=GPa)
#
#
# Indices 1 2 3 4 5 6 
#
# 1 71.8369 10.4873 26.5960 0.0000 5.6149 0.0000
# 2 10.4873 3.0358 31.3270 0.0000 4.0613 0.0000
# 3 26.5960 31.3270 65.8479 0.0000 14.6607 0.0000
# 4 0.0000 0.0000 0.0000 -55.6607 0.0000 -27.8371
# 5 5.6149 4.0613 14.6607 0.0000 28.3018 0.0000
# 6 0.0000 0.0000 0.0000 -27.8371 0.0000 -24.4398
#
#
#
# Elastic Compliance Matrix: (Units=1/GPa)
#
#
# Indices 1 2 3 4 5 6 
#
# 1 0.016263 -0.002933 -0.005142 0.000000 -0.000142 0.000000
# 2 -0.002933 -0.081391 0.042023 0.000000 -0.009507 0.000000
# 3 -0.005142 0.042023 -0.001824 0.000000 -0.004065 0.000000
# 4 0.000000 0.000000 0.000000 -0.041747 0.000000 0.047550
# 5 -0.000142 -0.009507 -0.004065 0.000000 0.038832 0.000000
# 6 0.000000 0.000000 0.000000 0.047550 0.000000 -0.095077
#
#
# Mechanical properties :
#
#
# Convention : Reuss Voigt Hill
#
# Bulk Modulus (GPa) = 1058.48513 30.83790 544.66151
# Shear Modulus (GPa) = -21.50301 -5.53904 -13.52103
#
# Velocity S-wave (km/s) = -3.16680 -1.60727 -2.51117
# Velocity P-wave (km/s) = 21.91546 3.30724 15.67203
#
# Compressibility (1/GPa) = 0.00094475
#
# Stress axis : x y z
#
# Youngs Moduli (GPa) = 61.48799 -12.28633 -548.26387
#
# Poissons Ratio (x) = -0.03603 -2.81906
# Poissons Ratio (y) = 0.18034 23.03971
# Poissons Ratio (z) = 0.31616 0.51631
#
# Static dielectric constant tensor:
#      x y z
#    x 1.802540 0.000000 0.076210 
#    y 0.000000 1.750080 0.000000 
#    z 0.076210 0.000000 1.462040 
# 
# From -- ./inp_files/34180.got.cif
#   From: 2010.05.17/outbox.ucp.g08.bks.cvg/sg10_18_cif.got.tgz:34180.got - 2010.06.11 11:31:16.
