data_PCOD9155903
_publ_section_title
;
Structure prediction by ZEFSAII (Michael W. Deem and Ramdas Pophale) SiO2 
 PCOD9155903
Probable space group: P 21/M
;
_chemical_formula_sum "Si O2"
_cell_formula_units_Z 32
_cell_length_a 16.911449
_cell_length_b 8.921996
_cell_length_c 23.768415
_cell_angle_alpha 90.000000
_cell_angle_beta 142.222876
_cell_angle_gamma 90.000000
_cell_volume 2196.919032
_symmetry_space_group_name_H-M "P 21/M"
_symmetry_group_IT_number 11
_symmetry_cell_setting 'monoclinic'
loop_
_space_group_symop_operation_xyz
x,y,z
-x,1/2+y,-z
-x,-y,-z
x,1/2-y,z
loop_
_atom_site_type_symbol
_atom_site_label
_atom_site_fract_x
_atom_site_fract_y
_atom_site_fract_z
Si Si1 0.677420 0.930171 0.441585
Si Si2 0.476202 0.929302 0.425985
Si Si3 0.695981 0.069697 0.870026
Si Si4 0.024479 0.929361 0.952805
Si Si5 0.745205 0.930635 0.773635
Si Si6 0.814284 0.921853 0.356349
Si Si7 0.053284 0.422795 0.444955
Si Si8 0.570940 0.071910 0.266875
O O1 0.673179 0.750000 0.428136
O O2 0.596832 0.960261 0.452170
O O3 0.828649 0.973078 0.528261
O O4 0.611819 0.012145 0.351855
O O5 0.461661 0.750000 0.421685
O O6 0.500000 0.000000 0.500000
O O7 0.351681 0.000749 0.325966
O O8 0.685376 0.250000 0.859164
O O9 0.711433 0.000168 0.815928
O O10 0.566511 0.002607 0.823292
O O11 0.827662 0.030715 0.977967
O O12 0.022635 0.750000 0.957342
O O13 0.895921 0.968650 0.845776
O O14 0.000000 0.000000 0.000000
O O15 0.731328 0.750000 0.768470
O O16 0.781331 0.750000 0.326273
O O17 0.881627 0.927201 0.456125
O O18 0.923228 0.982382 0.375435
O O19 0.685454 0.019147 0.290015
O O20 0.021124 0.250000 0.414798
O O21 0.561000 0.250000 0.262231
#
# Coordination Sequence:
#
# PCOD9155903 Si02
#       8
#     4   4   4   4   4   4   4   4
#     4   9  18  31  44  56  75 104 136 171 213 252
#     4  11  22  34  47  62  82 109 141 180 220 254
#     4  10  17  27  41  59  83 111 138 168 206 247
#     4   8  16  27  41  59  80 104 133 167 204 246
#     4  10  18  30  45  62  80 103 137 175 211 251
#     4   9  16  25  36  53  77 104 132 164 200 239
#     4   8  14  25  39  54  72  97 131 167 200 241
#     4  11  19  25  38  58  81 109 140 172 202 238
#
# _framework density 14.565853000000001
#
# number of rings (size 3 to 8) (size 9 to 14) (size 15 to 20)
#    0.000    2.500    1.250    3.375    0.000    4.500 
#    0.000    0.000    0.000    0.000    0.000    0.000 
#    0.000    0.000    0.000    1.125    0.000   12.500 
#
# Total GULP energy -178161.099977 kJ/mol
# GULP energy per Si atom -5567.534374 kJ/mol
# Density = 1.453270 g / cm^3
# Si number density = 14.565853 Si / 1000 Ang^3
#
#
#
# Elastic Constant Matrix: (Units=GPa)
#
#
# Indices 1 2 3 4 5 6 
#
# 1 75.5044 42.6057 57.9712 0.0000 29.8629 0.0000
# 2 42.6057 63.5041 38.0926 0.0000 18.0036 0.0000
# 3 57.9712 38.0926 82.3087 0.0000 26.2692 0.0000
# 4 0.0000 0.0000 0.0000 17.6798 0.0000 6.8175
# 5 29.8629 18.0036 26.2692 0.0000 26.8420 0.0000
# 6 0.0000 0.0000 0.0000 6.8175 0.0000 19.6991
#
#
#
# Elastic Compliance Matrix: (Units=1/GPa)
#
#
# Indices 1 2 3 4 5 6 
#
# 1 0.041131 -0.011378 -0.016773 0.000000 -0.021713 0.000000
# 2 -0.011378 0.025863 -0.003576 0.000000 -0.001188 0.000000
# 3 -0.016773 -0.003576 0.027480 0.000000 -0.005834 0.000000
# 4 0.000000 0.000000 0.000000 0.065273 0.000000 -0.022590
# 5 -0.021713 -0.001188 -0.005834 0.000000 0.067917 0.000000
# 6 0.000000 0.000000 0.000000 -0.022590 0.000000 0.058582
#
#
# Mechanical properties :
#
#
# Convention : Reuss Voigt Hill
#
# Bulk Modulus (GPa) = 32.23946 55.40625 43.82285
# Shear Modulus (GPa) = 13.88733 18.35404 16.12069
#
# Velocity S-wave (km/s) = 3.09110 3.55360 3.33039
# Velocity P-wave (km/s) = 5.90944 7.41340 6.70373
#
# Compressibility (1/GPa) = 0.03101789
#
# Stress axis : x y z
#
# Youngs Moduli (GPa) = 24.31280 38.66556 36.38980
#
# Poissons Ratio (x) = 0.43994 0.61038
# Poissons Ratio (y) = 0.27663 0.13015
# Poissons Ratio (z) = 0.40781 0.13829
#
# Static dielectric constant tensor:
#      x y z
#    x 1.484390 0.000000 0.050630 
#    y 0.000000 0.320080 0.000000 
#    z 0.050630 0.000000 1.484700 
# 
# From -- ./inp_files/56035.got.cif
#   From: 2010.05.17/outbox.cif.g08.bks.cpg/sg11_29_cif.got.tgz:56035.got - 2010.06.03 12:22:45.
