data_PCOD9155959
_publ_section_title
;
Structure prediction by ZEFSAII (Michael W. Deem and Ramdas Pophale) SiO2 
 PCOD9155959
Probable space group: P 21/M
;
_chemical_formula_sum "Si O2"
_cell_formula_units_Z 32
_cell_length_a 9.681994
_cell_length_b 19.264764
_cell_length_c 7.968377
_cell_angle_alpha 90.000000
_cell_angle_beta 75.415741
_cell_angle_gamma 90.000000
_cell_volume 1438.382180
_symmetry_space_group_name_H-M "P 21/M"
_symmetry_group_IT_number 11
_symmetry_cell_setting 'monoclinic'
loop_
_space_group_symop_operation_xyz
x,y,z
-x,1/2+y,-z
-x,-y,-z
x,1/2-y,z
loop_
_atom_site_type_symbol
_atom_site_label
_atom_site_fract_x
_atom_site_fract_y
_atom_site_fract_z
Si Si1 0.257041 0.910476 0.247596
Si Si2 0.088055 0.088230 0.891370
Si Si3 0.432750 0.575930 0.540216
Si Si4 0.261741 0.425661 0.184143
Si Si5 0.154797 0.928217 0.809738
Si Si6 0.505737 0.829287 0.024099
Si Si7 0.994457 0.916628 0.526140
Si Si8 0.667576 0.671566 0.338402
O O1 0.337223 0.911761 0.403811
O O2 0.348054 0.858134 0.107969
O O3 0.093234 0.891369 0.343386
O O4 0.273897 0.990609 0.182940
O O5 0.178507 0.137802 0.744065
O O6 0.113590 0.009956 0.818516
O O7 0.170134 0.090255 0.045445
O O8 0.924244 0.098722 0.999594
O O9 0.500000 0.500000 0.500000
O O10 0.323067 0.579023 0.729201
O O11 0.562738 0.629074 0.490847
O O12 0.168811 0.402566 0.374085
O O13 0.406655 0.383542 0.116123
O O14 0.079222 0.896280 0.669415
O O15 0.506453 0.750000 0.961253
O O16 0.586975 0.828883 0.180791
O O17 0.000000 0.000000 0.500000
O O18 0.683218 0.750000 0.390776
#
# Coordination Sequence:
#
# PCOD9155959 Si02
#       8
#     4   4   4   4   4   4   4   4
#     4   9  17  28  45  67  87 113 147 180 220 259
#     4   9  16  27  44  68  90 111 145 183 224 260
#     4  10  17  28  45  67  90 114 148 185 220 257
#     4   9  16  28  45  66  88 112 145 182 220 258
#     4   9  16  26  43  68  90 109 143 185 219 254
#     4   9  17  28  42  63  91 117 145 180 216 262
#     4   8  15  27  43  66  89 109 139 184 219 251
#     4   9  17  29  44  63  90 120 148 179 221 268
#
# _framework density 22.247216000000002
#
# number of rings (size 3 to 8) (size 9 to 14) (size 15 to 20)
#    0.000    3.000    1.250    0.375    0.000    0.000 
#    0.000    1.250    0.000    8.250    0.000   14.000 
#    0.000    0.000    0.000    0.000    0.000    0.000 
#
# Total GULP energy -178588.688135 kJ/mol
# GULP energy per Si atom -5580.896504 kJ/mol
# Density = 2.219658 g / cm^3
# Si number density = 22.247216 Si / 1000 Ang^3
#
#
#
# Elastic Constant Matrix: (Units=GPa)
#
#
# Indices 1 2 3 4 5 6 
#
# 1 74.8357 19.1057 45.1159 0.0000 -27.1335 0.0000
# 2 19.1057 87.8632 59.3393 0.0000 -37.6614 0.0000
# 3 45.1159 59.3393 176.9312 0.0000 -44.9582 0.0000
# 4 0.0000 0.0000 0.0000 19.4897 0.0000 -2.7644
# 5 -27.1335 -37.6614 -44.9582 0.0000 57.1491 0.0000
# 6 0.0000 0.0000 0.0000 -2.7644 0.0000 12.6641
#
#
#
# Elastic Compliance Matrix: (Units=1/GPa)
#
#
# Indices 1 2 3 4 5 6 
#
# 1 0.017327 0.001148 -0.003150 0.000000 0.006505 0.000000
# 2 0.001148 0.017679 -0.003903 0.000000 0.009125 0.000000
# 3 -0.003150 -0.003903 0.008412 0.000000 0.002550 0.000000
# 4 0.000000 0.000000 0.000000 0.052948 0.000000 0.011558
# 5 0.006505 0.009125 0.002550 0.000000 0.028606 0.000000
# 6 0.000000 0.000000 0.000000 0.011558 0.000000 0.081486
#
#
# Mechanical properties :
#
#
# Convention : Reuss Voigt Hill
#
# Bulk Modulus (GPa) = 31.63809 65.19462 48.41636
# Shear Modulus (GPa) = 21.85257 32.26521 27.05889
#
# Velocity S-wave (km/s) = 3.13750 3.81242 3.49131
# Velocity P-wave (km/s) = 5.23233 6.98195 6.16948
#
# Compressibility (1/GPa) = 0.03160747
#
# Stress axis : x y z
#
# Youngs Moduli (GPa) = 57.71227 56.56378 118.87460
#
# Poissons Ratio (x) = -0.06495 0.37451
# Poissons Ratio (y) = -0.06626 0.46401
# Poissons Ratio (z) = 0.18182 0.22079
#
# Static dielectric constant tensor:
#      x y z
#    x 1.918830 0.000000 0.027550 
#    y 0.000000 1.739190 0.000000 
#    z 0.027550 0.000000 1.876360 
# 
# From -- ./inp_files/36025.got.cif
#   From: 2010.05.17/outbox.cif.g08.bks.cpg/sg11_19_cif.got.tgz:36025.got - 2010.06.03 12:22:45.
