data_PCOD9155170
_publ_section_title
;
Structure prediction by ZEFSAII (Michael W. Deem and Ramdas Pophale) SiO2 
 PCOD9155170
Probable space group: P 2/M
;
_chemical_formula_sum "Si O2"
_cell_formula_units_Z 32
_cell_length_a 15.000000
_cell_length_b 18.000000
_cell_length_c 12.000000
_cell_angle_alpha 90.000000
_cell_angle_beta 150.000000
_cell_angle_gamma 90.000000
_cell_volume 1620.000000
_symmetry_space_group_name_H-M "P 2/M"
_symmetry_group_IT_number 10
_symmetry_cell_setting 'monoclinic'
loop_
_space_group_symop_operation_xyz
x,y,z
-x,y,-z
-x,-y,-z
x,-y,z
loop_
_atom_site_type_symbol
_atom_site_label
_atom_site_fract_x
_atom_site_fract_y
_atom_site_fract_z
Si Si1 0.498262 0.174493 0.863698
Si Si2 0.211010 0.657175 0.946113
Si Si3 0.153597 0.175996 0.904769
Si Si4 0.189070 0.912718 0.417663
Si Si5 0.215168 0.416602 0.724077
Si Si6 0.310136 0.160727 0.322968
Si Si7 0.588151 0.297432 0.412472
Si Si8 0.158972 0.586891 0.411827
O O1 0.362196 0.111232 0.675447
O O2 0.431627 0.247020 0.721502
O O3 0.500000 0.183115 0.000000
O O4 0.689830 0.157347 0.013597
O O5 0.116743 0.737308 0.843299
O O6 0.272020 0.635142 0.887014
O O7 0.054085 0.602013 0.814330
O O8 0.391621 0.666245 0.212884
O O9 0.978918 0.127037 0.707366
O O10 0.216799 0.169211 0.102430
O O11 0.210440 0.883048 0.313409
O O12 0.165438 0.000000 0.389923
O O13 0.284985 0.500000 0.818678
O O14 0.242093 0.395918 0.624861
O O15 0.000000 0.419526 0.500000
O O16 0.500000 0.123405 0.500000
O O17 0.357677 0.239663 0.432621
O O18 0.738486 0.359192 0.560373
O O19 0.188817 0.500000 0.422844
#
# Coordination Sequence:
#
# PCOD9155170 Si02
#       8
#     4   4   4   4   4   4   4   4
#     4  10  23  43  65  96 134 170 215 256 301 374
#     4  10  18  33  56  81 113 159 202 254 310 362
#     4  11  23  41  66  98 124 165 213 270 317 370
#     4  11  25  43  67  99 131 166 206 254 320 386
#     4   8  16  30  48  77 117 155 195 247 307 363
#     4  11  20  45  66  94 125 155 216 273 323 365
#     4  10  22  36  62  90 116 164 212 262 311 373
#     4  10  21  35  52  84 126 162 204 260 317 375
#
# _framework density 19.753086
#
# number of rings (size 3 to 8) (size 9 to 14) (size 15 to 20)
#    0.000    1.875    3.750    3.000    3.500    3.500 
#    4.500    1.875    0.000    2.625    0.000    0.000 
#    0.000    0.000    0.000    0.000    0.000    0.000 
#
# Total GULP energy -178558.079404 kJ/mol
# GULP energy per Si atom -5579.939981 kJ/mol
# Density = 1.970813 g / cm^3
# Si number density = 19.753086 Si / 1000 Ang^3
#
#
#
# Elastic Constant Matrix: (Units=GPa)
#
#
# Indices 1 2 3 4 5 6 
#
# 1 103.1064 28.1183 21.5747 0.0000 5.7670 0.0000
# 2 28.1183 68.7398 11.7420 0.0000 14.5693 0.0000
# 3 21.5747 11.7420 29.5103 0.0000 8.1505 0.0000
# 4 0.0000 0.0000 0.0000 -6.1723 0.0000 -34.3050
# 5 5.7670 14.5693 8.1505 0.0000 33.5219 0.0000
# 6 0.0000 0.0000 0.0000 -34.3050 0.0000 -38.0757
#
#
#
# Elastic Compliance Matrix: (Units=1/GPa)
#
#
# Indices 1 2 3 4 5 6 
#
# 1 0.012357 -0.004040 -0.007852 0.000000 0.001539 0.000000
# 2 -0.004040 0.017997 -0.002400 0.000000 -0.006543 0.000000
# 3 -0.007852 -0.002400 0.042795 0.000000 -0.008011 0.000000
# 4 0.000000 0.000000 0.000000 0.040428 0.000000 -0.036424
# 5 0.001539 -0.006543 -0.008011 0.000000 0.034358 0.000000
# 6 0.000000 0.000000 0.000000 -0.036424 0.000000 0.006554
#
#
# Mechanical properties :
#
#
# Convention : Reuss Voigt Hill
#
# Bulk Modulus (GPa) = 22.43923 36.02519 29.23221
# Shear Modulus (GPa) = 25.26179 7.18288 16.22234
#
# Velocity S-wave (km/s) = 3.58002 1.90899 2.86887
# Velocity P-wave (km/s) = 5.33603 4.81002 5.07984
#
# Compressibility (1/GPa) = 0.04456481
#
# Stress axis : x y z
#
# Youngs Moduli (GPa) = 80.92359 55.56506 23.36745
#
# Poissons Ratio (x) = 0.22447 0.18348
# Poissons Ratio (y) = 0.32691 0.05609
# Poissons Ratio (z) = 0.63541 0.13337
#
# Static dielectric constant tensor:
#      x y z
#    x 1.708990 0.000000 0.015410 
#    y 0.000000 1.693710 0.000000 
#    z 0.015410 0.000000 1.714900 
# 
# From -- ./inp_files/52016.got.cif
#   From: 2010.05.17/outbox.ucp.g08.bks.cvg/sg10_27_cif.got.tgz:52016.got - 2010.06.11 11:31:16.
