data_PCOD9155208
_publ_section_title
;
Structure prediction by ZEFSAII (Michael W. Deem and Ramdas Pophale) SiO2 
 PCOD9155208
Probable space group: P 2/M
;
_chemical_formula_sum "Si O2"
_cell_formula_units_Z 26
_cell_length_a 30.000000
_cell_length_b 9.000000
_cell_length_c 30.000000
_cell_angle_alpha 90.000000
_cell_angle_beta 10.000000
_cell_angle_gamma 90.000000
_cell_volume 1406.550239
_symmetry_space_group_name_H-M "P 2/M"
_symmetry_group_IT_number 10
_symmetry_cell_setting 'monoclinic'
loop_
_space_group_symop_operation_xyz
x,y,z
-x,y,-z
-x,-y,-z
x,-y,z
loop_
_atom_site_type_symbol
_atom_site_label
_atom_site_fract_x
_atom_site_fract_y
_atom_site_fract_z
Si Si1 0.909690 0.681221 0.832587
Si Si2 0.139453 0.325002 0.218597
Si Si3 0.735312 0.000000 0.734519
Si Si4 0.661839 0.683927 0.753820
Si Si5 0.011555 0.180754 0.039501
Si Si6 0.562432 0.320487 0.640768
Si Si7 0.539930 0.179754 0.565922
O O1 0.906807 0.500000 0.834155
O O2 0.865630 0.740411 0.826010
O O3 0.185068 0.724250 0.580545
O O4 0.686424 0.726690 0.086177
O O5 0.179068 0.500000 0.172971
O O6 0.872294 0.308181 0.507407
O O7 0.378800 0.282737 0.013637
O O8 0.722359 0.833666 0.723503
O O9 0.000000 0.000000 0.500000
O O10 0.500000 0.000000 0.000000
O O11 0.667788 0.500000 0.762903
O O12 0.770144 0.226889 0.306785
O O13 0.008176 0.000000 0.041346
O O14 0.000000 0.233553 0.000000
O O15 0.272816 0.224770 0.806410
O O16 0.560162 0.500000 0.639107
O O17 0.565962 0.249654 0.588737
O O18 0.544742 0.000000 0.564810
#
# Coordination Sequence:
#
# PCOD9155208 Si02
#       7
#     4   4   2   4   4   4   4
#     4   9  17  30  52  78 102 135 177 213 248 301
#     4   9  17  33  59  86 109 142 187 234 276 315
#     4  12  26  42  62  88 122 158 192 238 286 342
#     4  10  21  38  62  87 115 151 192 238 285 335
#     4   9  17  30  49  71  88 115 164 211 253 304
#     4  10  19  31  49  73 102 136 171 203 245 314
#     4  10  19  31  49  68  95 127 155 205 259 303
#
# _framework density 18.484942
#
# number of rings (size 3 to 8) (size 9 to 14) (size 15 to 20)
#    0.000    2.308    0.000    3.231    0.000    6.154 
#    0.000    0.000   10.154    2.769    0.000    0.000 
#    0.000    0.000    0.000    0.000    0.000    0.000 
#
# Total GULP energy -144762.464674 kJ/mol
# GULP energy per Si atom -5567.787103 kJ/mol
# Density = 1.844287 g / cm^3
# Si number density = 18.484942 Si / 1000 Ang^3
#
#
#
# Elastic Constant Matrix: (Units=GPa)
#
#
# Indices 1 2 3 4 5 6 
#
# 1 -5941.1689-2643.1311-9978.1753 0.0000-4006.0283 0.0000
# 2 -2643.1311-1146.2400-4430.8244 0.0000-1778.3512 0.0000
# 3 -9978.1753-4430.8244********** 0.0000-6644.7918 0.0000
# 4 0.0000 0.0000 0.0000 12.6689 0.0000 4.7860
# 5 -4006.0283-1778.3512-6644.7918 0.0000-2637.6964 0.0000
# 6 0.0000 0.0000 0.0000 4.7860 0.0000 36.7444
#
#
#
# Elastic Compliance Matrix: (Units=1/GPa)
#
#
# Indices 1 2 3 4 5 6 
#
# 1 0.015776 -0.013256 -0.004318 0.000000 -0.004146 0.000000
# 2 -0.013256 0.034070 -0.000632 0.000000 -0.001245 0.000000
# 3 -0.004318 -0.000632 0.005754 0.000000 -0.007512 0.000000
# 4 0.000000 0.000000 0.000000 0.083019 0.000000 -0.010813
# 5 -0.004146 -0.001245 -0.007512 0.000000 0.025681 0.000000
# 6 0.000000 0.000000 0.000000 -0.010813 0.000000 0.028623
#
#
# Mechanical properties :
#
#
# Convention : Reuss Voigt Hill
#
# Bulk Modulus (GPa) = 52.11413 -6407.39157 -3177.63872
# Shear Modulus (GPa) = 21.21053 -951.66540 -465.22743
#
# Velocity S-wave (km/s) = 3.39108 -22.71454 -15.88161
# Velocity P-wave (km/s) = 6.60201 64.51151 45.37702
#
# Compressibility (1/GPa) = 0.01918865
#
# Stress axis : x y z
#
# Youngs Moduli (GPa) = 63.38634 29.35131 173.77811
#
# Poissons Ratio (x) = 0.38907 0.75036
# Poissons Ratio (y) = 0.84023 0.10991
# Poissons Ratio (z) = 0.27370 0.01856
#
# Static dielectric constant tensor:
#      x y z
#    x 1.642600 0.000000 -0.011500 
#    y 0.000000 1.658580 0.000000 
#    z -0.011500 0.000000 1.623310 
# 
# From -- ./inp_files/91554.got.cif
#   From: 2010.05.17/outbox.ucp.g08.bks.cvg/sg10_46_cif.got.tgz:91554.got - 2010.06.11 11:31:16.
