data_PCOD9155791
_publ_section_title
;
Structure prediction by ZEFSAII (Michael W. Deem and Ramdas Pophale) SiO2 
 PCOD9155791
Probable space group: P 21/M
;
_chemical_formula_sum "Si O2"
_cell_formula_units_Z 32
_cell_length_a 9.489313
_cell_length_b 18.006570
_cell_length_c 10.865982
_cell_angle_alpha 90.000000
_cell_angle_beta 84.984553
_cell_angle_gamma 90.000000
_cell_volume 1849.561230
_symmetry_space_group_name_H-M "P 21/M"
_symmetry_group_IT_number 11
_symmetry_cell_setting 'monoclinic'
loop_
_space_group_symop_operation_xyz
x,y,z
-x,1/2+y,-z
-x,-y,-z
x,1/2-y,z
loop_
_atom_site_type_symbol
_atom_site_label
_atom_site_fract_x
_atom_site_fract_y
_atom_site_fract_z
Si Si1 0.597727 0.927031 0.479947
Si Si2 0.535391 0.412350 0.011139
Si Si3 0.422479 0.597942 0.265572
Si Si4 0.863530 0.098132 0.978075
Si Si5 0.352832 0.419946 0.253934
Si Si6 0.054889 0.052651 0.170381
Si Si7 0.114185 0.665442 0.281168
Si Si8 0.919217 0.536193 0.391799
O O1 0.528315 0.885691 0.369089
O O2 0.606132 0.890040 0.614353
O O3 0.756390 0.951084 0.434278
O O4 0.500000 0.000000 0.500000
O O5 0.438985 0.387040 0.132103
O O6 0.500000 0.500000 0.000000
O O7 0.517663 0.380584 0.874018
O O8 0.700048 0.399324 0.029398
O O9 0.388494 0.509012 0.259599
O O10 0.271787 0.636396 0.299634
O O11 0.894799 0.154726 0.865734
O O12 0.883436 0.016639 0.913659
O O13 0.972294 0.104169 0.081418
O O14 0.186873 0.414350 0.234792
O O15 0.943374 0.017600 0.273742
O O16 0.095899 0.750000 0.318481
O O17 0.999335 0.612083 0.351364
O O18 0.000000 0.500000 0.500000
#
# Coordination Sequence:
#
# PCOD9155791 Si02
#       8
#     4   4   4   4   4   4   4   4
#     4  10  20  29  47  77 115 144 174 228 283 323
#     4   9  15  25  43  65 103 129 166 207 257 317
#     4   9  17  32  46  75 102 138 180 217 267 321
#     4   9  18  29  46  77 101 135 174 220 266 328
#     4  10  16  29  44  77 110 136 166 216 278 322
#     4  10  17  27  47  75 110 131 168 219 283 310
#     4  10  20  38  57  76 107 146 184 233 283 338
#     4  11  19  33  53  82 114 143 186 234 276 334
#
# _framework density 17.301400999999998
#
# number of rings (size 3 to 8) (size 9 to 14) (size 15 to 20)
#    0.000    2.250    6.250    0.750    5.250    1.000 
#    0.000    0.625    0.000    0.750    0.000    3.500 
#    0.000    0.000    0.000    0.000    0.000    0.000 
#
# Total GULP energy -178226.364896 kJ/mol
# GULP energy per Si atom -5569.573903 kJ/mol
# Density = 1.726202 g / cm^3
# Si number density = 17.301401 Si / 1000 Ang^3
#
#
#
# Elastic Constant Matrix: (Units=GPa)
#
#
# Indices 1 2 3 4 5 6 
#
# 1 111.8600 17.4789 80.6824 0.0000 3.7524 0.0000
# 2 17.4789 27.5041 10.7710 0.0000 -4.1086 0.0000
# 3 80.6824 10.7710 119.1328 0.0000 8.8261 0.0000
# 4 0.0000 0.0000 0.0000 2.5774 0.0000 0.7222
# 5 3.7524 -4.1086 8.8261 0.0000 46.1021 0.0000
# 6 0.0000 0.0000 0.0000 0.7222 0.0000 5.0441
#
#
#
# Elastic Compliance Matrix: (Units=1/GPa)
#
#
# Indices 1 2 3 4 5 6 
#
# 1 0.018760 -0.007175 -0.012067 0.000000 0.000144 0.000000
# 2 -0.007175 0.041205 0.000830 0.000000 0.004097 0.000000
# 3 -0.012067 0.000830 0.016649 0.000000 -0.002131 0.000000
# 4 0.000000 0.000000 0.000000 0.404199 0.000000 -0.057869
# 5 0.000144 0.004097 -0.002131 0.000000 0.022452 0.000000
# 6 0.000000 0.000000 0.000000 -0.057869 0.000000 0.206535
#
#
# Mechanical properties :
#
#
# Convention : Reuss Voigt Hill
#
# Bulk Modulus (GPa) = 25.13165 52.92906 39.03036
# Shear Modulus (GPa) = 6.57993 20.71571 13.64782
#
# Velocity S-wave (km/s) = 1.95228 3.46402 2.81165
# Velocity P-wave (km/s) = 4.43161 6.83067 5.75748
#
# Compressibility (1/GPa) = 0.03979046
#
# Stress axis : x y z
#
# Youngs Moduli (GPa) = 53.30603 24.26909 60.06329
#
# Poissons Ratio (x) = 0.17412 0.72478
# Poissons Ratio (y) = 0.38245 -0.04986
# Poissons Ratio (z) = 0.64324 -0.02015
#
# Static dielectric constant tensor:
#      x y z
#    x 1.600050 0.000000 0.030660 
#    y 0.000000 1.557330 0.000000 
#    z 0.030660 0.000000 1.662700 
# 
# From -- ./inp_files/32497.got.cif
#   From: 2010.05.17/outbox.cif.g08.bks.cpg/sg11_17_cif.got.tgz:32497.got - 2010.06.03 12:22:45.
