data_PCOD9155074
_publ_section_title
;
Structure prediction by ZEFSAII (Michael W. Deem and Ramdas Pophale) SiO2 
 PCOD9155074
Probable space group: P 2/M
;
_chemical_formula_sum "Si O2"
_cell_formula_units_Z 32
_cell_length_a 14.012347
_cell_length_b 15.248093
_cell_length_c 8.880065
_cell_angle_alpha 90.000000
_cell_angle_beta 53.313823
_cell_angle_gamma 90.000000
_cell_volume 1521.505401
_symmetry_space_group_name_H-M "P 2/M"
_symmetry_group_IT_number 10
_symmetry_cell_setting 'monoclinic'
loop_
_space_group_symop_operation_xyz
x,y,z
-x,y,-z
-x,-y,-z
x,-y,z
loop_
_atom_site_type_symbol
_atom_site_label
_atom_site_fract_x
_atom_site_fract_y
_atom_site_fract_z
Si Si1 0.140817 0.903008 0.881617
Si Si2 0.768420 0.600098 0.062683
Si Si3 0.731579 0.100098 0.937318
Si Si4 0.640817 0.403008 0.881617
Si Si5 0.370610 0.221683 0.208173
Si Si6 0.129391 0.721683 0.791827
Si Si7 0.477329 0.100310 0.346422
Si Si8 0.977329 0.399690 0.346422
O O1 0.174105 0.877305 0.021619
O O2 0.173112 0.821744 0.745585
O O3 0.194830 0.000000 0.803217
O O4 0.000000 0.912119 0.000000
O O5 0.746876 0.500000 0.133944
O O6 0.674104 0.622695 0.021620
O O7 0.894950 0.601624 0.857308
O O8 0.781206 0.665991 0.188377
O O9 0.605050 0.101624 0.142692
O O10 0.753124 0.000000 0.866057
O O11 0.718794 0.165991 0.811624
O O12 0.694830 0.500000 0.803217
O O13 0.673112 0.321744 0.745586
O O14 0.500000 0.412119 0.000000
O O15 0.397221 0.170783 0.336204
O O16 0.500000 0.223419 0.000000
O O17 0.102779 0.670783 0.663797
O O18 0.000000 0.723419 0.000000
O O19 0.500000 0.118644 0.500000
O O20 0.432007 0.000000 0.373055
O O21 0.932007 0.500000 0.373056
O O22 0.000000 0.381355 0.500000
#
# Coordination Sequence:
#
# PCOD9155074 Si02
#       8
#     4   4   4   4   4   4   4   4
#     4   9  17  28  43  64  88 114 145 178 209 244
#     4   9  16  27  45  67  89 112 139 174 214 253
#     4   9  16  27  45  67  89 112 139 174 214 253
#     4   9  17  28  43  64  88 114 145 178 209 244
#     4   9  16  27  45  67  88 110 140 177 214 253
#     4   9  16  27  45  67  88 110 140 177 214 253
#     4   9  17  29  45  66  90 112 136 172 219 263
#     4   9  17  29  45  66  90 112 136 172 219 263
#
# _framework density 21.031804000000001
#
# number of rings (size 3 to 8) (size 9 to 14) (size 15 to 20)
#    0.000    3.000    0.000    1.500    0.000    3.000 
#    0.000    1.250    0.000    0.750    0.000    0.000 
#    0.000    0.000    0.000    0.000    0.000    0.000 
#
# Total GULP energy -178528.751363 kJ/mol
# GULP energy per Si atom -5579.023480 kJ/mol
# Density = 2.098393 g / cm^3
# Si number density = 21.031804 Si / 1000 Ang^3
#
#
#
# Elastic Constant Matrix: (Units=GPa)
#
#
# Indices 1 2 3 4 5 6 
#
# 1 95.3573 51.8843 16.4519 0.0000 31.9116 0.0000
# 2 51.8843 173.1163 52.3505 0.0000 57.4767 0.0000
# 3 16.4519 52.3505 55.4553 0.0000 16.9617 0.0000
# 4 0.0000 0.0000 0.0000 19.9872 0.0000 28.1010
# 5 31.9116 57.4767 16.9617 0.0000 38.7735 0.0000
# 6 0.0000 0.0000 0.0000 28.1010 0.0000 42.4876
#
#
#
# Elastic Compliance Matrix: (Units=1/GPa)
#
#
# Indices 1 2 3 4 5 6 
#
# 1 0.014529 -0.000635 -0.000394 0.000000 -0.010845 0.000000
# 2 -0.000635 0.013820 -0.007795 0.000000 -0.016554 0.000000
# 3 -0.000394 -0.007795 0.025253 0.000000 0.000832 0.000000
# 4 0.000000 0.000000 0.000000 0.713563 0.000000 -0.471945
# 5 -0.010845 -0.016554 0.000832 0.000000 0.058892 0.000000
# 6 0.000000 0.000000 0.000000 -0.471945 0.000000 0.335678
#
#
# Mechanical properties :
#
#
# Convention : Reuss Voigt Hill
#
# Bulk Modulus (GPa) = 27.81214 62.81136 45.31175
# Shear Modulus (GPa) = 4.19686 33.79915 18.99801
#
# Velocity S-wave (km/s) = 1.41415 4.01315 3.00875
# Velocity P-wave (km/s) = 3.98986 7.16963 5.80184
#
# Compressibility (1/GPa) = 0.03595552
#
# Stress axis : x y z
#
# Youngs Moduli (GPa) = 68.82551 72.35899 39.59871
#
# Poissons Ratio (x) = 0.04594 0.01561
# Poissons Ratio (y) = 0.04369 0.30866
# Poissons Ratio (z) = 0.02713 0.56401
#
# Static dielectric constant tensor:
#      x y z
#    x 1.749720 0.000000 -0.015460 
#    y 0.000000 1.810320 0.000000 
#    z -0.015460 0.000000 1.732460 
# 
# From -- ./inp_files/29031.got.cif
#   From: 2010.05.17/outbox.cif.g08.bks.cpg/sg10_15_cif.got.tgz:29031.got - 2010.06.03 11:33:40.
