data_PCOD9155025
_publ_section_title
;
Structure prediction by ZEFSAII (Michael W. Deem and Ramdas Pophale) SiO2 
 PCOD9155025
Probable space group: P 2/M
;
_chemical_formula_sum "Si O2"
_cell_formula_units_Z 32
_cell_length_a 12.246642
_cell_length_b 7.383025
_cell_length_c 18.239597
_cell_angle_alpha 90.000000
_cell_angle_beta 69.512194
_cell_angle_gamma 90.000000
_cell_volume 1544.858733
_symmetry_space_group_name_H-M "P 2/M"
_symmetry_group_IT_number 10
_symmetry_cell_setting 'monoclinic'
loop_
_space_group_symop_operation_xyz
x,y,z
-x,y,-z
-x,-y,-z
x,-y,z
loop_
_atom_site_type_symbol
_atom_site_label
_atom_site_fract_x
_atom_site_fract_y
_atom_site_fract_z
Si Si1 0.534461 0.278397 0.330929
Si Si2 0.767610 0.278845 0.348684
Si Si3 0.895380 0.279603 0.578467
Si Si4 0.599567 0.212386 0.031474
Si Si5 0.547776 0.293163 0.805763
Si Si6 0.032024 0.721162 0.276212
Si Si7 0.316937 0.720432 0.470686
Si Si8 0.751797 0.282169 0.865779
O O1 0.535839 0.500000 0.328415
O O2 0.665627 0.221365 0.317695
O O3 0.482502 0.213625 0.265880
O O4 0.446164 0.225460 0.416538
O O5 0.769405 0.500000 0.348946
O O6 0.729462 0.221249 0.439395
O O7 0.898478 0.219714 0.299922
O O8 0.895496 0.500000 0.579358
O O9 0.919439 0.221776 0.655605
O O10 0.774035 0.223253 0.570879
O O11 0.000000 0.224243 0.500000
O O12 0.569213 0.293927 0.117085
O O13 0.579873 0.000000 0.045518
O O14 0.500000 0.287360 0.000000
O O15 0.716428 0.235155 0.957170
O O16 0.584833 0.500000 0.782550
O O17 0.650941 0.215167 0.832753
O O18 0.031190 0.500000 0.276494
O O19 0.123303 0.779198 0.192861
O O20 0.316266 0.500000 0.472637
O O21 0.749281 0.500000 0.863284
#
# Coordination Sequence:
#
# PCOD9155025 Si02
#       8
#     4   4   4   4   4   4   4   4
#     4   9  16  23  33  51  77 111 145 173 205 247
#     4   9  15  22  31  47  76 113 147 176 205 239
#     4   9  13  18  28  44  70 106 141 169 202 243
#     4   9  17  29  46  67  88 107 131 167 212 258
#     4   9  16  27  42  62  88 113 136 166 208 253
#     4   9  15  22  33  52  79 111 143 173 205 243
#     4   9  14  20  30  46  73 110 146 175 206 244
#     4   9  16  26  42  64  88 111 136 167 207 253
#
# _framework density 20.713867
#
# number of rings (size 3 to 8) (size 9 to 14) (size 15 to 20)
#    0.000    3.000    1.250    1.500    0.000    6.000 
#    0.000    0.000    0.000    0.750    0.000    6.125 
#    0.000    3.500    0.000    0.375    0.000    0.000 
#
# Total GULP energy -178509.883412 kJ/mol
# GULP energy per Si atom -5578.433857 kJ/mol
# Density = 2.066672 g / cm^3
# Si number density = 20.713867 Si / 1000 Ang^3
#
#
#
# Elastic Constant Matrix: (Units=GPa)
#
#
# Indices 1 2 3 4 5 6 
#
# 1 93.8912 1.4274 38.1694 0.0000 -19.3284 0.0000
# 2 1.4274 73.2269 -3.7677 0.0000 0.3081 0.0000
# 3 38.1694 -3.7677 109.3563 0.0000 -30.3605 0.0000
# 4 0.0000 0.0000 0.0000 -110.5261 0.0000 13.0582
# 5 -19.3284 0.3081 -30.3605 0.0000 24.7631 0.0000
# 6 0.0000 0.0000 0.0000 13.0582 0.0000 -12.0546
#
#
#
# Elastic Compliance Matrix: (Units=1/GPa)
#
#
# Indices 1 2 3 4 5 6 
#
# 1 0.013188 -0.000424 -0.002666 0.000000 0.007031 0.000000
# 2 -0.000424 0.013700 0.000729 0.000000 0.000392 0.000000
# 3 -0.002666 0.000729 0.014432 0.000000 0.015605 0.000000
# 4 0.000000 0.000000 0.000000 -0.010376 0.000000 -0.011239
# 5 0.007031 0.000392 0.015605 0.000000 0.064997 0.000000
# 6 0.000000 0.000000 0.000000 -0.011239 0.000000 -0.095131
#
#
# Mechanical properties :
#
#
# Convention : Reuss Voigt Hill
#
# Bulk Modulus (GPa) = 27.32302 38.68141 33.00221
# Shear Modulus (GPa) = 281.96895 -3.52048 139.22423
#
# Velocity S-wave (km/s) = 11.67995 -1.30509 8.20725
# Velocity P-wave (km/s) = 13.96833 4.05508 10.28489
#
# Compressibility (1/GPa) = 0.03659917
#
# Stress axis : x y z
#
# Youngs Moduli (GPa) = 75.82580 72.99111 69.28881
#
# Poissons Ratio (x) = 0.03094 0.18471
# Poissons Ratio (y) = 0.03214 -0.05050
# Poissons Ratio (z) = 0.20214 -0.05320
#
# Static dielectric constant tensor:
#      x y z
#    x 1.718510 0.000000 -0.019070 
#    y 0.000000 1.812760 0.000000 
#    z -0.019070 0.000000 1.742790 
# 
# From -- ./inp_files/55561.got.cif
#   From: 2010.05.17/outbox.cif.g08.bks.cpg/sg10_28_cif.got.tgz:55561.got - 2010.06.03 11:33:40.
