data_PCOD9155510
_publ_section_title
;
Structure prediction by ZEFSAII (Michael W. Deem and Ramdas Pophale) SiO2 
 PCOD9155510
Probable space group: P 2/M
;
_chemical_formula_sum "Si O2"
_cell_formula_units_Z 28
_cell_length_a 9.000000
_cell_length_b 9.000000
_cell_length_c 27.000000
_cell_angle_alpha 90.000000
_cell_angle_beta 40.000000
_cell_angle_gamma 90.000000
_cell_volume 1405.776502
_symmetry_space_group_name_H-M "P 2/M"
_symmetry_group_IT_number 10
_symmetry_cell_setting 'monoclinic'
loop_
_space_group_symop_operation_xyz
x,y,z
-x,y,-z
-x,-y,-z
x,-y,z
loop_
_atom_site_type_symbol
_atom_site_label
_atom_site_fract_x
_atom_site_fract_y
_atom_site_fract_z
Si Si1 0.842811 0.829983 0.635830
Si Si2 0.242590 0.170173 0.061258
Si Si3 0.499804 0.178448 0.638707
Si Si4 0.888095 0.663882 0.082207
Si Si5 0.688743 0.670244 0.494761
Si Si6 0.590229 0.168830 0.804414
Si Si7 0.019030 0.172249 0.226103
O O1 0.673921 0.769050 0.636644
O O2 0.697845 0.837760 0.722732
O O3 0.065857 0.729820 0.585859
O O4 0.914398 0.000000 0.604587
O O5 0.072751 0.254420 0.068772
O O6 0.122140 0.168969 0.145222
O O7 0.268191 0.000000 0.037013
O O8 0.500000 0.234521 0.000000
O O9 0.605872 0.224848 0.559886
O O10 0.237687 0.237226 0.708654
O O11 0.488544 0.000000 0.647457
O O12 0.843410 0.500000 0.113933
O O13 0.649433 0.748764 0.137459
O O14 0.000000 0.653896 0.000000
O O15 0.500000 0.677045 0.500000
O O16 0.706949 0.500000 0.507293
O O17 0.785601 0.241629 0.789070
O O18 0.546520 0.000000 0.833747
O O19 0.993724 0.000000 0.250394
#
# Coordination Sequence:
#
# PCOD9155510 Si02
#       7
#     4   4   4   4   4   4   4
#     4  10  21  37  60  88 113 142 182 229 281 334
#     4  10  20  36  60  87 113 144 187 236 281 328
#     4  10  20  36  58  83 112 144 182 228 278 333
#     4  11  24  39  55  80 116 154 189 227 275 331
#     4  11  24  39  55  79 112 149 189 230 273 327
#     4  10  20  37  62  87 111 143 185 230 276 328
#     4   9  18  34  58  87 113 140 180 231 282 330
#
# _framework density 19.917818
#
# number of rings (size 3 to 8) (size 9 to 14) (size 15 to 20)
#    0.000    1.857    0.000    3.857    0.000   10.000 
#    0.000    3.571    0.000    0.000    0.000    0.000 
#    0.000    0.000    0.000    0.000    0.000    0.000 
#
# Total GULP energy -156223.805469 kJ/mol
# GULP energy per Si atom -5579.421624 kJ/mol
# Density = 1.987248 g / cm^3
# Si number density = 19.917818 Si / 1000 Ang^3
#
#
#
# Elastic Constant Matrix: (Units=GPa)
#
#
# Indices 1 2 3 4 5 6 
#
# 1 109.4556 43.7333 32.0795 0.0000 -24.7457 0.0000
# 2 43.7333 15.7546 19.8397 0.0000 -25.4221 0.0000
# 3 32.0795 19.8397 79.6035 0.0000 -30.0590 0.0000
# 4 0.0000 0.0000 0.0000 -34.0046 0.0000 -19.3064
# 5 -24.7457 -25.4221 -30.0590 0.0000 39.1129 0.0000
# 6 0.0000 0.0000 0.0000 -19.3064 0.0000 -22.8714
#
#
#
# Elastic Compliance Matrix: (Units=1/GPa)
#
#
# Indices 1 2 3 4 5 6 
#
# 1 0.000928 0.033205 -0.000392 0.000000 0.021868 0.000000
# 2 0.033205 -0.109298 -0.007091 0.000000 -0.055482 0.000000
# 3 -0.000392 -0.007091 0.017827 0.000000 0.008843 0.000000
# 4 0.000000 0.000000 0.000000 -0.056473 0.000000 0.047671
# 5 0.021868 -0.055482 0.008843 0.000000 0.010137 0.000000
# 6 0.000000 0.000000 0.000000 0.047671 0.000000 -0.083963
#
#
# Mechanical properties :
#
#
# Convention : Reuss Voigt Hill
#
# Bulk Modulus (GPa) = -25.57576 44.01317 9.21871
# Shear Modulus (GPa) = -17.52422 3.72478 -6.89972
#
# Velocity S-wave (km/s) = -2.96940 1.36899 -1.86323
# Velocity P-wave (km/s) = 4.96236 4.96429 0.09799
#
# Compressibility (1/GPa) = -0.03909952
#
# Stress axis : x y z
#
# Youngs Moduli (GPa) = 1077.99928 -9.14931 56.09505
#
# Poissons Ratio (x) = 0.30381 0.02200
# Poissons Ratio (y) = -35.79537 0.39779
# Poissons Ratio (z) = 0.42272 -0.06488
#
# Static dielectric constant tensor:
#      x y z
#    x 1.684900 0.000000 -0.013460 
#    y 0.000000 1.719790 0.000000 
#    z -0.013460 0.000000 1.673080 
# 
# From -- ./inp_files/36833.got.cif
#   From: 2010.05.17/outbox.ucp.g08.bks.cvg/sg10_19_cif.got.tgz:36833.got - 2010.06.11 11:31:16.
