data_PCOD9155149
_publ_section_title
;
Structure prediction by ZEFSAII (Michael W. Deem and Ramdas Pophale) SiO2 
 PCOD9155149
Probable space group: P 2/M
;
_chemical_formula_sum "Si O2"
_cell_formula_units_Z 32
_cell_length_a 21.000000
_cell_length_b 9.000000
_cell_length_c 27.000000
_cell_angle_alpha 90.000000
_cell_angle_beta 160.000000
_cell_angle_gamma 90.000000
_cell_volume 1745.328791
_symmetry_space_group_name_H-M "P 2/M"
_symmetry_group_IT_number 10
_symmetry_cell_setting 'monoclinic'
loop_
_space_group_symop_operation_xyz
x,y,z
-x,y,-z
-x,-y,-z
x,-y,z
loop_
_atom_site_type_symbol
_atom_site_label
_atom_site_fract_x
_atom_site_fract_y
_atom_site_fract_z
Si Si1 0.290805 0.819950 0.106676
Si Si2 0.057865 0.672681 0.099517
Si Si3 0.400474 0.819453 0.584378
Si Si4 0.137452 0.818815 0.558560
Si Si5 0.443928 0.819739 0.112879
Si Si6 0.047742 0.181323 0.383540
Si Si7 0.364263 0.818317 0.944556
Si Si8 0.558795 0.178746 0.597064
O O1 0.451648 0.782578 0.264342
O O2 0.336447 0.775895 0.083813
O O3 0.267710 0.000000 0.091670
O O4 0.110617 0.733679 0.991772
O O5 0.098699 0.500000 0.138939
O O6 0.232840 0.773639 0.239397
O O7 0.000000 0.687871 0.000000
O O8 0.200799 0.767514 0.456775
O O9 0.446843 0.765473 0.563334
O O10 0.400490 0.000000 0.582411
O O11 0.344370 0.779117 0.723268
O O12 0.092907 0.766659 0.471398
O O13 0.000000 0.764368 0.500000
O O14 0.125899 0.000000 0.549331
O O15 0.430242 0.000000 0.101519
O O16 0.395883 0.764807 0.023340
O O17 0.842314 0.224548 0.220242
O O18 0.055331 0.000000 0.389482
O O19 0.378283 0.000000 0.955764
O O20 0.500000 0.767979 0.000000
O O21 0.500000 0.234563 0.500000
O O22 0.542914 0.000000 0.584601
#
# Coordination Sequence:
#
# PCOD9155149 Si02
#       8
#     4   4   4   4   4   4   4   4
#     4  10  18  31  53  75  99 132 174 223 264 302
#     4  11  23  37  55  79 106 140 178 214 266 326
#     4   9  16  28  46  68  95 126 163 213 261 299
#     4   9  14  20  32  51  78 114 154 190 228 287
#     4   9  16  25  38  61  88 122 167 204 245 301
#     4   9  15  23  35  52  79 119 159 192 238 292
#     4   9  16  24  34  54  91 134 165 196 244 301
#     4  10  21  36  56  81 106 135 176 219 263 315
#
# _framework density 18.334654
#
# number of rings (size 3 to 8) (size 9 to 14) (size 15 to 20)
#    0.000    2.500    2.500    1.125    0.000    4.750 
#    0.000    3.750    0.000    0.000    0.000    0.000 
#    0.000    1.000    0.000    0.000    0.000    0.250 
#
# Total GULP energy -178160.067252 kJ/mol
# GULP energy per Si atom -5567.502102 kJ/mol
# Density = 1.829292 g / cm^3
# Si number density = 18.334654 Si / 1000 Ang^3
#
#
#
# Elastic Constant Matrix: (Units=GPa)
#
#
# Indices 1 2 3 4 5 6 
#
# 1 156.3002 -14.8827 121.8603 0.0000 -17.2043 0.0000
# 2 -14.8827 -27.0423 -4.0841 0.0000 -11.4079 0.0000
# 3 121.8603 -4.0841 72.1389 0.0000 1.0162 0.0000
# 4 0.0000 0.0000 0.0000 -6.5174 0.0000 -7.9474
# 5 -17.2043 -11.4079 1.0162 0.0000 29.6420 0.0000
# 6 0.0000 0.0000 0.0000 -7.9474 0.0000 2.0150
#
#
#
# Elastic Compliance Matrix: (Units=1/GPa)
#
#
# Indices 1 2 3 4 5 6 
#
# 1 -0.018417 0.008872 0.031731 0.000000 -0.008363 0.000000
# 2 0.008872 -0.035897 -0.016905 0.000000 -0.008087 0.000000
# 3 0.031731 -0.016905 -0.040884 0.000000 0.013313 0.000000
# 4 0.000000 0.000000 0.000000 -0.026411 0.000000 -0.104168
# 5 -0.008363 -0.008087 0.013313 0.000000 0.025313 0.000000
# 6 0.000000 0.000000 0.000000 -0.104168 0.000000 0.085425
#
#
# Mechanical properties :
#
#
# Convention : Reuss Voigt Hill
#
# Bulk Modulus (GPa) = -20.91960 45.24266 12.16153
# Shear Modulus (GPa) = -67.38557 11.59479 -27.89539
#
# Velocity S-wave (km/s) = -6.06901 2.51748 -3.90482
# Velocity P-wave (km/s) = 7.78108 5.76020 3.69901
#
# Compressibility (1/GPa) = -0.04780207
#
# Stress axis : x y z
#
# Youngs Moduli (GPa) = -54.29765 -27.85737 -24.45964
#
# Poissons Ratio (x) = 0.24714 0.77613
# Poissons Ratio (y) = 0.48170 -0.41348
# Poissons Ratio (z) = 1.72291 -0.47092
#
# Static dielectric constant tensor:
#      x y z
#    x 1.658020 0.000000 0.009240 
#    y 0.000000 1.581320 0.000000 
#    z 0.009240 0.000000 1.614410 
# 
# From -- ./inp_files/93734.got.cif
#   From: 2010.05.17/outbox.ucp.g08.bks.cvg/sg10_47_cif.got.tgz:93734.got - 2010.06.11 11:31:16.
