data_PCOD9155803
_publ_section_title
;
Structure prediction by ZEFSAII (Michael W. Deem and Ramdas Pophale) SiO2 
 PCOD9155803
Probable space group: P 21/M
;
_chemical_formula_sum "Si O2"
_cell_formula_units_Z 26
_cell_length_a 9.616971
_cell_length_b 14.805396
_cell_length_c 11.915143
_cell_angle_alpha 90.000000
_cell_angle_beta 33.999159
_cell_angle_gamma 90.000000
_cell_volume 948.658262
_symmetry_space_group_name_H-M "P 21/M"
_symmetry_group_IT_number 11
_symmetry_cell_setting 'monoclinic'
loop_
_space_group_symop_operation_xyz
x,y,z
-x,1/2+y,-z
-x,-y,-z
x,1/2-y,z
loop_
_atom_site_type_symbol
_atom_site_label
_atom_site_fract_x
_atom_site_fract_y
_atom_site_fract_z
Si Si1 0.269361 0.750000 0.608718
Si Si2 0.973366 0.887097 0.709800
Si Si3 0.982569 0.905369 0.360602
Si Si4 0.558187 0.852241 0.519141
Si Si5 0.402050 0.648207 0.245386
Si Si6 0.556658 0.643451 0.827791
Si Si7 0.273901 0.984376 0.870323
O O1 0.057518 0.830587 0.759443
O O2 0.487733 0.833179 0.440458
O O3 0.163943 0.847086 0.490147
O O4 0.695606 0.870573 0.852814
O O5 0.013609 0.992678 0.683274
O O6 0.841759 0.848806 0.360331
O O7 0.775691 0.894579 0.598396
O O8 0.242136 0.876807 0.239265
O O9 0.429109 0.750000 0.636113
O O10 0.428919 0.936105 0.664643
O O11 0.498537 0.750000 0.172831
O O12 0.588964 0.570321 0.163593
O O13 0.525659 0.750000 0.831595
O O14 0.317159 0.590028 0.941951
O O15 0.000000 0.000000 0.000000
#
# Coordination Sequence:
#
# PCOD9155803 Si02
#       7
#     2   4   4   4   4   4   4
#     4  10  22  32  50  84 108 148 174 202 264 336
#     4  11  16  30  53  81 106 138 173 205 264 331
#     4  10  16  30  52  77 111 135 159 222 278 313
#     4   9  20  36  50  76 112 142 168 211 269 325
#     4  11  19  30  52  83 111 130 169 230 274 312
#     4  10  17  30  54  80 106 134 173 223 272 316
#     4  11  21  35  53  76 105 139 179 223 275 303
#
# _framework density 27.407131
#
# number of rings (size 3 to 8) (size 9 to 14) (size 15 to 20)
#    0.462    1.231    6.154    4.615    0.000    1.846 
#    0.000    0.000    0.000    0.923    0.000    2.154 
#    0.000    0.000    0.000    0.000    0.000    0.000 
#
# Total GULP energy -144757.379479 kJ/mol
# GULP energy per Si atom -5567.591518 kJ/mol
# Density = 2.734475 g / cm^3
# Si number density = 27.407131 Si / 1000 Ang^3
#
#
#
# Elastic Constant Matrix: (Units=GPa)
#
#
# Indices 1 2 3 4 5 6 
#
# 1 154.7046 93.0724 71.0747 0.0000 -80.0703 0.0000
# 2 93.0724 286.2402 82.8473 0.0000 -45.6865 0.0000
# 3 71.0747 82.8473 178.1433 0.0000 -61.6006 0.0000
# 4 0.0000 0.0000 0.0000 -65.9600 0.0000 95.3104
# 5 -80.0703 -45.6865 -61.6006 0.0000 55.9950 0.0000
# 6 0.0000 0.0000 0.0000 95.3104 0.0000 -67.6631
#
#
#
# Elastic Compliance Matrix: (Units=1/GPa)
#
#
# Indices 1 2 3 4 5 6 
#
# 1 0.030211 -0.004136 0.005877 0.000000 0.046292 0.000000
# 2 -0.004136 0.004744 -0.002038 0.000000 -0.004285 0.000000
# 3 0.005877 -0.002038 0.010567 0.000000 0.018367 0.000000
# 4 0.000000 0.000000 0.000000 0.014643 0.000000 0.020625
# 5 0.046292 -0.004285 0.018367 0.000000 0.100763 0.000000
# 6 0.000000 0.000000 0.000000 0.020625 0.000000 0.014274
#
#
# Mechanical properties :
#
#
# Convention : Reuss Voigt Hill
#
# Bulk Modulus (GPa) = 22.25707 123.67522 72.96615
# Shear Modulus (GPa) = 26.20931 9.28060 17.74496
#
# Velocity S-wave (km/s) = 3.09576 1.84216 2.54728
# Velocity P-wave (km/s) = 4.57349 7.05322 5.94410
#
# Compressibility (1/GPa) = 0.04492954
#
# Stress axis : x y z
#
# Youngs Moduli (GPa) = 33.10042 210.78052 94.62982
#
# Poissons Ratio (x) = 0.87174 -0.55616
# Poissons Ratio (y) = 0.13690 0.19287
# Poissons Ratio (z) = -0.19454 0.42959
#
# Static dielectric constant tensor:
#      x y z
#    x 2.445590 0.000000 0.029270 
#    y 0.000000 2.065970 0.000000 
#    z 0.029270 0.000000 2.312870 
# 
# From -- ./inp_files/43352.got.cif
#   From: 2010.05.17/outbox.cif.g08.bks.cpg/sg11_22_cif.got.tgz:43352.got - 2010.06.03 12:22:45.
