data_PCOD9155062
_publ_section_title
;
Structure prediction by ZEFSAII (Michael W. Deem and Ramdas Pophale) SiO2 
 PCOD9155062
Probable space group: P 2/M
;
_chemical_formula_sum "Si O2"
_cell_formula_units_Z 24
_cell_length_a 15.723706
_cell_length_b 7.885823
_cell_length_c 18.190990
_cell_angle_alpha 90.000000
_cell_angle_beta 26.134467
_cell_angle_gamma 90.000000
_cell_volume 993.536413
_symmetry_space_group_name_H-M "P 2/M"
_symmetry_group_IT_number 10
_symmetry_cell_setting 'monoclinic'
loop_
_space_group_symop_operation_xyz
x,y,z
-x,y,-z
-x,-y,-z
x,-y,z
loop_
_atom_site_type_symbol
_atom_site_label
_atom_site_fract_x
_atom_site_fract_y
_atom_site_fract_z
Si Si1 0.196040 0.000000 0.274450
Si Si2 0.960316 0.687073 0.410885
Si Si3 0.221039 0.793301 0.833769
Si Si4 0.797311 0.203596 0.312212
Si Si5 0.582962 0.795227 0.631267
Si Si6 0.418167 0.000000 0.944169
Si Si7 0.816602 0.312623 0.920383
O O1 0.062462 0.835372 0.375982
O O2 0.356238 0.000000 0.213374
O O3 0.312219 0.000000 0.106167
O O4 0.991113 0.500000 0.417508
O O5 0.733718 0.718351 0.571622
O O6 0.068356 0.693612 0.247392
O O7 0.293937 0.750483 0.695039
O O8 0.364561 0.733365 0.786312
O O9 0.220028 0.000000 0.841422
O O10 0.000000 0.737207 0.000000
O O11 0.678219 0.243170 0.477407
O O12 0.011151 0.278293 0.156324
O O13 0.821327 0.000000 0.292931
O O14 0.586044 0.000000 0.638544
O O15 0.341085 0.164861 0.961623
O O16 0.733458 0.500000 0.992338
#
# Coordination Sequence:
#
# PCOD9155062 Si02
#       7
#     2   4   4   4   4   2   4
#     4   9  16  26  40  61  91 122 150 185 231 279
#     4   9  16  26  41  62  88 119 155 191 226 270
#     4   9  17  27  42  67  94 119 153 196 237 275
#     4   9  15  26  44  63  87 122 160 193 227 271
#     4   9  15  26  44  63  87 122 160 193 227 271
#     4   9  16  26  40  61  91 122 150 185 231 279
#     4   9  16  26  41  62  88 119 155 191 226 270
#
# _framework density 24.156134000000002
#
# number of rings (size 3 to 8) (size 9 to 14) (size 15 to 20)
#    0.000    3.000    1.667    0.500    0.000    2.667 
#    0.000    4.167    0.000    6.000    0.000    0.000 
#    0.000    2.667    0.000    3.000    0.000    3.333 
#
# Total GULP energy -134184.199792 kJ/mol
# GULP energy per Si atom -5591.008325 kJ/mol
# Density = 2.410115 g / cm^3
# Si number density = 24.156134 Si / 1000 Ang^3
#
#
#
# Elastic Constant Matrix: (Units=GPa)
#
#
# Indices 1 2 3 4 5 6 
#
# 1 109.7125 50.2046 48.2818 0.0000 -30.9518 0.0000
# 2 50.2046 97.5937 69.7741 0.0000 -45.8684 0.0000
# 3 48.2818 69.7741 121.5371 0.0000 -36.2090 0.0000
# 4 0.0000 0.0000 0.0000 -4.4135 0.0000 39.5424
# 5 -30.9518 -45.8684 -36.2090 0.0000 57.1626 0.0000
# 6 0.0000 0.0000 0.0000 39.5424 0.0000 -113.2759
#
#
#
# Elastic Compliance Matrix: (Units=1/GPa)
#
#
# Indices 1 2 3 4 5 6 
#
# 1 0.012430 -0.003823 -0.002036 0.000000 0.002373 0.000000
# 2 -0.003823 0.023918 -0.008765 0.000000 0.011570 0.000000
# 3 -0.002036 -0.008765 0.014354 0.000000 0.000956 0.000000
# 4 0.000000 0.000000 0.000000 0.106496 0.000000 0.037176
# 5 0.002373 0.011570 0.000956 0.000000 0.028668 0.000000
# 6 0.000000 0.000000 0.000000 0.037176 0.000000 0.004149
#
#
# Mechanical properties :
#
#
# Convention : Reuss Voigt Hill
#
# Bulk Modulus (GPa) = 46.61604 73.92936 60.27270
# Shear Modulus (GPa) = 22.08338 -1.39984 10.34177
#
# Velocity S-wave (km/s) = 3.02684 -0.76207 2.07136
# Velocity P-wave (km/s) = 5.61742 5.46781 5.54312
#
# Compressibility (1/GPa) = 0.02145184
#
# Stress axis : x y z
#
# Youngs Moduli (GPa) = 80.45275 41.80986 69.66778
#
# Poissons Ratio (x) = 0.15986 0.14184
# Poissons Ratio (y) = 0.30761 0.61066
# Poissons Ratio (z) = 0.16379 0.36648
#
# Static dielectric constant tensor:
#      x y z
#    x 1.919420 0.000000 0.082280 
#    y 0.000000 1.862900 0.000000 
#    z 0.082280 0.000000 1.967660 
# 
# From -- ./inp_files/80139.got.cif
#   From: 2010.05.17/outbox.cif.g08.bks.cpg/sg10_41_cif.got.tgz:80139.got - 2010.06.03 11:33:40.
