data_PCOD9155414
_publ_section_title
;
Structure prediction by ZEFSAII (Michael W. Deem and Ramdas Pophale) SiO2 
 PCOD9155414
Probable space group: P 2/M
;
_chemical_formula_sum "Si O2"
_cell_formula_units_Z 28
_cell_length_a 9.000000
_cell_length_b 9.000000
_cell_length_c 30.000000
_cell_angle_alpha 90.000000
_cell_angle_beta 140.000000
_cell_angle_gamma 90.000000
_cell_volume 1561.973892
_symmetry_space_group_name_H-M "P 2/M"
_symmetry_group_IT_number 10
_symmetry_cell_setting 'monoclinic'
loop_
_space_group_symop_operation_xyz
x,y,z
-x,y,-z
-x,-y,-z
x,-y,z
loop_
_atom_site_type_symbol
_atom_site_label
_atom_site_fract_x
_atom_site_fract_y
_atom_site_fract_z
Si Si1 0.025601 0.826455 0.282458
Si Si2 0.399714 0.678280 0.427964
Si Si3 0.824183 0.823646 0.000652
Si Si4 0.270361 0.821517 0.569518
Si Si5 0.019123 0.675761 0.135564
Si Si6 0.621404 0.827718 0.720952
Si Si7 0.334812 0.323322 0.863214
O O1 0.797601 0.747673 0.209865
O O2 0.158883 0.750985 0.354831
O O3 0.206170 0.819023 0.282256
O O4 0.981384 0.000000 0.281655
O O5 0.500000 0.719373 0.500000
O O6 0.375827 0.500000 0.420936
O O7 0.587453 0.734565 0.435276
O O8 0.932511 0.755306 0.070751
O O9 0.789807 0.000000 0.999218
O O10 0.580871 0.749051 0.931265
O O11 0.000000 0.801504 0.000000
O O12 0.377082 0.780843 0.642643
O O13 0.000000 0.794262 0.500000
O O14 0.311467 0.000000 0.574047
O O15 0.037340 0.500000 0.131671
O O16 0.258616 0.736676 0.211852
O O17 0.829130 0.699723 0.131061
O O18 0.606669 0.000000 0.731308
O O19 0.358851 0.500000 0.862052
#
# Coordination Sequence:
#
# PCOD9155414 Si02
#       7
#     4   4   4   4   4   4   4
#     4   9  17  31  53  78 103 135 174 214 257 302
#     4  10  20  33  50  75 107 141 176 215 260 308
#     4  11  24  39  54  75 105 140 175 210 253 305
#     4   9  18  33  53  77 104 136 175 217 262 311
#     4  10  20  34  55  81 104 131 170 213 258 308
#     4   8  15  29  50  75 102 132 168 212 257 301
#     4  10  20  35  57  83 107 132 168 213 259 308
#
# _framework density 17.926036
#
# number of rings (size 3 to 8) (size 9 to 14) (size 15 to 20)
#    0.000    2.429    0.000    3.429    0.000    9.429 
#    0.000    1.429    0.000    5.143    0.000    0.000 
#    0.000    0.000    0.000    0.000    0.000    0.000 
#
# Total GULP energy -156149.781630 kJ/mol
# GULP energy per Si atom -5576.777915 kJ/mol
# Density = 1.788524 g / cm^3
# Si number density = 17.926036 Si / 1000 Ang^3
#
#
#
# Elastic Constant Matrix: (Units=GPa)
#
#
# Indices 1 2 3 4 5 6 
#
# 1 29.1894 44.3684 53.4680 0.0000 -5.3898 0.0000
# 2 44.3684 112.7078 104.8304 0.0000 -9.8528 0.0000
# 3 53.4680 104.8304 237.9501 0.0000 -9.6696 0.0000
# 4 0.0000 0.0000 0.0000 41.3971 0.0000 -3.6797
# 5 -5.3898 -9.8528 -9.6696 0.0000 28.4794 0.0000
# 6 0.0000 0.0000 0.0000 -3.6797 0.0000 18.3671
#
#
#
# Elastic Compliance Matrix: (Units=1/GPa)
#
#
# Indices 1 2 3 4 5 6 
#
# 1 0.094468 -0.029133 -0.008188 0.000000 0.005019 0.000000
# 2 -0.029133 0.024273 -0.004086 0.000000 0.001496 0.000000
# 3 -0.008188 -0.004086 0.007830 0.000000 -0.000305 0.000000
# 4 0.000000 0.000000 0.000000 0.024594 0.000000 0.004927
# 5 0.005019 0.001496 -0.000305 0.000000 0.036477 0.000000
# 6 0.000000 0.000000 0.000000 0.004927 0.000000 0.055432
#
#
# Mechanical properties :
#
#
# Convention : Reuss Voigt Hill
#
# Bulk Modulus (GPa) = 22.85445 87.24232 55.04839
# Shear Modulus (GPa) = 14.68530 29.46074 22.07302
#
# Velocity S-wave (km/s) = 2.86530 4.05836 3.51285
# Velocity P-wave (km/s) = 4.87069 8.41035 6.87232
#
# Compressibility (1/GPa) = 0.04375515
#
# Stress axis : x y z
#
# Youngs Moduli (GPa) = 10.58555 41.19865 127.70761
#
# Poissons Ratio (x) = 1.20026 1.04573
# Poissons Ratio (y) = 0.30839 0.52185
# Poissons Ratio (z) = 0.08668 0.16835
#
# Static dielectric constant tensor:
#      x y z
#    x 1.604660 0.000000 0.013900 
#    y 0.000000 1.607570 0.000000 
#    z 0.013900 0.000000 1.621110 
# 
# From -- ./inp_files/37286.got.cif
#   From: 2010.05.17/outbox.ucp.g08.bks.cvg/sg10_19_cif.got.tgz:37286.got - 2010.06.11 11:31:16.
