data_PCOD9155742
_publ_section_title
;
Structure prediction by ZEFSAII (Michael W. Deem and Ramdas Pophale) SiO2 
 PCOD9155742
Probable space group: P 21/M
;
_chemical_formula_sum "Si O2"
_cell_formula_units_Z 20
_cell_length_a 7.175056
_cell_length_b 13.898782
_cell_length_c 9.465415
_cell_angle_alpha 90.000000
_cell_angle_beta 63.021457
_cell_angle_gamma 90.000000
_cell_volume 841.211911
_symmetry_space_group_name_H-M "P 21/M"
_symmetry_group_IT_number 11
_symmetry_cell_setting 'monoclinic'
loop_
_space_group_symop_operation_xyz
x,y,z
-x,1/2+y,-z
-x,-y,-z
x,1/2-y,z
loop_
_atom_site_type_symbol
_atom_site_label
_atom_site_fract_x
_atom_site_fract_y
_atom_site_fract_z
Si Si1 0.577930 0.250000 0.534635
Si Si2 0.461700 0.414158 0.769086
Si Si3 0.325523 0.750000 0.120268
Si Si4 0.813535 0.935505 0.627273
Si Si5 0.115275 0.362569 0.080274
Si Si6 0.277970 0.750000 0.823273
Si Si7 0.978585 0.750000 0.440244
O O1 0.465573 0.344593 0.632880
O O2 0.597725 0.250000 0.362357
O O3 0.814994 0.250000 0.524155
O O4 0.589636 0.347808 0.838157
O O5 0.594156 0.509022 0.694714
O O6 0.236832 0.421045 0.918597
O O7 0.079687 0.750000 0.249343
O O8 0.382404 0.750000 0.937845
O O9 0.841252 0.840645 0.526391
O O10 0.853044 0.908223 0.777362
O O11 0.000000 0.000000 0.500000
O O12 0.195191 0.250000 0.052699
O O13 0.873558 0.343273 0.130680
#
# Coordination Sequence:
#
# PCOD9155742 Si02
#       7
#     2   4   2   4   4   2   2
#     4  10  15  33  56  76 104 146 188 216 264 341
#     4  10  20  34  60  83 110 140 194 233 274 314
#     4  10  19  33  56  88 110 142 184 240 267 322
#     4  12  18  32  61  87 104 145 194 237 258 330
#     4  10  19  35  56  80 114 148 181 221 281 332
#     4  10  18  33  58  77 116 152 179 219 284 328
#     4  10  18  33  54  83 108 136 197 227 269 311
#
# _framework density 23.775224000000001
#
# number of rings (size 3 to 8) (size 9 to 14) (size 15 to 20)
#    0.600    1.200    9.000    0.600    0.000    0.000 
#    0.000    1.000    8.800    1.200    0.000    0.000 
#    0.000    0.000    0.000    0.000    0.000    0.000 
#
# Total GULP energy -111852.876372 kJ/mol
# GULP energy per Si atom -5592.643819 kJ/mol
# Density = 2.372111 g / cm^3
# Si number density = 23.775224 Si / 1000 Ang^3
#
#
#
# Elastic Constant Matrix: (Units=GPa)
#
#
# Indices 1 2 3 4 5 6 
#
# 1 56.1362 9.0231 32.0751 0.0000 -6.9137 0.0000
# 2 9.0231 91.4070 15.3575 0.0000 -5.3443 0.0000
# 3 32.0751 15.3575 164.8534 0.0000 0.0763 0.0000
# 4 0.0000 0.0000 0.0000 21.1357 0.0000 -16.6190
# 5 -6.9137 -5.3443 0.0763 0.0000 32.6460 0.0000
# 6 0.0000 0.0000 0.0000 -16.6190 0.0000 2.8869
#
#
#
# Elastic Compliance Matrix: (Units=1/GPa)
#
#
# Indices 1 2 3 4 5 6 
#
# 1 0.020766 -0.001142 -0.003936 0.000000 0.004220 0.000000
# 2 -0.001142 0.011286 -0.000830 0.000000 0.001608 0.000000
# 3 -0.003936 -0.000830 0.006910 0.000000 -0.000986 0.000000
# 4 0.000000 0.000000 0.000000 -0.013417 0.000000 -0.077235
# 5 0.004220 0.001608 -0.000986 0.000000 0.031791 0.000000
# 6 0.000000 0.000000 0.000000 -0.077235 0.000000 -0.098227
#
#
# Mechanical properties :
#
#
# Convention : Reuss Voigt Hill
#
# Bulk Modulus (GPa) = 36.83756 47.25647 42.04702
# Shear Modulus (GPa) = -249.66905 28.39645 -110.63630
#
# Velocity S-wave (km/s) = -10.25867 3.45972 -6.82900
# Velocity P-wave (km/s) = 11.17106 5.98991 6.66759
#
# Compressibility (1/GPa) = 0.02714620
#
# Stress axis : x y z
#
# Youngs Moduli (GPa) = 48.15557 88.60345 144.72649
#
# Poissons Ratio (x) = 0.10117 0.56964
# Poissons Ratio (y) = 0.05499 0.12012
# Poissons Ratio (z) = 0.18954 0.07354
#
# Static dielectric constant tensor:
#      x y z
#    x 1.961320 0.000000 -0.032580 
#    y 0.000000 1.764900 0.000000 
#    z -0.032580 0.000000 1.872430 
# 
# From -- ./inp_files/12297.got.cif
#   From: 2010.05.17/outbox.cif.g08.bks.cpg/sg11_7_cif.got.tgz:12297.got - 2010.06.03 12:22:45.
