data_PCOD9155394
_publ_section_title
;
Structure prediction by ZEFSAII (Michael W. Deem and Ramdas Pophale) SiO2 
 PCOD9155394
Probable space group: P 2/M
;
_chemical_formula_sum "Si O2"
_cell_formula_units_Z 32
_cell_length_a 15.000000
_cell_length_b 9.000000
_cell_length_c 12.000000
_cell_angle_alpha 90.000000
_cell_angle_beta 90.000000
_cell_angle_gamma 90.000000
_cell_volume 1620.000000
_symmetry_space_group_name_H-M "P 2/M"
_symmetry_group_IT_number 10
_symmetry_cell_setting 'monoclinic'
loop_
_space_group_symop_operation_xyz
x,y,z
-x,y,-z
-x,-y,-z
x,-y,z
loop_
_atom_site_type_symbol
_atom_site_label
_atom_site_fract_x
_atom_site_fract_y
_atom_site_fract_z
Si Si1 0.032516 0.833170 0.625763
Si Si2 0.213131 0.675366 0.901153
Si Si3 0.463399 0.320856 0.379102
Si Si4 0.225120 0.829813 0.539565
Si Si5 0.991495 0.328148 0.162943
Si Si6 0.263541 0.323372 0.323343
Si Si7 0.168247 0.825873 0.115435
Si Si8 0.647699 0.675985 0.294950
O O1 0.139024 0.822127 0.618121
O O2 0.000000 0.820319 0.500000
O O3 0.994573 0.711162 0.707516
O O4 0.008376 0.000000 0.666197
O O5 0.215346 0.500000 0.930349
O O6 0.291020 0.701805 0.812264
O O7 0.112525 0.705776 0.857729
O O8 0.223681 0.776350 0.008229
O O9 0.500000 0.269051 0.500000
O O10 0.454632 0.500000 0.388833
O O11 0.365710 0.268430 0.342880
O O12 0.542698 0.290954 0.291345
O O13 0.212523 0.723908 0.434879
O O14 0.309247 0.772193 0.607431
O O15 0.234523 0.000000 0.502396
O O16 0.006504 0.500000 0.138406
O O17 0.067668 0.236055 0.101473
O O18 0.264034 0.500000 0.309038
O O19 0.214916 0.248695 0.220629
O O20 0.164994 0.000000 0.128762
O O21 0.656552 0.500000 0.323509
#
# Coordination Sequence:
#
# PCOD9155394 Si02
#       8
#     4   4   4   4   4   4   4   4
#     4  10  21  35  51  77 119 163 197 236 289 350
#     4  10  22  40  63  89 118 154 203 252 292 344
#     4   9  17  33  62  94 120 150 195 244 295 353
#     4  11  21  33  54  86 124 159 193 237 294 354
#     4  11  22  38  62  90 116 150 201 252 292 344
#     4  11  22  39  63  88 119 157 200 250 297 350
#     4  12  26  42  60  84 119 160 200 245 302 360
#     4  10  19  37  62  89 119 153 195 244 293 346
#
# _framework density 19.753086
#
# number of rings (size 3 to 8) (size 9 to 14) (size 15 to 20)
#    0.000    1.500    2.500    3.375    0.000    4.750 
#    0.000    2.500    0.000    3.750    0.000    0.000 
#    0.000    0.000    0.000    0.000    0.000    0.000 
#
# Total GULP energy -178621.267661 kJ/mol
# GULP energy per Si atom -5581.914614 kJ/mol
# Density = 1.970813 g / cm^3
# Si number density = 19.753086 Si / 1000 Ang^3
#
#
#
# Elastic Constant Matrix: (Units=GPa)
#
#
# Indices 1 2 3 4 5 6 
#
# 1 79.9475 41.6237 30.2410 0.0000 -11.8770 0.0000
# 2 41.6237 44.3610 63.4298 0.0000 -9.5555 0.0000
# 3 30.2410 63.4298 58.3407 0.0000 -2.5776 0.0000
# 4 0.0000 0.0000 0.0000 35.7409 0.0000 -2.9740
# 5 -11.8770 -9.5555 -2.5776 0.0000 20.3471 0.0000
# 6 0.0000 0.0000 0.0000 -2.9740 0.0000 11.6839
#
#
#
# Elastic Compliance Matrix: (Units=1/GPa)
#
#
# Indices 1 2 3 4 5 6 
#
# 1 0.016723 0.003255 -0.011774 0.000000 0.009799 0.000000
# 2 0.003255 -0.036602 0.037643 0.000000 -0.010521 0.000000
# 3 -0.011774 0.037643 -0.017303 0.000000 0.008614 0.000000
# 4 0.000000 0.000000 0.000000 0.028585 0.000000 0.007276
# 5 0.009799 -0.010521 0.008614 0.000000 0.051017 0.000000
# 6 0.000000 0.000000 0.000000 0.007276 0.000000 0.087440
#
#
# Mechanical properties :
#
#
# Convention : Reuss Voigt Hill
#
# Bulk Modulus (GPa) = 47.47006 50.35979 48.91493
# Shear Modulus (GPa) = 63.58648 16.71135 40.14892
#
# Velocity S-wave (km/s) = 5.67984 2.91178 4.51326
# Velocity P-wave (km/s) = 8.19133 6.07080 7.20946
#
# Compressibility (1/GPa) = 0.02106591
#
# Stress axis : x y z
#
# Youngs Moduli (GPa) = 59.79764 -27.32059 -57.79397
#
# Poissons Ratio (x) = 0.08892 -0.68047
# Poissons Ratio (y) = -0.19462 2.17557
# Poissons Ratio (z) = 0.70406 1.02844
#
# Static dielectric constant tensor:
#      x y z
#    x 1.705540 0.000000 -0.004990 
#    y 0.000000 1.667430 0.000000 
#    z -0.004990 0.000000 1.724340 
# 
# From -- ./inp_files/49948.got.cif
#   From: 2010.05.17/outbox.ucp.g08.bks.cvg/sg10_25_cif.got.tgz:49948.got - 2010.06.11 11:31:16.
