data_PCOD9155520
_publ_section_title
;
Structure prediction by ZEFSAII (Michael W. Deem and Ramdas Pophale) SiO2 
 PCOD9155520
Probable space group: P 2/M
;
_chemical_formula_sum "Si O2"
_cell_formula_units_Z 24
_cell_length_a 24.000000
_cell_length_b 9.000000
_cell_length_c 12.000000
_cell_angle_alpha 90.000000
_cell_angle_beta 30.000000
_cell_angle_gamma 90.000000
_cell_volume 1296.000000
_symmetry_space_group_name_H-M "P 2/M"
_symmetry_group_IT_number 10
_symmetry_cell_setting 'monoclinic'
loop_
_space_group_symop_operation_xyz
x,y,z
-x,y,-z
-x,-y,-z
x,-y,z
loop_
_atom_site_type_symbol
_atom_site_label
_atom_site_fract_x
_atom_site_fract_y
_atom_site_fract_z
Si Si1 0.735404 0.178584 0.351589
Si Si2 0.611650 0.674076 0.363867
Si Si3 0.165543 0.673370 0.163904
Si Si4 0.367413 0.820173 0.230224
Si Si5 0.816303 0.678792 0.605920
Si Si6 0.954070 0.821631 0.835518
O O1 0.650404 0.241340 0.406835
O O2 0.693524 0.222877 0.547258
O O3 0.733532 0.000000 0.351841
O O4 0.858991 0.222659 0.091497
O O5 0.500000 0.732431 0.500000
O O6 0.594763 0.500000 0.421130
O O7 0.711380 0.682624 0.101978
O O8 0.129055 0.500000 0.220542
O O9 0.171106 0.716637 0.283930
O O10 0.090418 0.768632 0.209173
O O11 0.294812 0.746162 0.257561
O O12 0.361191 0.000000 0.230717
O O13 0.500000 0.781074 0.000000
O O14 0.814620 0.500000 0.600229
O O15 0.926031 0.745819 0.356065
O O16 0.964973 0.000000 0.818939
#
# Coordination Sequence:
#
# PCOD9155520 Si02
#       6
#     4   4   4   4   4   4
#     4   9  20  38  57  80 110 144 183 231 279 322
#     4   9  18  32  54  81 109 145 184 223 272 329
#     4   9  19  35  53  81 118 148 179 226 279 328
#     4  10  23  42  60  80 110 148 189 232 277 327
#     4  11  23  37  57  84 115 150 186 227 277 330
#     4  10  20  36  59  85 113 145 185 230 278 331
#
# _framework density 18.518519000000001
#
# number of rings (size 3 to 8) (size 9 to 14) (size 15 to 20)
#    0.000    2.333    0.000    1.500    2.333    6.000 
#    0.000    3.333    0.000    0.000    0.000    0.000 
#    0.000    0.000    0.000    0.000    0.000    0.000 
#
# Total GULP energy -133937.485681 kJ/mol
# GULP energy per Si atom -5580.728570 kJ/mol
# Density = 1.847637 g / cm^3
# Si number density = 18.518519 Si / 1000 Ang^3
#
#
#
# Elastic Constant Matrix: (Units=GPa)
#
#
# Indices 1 2 3 4 5 6 
#
# 1 72.8675 25.8793 60.5966 0.0000 -5.4300 0.0000
# 2 25.8793 33.5982 33.4048 0.0000 -4.3284 0.0000
# 3 60.5966 33.4048 98.6938 0.0000 -5.5731 0.0000
# 4 0.0000 0.0000 0.0000 70.7421 0.0000 -25.9560
# 5 -5.4300 -4.3284 -5.5731 0.0000 42.5098 0.0000
# 6 0.0000 0.0000 0.0000 -25.9560 0.0000 44.5684
#
#
#
# Elastic Compliance Matrix: (Units=1/GPa)
#
#
# Indices 1 2 3 4 5 6 
#
# 1 0.029137 -0.006910 -0.015495 0.000000 0.000987 0.000000
# 2 -0.006910 0.046785 -0.011458 0.000000 0.002379 0.000000
# 3 -0.015495 -0.011458 0.023521 0.000000 -0.000062 0.000000
# 4 0.000000 0.000000 0.000000 0.017977 0.000000 0.010470
# 5 0.000987 0.002379 -0.000062 0.000000 0.023884 0.000000
# 6 0.000000 0.000000 0.000000 0.010470 0.000000 0.028535
#
#
# Mechanical properties :
#
#
# Convention : Reuss Voigt Hill
#
# Bulk Modulus (GPa) = 31.52992 49.43564 40.48278
# Shear Modulus (GPa) = 20.15016 37.24933 28.69974
#
# Velocity S-wave (km/s) = 3.30223 4.48980 3.94100
# Velocity P-wave (km/s) = 5.62163 7.32331 6.52816
#
# Compressibility (1/GPa) = 0.03171591
#
# Stress axis : x y z
#
# Youngs Moduli (GPa) = 34.32075 21.37453 42.51544
#
# Poissons Ratio (x) = 0.14770 0.65878
# Poissons Ratio (y) = 0.23715 0.48715
# Poissons Ratio (z) = 0.53180 0.24491
#
# Static dielectric constant tensor:
#      x y z
#    x 1.618350 0.000000 -0.001050 
#    y 0.000000 1.624170 0.000000 
#    z -0.001050 0.000000 1.660480 
# 
# From -- ./inp_files/56529.got.cif
#   From: 2010.05.17/outbox.ucp.g08.bks.cvg/sg10_29_cif.got.tgz:56529.got - 2010.06.11 11:31:16.
