data_PCOD9155493
_publ_section_title
;
Structure prediction by ZEFSAII (Michael W. Deem and Ramdas Pophale) SiO2 
 PCOD9155493
Probable space group: P 2/M
;
_chemical_formula_sum "Si O2"
_cell_formula_units_Z 32
_cell_length_a 12.000000
_cell_length_b 9.000000
_cell_length_c 30.000000
_cell_angle_alpha 90.000000
_cell_angle_beta 30.000000
_cell_angle_gamma 90.000000
_cell_volume 1620.000000
_symmetry_space_group_name_H-M "P 2/M"
_symmetry_group_IT_number 10
_symmetry_cell_setting 'monoclinic'
loop_
_space_group_symop_operation_xyz
x,y,z
-x,y,-z
-x,-y,-z
x,-y,z
loop_
_atom_site_type_symbol
_atom_site_label
_atom_site_fract_x
_atom_site_fract_y
_atom_site_fract_z
Si Si1 0.545930 0.677167 0.286217
Si Si2 0.893472 0.677528 0.398801
Si Si3 0.147099 0.667423 0.692952
Si Si4 0.383288 0.173322 0.925968
Si Si5 0.009368 0.169104 0.122464
Si Si6 0.409693 0.321182 0.233088
Si Si7 0.694639 0.737332 0.900027
Si Si8 0.567879 0.176107 0.584763
O O1 0.519786 0.500000 0.298640
O O2 0.803503 0.723861 0.202767
O O3 0.485962 0.724063 0.256343
O O4 0.407819 0.752534 0.374286
O O5 0.868577 0.500000 0.414139
O O6 0.858482 0.703904 0.357940
O O7 0.730057 0.758173 0.490224
O O8 0.149811 0.719581 0.318799
O O9 0.240573 0.500000 0.665109
O O10 0.316640 0.780654 0.657023
O O11 0.903861 0.664515 0.800836
O O12 0.457258 0.256775 0.855537
O O13 0.560583 0.191795 0.905111
O O14 0.365673 0.000000 0.921360
O O15 0.151364 0.219628 0.030017
O O16 0.174632 0.168654 0.107775
O O17 0.930537 0.000000 0.142711
O O18 0.426725 0.500000 0.224547
O O19 0.500000 0.665527 0.000000
O O20 0.594510 0.000000 0.578119
#
# Coordination Sequence:
#
# PCOD9155493 Si02
#       8
#     4   4   4   4   4   4   4   4
#     4  11  24  42  64  88 118 160 209 256 307 360
#     4  10  22  43  66  89 122 159 201 252 306 364
#     4  11  22  39  65  95 128 163 200 244 299 361
#     4  10  21  37  61  92 127 166 203 247 303 364
#     4  10  21  38  60  90 128 167 204 245 300 362
#     4  10  23  43  64  88 119 160 208 257 305 359
#     4  10  20  35  61  97 132 163 199 240 297 359
#     4  12  26  42  63  92 125 157 199 252 309 371
#
# _framework density 19.753086
#
# number of rings (size 3 to 8) (size 9 to 14) (size 15 to 20)
#    0.000    1.500    2.500    2.250    0.000    7.250 
#    0.000    7.500    0.000    0.000    0.000    0.000 
#    0.000    0.000    0.000    0.000    0.000    0.000 
#
# Total GULP energy -178472.341118 kJ/mol
# GULP energy per Si atom -5577.260660 kJ/mol
# Density = 1.970813 g / cm^3
# Si number density = 19.753086 Si / 1000 Ang^3
#
#
#
# Elastic Constant Matrix: (Units=GPa)
#
#
# Indices 1 2 3 4 5 6 
#
# 1 103.6385 32.9705 39.9549 0.0000 36.2190 0.0000
# 2 32.9705 69.5224 47.0812 0.0000 20.6985 0.0000
# 3 39.9549 47.0812 143.2086 0.0000 47.8184 0.0000
# 4 0.0000 0.0000 0.0000 32.7989 0.0000 10.1422
# 5 36.2190 20.6985 47.8184 0.0000 38.1576 0.0000
# 6 0.0000 0.0000 0.0000 10.1422 0.0000 14.6323
#
#
#
# Elastic Compliance Matrix: (Units=1/GPa)
#
#
# Indices 1 2 3 4 5 6 
#
# 1 0.015427 -0.004286 0.002095 0.000000 -0.014943 0.000000
# 2 -0.004286 0.020084 -0.005378 0.000000 -0.000087 0.000000
# 3 0.002095 -0.005378 0.013509 0.000000 -0.016000 0.000000
# 4 0.000000 0.000000 0.000000 0.038806 0.000000 -0.026898
# 5 -0.014943 -0.000087 -0.016000 0.000000 0.060490 0.000000
# 6 0.000000 0.000000 0.000000 -0.026898 0.000000 0.086986
#
#
# Mechanical properties :
#
#
# Convention : Reuss Voigt Hill
#
# Bulk Modulus (GPa) = 29.51412 61.82030 45.66721
# Shear Modulus (GPa) = 19.10323 30.20862 24.65592
#
# Velocity S-wave (km/s) = 3.11320 3.91488 3.53683
# Velocity P-wave (km/s) = 5.28173 7.19719 6.31253
#
# Compressibility (1/GPa) = 0.03388208
#
# Stress axis : x y z
#
# Youngs Moduli (GPa) = 64.82066 49.79009 74.02387
#
# Poissons Ratio (x) = 0.21338 -0.15505
# Poissons Ratio (y) = 0.27780 0.39811
# Poissons Ratio (z) = -0.13577 0.26778
#
# Static dielectric constant tensor:
#      x y z
#    x 1.707950 0.000000 -0.009880 
#    y 0.000000 1.686400 0.000000 
#    z -0.009880 0.000000 1.694480 
# 
# From -- ./inp_files/95003.got.cif
#   From: 2010.05.17/outbox.ucp.g08.bks.cvg/sg10_48_cif.got.tgz:95003.got - 2010.06.11 11:31:16.
