data_PCOD9155416
_publ_section_title
;
Structure prediction by ZEFSAII (Michael W. Deem and Ramdas Pophale) SiO2 
 PCOD9155416
Probable space group: P 2/M
;
_chemical_formula_sum "Si O2"
_cell_formula_units_Z 32
_cell_length_a 21.000000
_cell_length_b 9.000000
_cell_length_c 12.000000
_cell_angle_alpha 90.000000
_cell_angle_beta 130.000000
_cell_angle_gamma 90.000000
_cell_volume 1737.388797
_symmetry_space_group_name_H-M "P 2/M"
_symmetry_group_IT_number 10
_symmetry_cell_setting 'monoclinic'
loop_
_space_group_symop_operation_xyz
x,y,z
-x,y,-z
-x,-y,-z
x,-y,z
loop_
_atom_site_type_symbol
_atom_site_label
_atom_site_fract_x
_atom_site_fract_y
_atom_site_fract_z
Si Si1 0.286939 0.831092 0.028774
Si Si2 0.881125 0.674421 0.540909
Si Si3 0.815414 0.178071 0.865078
Si Si4 0.399840 0.318783 0.756907
Si Si5 0.877958 0.829358 0.298497
Si Si6 0.591424 0.322654 0.987877
Si Si7 0.739065 0.676321 0.557647
Si Si8 0.952307 0.323784 0.165264
O O1 0.215803 0.830018 0.853557
O O2 0.316825 0.000000 0.073867
O O3 0.246528 0.786587 0.100898
O O4 0.357147 0.727480 0.059957
O O5 0.891934 0.500000 0.523635
O O6 0.886348 0.766196 0.432387
O O7 0.795936 0.692406 0.511373
O O8 0.950480 0.710682 0.712435
O O9 0.779171 0.243326 0.709531
O O10 0.822497 0.000000 0.865435
O O11 0.902447 0.243874 0.010005
O O12 0.394246 0.500000 0.747928
O O13 0.496259 0.275115 0.864947
O O14 0.348906 0.268014 0.591191
O O15 0.372189 0.270935 0.850993
O O16 0.921562 0.730023 0.252830
O O17 0.908358 0.000000 0.327636
O O18 0.590847 0.500000 0.993777
O O19 0.734873 0.500000 0.579610
O O20 0.940077 0.500000 0.139526
#
# Coordination Sequence:
#
# PCOD9155416 Si02
#       8
#     4   4   4   4   4   4   4   4
#     4   9  19  34  50  72 102 133 168 210 251 296
#     4  10  21  34  52  79 105 132 170 214 258 307
#     4  10  22  39  54  71  99 135 176 217 256 303
#     4   8  16  31  52  80 109 132 159 202 251 299
#     4  10  20  33  51  77 109 140 170 207 253 306
#     4   9  16  30  55  82 105 131 164 201 246 302
#     4  10  20  36  55  74 101 136 173 213 257 303
#     4  10  20  35  54  76 103 134 170 213 260 305
#
# _framework density 18.418444999999998
#
# number of rings (size 3 to 8) (size 9 to 14) (size 15 to 20)
#    0.000    2.500    0.000    3.750    0.000    7.500 
#    0.000    5.625    0.000    3.750    0.000    0.000 
#    0.000    0.000    0.000    0.000    0.000    0.000 
#
# Total GULP energy -178238.183685 kJ/mol
# GULP energy per Si atom -5569.943240 kJ/mol
# Density = 1.837652 g / cm^3
# Si number density = 18.418445 Si / 1000 Ang^3
#
#
#
# Elastic Constant Matrix: (Units=GPa)
#
#
# Indices 1 2 3 4 5 6 
#
# 1 13.8047 8.7322 14.5476 0.0000 9.2226 0.0000
# 2 8.7322 25.7101 32.4385 0.0000 2.4798 0.0000
# 3 14.5476 32.4385 136.2360 0.0000 -11.4147 0.0000
# 4 0.0000 0.0000 0.0000 25.8563 0.0000 -2.9217
# 5 9.2226 2.4798 -11.4147 0.0000 13.0636 0.0000
# 6 0.0000 0.0000 0.0000 -2.9217 0.0000 55.7820
#
#
#
# Elastic Compliance Matrix: (Units=1/GPa)
#
#
# Indices 1 2 3 4 5 6 
#
# 1 0.311803 -0.015550 -0.051564 0.000000 -0.262229 0.000000
# 2 -0.015550 0.064248 -0.014825 0.000000 -0.014171 0.000000
# 3 -0.051564 -0.014825 0.021215 0.000000 0.057754 0.000000
# 4 0.000000 0.000000 0.000000 0.038905 0.000000 0.002038
# 5 -0.262229 -0.014171 0.057754 0.000000 0.314831 0.000000
# 6 0.000000 0.000000 0.000000 0.002038 0.000000 0.018034
#
#
# Mechanical properties :
#
#
# Convention : Reuss Voigt Hill
#
# Bulk Modulus (GPa) = 4.28470 31.90970 18.09720
# Shear Modulus (GPa) = 4.94702 26.94255 15.94478
#
# Velocity S-wave (km/s) = 1.64065 3.82881 2.94546
# Velocity P-wave (km/s) = 2.43317 6.07527 4.62759
#
# Compressibility (1/GPa) = 0.23338880
#
# Stress axis : x y z
#
# Youngs Moduli (GPa) = 3.20715 15.56479 47.13618
#
# Poissons Ratio (x) = 0.24204 2.43052
# Poissons Ratio (y) = 0.04987 0.69877
# Poissons Ratio (z) = 0.16537 0.23074
#
# Static dielectric constant tensor:
#      x y z
#    x 1.663340 0.000000 0.054030 
#    y 0.000000 1.633280 0.000000 
#    z 0.054030 0.000000 1.638990 
# 
# From -- ./inp_files/55337.got.cif
#   From: 2010.05.17/outbox.ucp.g08.bks.cvg/sg10_28_cif.got.tgz:55337.got - 2010.06.11 11:31:16.
