data_PCOD9155276
_publ_section_title
;
Structure prediction by ZEFSAII (Michael W. Deem and Ramdas Pophale) SiO2 
 PCOD9155276
Probable space group: P 2/M
;
_chemical_formula_sum "Si O2"
_cell_formula_units_Z 28
_cell_length_a 15.000000
_cell_length_b 9.000000
_cell_length_c 18.000000
_cell_angle_alpha 90.000000
_cell_angle_beta 40.000000
_cell_angle_gamma 90.000000
_cell_volume 1561.973892
_symmetry_space_group_name_H-M "P 2/M"
_symmetry_group_IT_number 10
_symmetry_cell_setting 'monoclinic'
loop_
_space_group_symop_operation_xyz
x,y,z
-x,y,-z
-x,-y,-z
x,-y,z
loop_
_atom_site_type_symbol
_atom_site_label
_atom_site_fract_x
_atom_site_fract_y
_atom_site_fract_z
Si Si1 0.141857 0.679472 0.365323
Si Si2 0.240501 0.323560 0.564621
Si Si3 0.394740 0.676297 0.311581
Si Si4 0.326291 0.820580 0.826029
Si Si5 0.939578 0.178621 0.734990
Si Si6 0.245988 0.179779 0.713836
Si Si7 0.922777 0.179588 0.912189
O O1 0.141705 0.500000 0.358157
O O2 0.275692 0.722707 0.328980
O O3 0.136148 0.752351 0.287772
O O4 0.000000 0.719494 0.500000
O O5 0.216812 0.500000 0.588441
O O6 0.336373 0.300753 0.432008
O O7 0.296961 0.254937 0.605320
O O8 0.095734 0.242505 0.638168
O O9 0.416352 0.500000 0.287517
O O10 0.539819 0.760507 0.216887
O O11 0.320126 0.776161 0.743108
O O12 0.327680 0.000000 0.826130
O O13 0.187213 0.768275 0.956974
O O14 0.881406 0.219078 0.853990
O O15 0.942983 0.000000 0.726933
O O16 0.082470 0.222894 0.824303
O O17 0.253291 0.000000 0.701528
O O18 0.923393 0.000000 0.915419
#
# Coordination Sequence:
#
# PCOD9155276 Si02
#       7
#     4   4   4   4   4   4   4
#     4  10  19  36  57  76 103 140 176 209 257 317
#     4  10  19  34  53  75 106 143 175 209 262 316
#     4  10  22  37  52  73 106 142 175 212 256 314
#     4  10  20  35  55  76 104 142 177 214 261 309
#     4  10  19  32  55  85 108 128 169 224 264 301
#     4   9  18  33  55  81 104 132 177 224 259 300
#     4   8  16  33  55  78 105 137 172 212 260 309
#
# _framework density 17.926036
#
# number of rings (size 3 to 8) (size 9 to 14) (size 15 to 20)
#    0.000    2.429    1.429    2.143    0.000    4.857 
#    0.000    7.143    0.000    8.571    0.000    0.000 
#    0.000    0.000    0.000    0.000    0.000    0.000 
#
# Total GULP energy -156154.471930 kJ/mol
# GULP energy per Si atom -5576.945426 kJ/mol
# Density = 1.788524 g / cm^3
# Si number density = 17.926036 Si / 1000 Ang^3
#
#
#
# Elastic Constant Matrix: (Units=GPa)
#
#
# Indices 1 2 3 4 5 6 
#
# 1 106.5442 14.5841 12.1337 0.0000 6.8983 0.0000
# 2 14.5841 18.2115 9.7300 0.0000 4.4248 0.0000
# 3 12.1337 9.7300 9.6675 0.0000 6.8087 0.0000
# 4 0.0000 0.0000 0.0000 36.6936 0.0000 17.7140
# 5 6.8983 4.4248 6.8087 0.0000 22.7462 0.0000
# 6 0.0000 0.0000 0.0000 17.7140 0.0000 49.1795
#
#
#
# Elastic Compliance Matrix: (Units=1/GPa)
#
#
# Indices 1 2 3 4 5 6 
#
# 1 0.011038 -0.002932 -0.011337 0.000000 0.000616 0.000000
# 2 -0.002932 0.124383 -0.133164 0.000000 0.016554 0.000000
# 3 -0.011337 -0.133164 0.292740 0.000000 -0.058284 0.000000
# 4 0.000000 0.000000 0.000000 0.032989 0.000000 -0.011882
# 5 0.000616 0.016554 -0.058284 0.000000 0.058003 0.000000
# 6 0.000000 0.000000 0.000000 -0.011882 0.000000 0.024614
#
#
# Mechanical properties :
#
#
# Convention : Reuss Voigt Hill
#
# Bulk Modulus (GPa) = 7.50216 23.03543 15.26880
# Shear Modulus (GPa) = 5.66210 28.25556 16.95883
#
# Velocity S-wave (km/s) = 1.77917 3.97448 3.07912
# Velocity P-wave (km/s) = 2.90082 5.82582 4.60190
#
# Compressibility (1/GPa) = 0.13329486
#
# Stress axis : x y z
#
# Youngs Moduli (GPa) = 90.59304 8.03968 3.41600
#
# Poissons Ratio (x) = 0.02358 0.03873
# Poissons Ratio (y) = 0.26566 0.45489
# Poissons Ratio (z) = 1.02705 1.07060
#
# Static dielectric constant tensor:
#      x y z
#    x 1.606310 0.000000 0.008780 
#    y 0.000000 1.603840 0.000000 
#    z 0.008780 0.000000 1.625390 
# 
# From -- ./inp_files/63504.got.cif
#   From: 2010.05.17/outbox.ucp.g08.bks.cvg/sg10_32_cif.got.tgz:63504.got - 2010.06.11 11:31:16.
