data_PCOD9155165
_publ_section_title
;
Structure prediction by ZEFSAII (Michael W. Deem and Ramdas Pophale) SiO2 
 PCOD9155165
Probable space group: P 2/M
;
_chemical_formula_sum "Si O2"
_cell_formula_units_Z 28
_cell_length_a 18.000000
_cell_length_b 9.000000
_cell_length_c 15.000000
_cell_angle_alpha 90.000000
_cell_angle_beta 140.000000
_cell_angle_gamma 90.000000
_cell_volume 1561.973892
_symmetry_space_group_name_H-M "P 2/M"
_symmetry_group_IT_number 10
_symmetry_cell_setting 'monoclinic'
loop_
_space_group_symop_operation_xyz
x,y,z
-x,y,-z
-x,-y,-z
x,-y,z
loop_
_atom_site_type_symbol
_atom_site_label
_atom_site_fract_x
_atom_site_fract_y
_atom_site_fract_z
Si Si1 0.948075 0.820691 0.750884
Si Si2 0.405280 0.822927 0.579543
Si Si3 0.237203 0.678853 0.554435
Si Si4 0.178342 0.321471 0.888514
Si Si5 0.774397 0.820192 0.739222
Si Si6 0.324205 0.822426 0.165573
Si Si7 0.869004 0.680243 0.357432
O O1 0.861046 0.757300 0.595970
O O2 0.891469 0.779366 0.794461
O O3 0.070215 0.748596 0.841825
O O4 0.953882 0.000000 0.751404
O O5 0.355333 0.736089 0.618829
O O6 0.329953 0.777815 0.423820
O O7 0.540669 0.800349 0.689836
O O8 0.385288 0.000000 0.574239
O O9 0.227458 0.500000 0.537638
O O10 0.213313 0.720488 0.635344
O O11 0.172732 0.500000 0.885816
O O12 0.169711 0.272835 0.776921
O O13 0.288165 0.261410 0.042969
O O14 0.749689 0.768690 0.816608
O O15 0.773154 0.000000 0.742762
O O16 0.304922 0.000000 0.136549
O O17 0.872685 0.500000 0.358863
O O18 0.000000 0.730759 0.500000
#
# Coordination Sequence:
#
# PCOD9155165 Si02
#       7
#     4   4   4   4   4   4   4
#     4  10  19  33  53  80 108 134 171 215 260 308
#     4   9  18  34  56  80 105 135 175 218 256 301
#     4  10  18  32  56  81 104 133 171 217 262 304
#     4  11  22  36  53  75 107 140 174 215 260 312
#     4   8  16  32  56  79 100 135 179 213 247 305
#     4  10  20  36  55  75 104 142 179 214 254 303
#     4   9  17  33  55  76 100 136 176 207 250 315
#
# _framework density 17.926036
#
# number of rings (size 3 to 8) (size 9 to 14) (size 15 to 20)
#    0.000    2.429    1.429    2.571    0.000    2.857 
#    0.000   10.714    0.000    8.571    0.000    0.000 
#    0.000    0.000    0.000    0.000    0.000    0.000 
#
# Total GULP energy -156126.426309 kJ/mol
# GULP energy per Si atom -5575.943797 kJ/mol
# Density = 1.788524 g / cm^3
# Si number density = 17.926036 Si / 1000 Ang^3
#
#
#
# Elastic Constant Matrix: (Units=GPa)
#
#
# Indices 1 2 3 4 5 6 
#
# 1 88.3203 15.9197 15.7382 0.0000 -27.2268 0.0000
# 2 15.9197 34.6969 6.0571 0.0000 -3.0238 0.0000
# 3 15.7382 6.0571 38.8167 0.0000 -22.3688 0.0000
# 4 0.0000 0.0000 0.0000 25.4437 0.0000 -0.3518
# 5 -27.2268 -3.0238 -22.3688 0.0000 26.6346 0.0000
# 6 0.0000 0.0000 0.0000 -0.3518 0.0000 23.2912
#
#
#
# Elastic Compliance Matrix: (Units=1/GPa)
#
#
# Indices 1 2 3 4 5 6 
#
# 1 0.019203 -0.008015 0.008241 0.000000 0.025641 0.000000
# 2 -0.008015 0.032987 -0.008645 0.000000 -0.011709 0.000000
# 3 0.008241 -0.008645 0.054375 0.000000 0.053109 0.000000
# 4 0.000000 0.000000 0.000000 0.039311 0.000000 0.000594
# 5 0.025641 -0.011709 0.053109 0.000000 0.107031 0.000000
# 6 0.000000 0.000000 0.000000 0.000594 0.000000 0.042944
#
#
# Mechanical properties :
#
#
# Convention : Reuss Voigt Hill
#
# Bulk Modulus (GPa) = 11.14488 26.36267 18.75377
# Shear Modulus (GPa) = 14.59439 23.34847 18.97143
#
# Velocity S-wave (km/s) = 2.85642 3.61292 3.25671
# Velocity P-wave (km/s) = 4.13636 5.66944 4.96246
#
# Compressibility (1/GPa) = 0.08972732
#
# Stress axis : x y z
#
# Youngs Moduli (GPa) = 52.07466 30.31470 18.39087
#
# Poissons Ratio (x) = 0.24297 -0.15156
# Poissons Ratio (y) = 0.41737 0.15899
# Poissons Ratio (z) = -0.42915 0.26208
#
# Static dielectric constant tensor:
#      x y z
#    x 1.631620 0.000000 0.010670 
#    y 0.000000 1.601990 0.000000 
#    z 0.010670 0.000000 1.621360 
# 
# From -- ./inp_files/68697.got.cif
#   From: 2010.05.17/outbox.ucp.g08.bks.cvg/sg10_35_cif.got.tgz:68697.got - 2010.06.11 11:31:16.
