data_PCOD9155752
_publ_section_title
;
Structure prediction by ZEFSAII (Michael W. Deem and Ramdas Pophale) SiO2 
 PCOD9155752
Probable space group: P 21/M
;
_chemical_formula_sum "Si O2"
_cell_formula_units_Z 28
_cell_length_a 29.878588
_cell_length_b 8.679341
_cell_length_c 9.256485
_cell_angle_alpha 90.000000
_cell_angle_beta 140.398231
_cell_angle_gamma 90.000000
_cell_volume 1530.162433
_symmetry_space_group_name_H-M "P 21/M"
_symmetry_group_IT_number 11
_symmetry_cell_setting 'monoclinic'
loop_
_space_group_symop_operation_xyz
x,y,z
-x,1/2+y,-z
-x,-y,-z
x,1/2-y,z
loop_
_atom_site_type_symbol
_atom_site_label
_atom_site_fract_x
_atom_site_fract_y
_atom_site_fract_z
Si Si1 0.355853 0.934526 0.797040
Si Si2 0.497963 0.066596 0.159408
Si Si3 0.932872 0.565512 0.749810
Si Si4 0.641356 0.566239 0.521945
Si Si5 0.795870 0.563874 0.899116
Si Si6 0.066961 0.436077 0.582522
Si Si7 0.799987 0.433785 0.584895
O O1 0.362288 0.750000 0.796586
O O2 0.278860 0.969238 0.668535
O O3 0.354609 0.012097 0.635252
O O4 0.425946 0.999417 0.045851
O O5 0.505198 0.750000 0.854698
O O6 0.571539 0.012430 0.411005
O O7 0.500000 0.000000 0.000000
O O8 0.935938 0.750000 0.761098
O O9 0.934465 0.513965 0.587294
O O10 0.861528 0.510902 0.647803
O O11 0.000000 0.500000 0.000000
O O12 0.632294 0.750000 0.505166
O O13 0.718893 0.524716 0.772083
O O14 0.797111 0.750000 0.885499
O O15 0.803559 0.490652 0.759688
O O16 0.860823 0.516467 0.159932
O O17 0.064373 0.250000 0.579402
O O18 0.000000 0.500000 0.500000
O O19 0.808700 0.250000 0.604717
#
# Coordination Sequence:
#
# PCOD9155752 Si02
#       7
#     4   4   4   4   4   4   4
#     4   9  16  26  40  61  92 127 162 201 241 286
#     4  10  16  22  35  58  91 127 162 200 241 287
#     4  11  23  38  56  77 103 132 165 203 246 296
#     4   9  15  24  40  62  90 125 161 199 244 291
#     4   9  18  33  52  73 100 133 169 207 250 298
#     4  10  22  38  55  77 101 129 164 203 246 294
#     4  10  20  33  51  76 104 133 168 207 250 296
#
# _framework density 18.298711999999998
#
# number of rings (size 3 to 8) (size 9 to 14) (size 15 to 20)
#    0.000    2.286    0.000    5.571    0.000    6.286 
#    0.000    0.000    0.000    0.000    0.000    1.000 
#    0.000    0.000    0.000    0.000    0.000    0.000 
#
# Total GULP energy -156100.119641 kJ/mol
# GULP energy per Si atom -5575.004273 kJ/mol
# Density = 1.825706 g / cm^3
# Si number density = 18.298712 Si / 1000 Ang^3
#
#
#
# Elastic Constant Matrix: (Units=GPa)
#
#
# Indices 1 2 3 4 5 6 
#
# 1 109.1202 38.5397 84.3170 0.0000 33.0184 0.0000
# 2 38.5397 63.5151 39.9150 0.0000 16.5243 0.0000
# 3 84.3170 39.9150 135.1411 0.0000 40.7614 0.0000
# 4 0.0000 0.0000 0.0000 23.3974 0.0000 10.0782
# 5 33.0184 16.5243 40.7614 0.0000 35.4314 0.0000
# 6 0.0000 0.0000 0.0000 10.0782 0.0000 25.0279
#
#
#
# Elastic Compliance Matrix: (Units=1/GPa)
#
#
# Indices 1 2 3 4 5 6 
#
# 1 0.019563 -0.004680 -0.009163 0.000000 -0.005508 0.000000
# 2 -0.004680 0.020783 -0.002466 0.000000 -0.002494 0.000000
# 3 -0.009163 -0.002466 0.016726 0.000000 -0.009554 0.000000
# 4 0.000000 0.000000 0.000000 0.051709 0.000000 -0.020822
# 5 -0.005508 -0.002494 -0.009554 0.000000 0.045511 0.000000
# 6 0.000000 0.000000 0.000000 -0.020822 0.000000 0.048340
#
#
# Mechanical properties :
#
#
# Convention : Reuss Voigt Hill
#
# Bulk Modulus (GPa) = 40.89065 70.36886 55.62976
# Shear Modulus (GPa) = 20.54226 26.43831 23.49029
#
# Velocity S-wave (km/s) = 3.35417 3.80520 3.58678
# Velocity P-wave (km/s) = 6.11517 7.60560 6.90074
#
# Compressibility (1/GPa) = 0.02445547
#
# Stress axis : x y z
#
# Youngs Moduli (GPa) = 51.11564 48.11708 59.78560
#
# Poissons Ratio (x) = 0.22518 0.54779
# Poissons Ratio (y) = 0.23921 0.14745
# Poissons Ratio (z) = 0.46835 0.11867
#
# Static dielectric constant tensor:
#      x y z
#    x 1.631230 0.000000 0.041900 
#    y 0.000000 1.621330 0.000000 
#    z 0.041900 0.000000 1.669530 
# 
# From -- ./inp_files/29074.got.cif
#   From: 2010.05.17/outbox.cif.g08.bks.cpg/sg11_15_cif.got.tgz:29074.got - 2010.06.03 12:22:45.
