data_PCOD9155433
_publ_section_title
;
Structure prediction by ZEFSAII (Michael W. Deem and Ramdas Pophale) SiO2 
 PCOD9155433
Probable space group: P 2/M
;
_chemical_formula_sum "Si O2"
_cell_formula_units_Z 32
_cell_length_a 15.000000
_cell_length_b 9.000000
_cell_length_c 24.000000
_cell_angle_alpha 90.000000
_cell_angle_beta 30.000000
_cell_angle_gamma 90.000000
_cell_volume 1620.000000
_symmetry_space_group_name_H-M "P 2/M"
_symmetry_group_IT_number 10
_symmetry_cell_setting 'monoclinic'
loop_
_space_group_symop_operation_xyz
x,y,z
-x,y,-z
-x,-y,-z
x,-y,z
loop_
_atom_site_type_symbol
_atom_site_label
_atom_site_fract_x
_atom_site_fract_y
_atom_site_fract_z
Si Si1 0.525799 0.832541 0.920579
Si Si2 0.479354 0.318787 0.367621
Si Si3 0.778633 0.677616 0.392694
Si Si4 0.127929 0.176012 0.382985
Si Si5 0.894085 0.672533 0.712593
Si Si6 0.171538 0.319097 0.758237
Si Si7 0.528377 0.322100 0.755538
Si Si8 0.763518 0.678635 0.998885
O O1 0.691144 0.720666 0.827534
O O2 0.355683 0.764514 0.981809
O O3 0.566585 0.000000 0.876713
O O4 0.500000 0.846720 0.000000
O O5 0.466912 0.500000 0.373254
O O6 0.345949 0.267449 0.489205
O O7 0.678870 0.277529 0.278239
O O8 0.448982 0.269762 0.320479
O O9 0.743058 0.500000 0.409123
O O10 0.763571 0.734840 0.337960
O O11 0.983760 0.697788 0.300048
O O12 0.039758 0.226224 0.373398
O O13 0.321616 0.246275 0.287726
O O14 0.000000 0.235128 0.500000
O O15 0.140525 0.000000 0.379837
O O16 0.910239 0.500000 0.688859
O O17 0.169732 0.500000 0.756797
O O18 0.969935 0.275260 0.882568
O O19 0.555370 0.500000 0.742329
O O20 0.335960 0.293992 0.888161
O O21 0.754030 0.500000 0.993796
#
# Coordination Sequence:
#
# PCOD9155433 Si02
#       8
#     4   4   4   4   4   4   4   4
#     4  11  23  37  54  78 110 148 187 227 275 333
#     4   9  17  30  50  77 109 143 181 227 277 329
#     4   9  17  29  48  77 110 143 179 224 279 330
#     4  11  23  37  54  78 110 148 187 227 275 333
#     4  11  21  34  55  82 111 145 184 228 275 327
#     4   9  17  30  50  77 109 143 181 227 277 329
#     4  10  20  34  53  79 110 145 184 227 277 329
#     4  10  20  34  53  79 110 145 184 227 277 329
#
# _framework density 19.753086
#
# number of rings (size 3 to 8) (size 9 to 14) (size 15 to 20)
#    0.000    2.000    1.250    3.000    0.000    6.000 
#    0.000    2.500    0.000    0.750    0.000    1.750 
#    0.000   10.000    0.000    0.000    0.000    0.000 
#
# Total GULP energy -178421.398368 kJ/mol
# GULP energy per Si atom -5575.668699 kJ/mol
# Density = 1.970813 g / cm^3
# Si number density = 19.753086 Si / 1000 Ang^3
#
#
#
# Elastic Constant Matrix: (Units=GPa)
#
#
# Indices 1 2 3 4 5 6 
#
# 1 63.1612 11.1858 14.6571 0.0000 8.0164 0.0000
# 2 11.1858 4.6440 13.3591 0.0000 -1.2354 0.0000
# 3 14.6571 13.3591 69.9710 0.0000 -1.7417 0.0000
# 4 0.0000 0.0000 0.0000 4.3012 0.0000 8.7727
# 5 8.0164 -1.2354 -1.7417 0.0000 31.9039 0.0000
# 6 0.0000 0.0000 0.0000 8.7727 0.0000 8.8908
#
#
#
# Elastic Compliance Matrix: (Units=1/GPa)
#
#
# Indices 1 2 3 4 5 6 
#
# 1 0.045637 -0.190350 0.026349 0.000000 -0.017399 0.000000
# 2 -0.190350 1.277533 -0.201889 0.000000 0.086277 0.000000
# 3 0.026349 -0.201889 0.047022 0.000000 -0.011871 0.000000
# 4 0.000000 0.000000 0.000000 -0.229618 0.000000 0.226569
# 5 -0.017399 0.086277 -0.011871 0.000000 0.038409 0.000000
# 6 0.000000 0.000000 0.000000 0.226569 0.000000 -0.111084
#
#
# Mechanical properties :
#
#
# Convention : Reuss Voigt Hill
#
# Bulk Modulus (GPa) = 1.56639 24.01999 12.79319
# Shear Modulus (GPa) = 2.48449 15.59080 9.03765
#
# Velocity S-wave (km/s) = 1.12272 2.81247 2.14132
# Velocity P-wave (km/s) = 1.57333 4.76793 3.55025
#
# Compressibility (1/GPa) = 0.63841200
#
# Stress axis : x y z
#
# Youngs Moduli (GPa) = 21.91206 0.78276 21.26665
#
# Poissons Ratio (x) = 0.14900 -0.56036
# Poissons Ratio (y) = 4.17095 4.29351
# Poissons Ratio (z) = -0.57737 0.15803
#
# Static dielectric constant tensor:
#      x y z
#    x 1.679710 0.000000 0.029860 
#    y 0.000000 1.657670 0.000000 
#    z 0.029860 0.000000 1.752810 
# 
# From -- ./inp_files/89471.got.cif
#   From: 2010.05.17/outbox.ucp.g08.bks.cvg/sg10_45_cif.got.tgz:89471.got - 2010.06.11 11:31:16.
