data_PCOD9155143
_publ_section_title
;
Structure prediction by ZEFSAII (Michael W. Deem and Ramdas Pophale) SiO2 
 PCOD9155143
Probable space group: P 2/M
;
_chemical_formula_sum "Si O2"
_cell_formula_units_Z 32
_cell_length_a 27.000000
_cell_length_b 9.000000
_cell_length_c 15.000000
_cell_angle_alpha 90.000000
_cell_angle_beta 30.000000
_cell_angle_gamma 90.000000
_cell_volume 1822.500000
_symmetry_space_group_name_H-M "P 2/M"
_symmetry_group_IT_number 10
_symmetry_cell_setting 'monoclinic'
loop_
_space_group_symop_operation_xyz
x,y,z
-x,y,-z
-x,-y,-z
x,-y,z
loop_
_atom_site_type_symbol
_atom_site_label
_atom_site_fract_x
_atom_site_fract_y
_atom_site_fract_z
Si Si1 0.818481 0.669884 0.127119
Si Si2 0.936324 0.822760 0.433232
Si Si3 0.592401 0.320535 0.974078
Si Si4 0.801131 0.825280 0.331694
Si Si5 0.849427 0.678028 0.883329
Si Si6 0.942989 0.329188 0.237005
Si Si7 0.370273 0.679716 0.287291
Si Si8 0.228890 0.678942 0.185527
O O1 0.785569 0.500000 0.194325
O O2 0.780763 0.776220 0.262580
O O3 0.797462 0.713986 0.058144
O O4 0.938220 0.671719 0.947324
O O5 0.910242 0.760105 0.375820
O O6 0.859440 0.756141 0.623200
O O7 0.046247 0.762756 0.284025
O O8 0.934996 0.000000 0.435424
O O9 0.589988 0.500000 0.980450
O O10 0.632097 0.282157 0.813840
O O11 0.667556 0.270627 0.932960
O O12 0.478211 0.274516 0.155914
O O13 0.898199 0.744498 0.219331
O O14 0.714146 0.762849 0.528598
O O15 0.812578 0.000000 0.321098
O O16 0.871025 0.500000 0.852513
O O17 0.784727 0.709585 0.897517
O O18 0.909359 0.500000 0.295752
O O19 0.360177 0.500000 0.310942
O O20 0.220272 0.500000 0.211051
#
# Coordination Sequence:
#
# PCOD9155143 Si02
#       8
#     4   4   4   4   4   4   4   4
#     4   9  19  35  51  68  93 130 172 209 246 288
#     4  11  21  31  46  73 107 137 166 201 243 294
#     4   8  16  31  54  79  98 123 162 204 244 290
#     4  12  23  32  48  76 103 129 163 201 246 299
#     4   9  19  34  51  70  96 133 174 212 248 288
#     4  10  20  35  53  72  98 133 169 204 244 290
#     4   9  17  33  54  75 101 131 161 195 242 299
#     4  10  18  31  52  75  99 130 170 211 250 294
#
# _framework density 17.558299000000002
#
# number of rings (size 3 to 8) (size 9 to 14) (size 15 to 20)
#    0.000    2.250    0.000    5.625    0.000    7.000 
#    0.000    1.875    0.000    0.750    0.000    5.250 
#    0.000    0.000    0.000    0.000    0.000    0.000 
#
# Total GULP energy -178552.504868 kJ/mol
# GULP energy per Si atom -5579.765777 kJ/mol
# Density = 1.751834 g / cm^3
# Si number density = 17.558299 Si / 1000 Ang^3
#
#
#
# Elastic Constant Matrix: (Units=GPa)
#
#
# Indices 1 2 3 4 5 6 
#
# 1 120.5249 37.7900 29.1427 0.0000 3.2857 0.0000
# 2 37.7900 51.0398 15.4400 0.0000 3.8916 0.0000
# 3 29.1427 15.4400 36.0833 0.0000 2.1809 0.0000
# 4 0.0000 0.0000 0.0000 -110.0081 0.0000 -70.8093
# 5 3.2857 3.8916 2.1809 0.0000 16.0349 0.0000
# 6 0.0000 0.0000 0.0000 -70.8093 0.0000 -37.5499
#
#
#
# Elastic Compliance Matrix: (Units=1/GPa)
#
#
# Indices 1 2 3 4 5 6 
#
# 1 0.012113 -0.006911 -0.006833 0.000000 0.000125 0.000000
# 2 -0.006911 0.026731 -0.005596 0.000000 -0.004310 0.000000
# 3 -0.006833 -0.005596 0.035754 0.000000 -0.002105 0.000000
# 4 0.000000 0.000000 0.000000 0.042518 0.000000 -0.080178
# 5 0.000125 -0.004310 -0.002105 0.000000 0.063671 0.000000
# 6 0.000000 0.000000 0.000000 -0.080178 0.000000 0.124562
#
#
# Mechanical properties :
#
#
# Convention : Reuss Voigt Hill
#
# Bulk Modulus (GPa) = 27.84146 41.37703 34.60924
# Shear Modulus (GPa) = 14.04488 -17.95294 -1.95403
#
# Velocity S-wave (km/s) = 2.83132 -3.20109 -1.05608
# Velocity P-wave (km/s) = 5.15553 3.15501 4.27396
#
# Compressibility (1/GPa) = 0.03591766
#
# Stress axis : x y z
#
# Youngs Moduli (GPa) = 82.55768 37.41006 27.96858
#
# Poissons Ratio (x) = 0.25853 0.19112
# Poissons Ratio (y) = 0.57053 0.15652
# Poissons Ratio (z) = 0.56414 0.20935
#
# Static dielectric constant tensor:
#      x y z
#    x 1.621400 0.000000 0.005440 
#    y 0.000000 1.581090 0.000000 
#    z 0.005440 0.000000 1.589390 
# 
# From -- ./inp_files/72194.got.cif
#   From: 2010.05.17/outbox.ucp.g08.bks.cvg/sg10_37_cif.got.tgz:72194.got - 2010.06.11 11:31:16.
