data_PCOD9155656
_publ_section_title
;
Structure prediction by ZEFSAII (Michael W. Deem and Ramdas Pophale) SiO2 
 PCOD9155656
Probable space group: P 2/M
;
_chemical_formula_sum "Si O2"
_cell_formula_units_Z 32
_cell_length_a 15.000000
_cell_length_b 18.000000
_cell_length_c 12.000000
_cell_angle_alpha 90.000000
_cell_angle_beta 150.000000
_cell_angle_gamma 90.000000
_cell_volume 1620.000000
_symmetry_space_group_name_H-M "P 2/M"
_symmetry_group_IT_number 10
_symmetry_cell_setting 'monoclinic'
loop_
_space_group_symop_operation_xyz
x,y,z
-x,y,-z
-x,-y,-z
x,-y,z
loop_
_atom_site_type_symbol
_atom_site_label
_atom_site_fract_x
_atom_site_fract_y
_atom_site_fract_z
Si Si1 0.956546 0.334002 0.081218
Si Si2 0.708208 0.185119 0.201690
Si Si3 0.256963 0.912232 0.548150
Si Si4 0.270052 0.587272 0.551360
Si Si5 0.381954 0.340369 0.146292
Si Si6 0.055434 0.844519 0.933377
Si Si7 0.385054 0.164931 0.145547
Si Si8 0.800488 0.650415 0.292855
O O1 0.099435 0.370493 0.317767
O O2 0.967084 0.244572 0.104730
O O3 0.760924 0.357216 0.912302
O O4 0.000000 0.352681 0.000000
O O5 0.754778 0.123067 0.341474
O O6 0.809239 0.261888 0.331345
O O7 0.500000 0.203372 0.000000
O O8 0.721607 0.160377 0.087882
O O9 0.082817 0.887085 0.293799
O O10 0.431788 0.878742 0.675680
O O11 0.273663 0.000000 0.572509
O O12 0.243851 0.500000 0.517211
O O13 0.439205 0.612645 0.662266
O O14 0.296098 0.611567 0.708260
O O15 0.427110 0.252639 0.204190
O O16 0.291053 0.353318 0.926818
O O17 0.000000 0.862338 0.000000
O O18 0.256360 0.859923 0.106922
O O19 0.000000 0.619587 0.500000
#
# Coordination Sequence:
#
# PCOD9155656 Si02
#       8
#     4   4   4   4   4   4   4   4
#     4  10  22  43  67  89 114 152 208 259 294 340
#     4   9  19  35  59  88 116 153 197 240 288 349
#     4  11  23  37  57  87 126 159 187 236 298 359
#     4  12  25  39  59  89 127 161 191 239 302 368
#     4  10  21  40  63  91 116 157 199 248 297 349
#     4  10  22  40  64  88 110 150 207 253 286 338
#     4   9  20  38  62  86 116 151 196 244 293 340
#     4  11  20  36  63  90 119 155 199 247 294 347
#
# _framework density 19.753086
#
# number of rings (size 3 to 8) (size 9 to 14) (size 15 to 20)
#    0.000    1.750    1.250    4.125    3.500    6.000 
#    0.000    5.625    0.000    0.000    0.000    0.000 
#    0.000    0.000    0.000    0.000    0.000    0.000 
#
# Total GULP energy -178785.347526 kJ/mol
# GULP energy per Si atom -5587.042110 kJ/mol
# Density = 1.970813 g / cm^3
# Si number density = 19.753086 Si / 1000 Ang^3
#
#
#
# Elastic Constant Matrix: (Units=GPa)
#
#
# Indices 1 2 3 4 5 6 
#
# 1 96.9046 3.4564 -13.2437 0.0000 4.1143 0.0000
# 2 3.4564 10.8813 5.5761 0.0000 -1.3035 0.0000
# 3 -13.2437 5.5761 13.0706 0.0000 10.4688 0.0000
# 4 0.0000 0.0000 0.0000 -270.7927 0.0000 35.4964
# 5 4.1143 -1.3035 10.4688 0.0000 20.4317 0.0000
# 6 0.0000 0.0000 0.0000 35.4964 0.0000 -13.5659
#
#
#
# Elastic Compliance Matrix: (Units=1/GPa)
#
#
# Indices 1 2 3 4 5 6 
#
# 1 0.049980 -0.140707 0.213564 0.000000 -0.128467 0.000000
# 2 -0.140707 0.570369 -0.742414 0.000000 0.445119 0.000000
# 3 0.213564 -0.742414 1.156702 0.000000 -0.683039 0.000000
# 4 0.000000 0.000000 0.000000 -0.005621 0.000000 -0.014707
# 5 -0.128467 0.445119 -0.683039 0.000000 0.453185 0.000000
# 6 0.000000 0.000000 0.000000 -0.014707 0.000000 -0.112197
#
#
# Mechanical properties :
#
#
# Convention : Reuss Voigt Hill
#
# Bulk Modulus (GPa) = 2.28343 12.49269 7.38806
# Shear Modulus (GPa) = 1.38985 -44.44754 -21.52884
#
# Velocity S-wave (km/s) = 0.83973 -4.74873 -3.30494
# Velocity P-wave (km/s) = 1.44868 4.87125 3.28865
#
# Compressibility (1/GPa) = 0.43793767
#
# Stress axis : x y z
#
# Youngs Moduli (GPa) = 20.00807 1.75325 0.86453
#
# Poissons Ratio (x) = 0.24669 -0.18463
# Poissons Ratio (y) = 2.81527 0.64184
# Poissons Ratio (z) = -4.27301 1.30164
#
# Static dielectric constant tensor:
#      x y z
#    x 1.706270 0.000000 0.002820 
#    y 0.000000 1.657780 0.000000 
#    z 0.002820 0.000000 1.684660 
# 
# From -- ./inp_files/52011.got.cif
#   From: 2010.05.17/outbox.ucp.g08.bks.cvg/sg10_27_cif.got.tgz:52011.got - 2010.06.11 11:31:16.
