data_PCOD9155035
_publ_section_title
;
Structure prediction by ZEFSAII (Michael W. Deem and Ramdas Pophale) SiO2 
 PCOD9155035
Probable space group: P 2/M
;
_chemical_formula_sum "Si O2"
_cell_formula_units_Z 32
_cell_length_a 18.085429
_cell_length_b 7.350882
_cell_length_c 31.457965
_cell_angle_alpha 90.000000
_cell_angle_beta 160.356684
_cell_angle_gamma 90.000000
_cell_volume 1405.884604
_symmetry_space_group_name_H-M "P 2/M"
_symmetry_group_IT_number 10
_symmetry_cell_setting 'monoclinic'
loop_
_space_group_symop_operation_xyz
x,y,z
-x,y,-z
-x,-y,-z
x,-y,z
loop_
_atom_site_type_symbol
_atom_site_label
_atom_site_fract_x
_atom_site_fract_y
_atom_site_fract_z
Si Si1 0.669416 0.721576 0.128630
Si Si2 0.499190 0.277342 0.400248
Si Si3 0.877063 0.278406 0.667049
Si Si4 0.022345 0.203059 0.062371
Si Si5 0.957035 0.721568 0.807118
Si Si6 0.527769 0.707534 0.799593
Si Si7 0.451767 0.277043 0.098356
Si Si8 0.487414 0.704803 0.682447
O O1 0.665382 0.500000 0.126683
O O2 0.590166 0.779414 0.132171
O O3 0.912355 0.777206 0.246511
O O4 0.500000 0.778324 0.000000
O O5 0.503062 0.500000 0.400851
O O6 0.655355 0.221541 0.523552
O O7 0.249483 0.222659 0.275941
O O8 0.595251 0.212196 0.406675
O O9 0.874458 0.500000 0.666876
O O10 0.910093 0.220333 0.733437
O O11 0.253333 0.303762 0.189821
O O12 0.033142 0.000000 0.086373
O O13 0.000000 0.182962 0.000000
O O14 0.793264 0.295183 0.949957
O O15 0.960739 0.500000 0.809678
O O16 0.198446 0.779525 0.952978
O O17 0.449866 0.500000 0.755430
O O18 0.455459 0.787281 0.805724
O O19 0.477725 0.785940 0.725155
O O20 0.452906 0.500000 0.100327
O O21 0.399169 0.500000 0.637928
#
# Coordination Sequence:
#
# PCOD9155035 Si02
#       8
#     4   4   4   4   4   4   4   4
#     4   9  14  22  34  49  73 105 134 163 207 253
#     4   9  16  23  33  50  73 106 140 164 191 234
#     4   9  15  22  32  47  72 104 134 166 204 242
#     4   9  16  25  38  57  81 108 138 172 206 236
#     4   9  14  20  30  47  72  99 128 163 202 243
#     4   9  16  25  38  56  80 110 138 163 196 240
#     4   9  15  22  35  54  75 103 136 166 200 244
#     4   9  16  26  38  53  79 113 142 163 189 236
#
# _framework density 22.761471
#
# number of rings (size 3 to 8) (size 9 to 14) (size 15 to 20)
#    0.000    3.000    1.250    1.500    0.000    5.000 
#    0.000    0.000    0.000    0.750    0.000    5.250 
#    0.000    9.500    0.000    6.250    0.000    6.625 
#
# Total GULP energy -178348.478427 kJ/mol
# GULP energy per Si atom -5573.389951 kJ/mol
# Density = 2.270967 g / cm^3
# Si number density = 22.761471 Si / 1000 Ang^3
#
#
#
# Elastic Constant Matrix: (Units=GPa)
#
#
# Indices 1 2 3 4 5 6 
#
# 1 219.6195 5.8009 44.0975 0.0000 -39.0489 0.0000
# 2 5.8009 86.8175 3.8504 0.0000 -3.0081 0.0000
# 3 44.0975 3.8504 36.1963 0.0000 -17.2813 0.0000
# 4 0.0000 0.0000 0.0000 3.3195 0.0000 8.4492
# 5 -39.0489 -3.0081 -17.2813 0.0000 39.6252 0.0000
# 6 0.0000 0.0000 0.0000 8.4492 0.0000 -7.6981
#
#
#
# Elastic Compliance Matrix: (Units=1/GPa)
#
#
# Indices 1 2 3 4 5 6 
#
# 1 0.006428 -0.000033 -0.006068 0.000000 0.003686 0.000000
# 2 -0.000033 0.011579 -0.000995 0.000000 0.000413 0.000000
# 3 -0.006068 -0.000995 0.040711 0.000000 0.011700 0.000000
# 4 0.000000 0.000000 0.000000 0.079408 0.000000 0.087156
# 5 0.003686 0.000413 0.011700 0.000000 0.034002 0.000000
# 6 0.000000 0.000000 0.000000 0.087156 0.000000 -0.034242
#
#
# Mechanical properties :
#
#
# Convention : Reuss Voigt Hill
#
# Bulk Modulus (GPa) = 22.45800 50.01453 36.23627
# Shear Modulus (GPa) = 29.95449 26.30829 28.13139
#
# Velocity S-wave (km/s) = 3.63163 3.40343 3.51938
# Velocity P-wave (km/s) = 5.24148 6.12091 5.69818
#
# Compressibility (1/GPa) = 0.04452757
#
# Stress axis : x y z
#
# Youngs Moduli (GPa) = 155.57235 86.36306 24.56320
#
# Poissons Ratio (x) = 0.00282 0.14905
# Poissons Ratio (y) = 0.00508 0.02443
# Poissons Ratio (z) = 0.94400 0.08591
#
# Static dielectric constant tensor:
#      x y z
#    x 1.876060 0.000000 -0.036070 
#    y 0.000000 1.882890 0.000000 
#    z -0.036070 0.000000 1.859380 
# 
# From -- ./inp_files/95576.got.cif
#   From: 2010.05.17/outbox.cif.g08.bks.cpg/sg10_48_cif.got.tgz:95576.got - 2010.06.03 11:33:40.
