data_PCOD9155258
_publ_section_title
;
Structure prediction by ZEFSAII (Michael W. Deem and Ramdas Pophale) SiO2 
 PCOD9155258
Probable space group: P 2/M
;
_chemical_formula_sum "Si O2"
_cell_formula_units_Z 32
_cell_length_a 24.000000
_cell_length_b 9.000000
_cell_length_c 15.000000
_cell_angle_alpha 90.000000
_cell_angle_beta 150.000000
_cell_angle_gamma 90.000000
_cell_volume 1620.000000
_symmetry_space_group_name_H-M "P 2/M"
_symmetry_group_IT_number 10
_symmetry_cell_setting 'monoclinic'
loop_
_space_group_symop_operation_xyz
x,y,z
-x,y,-z
-x,-y,-z
x,-y,z
loop_
_atom_site_type_symbol
_atom_site_label
_atom_site_fract_x
_atom_site_fract_y
_atom_site_fract_z
Si Si1 0.630673 0.668135 0.779783
Si Si2 0.780046 0.332967 0.810418
Si Si3 0.587220 0.834208 0.475198
Si Si4 0.981881 0.679598 0.213503
Si Si5 0.170328 0.176182 0.847830
Si Si6 0.543070 0.831812 0.205406
Si Si7 0.236636 0.322204 0.569580
Si Si8 0.283924 0.180247 0.822199
O O1 0.632149 0.500000 0.819535
O O2 0.691313 0.659003 0.768792
O O3 0.506299 0.730310 0.609841
O O4 0.711871 0.779591 0.944096
O O5 0.794915 0.500000 0.794829
O O6 0.713198 0.226660 0.652536
O O7 0.895037 0.280394 0.014020
O O8 0.552641 0.839715 0.324747
O O9 0.583387 0.000000 0.509262
O O10 0.976323 0.500000 0.214716
O O11 0.109131 0.720849 0.365430
O O12 0.927416 0.746555 0.229162
O O13 0.199298 0.218445 0.785970
O O14 0.151883 0.000000 0.826308
O O15 0.651488 0.743178 0.321344
O O16 0.550966 0.000000 0.179027
O O17 0.415888 0.777101 0.013365
O O18 0.243121 0.500000 0.573136
O O19 0.242098 0.262319 0.677337
O O20 0.282446 0.000000 0.813011
#
# Coordination Sequence:
#
# PCOD9155258 Si02
#       8
#     4   4   4   4   4   4   4   4
#     4  10  19  32  52  80 118 155 184 222 280 338
#     4   9  19  35  54  78 110 151 187 221 279 341
#     4  11  21  34  54  83 114 146 187 234 279 331
#     4   9  21  41  58  79 118 154 185 233 286 331
#     4  10  19  34  58  87 116 149 190 229 275 337
#     4  10  22  41  59  80 116 152 183 230 290 338
#     4  11  24  40  60  85 109 145 197 241 278 333
#     4  10  21  39  60  84 117 150 180 228 292 343
#
# _framework density 19.753086
#
# number of rings (size 3 to 8) (size 9 to 14) (size 15 to 20)
#    0.000    2.000    1.250    3.000    0.000    9.500 
#    0.000    3.125    0.000    3.750    0.000    0.000 
#    0.000    0.000    0.000    0.000    0.000    0.000 
#
# Total GULP energy -178310.292061 kJ/mol
# GULP energy per Si atom -5572.196627 kJ/mol
# Density = 1.970813 g / cm^3
# Si number density = 19.753086 Si / 1000 Ang^3
#
#
#
# Elastic Constant Matrix: (Units=GPa)
#
#
# Indices 1 2 3 4 5 6 
#
# 1 5.1406 -2.9330 -13.9893 0.0000 8.9261 0.0000
# 2 -2.9330 17.0498 13.4585 0.0000 5.4970 0.0000
# 3 -13.9893 13.4585 77.4050 0.0000 8.3592 0.0000
# 4 0.0000 0.0000 0.0000 27.3499 0.0000 11.5562
# 5 8.9261 5.4970 8.3592 0.0000 26.9977 0.0000
# 6 0.0000 0.0000 0.0000 11.5562 0.0000 32.4975
#
#
#
# Elastic Compliance Matrix: (Units=1/GPa)
#
#
# Indices 1 2 3 4 5 6 
#
# 1 -0.531771 -0.079972 -0.106508 0.000000 0.225078 0.000000
# 2 -0.079972 0.058980 -0.027175 0.000000 0.022846 0.000000
# 3 -0.106508 -0.027175 -0.006213 0.000000 0.042671 0.000000
# 4 0.000000 0.000000 0.000000 0.043028 0.000000 -0.015301
# 5 0.225078 0.022846 0.042671 0.000000 -0.055240 0.000000
# 6 0.000000 0.000000 0.000000 -0.015301 0.000000 0.036213
#
#
# Mechanical properties :
#
#
# Convention : Reuss Voigt Hill
#
# Bulk Modulus (GPa) = -1.10337 10.29641 4.59652
# Shear Modulus (GPa) = -15.16084 24.23964 4.53940
#
# Velocity S-wave (km/s) = -2.77342 3.50684 1.51758
# Velocity P-wave (km/s) = 3.28870 4.64986 2.32439
#
# Compressibility (1/GPa) = -0.90631407
#
# Stress axis : x y z
#
# Youngs Moduli (GPa) = -1.88051 16.95489 -160.94770
#
# Poissons Ratio (x) = 1.35591 -17.14224
# Poissons Ratio (y) = -0.15039 -4.37380
# Poissons Ratio (z) = -0.20029 0.46075
#
# Static dielectric constant tensor:
#      x y z
#    x 1.703960 0.000000 -0.042160 
#    y 0.000000 1.717570 0.000000 
#    z -0.042160 0.000000 1.723520 
# 
# From -- ./inp_files/71590.got.cif
#   From: 2010.05.17/outbox.ucp.g08.bks.cvg/sg10_36_cif.got.tgz:71590.got - 2010.06.11 11:31:16.
