data_PCOD9155319
_publ_section_title
;
Structure prediction by ZEFSAII (Michael W. Deem and Ramdas Pophale) SiO2 
 PCOD9155319
Probable space group: P 2/M
;
_chemical_formula_sum "Si O2"
_cell_formula_units_Z 28
_cell_length_a 21.000000
_cell_length_b 9.000000
_cell_length_c 15.000000
_cell_angle_alpha 90.000000
_cell_angle_beta 30.000000
_cell_angle_gamma 90.000000
_cell_volume 1417.500000
_symmetry_space_group_name_H-M "P 2/M"
_symmetry_group_IT_number 10
_symmetry_cell_setting 'monoclinic'
loop_
_space_group_symop_operation_xyz
x,y,z
-x,y,-z
-x,-y,-z
x,-y,z
loop_
_atom_site_type_symbol
_atom_site_label
_atom_site_fract_x
_atom_site_fract_y
_atom_site_fract_z
Si Si1 0.751013 0.827306 0.275049
Si Si2 0.475563 0.831219 0.310686
Si Si3 0.730691 0.171158 0.590994
Si Si4 0.361573 0.678391 0.131273
Si Si5 0.902257 0.671642 0.241716
Si Si6 0.812971 0.672624 0.031128
Si Si7 0.716038 0.673950 0.969314
O O1 0.624076 0.814868 0.488511
O O2 0.856306 0.734132 0.202488
O O3 0.731075 0.768183 0.199616
O O4 0.789153 0.000000 0.226928
O O5 0.397527 0.815833 0.312942
O O6 0.528293 0.000000 0.249962
O O7 0.582926 0.707731 0.179718
O O8 0.729751 0.274009 0.678177
O O9 0.835531 0.224560 0.394934
O O10 0.745321 0.000000 0.598866
O O11 0.371618 0.500000 0.111527
O O12 0.308517 0.736554 0.100583
O O13 0.500000 0.732493 0.000000
O O14 0.858682 0.500000 0.300767
O O15 0.048683 0.675609 0.091569
O O16 0.771051 0.500000 0.080948
O O17 0.813792 0.727318 0.927343
O O18 0.741843 0.500000 0.925096
#
# Coordination Sequence:
#
# PCOD9155319 Si02
#       7
#     4   4   4   4   4   4   4
#     4  10  21  36  56  82 109 140 179 224 269 316
#     4   9  19  34  51  77 109 139 173 215 269 322
#     4  10  20  34  55  83 111 139 176 223 272 318
#     4  10  19  33  56  84 108 138 181 222 266 319
#     4  10  20  36  58  80 106 140 182 225 265 314
#     4  10  22  38  54  77 108 145 182 221 268 316
#     4  10  21  36  54  78 110 142 179 222 266 320
#
# _framework density 19.753086
#
# number of rings (size 3 to 8) (size 9 to 14) (size 15 to 20)
#    0.000    2.143    1.429    2.571    0.000    7.714 
#    0.000    3.571    0.000    4.286    0.000    0.000 
#    0.000    0.000    0.000    0.000    0.000    0.000 
#
# Total GULP energy -155938.792938 kJ/mol
# GULP energy per Si atom -5569.242605 kJ/mol
# Density = 1.970813 g / cm^3
# Si number density = 19.753086 Si / 1000 Ang^3
#
#
#
# Elastic Constant Matrix: (Units=GPa)
#
#
# Indices 1 2 3 4 5 6 
#
# 1 108.5226 -0.5274 13.7605 0.0000 29.4860 0.0000
# 2 -0.5274 -27.4625 -20.3142 0.0000 -12.4058 0.0000
# 3 13.7605 -20.3142 12.7239 0.0000 6.4099 0.0000
# 4 0.0000 0.0000 0.0000 38.9219 0.0000 22.5984
# 5 29.4860 -12.4058 6.4099 0.0000 17.2336 0.0000
# 6 0.0000 0.0000 0.0000 22.5984 0.0000 11.4086
#
#
#
# Elastic Compliance Matrix: (Units=1/GPa)
#
#
# Indices 1 2 3 4 5 6 
#
# 1 0.014783 0.006121 0.005301 0.000000 -0.022858 0.000000
# 2 0.006121 -0.014068 -0.023015 0.000000 -0.012040 0.000000
# 3 0.005301 -0.023015 0.060337 0.000000 -0.048079 0.000000
# 4 0.000000 0.000000 0.000000 -0.171190 0.000000 0.339097
# 5 -0.022858 -0.012040 -0.048079 0.000000 0.106352 0.000000
# 6 0.000000 0.000000 0.000000 0.339097 0.000000 -0.584038
#
#
# Mechanical properties :
#
#
# Convention : Reuss Voigt Hill
#
# Bulk Modulus (GPa) = 26.40854 8.84688 17.62771
# Shear Modulus (GPa) = -9.05769 20.23715 5.58973
#
# Velocity S-wave (km/s) = -2.14369 3.20426 1.68403
# Velocity P-wave (km/s) = 2.69650 4.26359 3.56716
#
# Compressibility (1/GPa) = 0.03786653
#
# Stress axis : x y z
#
# Youngs Moduli (GPa) = 67.64517 -71.08355 16.57360
#
# Poissons Ratio (x) = 0.43511 -0.08785
# Poissons Ratio (y) = -0.41407 0.38143
# Poissons Ratio (z) = -0.35856 -1.63596
#
# Static dielectric constant tensor:
#      x y z
#    x 1.733290 0.000000 -0.007890 
#    y 0.000000 1.688740 0.000000 
#    z -0.007890 0.000000 1.721630 
# 
# From -- ./inp_files/57440.got.cif
#   From: 2010.05.17/outbox.ucp.g08.bks.cvg/sg10_29_cif.got.tgz:57440.got - 2010.06.11 11:31:16.
