data_PCOD9155844
_publ_section_title
;
Structure prediction by ZEFSAII (Michael W. Deem and Ramdas Pophale) SiO2 
 PCOD9155844
Probable space group: P 21/M
;
_chemical_formula_sum "Si O2"
_cell_formula_units_Z 32
_cell_length_a 23.912269
_cell_length_b 7.677678
_cell_length_c 7.905773
_cell_angle_alpha 90.000000
_cell_angle_beta 126.371440
_cell_angle_gamma 90.000000
_cell_volume 1168.673302
_symmetry_space_group_name_H-M "P 21/M"
_symmetry_group_IT_number 11
_symmetry_cell_setting 'monoclinic'
loop_
_space_group_symop_operation_xyz
x,y,z
-x,1/2+y,-z
-x,-y,-z
x,1/2-y,z
loop_
_atom_site_type_symbol
_atom_site_label
_atom_site_fract_x
_atom_site_fract_y
_atom_site_fract_z
Si Si1 0.018162 0.958422 0.260129
Si Si2 0.268641 0.961068 0.309524
Si Si3 0.644681 0.458784 0.211158
Si Si4 0.514040 0.450448 0.807802
Si Si5 0.221086 0.046093 0.722603
Si Si6 0.896193 0.043165 0.258985
Si Si7 0.399555 0.042405 0.362253
Si Si8 0.134230 0.548057 0.238799
O O1 0.026621 0.750000 0.269083
O O2 0.058664 0.027479 0.500552
O O3 0.062251 0.033218 0.180998
O O4 0.937882 0.990851 0.164482
O O5 0.263980 0.750000 0.303114
O O6 0.314467 0.024540 0.552095
O O7 0.190896 0.026721 0.209107
O O8 0.318529 0.012537 0.246750
O O9 0.639564 0.250000 0.214173
O O10 0.698562 0.500397 0.157283
O O11 0.566838 0.528463 0.041347
O O12 0.501330 0.250000 0.825906
O O13 0.565225 0.455563 0.735466
O O14 0.443579 0.528077 0.604069
O O15 0.212983 0.250000 0.677925
O O16 0.181889 0.003836 0.827323
O O17 0.179723 0.949460 0.496672
O O18 0.899261 0.250000 0.267695
O O19 0.411435 0.250000 0.369521
O O20 0.121255 0.750000 0.168823
#
# Coordination Sequence:
#
# PCOD9155844 Si02
#       8
#     4   4   4   4   4   4   4   4
#     4   8  13  21  33  50  73 105 147 189 223 258
#     4   9  17  30  48  69  94 125 156 187 229 279
#     4   9  18  33  50  67  90 122 158 192 229 277
#     4   9  19  36  54  69  90 123 157 189 230 277
#     4  10  17  24  37  58  84 113 146 186 230 271
#     4   9  15  22  32  48  75 112 149 182 220 269
#     4  10  20  33  50  73  97 120 151 191 231 273
#     4   8  15  27  40  55  81 117 152 185 224 271
#
# _framework density 27.381474999999998
#
# number of rings (size 3 to 8) (size 9 to 14) (size 15 to 20)
#    0.000    3.000    0.000    3.375    0.000    6.500 
#    0.000    0.000    0.000    0.000    0.000    0.000 
#    0.000    1.000    0.000    3.000    0.000    8.750 
#
# Total GULP energy -178945.848111 kJ/mol
# GULP energy per Si atom -5592.057753 kJ/mol
# Density = 2.731915 g / cm^3
# Si number density = 27.381475 Si / 1000 Ang^3
#
#
#
# Elastic Constant Matrix: (Units=GPa)
#
#
# Indices 1 2 3 4 5 6 
#
# 1 244.7794 17.2578 35.6845 0.0000 13.1210 0.0000
# 2 17.2578 91.3221 3.3396 0.0000 -3.6693 0.0000
# 3 35.6845 3.3396 78.7795 0.0000 6.9901 0.0000
# 4 0.0000 0.0000 0.0000 3.9328 0.0000 -5.3867
# 5 13.1210 -3.6693 6.9901 0.0000 68.5183 0.0000
# 6 0.0000 0.0000 0.0000 -5.3867 0.0000 37.9426
#
#
#
# Elastic Compliance Matrix: (Units=1/GPa)
#
#
# Indices 1 2 3 4 5 6 
#
# 1 0.004460 -0.000801 -0.001924 0.000000 -0.000701 0.000000
# 2 -0.000801 0.011139 -0.000178 0.000000 0.000768 0.000000
# 3 -0.001924 -0.000178 0.013665 0.000000 -0.001035 0.000000
# 4 0.000000 0.000000 0.000000 0.315648 0.000000 0.044813
# 5 -0.000701 0.000768 -0.001035 0.000000 0.014876 0.000000
# 6 0.000000 0.000000 0.000000 0.044813 0.000000 0.032718
#
#
# Mechanical properties :
#
#
# Convention : Reuss Voigt Hill
#
# Bulk Modulus (GPa) = 42.62824 58.60496 50.61660
# Shear Modulus (GPa) = 12.31137 45.98536 29.14836
#
# Velocity S-wave (km/s) = 2.12273 4.10253 3.26625
# Velocity P-wave (km/s) = 4.64866 6.62500 5.72279
#
# Compressibility (1/GPa) = 0.02345863
#
# Stress axis : x y z
#
# Youngs Moduli (GPa) = 224.22522 89.77546 73.18200
#
# Poissons Ratio (x) = 0.07187 0.14080
# Poissons Ratio (y) = 0.17951 0.01300
# Poissons Ratio (z) = 0.43142 0.01595
#
# Static dielectric constant tensor:
#      x y z
#    x 2.153460 0.000000 -0.029660 
#    y 0.000000 1.964040 0.000000 
#    z -0.029660 0.000000 2.301760 
# 
# From -- ./inp_files/27311.got.cif
#   From: 2010.05.17/outbox.cif.g08.bks.cpg/sg11_14_cif.got.tgz:27311.got - 2010.06.03 12:22:45.
