data_PCOD9155886
_publ_section_title
;
Structure prediction by ZEFSAII (Michael W. Deem and Ramdas Pophale) SiO2 
 PCOD9155886
Probable space group: P 21/M
;
_chemical_formula_sum "Si O2"
_cell_formula_units_Z 28
_cell_length_a 18.277994
_cell_length_b 8.934787
_cell_length_c 16.873687
_cell_angle_alpha 90.000000
_cell_angle_beta 139.220918
_cell_angle_gamma 90.000000
_cell_volume 1799.831263
_symmetry_space_group_name_H-M "P 21/M"
_symmetry_group_IT_number 11
_symmetry_cell_setting 'monoclinic'
loop_
_space_group_symop_operation_xyz
x,y,z
-x,1/2+y,-z
-x,-y,-z
x,1/2-y,z
loop_
_atom_site_type_symbol
_atom_site_label
_atom_site_fract_x
_atom_site_fract_y
_atom_site_fract_z
Si Si1 0.435757 0.076628 0.831925
Si Si2 0.676012 0.422213 0.120202
Si Si3 0.824209 0.427491 0.820193
Si Si4 0.052330 0.427491 0.930054
Si Si5 0.584777 0.570929 0.632370
Si Si6 0.568062 0.430724 0.791147
Si Si7 0.225388 0.072588 0.943946
O O1 0.401753 0.250000 0.803404
O O2 0.467012 0.028776 0.768559
O O3 0.348561 0.984239 0.812574
O O4 0.555595 0.069072 0.976082
O O5 0.709716 0.250000 0.149999
O O6 0.759434 0.514527 0.132763
O O7 0.800519 0.250000 0.802812
O O8 0.710756 0.518132 0.715461
O O9 0.921051 0.457547 0.834735
O O10 0.880014 0.478539 0.948945
O O11 0.068976 0.250000 0.961567
O O12 0.106840 0.455711 0.889361
O O13 0.500000 0.500000 0.500000
O O14 0.577474 0.750000 0.627022
O O15 0.558745 0.504875 0.698066
O O16 0.572926 0.250000 0.789719
O O17 0.681308 0.490120 0.925757
O O18 0.247795 0.250000 0.964544
#
# Coordination Sequence:
#
# PCOD9155886 Si02
#       7
#     4   4   4   4   4   4   4
#     4   8  15  26  39  56  82 114 148 183 223 270
#     4   9  16  24  36  57  85 117 152 185 221 264
#     4  10  19  32  49  68  92 120 154 195 235 274
#     4   9  18  30  46  69  94 123 156 190 229 277
#     4  12  24  37  51  68  91 121 158 197 238 279
#     4  10  19  31  46  65  87 116 153 192 232 275
#     4  10  17  26  42  64  92 123 154 186 223 272
#
# _framework density 15.557013
#
# number of rings (size 3 to 8) (size 9 to 14) (size 15 to 20)
#    0.000    2.286    1.429    3.857    0.000    5.143 
#    0.000    0.000    0.000    0.000    0.000    0.000 
#    0.000    1.143    0.000    3.429    0.000    4.857 
#
# Total GULP energy -156028.734874 kJ/mol
# GULP energy per Si atom -5572.454817 kJ/mol
# Density = 1.552160 g / cm^3
# Si number density = 15.557013 Si / 1000 Ang^3
#
#
#
# Elastic Constant Matrix: (Units=GPa)
#
#
# Indices 1 2 3 4 5 6 
#
# 1 158.1842 73.7781 42.1747 0.0000 -13.4535 0.0000
# 2 73.7781 93.8182 32.5118 0.0000 -4.2773 0.0000
# 3 42.1747 32.5118 46.5127 0.0000 -1.4302 0.0000
# 4 0.0000 0.0000 0.0000 17.4888 0.0000 -2.5718
# 5 -13.4535 -4.2773 -1.4302 0.0000 10.7673 0.0000
# 6 0.0000 0.0000 0.0000 -2.5718 0.0000 24.7866
#
#
#
# Elastic Compliance Matrix: (Units=1/GPa)
#
#
# Indices 1 2 3 4 5 6 
#
# 1 0.012097 -0.007004 -0.005717 0.000000 0.011573 0.000000
# 2 -0.007004 0.018323 -0.006528 0.000000 -0.002340 0.000000
# 3 -0.005717 -0.006528 0.031074 0.000000 -0.005609 0.000000
# 4 0.000000 0.000000 0.000000 0.058066 0.000000 0.006025
# 5 0.011573 -0.002340 -0.005609 0.000000 0.105659 0.000000
# 6 0.000000 0.000000 0.000000 0.006025 0.000000 0.040970
#
#
# Mechanical properties :
#
#
# Convention : Reuss Voigt Hill
#
# Bulk Modulus (GPa) = 43.48847 66.16048 54.82448
# Shear Modulus (GPa) = 16.00754 20.61190 18.30972
#
# Velocity S-wave (km/s) = 3.21122 3.64390 3.43438
# Velocity P-wave (km/s) = 6.46252 7.76686 7.14452
#
# Compressibility (1/GPa) = 0.02299460
#
# Stress axis : x y z
#
# Youngs Moduli (GPa) = 82.66392 54.57731 32.18103
#
# Poissons Ratio (x) = 0.38227 0.18399
# Poissons Ratio (y) = 0.57900 0.21009
# Poissons Ratio (z) = 0.47261 0.35629
#
# Static dielectric constant tensor:
#      x y z
#    x 1.560460 0.000000 -0.007360 
#    y 0.000000 1.521270 0.000000 
#    z -0.007360 0.000000 1.473900 
# 
# From -- ./inp_files/53271.got.cif
#   From: 2010.05.17/outbox.cif.g08.bks.cpg/sg11_27_cif.got.tgz:53271.got - 2010.06.03 12:22:45.
