data_PCOD9155845
_publ_section_title
;
Structure prediction by ZEFSAII (Michael W. Deem and Ramdas Pophale) SiO2 
 PCOD9155845
Probable space group: P 21/M
;
_chemical_formula_sum "Si O2"
_cell_formula_units_Z 28
_cell_length_a 23.476551
_cell_length_b 8.370026
_cell_length_c 16.954417
_cell_angle_alpha 90.000000
_cell_angle_beta 31.649566
_cell_angle_gamma 90.000000
_cell_volume 1748.129790
_symmetry_space_group_name_H-M "P 21/M"
_symmetry_group_IT_number 11
_symmetry_cell_setting 'monoclinic'
loop_
_space_group_symop_operation_xyz
x,y,z
-x,1/2+y,-z
-x,-y,-z
x,1/2-y,z
loop_
_atom_site_type_symbol
_atom_site_label
_atom_site_fract_x
_atom_site_fract_y
_atom_site_fract_z
Si Si1 0.655214 0.059810 0.290761
Si Si2 0.408216 0.942679 0.049013
Si Si3 0.583630 0.438941 0.141210
Si Si4 0.050830 0.056760 0.319537
Si Si5 0.164153 0.943060 0.345468
Si Si6 0.788100 0.939669 0.999787
Si Si7 0.451827 0.936901 0.431201
O O1 0.633314 0.250000 0.310947
O O2 0.645186 0.015796 0.394844
O O3 0.761391 0.020497 0.114898
O O4 0.559089 0.967177 0.358422
O O5 0.408104 0.750000 0.049903
O O6 0.286804 0.998044 0.215148
O O7 0.428829 0.992935 0.934076
O O8 0.500000 0.000000 0.000000
O O9 0.606728 0.250000 0.114757
O O10 0.685851 0.523363 0.062706
O O11 0.478575 0.471915 0.319328
O O12 0.052904 0.250000 0.317295
O O13 0.928092 0.004177 0.483741
O O14 0.123288 0.998772 0.307787
O O15 0.106356 0.003568 0.172816
O O16 0.164631 0.750000 0.344388
O O17 0.794269 0.750000 0.004441
O O18 0.442498 0.750000 0.424216
#
# Coordination Sequence:
#
# PCOD9155845 Si02
#       7
#     4   4   4   4   4   4   4
#     4   9  16  24  35  53  79 110 139 166 200 243
#     4  10  21  33  46  62  83 112 145 181 215 251
#     4  10  18  28  41  58  79 108 142 173 210 250
#     4   9  17  27  43  64  85 110 140 174 208 251
#     4   9  17  31  45  60  83 110 141 175 214 252
#     4  10  17  24  38  61  85 110 139 169 203 245
#     4   9  16  25  37  54  76 106 140 171 203 242
#
# _framework density 16.017118
#
# number of rings (size 3 to 8) (size 9 to 14) (size 15 to 20)
#    0.000    2.571    1.429    3.429    0.000    4.000 
#    0.000    0.000    0.000    0.000    0.000    0.000 
#    0.000    1.143    0.000    2.571    0.000    4.571 
#
# Total GULP energy -155875.044386 kJ/mol
# GULP energy per Si atom -5566.965871 kJ/mol
# Density = 1.598066 g / cm^3
# Si number density = 16.017118 Si / 1000 Ang^3
#
#
#
# Elastic Constant Matrix: (Units=GPa)
#
#
# Indices 1 2 3 4 5 6 
#
# 1 46.0245 3.6919 49.6483 0.0000 1.5514 0.0000
# 2 3.6919 12.3340 10.1576 0.0000 1.6089 0.0000
# 3 49.6483 10.1576 149.9615 0.0000 21.9414 0.0000
# 4 0.0000 0.0000 0.0000 18.5321 0.0000 5.7064
# 5 1.5514 1.6089 21.9414 0.0000 22.5203 0.0000
# 6 0.0000 0.0000 0.0000 5.7064 0.0000 17.5084
#
#
#
# Elastic Compliance Matrix: (Units=1/GPa)
#
#
# Indices 1 2 3 4 5 6 
#
# 1 0.035861 -0.001125 -0.013350 0.000000 0.010616 0.000000
# 2 -0.001125 0.085907 -0.005318 0.000000 -0.000879 0.000000
# 3 -0.013350 -0.005318 0.013130 0.000000 -0.011493 0.000000
# 4 0.000000 0.000000 0.000000 0.059980 0.000000 -0.019549
# 5 0.010616 -0.000879 -0.011493 0.000000 0.054933 0.000000
# 6 0.000000 0.000000 0.000000 -0.019549 0.000000 0.063487
#
#
# Mechanical properties :
#
#
# Convention : Reuss Voigt Hill
#
# Bulk Modulus (GPa) = 10.49175 37.25728 23.87451
# Shear Modulus (GPa) = 12.99871 21.36699 17.18285
#
# Velocity S-wave (km/s) = 2.85186 3.65637 3.27889
# Velocity P-wave (km/s) = 4.17238 6.41380 5.41043
#
# Compressibility (1/GPa) = 0.09531296
#
# Stress axis : x y z
#
# Youngs Moduli (GPa) = 27.88573 11.64047 76.16231
#
# Poissons Ratio (x) = 0.01309 1.01674
# Poissons Ratio (y) = 0.03137 0.40502
# Poissons Ratio (z) = 0.37226 0.06190
#
# Static dielectric constant tensor:
#      x y z
#    x 1.493960 0.000000 0.041510 
#    y 0.000000 1.552870 0.000000 
#    z 0.041510 0.000000 1.617220 
# 
# From -- ./inp_files/61690.got.cif
#   From: 2010.05.17/outbox.cif.g08.bks.cpg/sg11_31_cif.got.tgz:61690.got - 2010.06.03 12:22:45.
