data_PCOD9155790
_publ_section_title
;
Structure prediction by ZEFSAII (Michael W. Deem and Ramdas Pophale) SiO2 
 PCOD9155790
Probable space group: P 21/M
;
_chemical_formula_sum "Si O2"
_cell_formula_units_Z 26
_cell_length_a 11.690877
_cell_length_b 16.446451
_cell_length_c 6.687849
_cell_angle_alpha 90.000000
_cell_angle_beta 60.488744
_cell_angle_gamma 90.000000
_cell_volume 1119.062234
_symmetry_space_group_name_H-M "P 21/M"
_symmetry_group_IT_number 11
_symmetry_cell_setting 'monoclinic'
loop_
_space_group_symop_operation_xyz
x,y,z
-x,1/2+y,-z
-x,-y,-z
x,1/2-y,z
loop_
_atom_site_type_symbol
_atom_site_label
_atom_site_fract_x
_atom_site_fract_y
_atom_site_fract_z
Si Si1 0.767207 0.157474 0.450819
Si Si2 0.491026 0.567769 0.306693
Si Si3 0.539902 0.393824 0.142137
Si Si4 0.233412 0.386038 0.030140
Si Si5 0.175212 0.929384 0.194946
Si Si6 0.000409 0.340335 0.933523
Si Si7 0.656393 0.750000 0.764329
O O1 0.739475 0.250000 0.545406
O O2 0.631406 0.116225 0.500044
O O3 0.824435 0.102607 0.580084
O O4 0.876030 0.161468 0.188049
O O5 0.494848 0.470305 0.314506
O O6 0.473267 0.582870 0.081715
O O7 0.633536 0.605761 0.214703
O O8 0.441411 0.319957 0.249988
O O9 0.697969 0.384300 0.014788
O O10 0.202879 0.475075 0.147352
O O11 0.261168 0.321270 0.180654
O O12 0.121243 0.362109 0.970794
O O13 0.041376 0.903576 0.200485
O O14 0.021592 0.250000 0.827357
#
# Coordination Sequence:
#
# PCOD9155790 Si02
#       7
#     4   4   4   4   4   4   2
#     4  10  21  35  59  89 113 151 196 238 285 336
#     4   8  16  32  53  84 112 143 192 234 278 343
#     4   8  16  28  52  86 108 139 192 232 278 331
#     4  10  20  35  57  87 117 154 194 231 294 346
#     4  10  21  38  59  86 116 155 194 234 284 350
#     4  11  23  38  57  88 119 153 192 237 286 344
#     4  10  16  28  56  84 112 148 188 238 282 334
#
# _framework density 23.233737000000001
#
# number of rings (size 3 to 8) (size 9 to 14) (size 15 to 20)
#    0.000    2.462    0.769    3.692   10.769    0.615 
#    0.000    3.077    0.000    5.538    0.000    0.000 
#    0.000    0.000    0.000    0.000    0.000    0.000 
#
# Total GULP energy -144801.681977 kJ/mol
# GULP energy per Si atom -5569.295461 kJ/mol
# Density = 2.318086 g / cm^3
# Si number density = 23.233737 Si / 1000 Ang^3
#
#
#
# Elastic Constant Matrix: (Units=GPa)
#
#
# Indices 1 2 3 4 5 6 
#
# 1 132.9102 80.3054 3.3203 0.0000 -27.5430 0.0000
# 2 80.3054 113.4417 12.2080 0.0000 6.5591 0.0000
# 3 3.3203 12.2080 15.8453 0.0000 1.8609 0.0000
# 4 0.0000 0.0000 0.0000 9.2515 0.0000 4.6332
# 5 -27.5430 6.5591 1.8609 0.0000 21.8275 0.0000
# 6 0.0000 0.0000 0.0000 4.6332 0.0000 42.0355
#
#
#
# Elastic Compliance Matrix: (Units=1/GPa)
#
#
# Indices 1 2 3 4 5 6 
#
# 1 0.037213 -0.030537 0.009229 0.000000 0.055347 0.000000
# 2 -0.030537 0.034783 -0.014795 0.000000 -0.047724 0.000000
# 3 0.009229 -0.014795 0.071401 0.000000 0.010004 0.000000
# 4 0.000000 0.000000 0.000000 0.114406 0.000000 -0.012610
# 5 0.055347 -0.047724 0.010004 0.000000 0.129141 0.000000
# 6 0.000000 0.000000 0.000000 -0.012610 0.000000 0.025179
#
#
# Mechanical properties :
#
#
# Convention : Reuss Voigt Hill
#
# Bulk Modulus (GPa) = 14.04666 50.42938 32.23802
# Shear Modulus (GPa) = 9.84136 25.71381 17.77759
#
# Velocity S-wave (km/s) = 2.06034 3.33039 2.76916
# Velocity P-wave (km/s) = 3.42329 6.04491 4.91223
#
# Compressibility (1/GPa) = 0.07119132
#
# Stress axis : x y z
#
# Youngs Moduli (GPa) = 26.87208 28.74926 14.00550
#
# Poissons Ratio (x) = 0.87791 -0.12926
# Poissons Ratio (y) = 0.82058 0.20722
# Poissons Ratio (z) = -0.24800 0.42535
#
# Static dielectric constant tensor:
#      x y z
#    x 1.890100 0.000000 0.017280 
#    y 0.000000 1.848950 0.000000 
#    z 0.017280 0.000000 1.926440 
# 
# From -- ./inp_files/17646.got.cif
#   From: 2010.05.17/outbox.cif.g08.bks.cpg/sg11_9_cif.got.tgz:17646.got - 2010.06.03 12:22:45.
