data_PCOD9155326
_publ_section_title
;
Structure prediction by ZEFSAII (Michael W. Deem and Ramdas Pophale) SiO2 
 PCOD9155326
Probable space group: P 2/M
;
_chemical_formula_sum "Si O2"
_cell_formula_units_Z 32
_cell_length_a 12.000000
_cell_length_b 9.000000
_cell_length_c 30.000000
_cell_angle_alpha 90.000000
_cell_angle_beta 150.000000
_cell_angle_gamma 90.000000
_cell_volume 1620.000000
_symmetry_space_group_name_H-M "P 2/M"
_symmetry_group_IT_number 10
_symmetry_cell_setting 'monoclinic'
loop_
_space_group_symop_operation_xyz
x,y,z
-x,y,-z
-x,-y,-z
x,-y,z
loop_
_atom_site_type_symbol
_atom_site_label
_atom_site_fract_x
_atom_site_fract_y
_atom_site_fract_z
Si Si1 0.246333 0.178195 0.101309
Si Si2 0.284395 0.174696 0.957249
Si Si3 0.985689 0.324506 0.723209
Si Si4 0.286659 0.324794 0.458679
Si Si5 0.808729 0.178539 0.747400
Si Si6 0.502304 0.820972 0.722581
Si Si7 0.512463 0.677269 0.116284
Si Si8 0.979206 0.320651 0.438805
O O1 0.311548 0.209814 0.175020
O O2 0.431746 0.251838 0.134245
O O3 0.254875 0.000000 0.098507
O O4 0.000000 0.227325 0.000000
O O5 0.050241 0.214041 0.853067
O O6 0.271214 0.000000 0.965136
O O7 0.500000 0.192468 0.000000
O O8 0.335759 0.271776 0.018105
O O9 0.981266 0.500000 0.731950
O O10 0.908431 0.307189 0.645443
O O11 0.824418 0.247229 0.703430
O O12 0.241412 0.270198 0.813937
O O13 0.500000 0.270663 0.500000
O O14 0.338111 0.500000 0.483951
O O15 0.171909 0.274086 0.467620
O O16 0.609813 0.226791 0.712028
O O17 0.794586 0.000000 0.738728
O O18 0.267465 0.747568 0.655412
O O19 0.471021 0.000000 0.709788
O O20 0.521521 0.500000 0.123311
O O21 0.971719 0.500000 0.432711
O O22 0.000000 0.285372 0.500000
#
# Coordination Sequence:
#
# PCOD9155326 Si02
#       8
#     4   4   4   4   4   4   4   4
#     4  10  21  39  61  82 110 154 206 246 288 358
#     4  10  19  34  55  78 109 155 203 242 283 342
#     4  10  21  35  55  83 115 151 188 235 293 348
#     4   9  19  37  61  87 117 149 188 236 287 346
#     4  10  21  37  57  83 115 153 199 243 289 346
#     4  10  22  39  60  86 119 157 195 248 305 350
#     4  11  22  34  53  83 119 150 187 242 301 351
#     4  10  22  40  65  94 120 155 202 245 292 362
#
# _framework density 19.753086
#
# number of rings (size 3 to 8) (size 9 to 14) (size 15 to 20)
#    0.000    2.000    1.250    1.875    1.750    5.750 
#    0.000    1.875    0.000    0.750    0.000    0.000 
#    0.000    0.000    0.000    0.000    0.000    0.000 
#
# Total GULP energy -178330.155219 kJ/mol
# GULP energy per Si atom -5572.817351 kJ/mol
# Density = 1.970813 g / cm^3
# Si number density = 19.753086 Si / 1000 Ang^3
#
#
#
# Elastic Constant Matrix: (Units=GPa)
#
#
# Indices 1 2 3 4 5 6 
#
# 1 167.3249 22.9416 20.7172 0.0000 5.4729 0.0000
# 2 22.9416 7.7875 5.5672 0.0000 -4.0585 0.0000
# 3 20.7172 5.5672 56.1455 0.0000 3.7307 0.0000
# 4 0.0000 0.0000 0.0000 21.0292 0.0000 2.4653
# 5 5.4729 -4.0585 3.7307 0.0000 36.7899 0.0000
# 6 0.0000 0.0000 0.0000 2.4653 0.0000 35.6269
#
#
#
# Elastic Compliance Matrix: (Units=1/GPa)
#
#
# Indices 1 2 3 4 5 6 
#
# 1 0.010994 -0.035094 -0.000212 0.000000 -0.005485 0.000000
# 2 -0.035094 0.261308 -0.015326 0.000000 0.035601 0.000000
# 3 -0.000212 -0.015326 0.019652 0.000000 -0.003652 0.000000
# 4 0.000000 0.000000 0.000000 0.047942 0.000000 -0.003317
# 5 -0.005485 0.035601 -0.003652 0.000000 0.032295 0.000000
# 6 0.000000 0.000000 0.000000 -0.003317 0.000000 0.028298
#
#
# Mechanical properties :
#
#
# Convention : Reuss Voigt Hill
#
# Bulk Modulus (GPa) = 5.24419 36.63443 20.93931
# Shear Modulus (GPa) = 8.84459 30.82466 19.83463
#
# Velocity S-wave (km/s) = 2.11832 3.95460 3.17224
# Velocity P-wave (km/s) = 2.94002 6.27999 4.90316
#
# Compressibility (1/GPa) = 0.19068735
#
# Stress axis : x y z
#
# Youngs Moduli (GPa) = 90.96017 3.82690 50.88650
#
# Poissons Ratio (x) = 0.13430 0.01080
# Poissons Ratio (y) = 3.19218 0.77991
# Poissons Ratio (z) = 0.01931 0.05865
#
# Static dielectric constant tensor:
#      x y z
#    x 1.729430 0.000000 -0.009550 
#    y 0.000000 1.669770 0.000000 
#    z -0.009550 0.000000 1.736870 
# 
# From -- ./inp_files/95015.got.cif
#   From: 2010.05.17/outbox.ucp.g08.bks.cvg/sg10_48_cif.got.tgz:95015.got - 2010.06.11 11:31:16.
