data_PCOD9155058
_publ_section_title
;
Structure prediction by ZEFSAII (Michael W. Deem and Ramdas Pophale) SiO2 
 PCOD9155058
Probable space group: P 2/M
;
_chemical_formula_sum "Si O2"
_cell_formula_units_Z 32
_cell_length_a 8.319137
_cell_length_b 7.475153
_cell_length_c 28.640407
_cell_angle_alpha 90.000000
_cell_angle_beta 125.516307
_cell_angle_gamma 90.000000
_cell_volume 1449.690817
_symmetry_space_group_name_H-M "P 2/M"
_symmetry_group_IT_number 10
_symmetry_cell_setting 'monoclinic'
loop_
_space_group_symop_operation_xyz
x,y,z
-x,y,-z
-x,-y,-z
x,-y,z
loop_
_atom_site_type_symbol
_atom_site_label
_atom_site_fract_x
_atom_site_fract_y
_atom_site_fract_z
Si Si1 0.444523 0.706906 0.130947
Si Si2 0.079269 0.293095 0.130945
Si Si3 0.548908 0.207090 0.619788
Si Si4 0.069756 0.792910 0.380213
Si Si5 0.809110 0.206964 0.499999
Si Si6 0.633837 0.281191 0.066917
Si Si7 0.287142 0.205890 0.739558
Si Si8 0.328904 0.205890 0.260440
O O1 0.396465 0.500000 0.113261
O O2 0.249077 0.783945 0.124536
O O3 0.527852 0.783443 0.096630
O O4 0.622409 0.711360 0.198572
O O5 0.056585 0.500000 0.113259
O O6 0.171878 0.288641 0.198570
O O7 0.858675 0.216558 0.096628
O O8 0.733066 0.203169 0.616533
O O9 0.367207 0.287570 0.560366
O O10 0.623124 0.286780 0.681086
O O11 0.489213 0.000000 0.621326
O O12 0.125749 0.712429 0.439636
O O13 0.898781 0.713221 0.318916
O O14 0.003912 0.000000 0.378676
O O15 0.000000 0.202572 0.500000
O O16 0.745825 0.000000 0.499999
O O17 0.644269 0.500000 0.072133
O O18 0.500000 0.236678 0.000000
O O19 0.466070 0.207176 0.733035
O O20 0.237565 0.000000 0.743383
O O21 0.264029 0.000000 0.256615
#
# Coordination Sequence:
#
# PCOD9155058 Si02
#       8
#     4   4   4   4   4   4   4   4
#     4   9  18  32  50  72  97 124 155 191 230 273
#     4   9  18  32  50  72  97 124 155 191 230 273
#     4   9  16  24  36  57  84 114 149 189 231 274
#     4   9  16  24  36  57  84 114 149 189 231 274
#     4   9  15  23  35  51  78 115 150 187 230 274
#     4   9  18  32  51  75  99 122 153 192 230 271
#     4   9  17  29  45  66  92 122 155 190 230 276
#     4   9  17  29  45  66  92 122 155 190 230 276
#
# _framework density 22.073671999999998
#
# number of rings (size 3 to 8) (size 9 to 14) (size 15 to 20)
#    0.000    3.000    0.000    1.125    1.750    5.000 
#    0.000    2.500    0.000    1.500    0.000    4.375 
#    0.000    7.000    0.000    0.000    0.000    0.000 
#
# Total GULP energy -178383.178587 kJ/mol
# GULP energy per Si atom -5574.474331 kJ/mol
# Density = 2.202343 g / cm^3
# Si number density = 22.073672 Si / 1000 Ang^3
#
#
#
# Elastic Constant Matrix: (Units=GPa)
#
#
# Indices 1 2 3 4 5 6 
#
# 1 114.7608 10.6417 113.8973 0.0000 5.7836 0.0000
# 2 10.6417 61.4786 3.6749 0.0000 -0.4126 0.0000
# 3 113.8973 3.6749 183.1674 0.0000 -1.7338 0.0000
# 4 0.0000 0.0000 0.0000 6.3808 0.0000 0.6786
# 5 5.7836 -0.4126 -1.7338 0.0000 48.8251 0.0000
# 6 0.0000 0.0000 0.0000 0.6786 0.0000 -5.0806
#
#
#
# Elastic Compliance Matrix: (Units=1/GPa)
#
#
# Indices 1 2 3 4 5 6 
#
# 1 0.023912 -0.003275 -0.014835 0.000000 -0.003387 0.000000
# 2 -0.003275 0.016735 0.001706 0.000000 0.000590 0.000000
# 3 -0.014835 0.001706 0.014672 0.000000 0.002293 0.000000
# 4 0.000000 0.000000 0.000000 0.154524 0.000000 0.020638
# 5 -0.003387 0.000590 0.002293 0.000000 0.020969 0.000000
# 6 0.000000 0.000000 0.000000 0.020638 0.000000 -0.194070
#
#
# Mechanical properties :
#
#
# Convention : Reuss Voigt Hill
#
# Bulk Modulus (GPa) = 44.42384 68.42607 56.42495
# Shear Modulus (GPa) = 64.89069 25.43792 45.16430
#
# Velocity S-wave (km/s) = 5.42781 3.39840 4.52826
# Velocity P-wave (km/s) = 7.71041 6.81653 7.27721
#
# Compressibility (1/GPa) = 0.02251044
#
# Stress axis : x y z
#
# Youngs Moduli (GPa) = 41.82064 59.75619 68.15825
#
# Poissons Ratio (x) = 0.19570 1.01114
# Poissons Ratio (y) = 0.13696 -0.11630
# Poissons Ratio (z) = 0.62041 -0.10196
#
# Static dielectric constant tensor:
#      x y z
#    x 1.774510 0.000000 0.001840 
#    y 0.000000 1.906800 0.000000 
#    z 0.001840 0.000000 1.805540 
# 
# From -- ./inp_files/88008.got.cif
#   From: 2010.05.17/outbox.cif.g08.bks.cpg/sg10_45_cif.got.tgz:88008.got - 2010.06.03 11:33:40.
