data_PCOD9155587
_publ_section_title
;
Structure prediction by ZEFSAII (Michael W. Deem and Ramdas Pophale) SiO2 
 PCOD9155587
Probable space group: P 2/M
;
_chemical_formula_sum "Si O2"
_cell_formula_units_Z 32
_cell_length_a 24.000000
_cell_length_b 9.000000
_cell_length_c 18.000000
_cell_angle_alpha 90.000000
_cell_angle_beta 150.000000
_cell_angle_gamma 90.000000
_cell_volume 1944.000000
_symmetry_space_group_name_H-M "P 2/M"
_symmetry_group_IT_number 10
_symmetry_cell_setting 'monoclinic'
loop_
_space_group_symop_operation_xyz
x,y,z
-x,y,-z
-x,-y,-z
x,-y,z
loop_
_atom_site_type_symbol
_atom_site_label
_atom_site_fract_x
_atom_site_fract_y
_atom_site_fract_z
Si Si1 0.133933 0.829840 0.643887
Si Si2 0.960212 0.679888 0.034382
Si Si3 0.366589 0.179029 0.500031
Si Si4 0.374849 0.178917 0.198347
Si Si5 0.172430 0.680067 0.377521
Si Si6 0.912344 0.181341 0.571972
Si Si7 0.701908 0.679995 0.737459
Si Si8 0.172827 0.180918 0.852478
O O1 0.140422 0.767009 0.568029
O O2 0.182937 0.766165 0.777687
O O3 0.000000 0.835818 0.500000
O O4 0.175106 0.000000 0.687336
O O5 0.959784 0.500000 0.032747
O O6 0.055737 0.723021 0.202304
O O7 0.832439 0.723601 0.898457
O O8 0.000000 0.733503 0.000000
O O9 0.495471 0.207894 0.673316
O O10 0.275697 0.251439 0.450662
O O11 0.344135 0.248194 0.391960
O O12 0.351706 0.000000 0.479842
O O13 0.357141 0.259188 0.256927
O O14 0.364283 0.000000 0.195688
O O15 0.275700 0.224542 0.025600
O O16 0.181258 0.500000 0.388059
O O17 0.156852 0.747007 0.441307
O O18 0.045518 0.222115 0.729997
O O19 0.908270 0.000000 0.569543
O O20 0.693791 0.500000 0.723069
O O21 0.173347 0.000000 0.850960
#
# Coordination Sequence:
#
# PCOD9155587 Si02
#       8
#     4   4   4   4   4   4   4   4
#     4   7  11  22  45  76 104 128 153 189 236 286
#     4   9  17  32  50  69  94 122 155 196 239 282
#     4  11  23  37  50  67  95 130 168 209 247 277
#     4  10  21  35  51  72  99 128 162 207 245 279
#     4  11  21  34  52  71  97 131 165 199 242 295
#     4   9  16  28  50  80 107 126 154 196 241 291
#     4  11  21  35  55  74  95 126 163 201 245 297
#     4   8  14  28  51  77 103 130 160 193 238 292
#
# _framework density 16.460905
#
# number of rings (size 3 to 8) (size 9 to 14) (size 15 to 20)
#    0.000    2.500    1.250    3.750    0.000    2.500 
#    0.000    2.500    0.000    4.875    0.000    5.250 
#    0.000    0.000    0.000    0.000    0.000    0.000 
#
# Total GULP energy -178200.372565 kJ/mol
# GULP energy per Si atom -5568.761643 kJ/mol
# Density = 1.642344 g / cm^3
# Si number density = 16.460905 Si / 1000 Ang^3
#
#
#
# Elastic Constant Matrix: (Units=GPa)
#
#
# Indices 1 2 3 4 5 6 
#
# 1 123.3626 30.9527 67.1745 0.0000 -17.2641 0.0000
# 2 30.9527 39.9977 27.8156 0.0000 -1.1984 0.0000
# 3 67.1745 27.8156 108.4740 0.0000 -5.2706 0.0000
# 4 0.0000 0.0000 0.0000 18.1288 0.0000 4.1794
# 5 -17.2641 -1.1984 -5.2706 0.0000 32.6816 0.0000
# 6 0.0000 0.0000 0.0000 4.1794 0.0000 17.9279
#
#
#
# Elastic Compliance Matrix: (Units=1/GPa)
#
#
# Indices 1 2 3 4 5 6 
#
# 1 0.014300 -0.006002 -0.007015 0.000000 0.006203 0.000000
# 2 -0.006002 0.032947 -0.004865 0.000000 -0.002747 0.000000
# 3 -0.007015 -0.004865 0.014737 0.000000 -0.001507 0.000000
# 4 0.000000 0.000000 0.000000 0.058294 0.000000 -0.013590
# 5 0.006203 -0.002747 -0.001507 0.000000 0.033531 0.000000
# 6 0.000000 0.000000 0.000000 -0.013590 0.000000 0.058947
#
#
# Mechanical properties :
#
#
# Convention : Reuss Voigt Hill
#
# Bulk Modulus (GPa) = 38.13868 58.19109 48.16488
# Shear Modulus (GPa) = 19.43552 23.47377 21.45465
#
# Velocity S-wave (km/s) = 3.43987 3.78038 3.61414
# Velocity P-wave (km/s) = 6.24472 7.38125 6.83664
#
# Compressibility (1/GPa) = 0.02622010
#
# Stress axis : x y z
#
# Youngs Moduli (GPa) = 69.92956 30.35162 67.85452
#
# Poissons Ratio (x) = 0.18217 0.47601
# Poissons Ratio (y) = 0.41971 0.33013
# Poissons Ratio (z) = 0.49057 0.14767
#
# Static dielectric constant tensor:
#      x y z
#    x 1.571660 0.000000 -0.014430 
#    y 0.000000 1.548700 0.000000 
#    z -0.014430 0.000000 1.569800 
# 
# From -- ./inp_files/79997.got.cif
#   From: 2010.05.17/outbox.ucp.g08.bks.cvg/sg10_40_cif.got.tgz:79997.got - 2010.06.11 11:31:16.
