data_PCOD9155567
_publ_section_title
;
Structure prediction by ZEFSAII (Michael W. Deem and Ramdas Pophale) SiO2 
 PCOD9155567
Probable space group: P 2/M
;
_chemical_formula_sum "Si O2"
_cell_formula_units_Z 22
_cell_length_a 9.000000
_cell_length_b 12.000000
_cell_length_c 15.000000
_cell_angle_alpha 90.000000
_cell_angle_beta 130.000000
_cell_angle_gamma 90.000000
_cell_volume 1240.991998
_symmetry_space_group_name_H-M "P 2/M"
_symmetry_group_IT_number 10
_symmetry_cell_setting 'monoclinic'
loop_
_space_group_symop_operation_xyz
x,y,z
-x,y,-z
-x,-y,-z
x,-y,z
loop_
_atom_site_type_symbol
_atom_site_label
_atom_site_fract_x
_atom_site_fract_y
_atom_site_fract_z
Si Si1 0.187151 0.000000 0.413812
Si Si2 0.500000 0.236278 0.000000
Si Si3 0.583828 0.000000 0.684637
Si Si4 0.097696 0.633917 0.803105
Si Si5 0.824858 0.370140 0.861839
Si Si6 0.935617 0.784614 0.375234
Si Si7 0.474835 0.187753 0.191923
O O1 0.056665 0.891367 0.385848
O O2 0.374554 0.000000 0.552626
O O3 0.264650 0.000000 0.340574
O O4 0.306186 0.310539 0.908166
O O5 0.545236 0.170836 0.924030
O O6 0.598936 0.101755 0.760879
O O7 0.117089 0.500000 0.810735
O O8 0.040064 0.684509 0.685506
O O9 0.928634 0.663976 0.809078
O O10 0.769205 0.500000 0.833734
O O11 0.644052 0.298984 0.827710
O O12 0.000000 0.360585 0.000000
O O13 0.706369 0.808898 0.292050
O O14 0.000000 0.757932 0.500000
#
# Coordination Sequence:
#
# PCOD9155567 Si02
#       7
#     2   2   2   4   4   4   4
#     4  11  22  43  65  87 117 166 209 242 301 366
#     4  10  21  35  60  88 126 159 199 244 300 370
#     4  11  23  39  67  90 119 159 205 253 297 365
#     4  10  21  37  60  88 122 161 202 246 299 358
#     4  10  20  38  62  86 120 162 204 246 292 358
#     4  11  22  39  63  90 123 159 202 255 298 362
#     4  11  22  38  62  93 120 159 205 248 302 359
#
# _framework density 17.727753
#
# number of rings (size 3 to 8) (size 9 to 14) (size 15 to 20)
#    0.000    1.455    3.636    2.182    0.000    3.636 
#    0.000    1.364    0.000    2.182    0.000    0.000 
#    0.000    0.000    0.000    0.000    0.000    0.000 
#
# Total GULP energy -122645.510804 kJ/mol
# GULP energy per Si atom -5574.795946 kJ/mol
# Density = 1.768740 g / cm^3
# Si number density = 17.727753 Si / 1000 Ang^3
#
#
#
# Elastic Constant Matrix: (Units=GPa)
#
#
# Indices 1 2 3 4 5 6 
#
# 1 146.8089 42.6319 55.2826 0.0000 -22.5163 0.0000
# 2 42.6319 54.4765 34.8347 0.0000 -8.6736 0.0000
# 3 55.2826 34.8347 113.9924 0.0000 -28.6159 0.0000
# 4 0.0000 0.0000 0.0000 23.1582 0.0000 -3.7453
# 5 -22.5163 -8.6736 -28.6159 0.0000 49.5474 0.0000
# 6 0.0000 0.0000 0.0000 -3.7453 0.0000 26.0389
#
#
#
# Elastic Compliance Matrix: (Units=1/GPa)
#
#
# Indices 1 2 3 4 5 6 
#
# 1 0.009699 -0.005698 -0.002463 0.000000 0.001987 0.000000
# 2 -0.005698 0.026163 -0.005534 0.000000 -0.001206 0.000000
# 3 -0.002463 -0.005534 0.013022 0.000000 0.005433 0.000000
# 4 0.000000 0.000000 0.000000 0.044210 0.000000 0.006359
# 5 0.001987 -0.001206 0.005433 0.000000 0.024012 0.000000
# 6 0.000000 0.000000 0.000000 0.006359 0.000000 0.039319
#
#
# Mechanical properties :
#
#
# Convention : Reuss Voigt Hill
#
# Bulk Modulus (GPa) = 46.52952 64.53069 55.53010
# Shear Modulus (GPa) = 26.18076 31.91748 29.04912
#
# Velocity S-wave (km/s) = 3.84712 4.24774 4.05238
# Velocity P-wave (km/s) = 6.78509 7.78060 7.29983
#
# Compressibility (1/GPa) = 0.02149173
#
# Stress axis : x y z
#
# Youngs Moduli (GPa) = 103.10637 38.22229 76.79251
#
# Poissons Ratio (x) = 0.21781 0.18917
# Poissons Ratio (y) = 0.58754 0.42498
# Poissons Ratio (z) = 0.25399 0.21153
#
# Static dielectric constant tensor:
#      x y z
#    x 1.599500 0.000000 -0.020850 
#    y 0.000000 1.615050 0.000000 
#    z -0.020850 0.000000 1.612190 
# 
# From -- ./inp_files/60864.got.cif
#   From: 2010.05.17/outbox.ucp.g08.bks.cvg/sg10_31_cif.got.tgz:60864.got - 2010.06.11 11:31:16.
