data_PCOD9155765
_publ_section_title
;
Structure prediction by ZEFSAII (Michael W. Deem and Ramdas Pophale) SiO2 
 PCOD9155765
Probable space group: P 21/M
;
_chemical_formula_sum "Si O2"
_cell_formula_units_Z 32
_cell_length_a 11.757036
_cell_length_b 17.442641
_cell_length_c 6.652330
_cell_angle_alpha 90.000000
_cell_angle_beta 116.393635
_cell_angle_gamma 90.000000
_cell_volume 1222.013765
_symmetry_space_group_name_H-M "P 21/M"
_symmetry_group_IT_number 11
_symmetry_cell_setting 'monoclinic'
loop_
_space_group_symop_operation_xyz
x,y,z
-x,1/2+y,-z
-x,-y,-z
x,1/2-y,z
loop_
_atom_site_type_symbol
_atom_site_label
_atom_site_fract_x
_atom_site_fract_y
_atom_site_fract_z
Si Si1 0.468148 0.585316 0.885607
Si Si2 0.052504 0.670554 0.680203
Si Si3 0.512905 0.663797 0.329295
Si Si4 0.214953 0.377196 0.530945
Si Si5 0.228221 0.837736 0.216213
Si Si6 0.721500 0.842394 0.951065
Si Si7 0.851805 0.504090 0.930052
Si Si8 0.811546 0.041521 0.367229
O O1 0.325558 0.577739 0.699434
O O2 0.500000 0.500000 0.000000
O O3 0.466967 0.642817 0.070615
O O4 0.578707 0.620376 0.833511
O O5 0.072807 0.750000 0.587865
O O6 0.152186 0.667674 0.941735
O O7 0.079269 0.604105 0.542415
O O8 0.907952 0.667702 0.639472
O O9 0.558782 0.750000 0.377808
O O10 0.644921 0.619478 0.455837
O O11 0.381530 0.658419 0.341978
O O12 0.240299 0.348613 0.781479
O O13 0.168318 0.464175 0.499390
O O14 0.200901 0.750000 0.278479
O O15 0.196805 0.928359 0.231843
O O16 0.725143 0.750000 0.902175
O O17 0.805489 0.906056 0.896660
O O18 0.813786 0.484004 0.132254
O O19 0.000000 0.500000 0.000000
#
# Coordination Sequence:
#
# PCOD9155765 Si02
#       8
#     4   4   4   4   4   4   4   4
#     4  11  14  27  46  65  93 124 150 186 246 291
#     4  10  18  28  41  64  99 128 153 185 233 298
#     4  10  16  25  43  65  90 119 149 185 230 280
#     4  10  18  28  44  68  98 128 154 185 237 300
#     4   9  18  31  48  70  96 125 162 203 242 282
#     4  10  20  30  46  72 103 130 159 200 249 294
#     4  10  19  32  48  67  95 133 167 207 241 282
#     4  10  19  29  46  67  95 127 161 193 237 286
#
# _framework density 26.186285000000002
#
# number of rings (size 3 to 8) (size 9 to 14) (size 15 to 20)
#    0.000    2.000    6.250    2.625    0.000    1.000 
#    0.000    0.000    0.000    0.000    0.000    3.500 
#    0.000    0.000    6.750    0.500    0.000    0.000 
#
# Total GULP energy -178430.638998 kJ/mol
# GULP energy per Si atom -5575.957469 kJ/mol
# Density = 2.612668 g / cm^3
# Si number density = 26.186285 Si / 1000 Ang^3
#
#
#
# Elastic Constant Matrix: (Units=GPa)
#
#
# Indices 1 2 3 4 5 6 
#
# 1 129.9439 74.5226 59.3093 0.0000 20.5225 0.0000
# 2 74.5226 229.5540 39.0315 0.0000 15.5250 0.0000
# 3 59.3093 39.0315 99.0105 0.0000 24.9479 0.0000
# 4 0.0000 0.0000 0.0000 -167.0086 0.0000 -142.4637
# 5 20.5225 15.5250 24.9479 0.0000 40.9742 0.0000
# 6 0.0000 0.0000 0.0000 -142.4637 0.0000 -92.7942
#
#
#
# Elastic Compliance Matrix: (Units=1/GPa)
#
#
# Indices 1 2 3 4 5 6 
#
# 1 0.012242 -0.002883 -0.005819 0.000000 -0.001496 0.000000
# 2 -0.002883 0.005369 -0.000284 0.000000 -0.000417 0.000000
# 3 -0.005819 -0.000284 0.015281 0.000000 -0.006282 0.000000
# 4 0.000000 0.000000 0.000000 0.019338 0.000000 -0.029689
# 5 -0.001496 -0.000417 -0.006282 0.000000 0.029137 0.000000
# 6 0.000000 0.000000 0.000000 -0.029689 0.000000 0.034805
#
#
# Mechanical properties :
#
#
# Convention : Reuss Voigt Hill
#
# Bulk Modulus (GPa) = 67.03738 89.35947 78.19843
# Shear Modulus (GPa) = 35.94077 -24.72272 5.60902
#
# Velocity S-wave (km/s) = 3.70875 -3.07597 1.46513
# Velocity P-wave (km/s) = 6.63291 4.64577 5.72620
#
# Compressibility (1/GPa) = 0.01491705
#
# Stress axis : x y z
#
# Youngs Moduli (GPa) = 81.68855 186.25818 65.44215
#
# Poissons Ratio (x) = 0.53707 0.38084
# Poissons Ratio (y) = 0.23555 0.01860
# Poissons Ratio (z) = 0.47538 0.05293
#
# Static dielectric constant tensor:
#      x y z
#    x 2.073860 0.000000 -0.143580 
#    y 0.000000 2.157740 0.000000 
#    z -0.143580 0.000000 2.056830 
# 
# From -- ./inp_files/36056.got.cif
#   From: 2010.05.17/outbox.cif.g08.bks.cpg/sg11_19_cif.got.tgz:36056.got - 2010.06.03 12:22:45.
