data_PCOD9155940
_publ_section_title
;
Structure prediction by ZEFSAII (Michael W. Deem and Ramdas Pophale) SiO2 
 PCOD9155940
Probable space group: P 21/M
;
_chemical_formula_sum "Si O2"
_cell_formula_units_Z 28
_cell_length_a 13.933130
_cell_length_b 7.637204
_cell_length_c 13.512319
_cell_angle_alpha 90.000000
_cell_angle_beta 122.438139
_cell_angle_gamma 90.000000
_cell_volume 1213.502086
_symmetry_space_group_name_H-M "P 21/M"
_symmetry_group_IT_number 11
_symmetry_cell_setting 'monoclinic'
loop_
_space_group_symop_operation_xyz
x,y,z
-x,1/2+y,-z
-x,-y,-z
x,1/2-y,z
loop_
_atom_site_type_symbol
_atom_site_label
_atom_site_fract_x
_atom_site_fract_y
_atom_site_fract_z
Si Si1 0.422439 0.953315 0.254494
Si Si2 0.003937 0.051259 0.229637
Si Si3 0.220052 0.043326 0.252194
Si Si4 0.638723 0.537410 0.481254
Si Si5 0.559466 0.042024 0.135668
Si Si6 0.181736 0.534524 0.736615
Si Si7 0.863697 0.455811 0.502655
O O1 0.411097 0.750000 0.269917
O O2 0.514299 0.030884 0.383508
O O3 0.294907 0.024191 0.195568
O O4 0.483319 0.971954 0.183070
O O5 0.978032 0.250000 0.183499
O O6 0.093153 0.970192 0.200622
O O7 0.886072 0.971980 0.203803
O O8 0.075897 0.052470 0.372877
O O9 0.206787 0.250000 0.262571
O O10 0.303694 0.974896 0.385241
O O11 0.634641 0.750000 0.479864
O O12 0.728764 0.479432 0.448041
O O13 0.566212 0.250000 0.153725
O O14 0.688741 0.975276 0.199657
O O15 0.500000 0.000000 0.000000
O O16 0.179995 0.750000 0.736780
O O17 0.118927 0.481339 0.599913
O O18 0.890079 0.250000 0.525217
#
# Coordination Sequence:
#
# PCOD9155940 Si02
#       7
#     4   4   4   4   4   4   4
#     4  11  21  34  54  78 106 141 180 224 270 317
#     4   9  18  33  50  74 109 147 180 211 256 316
#     4   9  18  31  49  75 109 147 180 213 255 312
#     4   9  18  31  47  72 107 147 184 218 260 314
#     4  11  23  41  61  83 107 135 176 227 278 326
#     4   9  18  33  54  76 104 140 176 218 269 319
#     4  10  17  27  46  76 108 143 180 217 259 311
#
# _framework density 23.073713000000001
#
# number of rings (size 3 to 8) (size 9 to 14) (size 15 to 20)
#    0.000    2.286    1.429    3.000    0.000    2.857 
#    0.000    2.143    0.000    0.857    0.000    0.000 
#    0.000    0.000    0.000    0.000    0.000    0.000 
#
# Total GULP energy -156225.176487 kJ/mol
# GULP energy per Si atom -5579.470589 kJ/mol
# Density = 2.302120 g / cm^3
# Si number density = 23.073713 Si / 1000 Ang^3
#
#
#
# Elastic Constant Matrix: (Units=GPa)
#
#
# Indices 1 2 3 4 5 6 
#
# 1 206.2291 1.8986 11.4893 0.0000 -10.0568 0.0000
# 2 1.8986 66.8608 -6.9983 0.0000 -0.7520 0.0000
# 3 11.4893 -6.9983 26.8515 0.0000 3.0072 0.0000
# 4 0.0000 0.0000 0.0000 12.9890 0.0000 -5.6625
# 5 -10.0568 -0.7520 3.0072 0.0000 11.1911 0.0000
# 6 0.0000 0.0000 0.0000 -5.6625 0.0000 17.3078
#
#
#
# Elastic Compliance Matrix: (Units=1/GPa)
#
#
# Indices 1 2 3 4 5 6 
#
# 1 0.005289 -0.000401 -0.002986 0.000000 0.005528 0.000000
# 2 -0.000401 0.015406 0.004239 0.000000 -0.000464 0.000000
# 3 -0.002986 0.004239 0.041131 0.000000 -0.013451 0.000000
# 4 0.000000 0.000000 0.000000 0.089796 0.000000 0.029378
# 5 0.005528 -0.000464 -0.013451 0.000000 0.097908 0.000000
# 6 0.000000 0.000000 0.000000 0.029378 0.000000 0.067389
#
#
# Mechanical properties :
#
#
# Convention : Reuss Voigt Hill
#
# Bulk Modulus (GPa) = 15.74085 34.74674 25.24379
# Shear Modulus (GPa) = 14.86366 27.86771 21.36568
#
# Velocity S-wave (km/s) = 2.54083 3.47907 3.04628
# Velocity P-wave (km/s) = 3.92995 5.58840 4.83088
#
# Compressibility (1/GPa) = 0.06352898
#
# Stress axis : x y z
#
# Youngs Moduli (GPa) = 189.08526 64.90871 24.31267
#
# Poissons Ratio (x) = 0.02600 0.07261
# Poissons Ratio (y) = 0.07575 -0.10305
# Poissons Ratio (z) = 0.56469 -0.27512
#
# Static dielectric constant tensor:
#      x y z
#    x 2.010350 0.000000 0.013050 
#    y 0.000000 1.865350 0.000000 
#    z 0.013050 0.000000 1.827150 
# 
# From -- ./inp_files/51445.got.cif
#   From: 2010.05.17/outbox.cif.g08.bks.cpg/sg11_26_cif.got.tgz:51445.got - 2010.06.03 12:22:45.
