data_PCOD9155859
_publ_section_title
;
Structure prediction by ZEFSAII (Michael W. Deem and Ramdas Pophale) SiO2 
 PCOD9155859
Probable space group: P 21/M
;
_chemical_formula_sum "Si O2"
_cell_formula_units_Z 28
_cell_length_a 14.110959
_cell_length_b 7.462400
_cell_length_c 22.937944
_cell_angle_alpha 90.000000
_cell_angle_beta 139.828875
_cell_angle_gamma 90.000000
_cell_volume 1558.110276
_symmetry_space_group_name_H-M "P 21/M"
_symmetry_group_IT_number 11
_symmetry_cell_setting 'monoclinic'
loop_
_space_group_symop_operation_xyz
x,y,z
-x,1/2+y,-z
-x,-y,-z
x,1/2-y,z
loop_
_atom_site_type_symbol
_atom_site_label
_atom_site_fract_x
_atom_site_fract_y
_atom_site_fract_z
Si Si1 0.459898 0.956800 0.716553
Si Si2 0.193991 0.959298 0.427689
Si Si3 0.234518 0.033088 0.101500
Si Si4 0.010554 0.537189 0.100251
Si Si5 0.149550 0.534713 0.536590
Si Si6 0.518946 0.465642 0.610448
Si Si7 0.836454 0.030054 0.712852
O O1 0.447336 0.750000 0.729476
O O2 0.598841 0.035369 0.816227
O O3 0.295507 0.035002 0.638273
O O4 0.506894 0.963193 0.670660
O O5 0.153962 0.750000 0.410151
O O6 0.149024 0.035253 0.469656
O O7 0.132277 0.032889 0.338044
O O8 0.371311 0.973398 0.508709
O O9 0.239663 0.250000 0.101170
O O10 0.145613 0.989020 0.118824
O O11 0.133549 0.966599 0.000761
O O12 0.989763 0.750000 0.096573
O O13 0.055904 0.468452 0.185012
O O14 0.169294 0.750000 0.541711
O O15 0.000000 0.500000 0.500000
O O16 0.517295 0.250000 0.612443
O O17 0.670924 0.522830 0.652922
O O18 0.837979 0.250000 0.713287
#
# Coordination Sequence:
#
# PCOD9155859 Si02
#       7
#     4   4   4   4   4   4   4
#     4   9  17  29  43  61  85 114 140 167 205 250
#     4   9  18  31  43  57  81 112 138 166 206 252
#     4   9  16  26  41  60  84 114 144 169 198 236
#     4   9  16  26  40  60  86 114 143 172 196 226
#     4   9  18  31  46  61  79 101 133 175 216 254
#     4  10  17  25  39  61  85 111 141 172 197 231
#     4   9  16  26  40  59  85 114 141 167 198 233
#
# _framework density 17.970485
#
# number of rings (size 3 to 8) (size 9 to 14) (size 15 to 20)
#    0.000    2.857    1.429    1.714    0.000    2.286 
#    0.000    1.429    0.000    0.000    0.000    1.000 
#    0.000    0.000    0.000    0.000    0.000    0.000 
#
# Total GULP energy -156028.502606 kJ/mol
# GULP energy per Si atom -5572.446522 kJ/mol
# Density = 1.792958 g / cm^3
# Si number density = 17.970485 Si / 1000 Ang^3
#
#
#
# Elastic Constant Matrix: (Units=GPa)
#
#
# Indices 1 2 3 4 5 6 
#
# 1 78.4084 0.5880 77.0277 0.0000 11.7305 0.0000
# 2 0.5880 51.9919 -2.3723 0.0000 -1.8452 0.0000
# 3 77.0277 -2.3723 179.2173 0.0000 -3.4934 0.0000
# 4 0.0000 0.0000 0.0000 6.6362 0.0000 2.0857
# 5 11.7305 -1.8452 -3.4934 0.0000 21.5438 0.0000
# 6 0.0000 0.0000 0.0000 2.0857 0.0000 13.4100
#
#
#
# Elastic Compliance Matrix: (Units=1/GPa)
#
#
# Indices 1 2 3 4 5 6 
#
# 1 0.027027 -0.001447 -0.011962 0.000000 -0.016780 0.000000
# 2 -0.001447 0.019385 0.000929 0.000000 0.002599 0.000000
# 3 -0.011962 0.000929 0.010896 0.000000 0.008360 0.000000
# 4 0.000000 0.000000 0.000000 0.158433 0.000000 -0.024641
# 5 -0.016780 0.002599 0.008360 0.000000 0.057132 0.000000
# 6 0.000000 0.000000 0.000000 -0.024641 0.000000 0.078403
#
#
# Mechanical properties :
#
#
# Convention : Reuss Voigt Hill
#
# Bulk Modulus (GPa) = 30.91414 51.12270 41.01842
# Shear Modulus (GPa) = 12.91929 23.94296 18.43113
#
# Velocity S-wave (km/s) = 2.68417 3.65410 3.20603
# Velocity P-wave (km/s) = 5.18136 6.80537 6.04812
#
# Compressibility (1/GPa) = 0.03234766
#
# Stress axis : x y z
#
# Youngs Moduli (GPa) = 37.00064 51.58689 91.77293
#
# Poissons Ratio (x) = 0.07464 1.09781
# Poissons Ratio (y) = 0.05354 -0.08527
# Poissons Ratio (z) = 0.44261 -0.04793
#
# Static dielectric constant tensor:
#      x y z
#    x 1.576410 0.000000 -0.003720 
#    y 0.000000 1.672150 0.000000 
#    z -0.003720 0.000000 1.672290 
# 
# From -- ./inp_files/42323.got.cif
#   From: 2010.05.17/outbox.cif.g08.bks.cpg/sg11_22_cif.got.tgz:42323.got - 2010.06.03 12:22:45.
