data_PCOD9155869
_publ_section_title
;
Structure prediction by ZEFSAII (Michael W. Deem and Ramdas Pophale) SiO2 
 PCOD9155869
Probable space group: P 21/M
;
_chemical_formula_sum "Si O2"
_cell_formula_units_Z 32
_cell_length_a 11.979426
_cell_length_b 8.515932
_cell_length_c 23.983322
_cell_angle_alpha 90.000000
_cell_angle_beta 134.059612
_cell_angle_gamma 90.000000
_cell_volume 1758.226495
_symmetry_space_group_name_H-M "P 21/M"
_symmetry_group_IT_number 11
_symmetry_cell_setting 'monoclinic'
loop_
_space_group_symop_operation_xyz
x,y,z
-x,1/2+y,-z
-x,-y,-z
x,1/2-y,z
loop_
_atom_site_type_symbol
_atom_site_label
_atom_site_fract_x
_atom_site_fract_y
_atom_site_fract_z
Si Si1 0.356003 0.439555 0.738482
Si Si2 0.643996 0.060445 0.761518
Si Si3 0.026327 0.060894 0.570818
Si Si4 0.888840 0.436392 0.634326
Si Si5 0.784603 0.064916 0.206507
Si Si6 0.111158 0.063608 0.865674
Si Si7 0.215399 0.064916 0.293494
Si Si8 0.026328 0.560894 0.070818
O O1 0.356417 0.250000 0.744219
O O2 0.500000 0.485873 0.750000
O O3 0.196563 0.487174 0.652095
O O4 0.350394 0.513284 0.798212
O O5 0.643583 0.250000 0.755781
O O6 0.803436 0.012825 0.847905
O O7 0.649605 0.986716 0.701788
O O8 0.023748 0.250000 0.569390
O O9 0.900512 0.010335 0.574030
O O10 0.000000 0.000000 0.500000
O O11 0.863689 0.250000 0.627693
O O12 0.773516 0.518749 0.637744
O O13 0.062502 0.473945 0.717707
O O14 0.812178 0.250000 0.220555
O O15 0.773517 0.018749 0.137744
O O16 0.136309 0.250000 0.872306
O O17 0.099487 0.010335 0.925969
O O18 0.937497 0.026055 0.782292
O O19 0.187825 0.250000 0.279446
O O20 0.023749 0.750000 0.069391
O O21 0.000000 0.500000 0.000000
#
# Coordination Sequence:
#
# PCOD9155869 Si02
#       8
#     4   4   4   4   4   4   4   4
#     4   9  18  33  50  67  91 125 159 186 221 275
#     4   9  18  33  50  67  91 125 159 186 221 275
#     4   9  18  30  47  70  93 120 151 187 229 270
#     4   9  16  28  44  63  89 122 157 186 221 272
#     4  10  17  25  42  69  94 115 146 193 239 266
#     4   9  16  28  44  63  89 122 157 186 221 272
#     4  10  17  25  42  69  94 115 146 193 239 266
#     4   9  18  30  47  70  93 120 151 187 229 270
#
# _framework density 18.200158999999999
#
# number of rings (size 3 to 8) (size 9 to 14) (size 15 to 20)
#    0.000    2.750    0.000    6.000    0.000    5.500 
#    0.000    0.000    0.000    1.500    0.000    0.000 
#    0.000    0.000    0.000    0.000    0.000    0.000 
#
# Total GULP energy -178184.445894 kJ/mol
# GULP energy per Si atom -5568.263934 kJ/mol
# Density = 1.815873 g / cm^3
# Si number density = 18.200159 Si / 1000 Ang^3
#
#
#
# Elastic Constant Matrix: (Units=GPa)
#
#
# Indices 1 2 3 4 5 6 
#
# 1 182.5997 26.2450 48.5444 0.0000 -46.8079 0.0000
# 2 26.2450 13.4149 6.1393 0.0000 -5.1095 0.0000
# 3 48.5444 6.1393 45.6924 0.0000 -31.8329 0.0000
# 4 0.0000 0.0000 0.0000 15.3343 0.0000 -20.2008
# 5 -46.8079 -5.1095 -31.8329 0.0000 33.8952 0.0000
# 6 0.0000 0.0000 0.0000 -20.2008 0.0000 7.3836
#
#
#
# Elastic Compliance Matrix: (Units=1/GPa)
#
#
# Indices 1 2 3 4 5 6 
#
# 1 0.011309 -0.016967 -0.001842 0.000000 0.011330 0.000000
# 2 -0.016967 0.105258 -0.004010 0.000000 -0.011329 0.000000
# 3 -0.001842 -0.004010 0.064181 0.000000 0.057128 0.000000
# 4 0.000000 0.000000 0.000000 -0.025042 0.000000 -0.068512
# 5 0.011330 -0.011329 0.057128 0.000000 0.097092 0.000000
# 6 0.000000 0.000000 0.000000 -0.068512 0.000000 -0.052007
#
#
# Mechanical properties :
#
#
# Convention : Reuss Voigt Hill
#
# Bulk Modulus (GPa) = 7.40134 44.84050 26.12092
# Shear Modulus (GPa) = 17.15471 22.04119 19.59795
#
# Velocity S-wave (km/s) = 3.07344 3.48378 3.28502
# Velocity P-wave (km/s) = 4.08291 6.39322 5.36393
#
# Compressibility (1/GPa) = 0.13511066
#
# Stress axis : x y z
#
# Youngs Moduli (GPa) = 88.42430 9.50050 15.58094
#
# Poissons Ratio (x) = 0.16119 0.02870
# Poissons Ratio (y) = 1.50028 0.06247
# Poissons Ratio (z) = 0.16289 0.03809
#
# Static dielectric constant tensor:
#      x y z
#    x 1.693920 0.000000 -0.035930 
#    y 0.000000 1.613280 0.000000 
#    z -0.035930 0.000000 1.627950 
# 
# From -- ./inp_files/68325.got.cif
#   From: 2010.05.17/outbox.cif.g08.bks.cpg/sg11_35_cif.got.tgz:68325.got - 2010.06.03 12:22:45.
