data_PCOD9155847
_publ_section_title
;
Structure prediction by ZEFSAII (Michael W. Deem and Ramdas Pophale) SiO2 
 PCOD9155847
Probable space group: P 21/M
;
_chemical_formula_sum "Si O2"
_cell_formula_units_Z 28
_cell_length_a 18.011443
_cell_length_b 9.318340
_cell_length_c 16.507391
_cell_angle_alpha 90.000000
_cell_angle_beta 154.101731
_cell_angle_gamma 90.000000
_cell_volume 1210.104524
_symmetry_space_group_name_H-M "P 21/M"
_symmetry_group_IT_number 11
_symmetry_cell_setting 'monoclinic'
loop_
_space_group_symop_operation_xyz
x,y,z
-x,1/2+y,-z
-x,-y,-z
x,1/2-y,z
loop_
_atom_site_type_symbol
_atom_site_label
_atom_site_fract_x
_atom_site_fract_y
_atom_site_fract_z
Si Si1 0.855608 0.084511 0.406171
Si Si2 0.934807 0.585287 0.811811
Si Si3 0.551786 0.422408 0.719320
Si Si4 0.856328 0.579502 0.110501
Si Si5 0.266106 0.586626 0.256997
Si Si6 0.677796 0.585934 0.364286
Si Si7 0.309941 0.911783 0.917621
O O1 0.901898 0.250000 0.461449
O O2 0.700180 0.075146 0.188804
O O3 0.801876 0.017746 0.438353
O O4 0.000000 0.000000 0.500000
O O5 0.895427 0.750000 0.754150
O O6 0.790979 0.514288 0.726275
O O7 0.991314 0.497867 0.787926
O O8 0.103064 0.586618 0.035342
O O9 0.589498 0.250000 0.767281
O O10 0.579414 0.451750 0.651766
O O11 0.378777 0.446531 0.599195
O O12 0.689991 0.522459 0.898806
O O13 0.872866 0.750000 0.123387
O O14 0.812988 0.523036 0.157619
O O15 0.290086 0.750000 0.309826
O O16 0.738863 0.750000 0.418693
O O17 0.498174 0.577705 0.138898
O O18 0.247588 0.750000 0.876454
#
# Coordination Sequence:
#
# PCOD9155847 Si02
#       7
#     4   4   4   4   4   4   4
#     4  11  23  37  53  73  98 127 158 195 240 288
#     4   9  15  22  32  49  80 119 153 187 230 276
#     4   8  15  27  41  59  87 121 153 190 235 279
#     4  10  17  24  39  62  86 115 154 196 233 275
#     4   8  13  21  33  51  78 114 154 189 224 270
#     4   9  17  32  53  74  97 125 159 198 240 286
#     4   9  19  35  52  70  95 127 160 196 241 288
#
# _framework density 23.138497000000001
#
# number of rings (size 3 to 8) (size 9 to 14) (size 15 to 20)
#    0.000    2.857    0.000    4.286    0.000    6.857 
#    0.000    0.000    0.000    0.000    0.000    0.000 
#    0.000    1.143    0.000    3.429    0.000   10.000 
#
# Total GULP energy -156501.153640 kJ/mol
# GULP energy per Si atom -5589.326916 kJ/mol
# Density = 2.308583 g / cm^3
# Si number density = 23.138497 Si / 1000 Ang^3
#
#
#
# Elastic Constant Matrix: (Units=GPa)
#
#
# Indices 1 2 3 4 5 6 
#
# 1 188.7287 119.1760 34.1762 0.0000 24.4346 0.0000
# 2 119.1760 165.8853 33.1377 0.0000 35.9507 0.0000
# 3 34.1762 33.1377 68.4948 0.0000 10.5078 0.0000
# 4 0.0000 0.0000 0.0000 10.6601 0.0000 13.3129
# 5 24.4346 35.9507 10.5078 0.0000 50.5237 0.0000
# 6 0.0000 0.0000 0.0000 13.3129 0.0000 46.0457
#
#
#
# Elastic Compliance Matrix: (Units=1/GPa)
#
#
# Indices 1 2 3 4 5 6 
#
# 1 0.009873 -0.006856 -0.001679 0.000000 0.000453 0.000000
# 2 -0.006856 0.012431 -0.001802 0.000000 -0.005155 0.000000
# 3 -0.001679 -0.001802 0.016515 0.000000 -0.001340 0.000000
# 4 0.000000 0.000000 0.000000 0.146820 0.000000 -0.042449
# 5 0.000453 -0.005155 -0.001340 0.000000 0.023521 0.000000
# 6 0.000000 0.000000 0.000000 -0.042449 0.000000 0.033991
#
#
# Mechanical properties :
#
#
# Convention : Reuss Voigt Hill
#
# Bulk Modulus (GPa) = 55.11265 88.45429 71.78347
# Shear Modulus (GPa) = 18.52721 37.22048 27.87384
#
# Velocity S-wave (km/s) = 2.83275 4.01508 3.47458
# Velocity P-wave (km/s) = 5.87959 7.73341 6.86933
#
# Compressibility (1/GPa) = 0.01814465
#
# Stress axis : x y z
#
# Youngs Moduli (GPa) = 101.28257 80.44430 60.55097
#
# Poissons Ratio (x) = 0.55152 0.10166
# Poissons Ratio (y) = 0.69439 0.10914
# Poissons Ratio (z) = 0.17005 0.14500
#
# Static dielectric constant tensor:
#      x y z
#    x 1.847930 0.000000 -0.041600 
#    y 0.000000 1.782260 0.000000 
#    z -0.041600 0.000000 1.943280 
# 
# From -- ./inp_files/61259.got.cif
#   From: 2010.05.17/outbox.cif.g08.bks.cpg/sg11_31_cif.got.tgz:61259.got - 2010.06.03 12:22:45.
