data_PCOD9155503
_publ_section_title
;
Structure prediction by ZEFSAII (Michael W. Deem and Ramdas Pophale) SiO2 
 PCOD9155503
Probable space group: P 2/M
;
_chemical_formula_sum "Si O2"
_cell_formula_units_Z 32
_cell_length_a 15.000000
_cell_length_b 9.000000
_cell_length_c 24.000000
_cell_angle_alpha 90.000000
_cell_angle_beta 30.000000
_cell_angle_gamma 90.000000
_cell_volume 1620.000000
_symmetry_space_group_name_H-M "P 2/M"
_symmetry_group_IT_number 10
_symmetry_cell_setting 'monoclinic'
loop_
_space_group_symop_operation_xyz
x,y,z
-x,y,-z
-x,-y,-z
x,-y,z
loop_
_atom_site_type_symbol
_atom_site_label
_atom_site_fract_x
_atom_site_fract_y
_atom_site_fract_z
Si Si1 0.211459 0.175943 0.379611
Si Si2 0.136124 0.179361 0.973041
Si Si3 0.237853 0.178330 0.035543
Si Si4 0.468187 0.176529 0.719287
Si Si5 0.758296 0.320224 0.387547
Si Si6 0.388480 0.679028 0.646468
Si Si7 0.140390 0.678886 0.205703
Si Si8 0.379684 0.322252 0.182383
O O1 0.333194 0.217666 0.367423
O O2 0.272237 0.275150 0.295108
O O3 0.000000 0.191342 0.500000
O O4 0.250076 0.000000 0.348036
O O5 0.333673 0.209361 0.842870
O O6 0.114220 0.000000 0.986521
O O7 0.122696 0.230677 0.044107
O O8 0.000000 0.237516 0.000000
O O9 0.190847 0.250427 0.119667
O O10 0.227320 0.000000 0.044590
O O11 0.438219 0.231311 0.915503
O O12 0.389235 0.252919 0.707153
O O13 0.464524 0.000000 0.711259
O O14 0.755691 0.500000 0.386769
O O15 0.748558 0.271030 0.328002
O O16 0.579911 0.278062 0.516281
O O17 0.934693 0.275143 0.324665
O O18 0.378064 0.500000 0.656577
O O19 0.148853 0.500000 0.196074
O O20 0.267477 0.719383 0.187875
O O21 0.412300 0.500000 0.163473
#
# Coordination Sequence:
#
# PCOD9155503 Si02
#       8
#     4   4   4   4   4   4   4   4
#     4  10  22  40  60  83 116 154 189 230 281 334
#     4   9  19  36  57  80 111 148 184 225 279 336
#     4  11  22  39  61  83 110 147 188 228 279 340
#     4  10  20  36  57  83 114 147 180 229 287 330
#     4   8  17  36  56  78 112 150 183 225 277 329
#     4   9  18  34  58  81 108 149 189 222 270 333
#     4  10  22  38  57  82 113 145 184 235 286 328
#     4  11  23  39  60  84 113 148 186 232 283 331
#
# _framework density 19.753086
#
# number of rings (size 3 to 8) (size 9 to 14) (size 15 to 20)
#    0.000    2.250    1.250    1.875    3.500    3.250 
#    0.000    1.875    0.000    1.875    0.000    0.000 
#    0.000    0.000    0.000    0.000    0.000    0.000 
#
# Total GULP energy -178457.196710 kJ/mol
# GULP energy per Si atom -5576.787397 kJ/mol
# Density = 1.970813 g / cm^3
# Si number density = 19.753086 Si / 1000 Ang^3
#
#
#
# Elastic Constant Matrix: (Units=GPa)
#
#
# Indices 1 2 3 4 5 6 
#
# 1 111.6930 6.1972 -1.6824 0.0000 0.7589 0.0000
# 2 6.1972 -2.1299 -4.3039 0.0000 2.8418 0.0000
# 3 -1.6824 -4.3039 21.4093 0.0000 -2.9921 0.0000
# 4 0.0000 0.0000 0.0000 24.3980 0.0000 9.0312
# 5 0.7589 2.8418 -2.9921 0.0000 34.5805 0.0000
# 6 0.0000 0.0000 0.0000 9.0312 0.0000 30.6319
#
#
#
# Elastic Compliance Matrix: (Units=1/GPa)
#
#
# Indices 1 2 3 4 5 6 
#
# 1 0.008173 0.015152 0.003532 0.000000 -0.001119 0.000000
# 2 0.015152 -0.290181 -0.054518 0.000000 0.018797 0.000000
# 3 0.003532 -0.054518 0.037090 0.000000 0.007612 0.000000
# 4 0.000000 0.000000 0.000000 0.046008 0.000000 -0.013565
# 5 -0.001119 0.018797 0.007612 0.000000 0.028057 0.000000
# 6 0.000000 0.000000 0.000000 -0.013565 0.000000 0.036645
#
#
# Mechanical properties :
#
#
# Convention : Reuss Voigt Hill
#
# Bulk Modulus (GPa) = -3.15870 14.59936 5.72033
# Shear Modulus (GPa) = -29.74980 26.63950 -1.55515
#
# Velocity S-wave (km/s) = -3.88504 3.67635 -0.88826
# Velocity P-wave (km/s) = 4.66125 5.04259 1.36022
#
# Compressibility (1/GPa) = -0.31658629
#
# Stress axis : x y z
#
# Youngs Moduli (GPa) = 122.35042 -3.44612 26.96125
#
# Poissons Ratio (x) = 0.05221 -0.09522
# Poissons Ratio (y) = -1.85380 1.46986
# Poissons Ratio (z) = -0.43212 -0.18787
#
# Static dielectric constant tensor:
#      x y z
#    x 1.710330 0.000000 -0.022930 
#    y 0.000000 1.664620 0.000000 
#    z -0.022930 0.000000 1.744200 
# 
# From -- ./inp_files/71649.got.cif
#   From: 2010.05.17/outbox.ucp.g08.bks.cvg/sg10_36_cif.got.tgz:71649.got - 2010.06.11 11:31:16.
