data_PCOD9155247
_publ_section_title
;
Structure prediction by ZEFSAII (Michael W. Deem and Ramdas Pophale) SiO2 
 PCOD9155247
Probable space group: P 2/M
;
_chemical_formula_sum "Si O2"
_cell_formula_units_Z 32
_cell_length_a 21.000000
_cell_length_b 9.000000
_cell_length_c 30.000000
_cell_angle_alpha 90.000000
_cell_angle_beta 20.000000
_cell_angle_gamma 90.000000
_cell_volume 1939.254213
_symmetry_space_group_name_H-M "P 2/M"
_symmetry_group_IT_number 10
_symmetry_cell_setting 'monoclinic'
loop_
_space_group_symop_operation_xyz
x,y,z
-x,y,-z
-x,-y,-z
x,-y,z
loop_
_atom_site_type_symbol
_atom_site_label
_atom_site_fract_x
_atom_site_fract_y
_atom_site_fract_z
Si Si1 0.023895 0.319158 0.915389
Si Si2 0.130774 0.176910 0.070658
Si Si3 0.714529 0.818828 0.185395
Si Si4 0.798956 0.678640 0.881430
Si Si5 0.427193 0.823335 0.238089
Si Si6 0.067326 0.320118 0.305056
Si Si7 0.344993 0.320074 0.387514
Si Si8 0.363384 0.321526 0.186023
O O1 0.023461 0.500000 0.918271
O O2 0.204645 0.249642 0.821526
O O3 0.991182 0.262611 0.886357
O O4 0.853357 0.249109 0.056422
O O5 0.348535 0.197008 0.913613
O O6 0.091679 0.000000 0.095614
O O7 0.116625 0.241810 0.130218
O O8 0.510322 0.759210 0.306587
O O9 0.723090 0.000000 0.179696
O O10 0.826331 0.500000 0.867732
O O11 0.880032 0.728069 0.780016
O O12 0.575498 0.705324 0.029920
O O13 0.359090 0.739495 0.327354
O O14 0.343469 0.757738 0.247139
O O15 0.391096 0.000000 0.265324
O O16 0.080166 0.500000 0.295644
O O17 0.216199 0.272072 0.245022
O O18 0.857482 0.283633 0.458450
O O19 0.369134 0.500000 0.372166
O O20 0.343287 0.500000 0.205538
#
# Coordination Sequence:
#
# PCOD9155247 Si02
#       8
#     4   4   4   4   4   4   4   4
#     4  11  20  32  54  82 107 135 173 209 252 307
#     4  10  19  32  51  77 109 139 169 213 265 307
#     4  11  21  34  51  76 110 141 168 208 259 306
#     4   9  17  32  55  79 102 132 176 223 267 311
#     4  10  20  33  49  72 105 139 172 213 265 314
#     4   9  19  34  53  77 102 135 178 225 265 306
#     4  11  21  34  52  73 104 142 180 214 255 313
#     4   9  17  32  55  78 101 131 173 223 270 313
#
# _framework density 16.501189
#
# number of rings (size 3 to 8) (size 9 to 14) (size 15 to 20)
#    0.000    2.000    1.250    4.500    0.000    3.000 
#    0.000    5.625    0.000    3.750    0.000    5.250 
#    0.000    0.000    0.000    0.000    0.000    0.000 
#
# Total GULP energy -178541.039652 kJ/mol
# GULP energy per Si atom -5579.407489 kJ/mol
# Density = 1.646363 g / cm^3
# Si number density = 16.501189 Si / 1000 Ang^3
#
#
#
# Elastic Constant Matrix: (Units=GPa)
#
#
# Indices 1 2 3 4 5 6 
#
# 1 190.2072 68.0665 74.1492 0.0000 -0.9180 0.0000
# 2 68.0665 111.5865 42.1673 0.0000 0.6051 0.0000
# 3 74.1492 42.1673 84.8491 0.0000 4.6129 0.0000
# 4 0.0000 0.0000 0.0000 16.2348 0.0000 -2.5423
# 5 -0.9180 0.6051 4.6129 0.0000 24.1147 0.0000
# 6 0.0000 0.0000 0.0000 -2.5423 0.0000 27.3328
#
#
#
# Elastic Compliance Matrix: (Units=1/GPa)
#
#
# Indices 1 2 3 4 5 6 
#
# 1 0.008783 -0.002995 -0.006274 0.000000 0.001610 0.000000
# 2 -0.002995 0.012070 -0.003393 0.000000 0.000232 0.000000
# 3 -0.006274 -0.003393 0.019163 0.000000 -0.003819 0.000000
# 4 0.000000 0.000000 0.000000 0.062507 0.000000 0.005814
# 5 0.001610 0.000232 -0.003819 0.000000 0.042255 0.000000
# 6 0.000000 0.000000 0.000000 0.005814 0.000000 0.037127
#
#
# Mechanical properties :
#
#
# Convention : Reuss Voigt Hill
#
# Bulk Modulus (GPa) = 68.07557 83.93432 76.00494
# Shear Modulus (GPa) = 23.57086 27.02043 25.29565
#
# Velocity S-wave (km/s) = 3.78356 4.05097 3.91955
# Velocity P-wave (km/s) = 7.77378 8.53561 8.16358
#
# Compressibility (1/GPa) = 0.01468956
#
# Stress axis : x y z
#
# Youngs Moduli (GPa) = 113.85575 82.85144 52.18422
#
# Poissons Ratio (x) = 0.24816 0.32743
# Poissons Ratio (y) = 0.34103 0.17708
# Poissons Ratio (z) = 0.71438 0.28115
#
# Static dielectric constant tensor:
#      x y z
#    x 1.561880 0.000000 -0.007800 
#    y 0.000000 1.552320 0.000000 
#    z -0.007800 0.000000 1.544850 
# 
# From -- ./inp_files/95665.got.cif
#   From: 2010.05.17/outbox.ucp.g08.bks.cvg/sg10_48_cif.got.tgz:95665.got - 2010.06.11 11:31:16.
