data_PCOD9155655
_publ_section_title
;
Structure prediction by ZEFSAII (Michael W. Deem and Ramdas Pophale) SiO2 
 PCOD9155655
Probable space group: P 2/M
;
_chemical_formula_sum "Si O2"
_cell_formula_units_Z 28
_cell_length_a 21.000000
_cell_length_b 9.000000
_cell_length_c 15.000000
_cell_angle_alpha 90.000000
_cell_angle_beta 150.000000
_cell_angle_gamma 90.000000
_cell_volume 1417.500000
_symmetry_space_group_name_H-M "P 2/M"
_symmetry_group_IT_number 10
_symmetry_cell_setting 'monoclinic'
loop_
_space_group_symop_operation_xyz
x,y,z
-x,y,-z
-x,-y,-z
x,-y,z
loop_
_atom_site_type_symbol
_atom_site_label
_atom_site_fract_x
_atom_site_fract_y
_atom_site_fract_z
Si Si1 0.651348 0.331838 0.182229
Si Si2 0.882110 0.176519 0.800175
Si Si3 0.822379 0.819741 0.527303
Si Si4 0.584513 0.329536 0.745539
Si Si5 0.314280 0.672328 0.316962
Si Si6 0.967718 0.820360 0.361319
Si Si7 0.683046 0.823564 0.030814
O O1 0.703095 0.500000 0.242281
O O2 0.700446 0.249165 0.330234
O O3 0.681795 0.245592 0.127823
O O4 0.500000 0.339363 0.000000
O O5 0.853199 0.231724 0.664980
O O6 0.766429 0.214724 0.723739
O O7 0.901402 0.000000 0.813879
O O8 0.000000 0.239344 0.000000
O O9 0.935355 0.773203 0.597146
O O10 0.811421 0.000000 0.514201
O O11 0.615112 0.500000 0.805951
O O12 0.676253 0.281207 0.775268
O O13 0.449855 0.329059 0.531579
O O14 0.587854 0.237631 0.840498
O O15 0.268739 0.500000 0.264138
O O16 0.822996 0.785625 0.162905
O O17 0.000000 0.764638 0.500000
O O18 0.977880 0.000000 0.377835
O O19 0.669297 0.000000 0.022867
#
# Coordination Sequence:
#
# PCOD9155655 Si02
#       7
#     4   4   4   4   4   4   4
#     4  11  25  42  59  84 121 161 198 241 292 351
#     4  10  23  39  59  88 122 156 196 250 301 346
#     4  10  21  40  62  85 117 157 198 244 295 351
#     4   9  20  39  60  85 117 154 192 241 297 345
#     4   9  20  40  62  81 114 159 199 239 291 353
#     4   9  17  34  58  82 111 147 186 231 288 345
#     4  11  22  36  62  92 116 150 192 239 293 352
#
# _framework density 19.753086
#
# number of rings (size 3 to 8) (size 9 to 14) (size 15 to 20)
#    0.000    2.143    1.429    1.714    4.000    3.143 
#    0.000    3.571    0.000    0.000    0.000    0.000 
#    0.000    0.000    0.000    0.000    0.000    0.000 
#
# Total GULP energy -156018.924613 kJ/mol
# GULP energy per Si atom -5572.104450 kJ/mol
# Density = 1.970813 g / cm^3
# Si number density = 19.753086 Si / 1000 Ang^3
#
#
#
# Elastic Constant Matrix: (Units=GPa)
#
#
# Indices 1 2 3 4 5 6 
#
# 1 72.8554 23.1749 40.8537 0.0000 -25.6433 0.0000
# 2 23.1749 38.7275 32.4004 0.0000 -17.6615 0.0000
# 3 40.8537 32.4004 84.5539 0.0000 -30.8675 0.0000
# 4 0.0000 0.0000 0.0000 18.4650 0.0000 4.8682
# 5 -25.6433 -17.6615 -30.8675 0.0000 37.8702 0.0000
# 6 0.0000 0.0000 0.0000 4.8682 0.0000 14.8574
#
#
#
# Elastic Compliance Matrix: (Units=1/GPa)
#
#
# Indices 1 2 3 4 5 6 
#
# 1 0.020955 -0.004326 -0.005728 0.000000 0.007503 0.000000
# 2 -0.004326 0.040840 -0.010927 0.000000 0.007211 0.000000
# 3 -0.005728 -0.010927 0.022073 0.000000 0.009017 0.000000
# 4 0.000000 0.000000 0.000000 0.059277 0.000000 -0.019423
# 5 0.007503 0.007211 0.009017 0.000000 0.042199 0.000000
# 6 0.000000 0.000000 0.000000 -0.019423 0.000000 0.073671
#
#
# Mechanical properties :
#
#
# Convention : Reuss Voigt Hill
#
# Bulk Modulus (GPa) = 23.86252 43.22164 33.54208
# Shear Modulus (GPa) = 15.87573 20.88571 18.38072
#
# Velocity S-wave (km/s) = 2.83805 3.25520 3.05376
# Velocity P-wave (km/s) = 4.77975 6.00474 5.42692
#
# Compressibility (1/GPa) = 0.04190673
#
# Stress axis : x y z
#
# Youngs Moduli (GPa) = 47.72220 24.48553 45.30349
#
# Poissons Ratio (x) = 0.10591 0.25950
# Poissons Ratio (y) = 0.20642 0.49504
# Poissons Ratio (z) = 0.27335 0.26756
#
# Static dielectric constant tensor:
#      x y z
#    x 1.735820 0.000000 0.070710 
#    y 0.000000 1.683940 0.000000 
#    z 0.070710 0.000000 1.766890 
# 
# From -- ./inp_files/70289.got.cif
#   From: 2010.05.17/outbox.ucp.g08.bks.cvg/sg10_36_cif.got.tgz:70289.got - 2010.06.11 11:31:16.
