data_PCOD9155483
_publ_section_title
;
Structure prediction by ZEFSAII (Michael W. Deem and Ramdas Pophale) SiO2 
 PCOD9155483
Probable space group: P 2/M
;
_chemical_formula_sum "Si O2"
_cell_formula_units_Z 32
_cell_length_a 21.000000
_cell_length_b 9.000000
_cell_length_c 27.000000
_cell_angle_alpha 90.000000
_cell_angle_beta 160.000000
_cell_angle_gamma 90.000000
_cell_volume 1745.328791
_symmetry_space_group_name_H-M "P 2/M"
_symmetry_group_IT_number 10
_symmetry_cell_setting 'monoclinic'
loop_
_space_group_symop_operation_xyz
x,y,z
-x,y,-z
-x,-y,-z
x,-y,z
loop_
_atom_site_type_symbol
_atom_site_label
_atom_site_fract_x
_atom_site_fract_y
_atom_site_fract_z
Si Si1 0.906880 0.321646 0.328867
Si Si2 0.585413 0.180204 0.668246
Si Si3 0.166701 0.820253 0.831443
Si Si4 0.068864 0.820379 0.151963
Si Si5 0.338001 0.678550 0.671558
Si Si6 0.595634 0.178204 0.173637
Si Si7 0.331772 0.678684 0.165215
Si Si8 0.162183 0.820337 0.332910
O O1 0.886022 0.500000 0.314579
O O2 0.124035 0.287932 0.499912
O O3 0.870013 0.256302 0.247713
O O4 0.753574 0.251652 0.254050
O O5 0.755328 0.219494 0.754943
O O6 0.621321 0.253943 0.747190
O O7 0.375125 0.226172 0.499384
O O8 0.587330 0.000000 0.673341
O O9 0.004369 0.772182 0.751689
O O10 0.154999 0.000000 0.818362
O O11 0.380427 0.785312 0.002594
O O12 0.116744 0.780361 0.243377
O O13 0.046663 0.000000 0.132066
O O14 0.871432 0.744526 0.996141
O O15 0.349002 0.500000 0.687139
O O16 0.374941 0.763395 0.749451
O O17 0.499719 0.717845 0.749845
O O18 0.615645 0.000000 0.185324
O O19 0.321783 0.500000 0.159587
O O20 0.162537 0.000000 0.335918
#
# Coordination Sequence:
#
# PCOD9155483 Si02
#       8
#     4   4   4   4   4   4   4   4
#     4  11  23  39  59  82 111 148 187 227 273 327
#     4  10  20  35  58  85 111 144 187 231 275 327
#     4  10  21  37  57  83 114 145 182 229 277 328
#     4  10  20  36  58  84 113 145 185 231 277 328
#     4  10  23  41  58  80 111 147 188 231 274 325
#     4  11  23  38  59  87 115 144 181 227 278 330
#     4  11  23  38  56  80 113 150 186 227 276 329
#     4   9  18  35  59  84 110 143 184 231 280 326
#
# _framework density 18.334654
#
# number of rings (size 3 to 8) (size 9 to 14) (size 15 to 20)
#    0.000    1.750    0.000    4.125    0.000   10.500 
#    0.000    1.250    0.000    1.500    0.000    0.000 
#    0.000    0.000    0.000    0.000    0.000    0.000 
#
# Total GULP energy -178643.317782 kJ/mol
# GULP energy per Si atom -5582.603681 kJ/mol
# Density = 1.829292 g / cm^3
# Si number density = 18.334654 Si / 1000 Ang^3
#
#
#
# Elastic Constant Matrix: (Units=GPa)
#
#
# Indices 1 2 3 4 5 6 
#
# 1 220.1846 58.8946 127.1577 0.0000 20.6544 0.0000
# 2 58.8946 41.1292 64.6872 0.0000 3.6079 0.0000
# 3 127.1577 64.6872 224.6449 0.0000 9.6553 0.0000
# 4 0.0000 0.0000 0.0000 45.8671 0.0000 -37.1818
# 5 20.6544 3.6079 9.6553 0.0000 44.4010 0.0000
# 6 0.0000 0.0000 0.0000 -37.1818 0.0000 106.8876
#
#
#
# Elastic Compliance Matrix: (Units=1/GPa)
#
#
# Indices 1 2 3 4 5 6 
#
# 1 0.008234 -0.008053 -0.002226 0.000000 -0.002692 0.000000
# 2 -0.008053 0.052347 -0.010592 0.000000 0.001796 0.000000
# 3 -0.002226 -0.010592 0.008762 0.000000 -0.000009 0.000000
# 4 0.000000 0.000000 0.000000 0.030365 0.000000 0.010563
# 5 -0.002692 0.001796 -0.000009 0.000000 0.023630 0.000000
# 6 0.000000 0.000000 0.000000 0.010563 0.000000 0.013030
#
#
# Mechanical properties :
#
#
# Convention : Reuss Voigt Hill
#
# Bulk Modulus (GPa) = 36.23203 109.71530 72.97366
# Shear Modulus (GPa) = 26.69373 55.11242 40.90308
#
# Velocity S-wave (km/s) = 3.81979 5.48857 4.72838
# Velocity P-wave (km/s) = 6.26568 10.00681 8.34850
#
# Compressibility (1/GPa) = 0.02759989
#
# Stress axis : x y z
#
# Youngs Moduli (GPa) = 121.45264 19.10332 114.12970
#
# Poissons Ratio (x) = 0.15384 0.25405
# Poissons Ratio (y) = 0.97806 1.20890
# Poissons Ratio (z) = 0.27035 0.20235
#
# Static dielectric constant tensor:
#      x y z
#    x 1.610240 0.000000 -0.002970 
#    y 0.000000 1.612130 0.000000 
#    z -0.002970 0.000000 1.649510 
# 
# From -- ./inp_files/93740.got.cif
#   From: 2010.05.17/outbox.ucp.g08.bks.cvg/sg10_47_cif.got.tgz:93740.got - 2010.06.11 11:31:16.
