data_PCOD9155546
_publ_section_title
;
Structure prediction by ZEFSAII (Michael W. Deem and Ramdas Pophale) SiO2 
 PCOD9155546
Probable space group: P 2/M
;
_chemical_formula_sum "Si O2"
_cell_formula_units_Z 28
_cell_length_a 15.000000
_cell_length_b 12.000000
_cell_length_c 9.000000
_cell_angle_alpha 90.000000
_cell_angle_beta 120.000000
_cell_angle_gamma 90.000000
_cell_volume 1402.961154
_symmetry_space_group_name_H-M "P 2/M"
_symmetry_group_IT_number 10
_symmetry_cell_setting 'monoclinic'
loop_
_space_group_symop_operation_xyz
x,y,z
-x,y,-z
-x,-y,-z
x,-y,z
loop_
_atom_site_type_symbol
_atom_site_label
_atom_site_fract_x
_atom_site_fract_y
_atom_site_fract_z
Si Si1 0.967145 0.500000 0.220715
Si Si2 0.495628 0.625450 0.669109
Si Si3 0.151229 0.500000 0.604869
Si Si4 0.784804 0.874282 0.959696
Si Si5 0.702098 0.303061 0.345857
Si Si6 0.407374 0.199503 0.022798
Si Si7 0.018090 0.750960 0.847123
Si Si8 0.811616 0.132882 0.633920
O O1 0.052238 0.500000 0.418886
O O2 0.980212 0.617427 0.151296
O O3 0.863469 0.500000 0.230293
O O4 0.500000 0.653968 0.500000
O O5 0.537494 0.500000 0.725384
O O6 0.377815 0.629606 0.620351
O O7 0.547656 0.716645 0.816766
O O8 0.206293 0.386445 0.607628
O O9 0.677500 0.870218 0.958182
O O10 0.777819 0.843711 0.777917
O O11 0.825866 0.000000 0.997605
O O12 0.870363 0.795646 0.106077
O O13 0.732024 0.190941 0.457099
O O14 0.651600 0.271983 0.148434
O O15 0.500000 0.146229 0.000000
O O16 0.920489 0.807094 0.687452
O O17 0.000000 0.791234 0.000000
O O18 0.818550 0.000000 0.622402
#
# Coordination Sequence:
#
# PCOD9155546 Si02
#       8
#     2   4   2   4   4   4   4   4
#     4  11  21  36  54  84 125 153 190 237 287 356
#     4  10  21  38  61  88 118 152 194 243 292 348
#     4  11  22  34  56  80 117 166 186 229 292 356
#     4  10  21  40  61  84 118 157 200 248 294 345
#     4  11  21  38  60  85 122 155 197 239 291 351
#     4  10  23  38  60  88 118 156 194 245 290 351
#     4  10  20  37  60  88 118 153 196 241 295 348
#     4  10  21  38  62  88 117 155 200 245 292 347
#
# _framework density 19.957787
#
# number of rings (size 3 to 8) (size 9 to 14) (size 15 to 20)
#    0.000    1.714    2.143    2.357    1.000    3.429 
#    1.286    2.143    0.000   10.286    0.000    0.000 
#    0.000    0.000    0.000    0.000    0.000    0.000 
#
# Total GULP energy -155957.039851 kJ/mol
# GULP energy per Si atom -5569.894280 kJ/mol
# Density = 1.991236 g / cm^3
# Si number density = 19.957787 Si / 1000 Ang^3
#
#
#
# Elastic Constant Matrix: (Units=GPa)
#
#
# Indices 1 2 3 4 5 6 
#
# 1 91.3447 30.7658 27.1773 0.0000 -9.8619 0.0000
# 2 30.7658 84.4052 20.0499 0.0000 -1.5568 0.0000
# 3 27.1773 20.0499 44.9946 0.0000 -7.0479 0.0000
# 4 0.0000 0.0000 0.0000 9.3527 0.0000 -4.1640
# 5 -9.8619 -1.5568 -7.0479 0.0000 20.9236 0.0000
# 6 0.0000 0.0000 0.0000 -4.1640 0.0000 31.8809
#
#
#
# Elastic Compliance Matrix: (Units=1/GPa)
#
#
# Indices 1 2 3 4 5 6 
#
# 1 0.014598 -0.003701 -0.006475 0.000000 0.004424 0.000000
# 2 -0.003701 0.014211 -0.004439 0.000000 -0.002182 0.000000
# 3 -0.006475 -0.004439 0.029121 0.000000 0.006427 0.000000
# 4 0.000000 0.000000 0.000000 0.113523 0.000000 0.014827
# 5 0.004424 -0.002182 0.006427 0.000000 0.051881 0.000000
# 6 0.000000 0.000000 0.000000 0.014827 0.000000 0.033303
#
#
# Mechanical properties :
#
#
# Convention : Reuss Voigt Hill
#
# Bulk Modulus (GPa) = 34.84402 41.85894 38.35148
# Shear Modulus (GPa) = 16.92426 21.94819 19.43622
#
# Velocity S-wave (km/s) = 2.91521 3.31982 3.12407
# Velocity P-wave (km/s) = 5.36917 5.97613 5.68077
#
# Compressibility (1/GPa) = 0.02869933
#
# Stress axis : x y z
#
# Youngs Moduli (GPa) = 68.50066 70.36863 34.33997
#
# Poissons Ratio (x) = 0.26046 0.22236
# Poissons Ratio (y) = 0.25355 0.15242
# Poissons Ratio (z) = 0.44356 0.31234
#
# Static dielectric constant tensor:
#      x y z
#    x 1.810260 0.000000 0.022090 
#    y 0.000000 1.658670 0.000000 
#    z 0.022090 0.000000 1.704180 
# 
# From -- ./inp_files/28701.got.cif
#   From: 2010.05.17/outbox.ucp.g08.bks.cvg/sg10_15_cif.got.tgz:28701.got - 2010.06.11 11:31:16.
