data_PCOD9155430
_publ_section_title
;
Structure prediction by ZEFSAII (Michael W. Deem and Ramdas Pophale) SiO2 
 PCOD9155430
Probable space group: P 2/M
;
_chemical_formula_sum "Si O2"
_cell_formula_units_Z 24
_cell_length_a 18.000000
_cell_length_b 9.000000
_cell_length_c 24.000000
_cell_angle_alpha 90.000000
_cell_angle_beta 20.000000
_cell_angle_gamma 90.000000
_cell_volume 1329.774317
_symmetry_space_group_name_H-M "P 2/M"
_symmetry_group_IT_number 10
_symmetry_cell_setting 'monoclinic'
loop_
_space_group_symop_operation_xyz
x,y,z
-x,y,-z
-x,-y,-z
x,-y,z
loop_
_atom_site_type_symbol
_atom_site_label
_atom_site_fract_x
_atom_site_fract_y
_atom_site_fract_z
Si Si1 0.884486 0.327452 0.962441
Si Si2 0.430059 0.323646 0.710715
Si Si3 0.780699 0.177280 0.531866
Si Si4 0.530072 0.672187 0.810052
Si Si5 0.678063 0.824230 0.329427
Si Si6 0.166926 0.173764 0.329569
O O1 0.954578 0.500000 0.918250
O O2 0.085397 0.219890 0.815964
O O3 0.743090 0.292386 0.117645
O O4 0.723952 0.315756 0.023005
O O5 0.449075 0.500000 0.694132
O O6 0.661038 0.254223 0.565202
O O7 0.353204 0.256622 0.707173
O O8 0.640517 0.229384 0.684042
O O9 0.026803 0.218998 0.374598
O O10 0.770871 0.000000 0.533879
O O11 0.591424 0.500000 0.757659
O O12 0.626266 0.729598 0.799981
O O13 0.500000 0.776093 0.500000
O O14 0.658102 0.000000 0.335266
O O15 0.000000 0.187884 0.500000
O O16 0.223110 0.000000 0.285970
#
# Coordination Sequence:
#
# PCOD9155430 Si02
#       6
#     4   4   4   4   4   4
#     4   9  19  34  51  74 101 129 164 203 243 289
#     4  10  20  34  53  76 100 128 164 203 244 292
#     4   9  16  26  41  64  96 130 162 197 237 283
#     4   9  16  25  40  65  96 127 161 200 238 282
#     4  11  24  38  52  73  98 126 163 203 245 296
#     4   8  14  23  36  59  93 130 162 192 233 283
#
# _framework density 18.048175000000001
#
# number of rings (size 3 to 8) (size 9 to 14) (size 15 to 20)
#    0.000    2.667    0.000    4.500    0.000   11.000 
#    0.000    0.000    0.000    0.000    0.000    1.167 
#    0.000    9.333    0.000    0.000    0.000    0.000 
#
# Total GULP energy -133660.991177 kJ/mol
# GULP energy per Si atom -5569.207966 kJ/mol
# Density = 1.800710 g / cm^3
# Si number density = 18.048175 Si / 1000 Ang^3
#
#
#
# Elastic Constant Matrix: (Units=GPa)
#
#
# Indices 1 2 3 4 5 6 
#
# 1 19.7347 24.8477 39.2877 0.0000 -26.4817 0.0000
# 2 24.8477 37.8603 41.7455 0.0000 -11.6235 0.0000
# 3 39.2877 41.7455 45.7417 0.0000 -14.3976 0.0000
# 4 0.0000 0.0000 0.0000 20.6604 0.0000 -9.9111
# 5 -26.4817 -11.6235 -14.3976 0.0000 14.2017 0.0000
# 6 0.0000 0.0000 0.0000 -9.9111 0.0000 29.5195
#
#
#
# Elastic Compliance Matrix: (Units=1/GPa)
#
#
# Indices 1 2 3 4 5 6 
#
# 1 0.007818 -0.144481 0.135867 0.000000 0.034067 0.000000
# 2 -0.144481 0.568677 -0.489350 0.000000 -0.300072 0.000000
# 3 0.135867 -0.489350 0.448587 0.000000 0.307609 0.000000
# 4 0.000000 0.000000 0.000000 0.057694 0.000000 0.019371
# 5 0.034067 -0.300072 0.307609 0.000000 0.200193 0.000000
# 6 0.000000 0.000000 0.000000 0.019371 0.000000 0.040380
#
#
# Mechanical properties :
#
#
# Convention : Reuss Voigt Hill
#
# Bulk Modulus (GPa) = 34.30236 35.01094 34.65665
# Shear Modulus (GPa) = 2.14685 12.70670 7.42678
#
# Velocity S-wave (km/s) = 1.09183 2.65626 2.03074
# Velocity P-wave (km/s) = 4.54277 5.37107 4.97419
#
# Compressibility (1/GPa) = 0.02915252
#
# Stress axis : x y z
#
# Youngs Moduli (GPa) = 127.90635 1.75847 2.22922
#
# Poissons Ratio (x) = 0.25407 -0.30288
# Poissons Ratio (y) = 18.48006 1.09087
# Poissons Ratio (z) = -17.37819 0.86051
#
# Static dielectric constant tensor:
#      x y z
#    x 1.656540 0.000000 -0.052580 
#    y 0.000000 1.601740 0.000000 
#    z -0.052580 0.000000 1.626310 
# 
# From -- ./inp_files/33973.got.cif
#   From: 2010.05.17/outbox.ucp.g08.bks.cvg/sg10_17_cif.got.tgz:33973.got - 2010.06.11 11:31:16.
