data_PCOD9155444
_publ_section_title
;
Structure prediction by ZEFSAII (Michael W. Deem and Ramdas Pophale) SiO2 
 PCOD9155444
Probable space group: P 2/M
;
_chemical_formula_sum "Si O2"
_cell_formula_units_Z 32
_cell_length_a 15.000000
_cell_length_b 9.000000
_cell_length_c 24.000000
_cell_angle_alpha 90.000000
_cell_angle_beta 150.000000
_cell_angle_gamma 90.000000
_cell_volume 1620.000000
_symmetry_space_group_name_H-M "P 2/M"
_symmetry_group_IT_number 10
_symmetry_cell_setting 'monoclinic'
loop_
_space_group_symop_operation_xyz
x,y,z
-x,y,-z
-x,-y,-z
x,-y,z
loop_
_atom_site_type_symbol
_atom_site_label
_atom_site_fract_x
_atom_site_fract_y
_atom_site_fract_z
Si Si1 0.547829 0.674077 0.650552
Si Si2 0.742001 0.822848 0.985053
Si Si3 0.456505 0.677430 0.220947
Si Si4 0.426629 0.180545 0.900047
Si Si5 0.169356 0.667568 0.552824
Si Si6 0.260102 0.168708 0.415596
Si Si7 0.962034 0.831876 0.344823
Si Si8 0.100361 0.326878 0.223166
O O1 0.501701 0.500000 0.618134
O O2 0.540810 0.713157 0.711827
O O3 0.416000 0.766022 0.539231
O O4 0.753528 0.690654 0.745830
O O5 0.686876 0.758337 0.894990
O O6 0.576204 0.784509 0.935560
O O7 0.757373 0.000000 0.990340
O O8 0.921332 0.758110 0.109269
O O9 0.431125 0.500000 0.199800
O O10 0.662308 0.721462 0.319712
O O11 0.231631 0.235612 0.774571
O O12 0.410218 0.000000 0.895269
O O13 0.500000 0.232110 0.000000
O O14 0.216465 0.500000 0.559968
O O15 0.000000 0.661159 0.500000
O O16 0.096788 0.755440 0.460822
O O17 0.208975 0.266728 0.335095
O O18 0.076583 0.163444 0.350796
O O19 0.305561 0.000000 0.423882
O O20 0.931826 0.000000 0.349155
O O21 0.058022 0.500000 0.208296
#
# Coordination Sequence:
#
# PCOD9155444 Si02
#       8
#     4   4   4   4   4   4   4   4
#     4  10  22  41  63  86 115 159 202 238 291 358
#     4  11  23  39  61  88 118 153 198 250 297 342
#     4  10  21  39  60  82 118 158 194 239 291 353
#     4   9  18  35  57  81 115 156 194 234 285 348
#     4  10  20  34  55  83 114 150 191 239 288 336
#     4  11  22  37  61  93 124 151 190 247 303 350
#     4  10  20  34  56  85 115 152 191 231 286 352
#     4  11  24  41  62  85 114 156 203 244 294 360
#
# _framework density 19.753086
#
# number of rings (size 3 to 8) (size 9 to 14) (size 15 to 20)
#    0.000    1.750    1.250    3.000    0.000    6.750 
#    0.000    3.125    0.000    2.625    0.000    0.000 
#    0.000    0.000    0.000    0.000    0.000    0.000 
#
# Total GULP energy -178440.344512 kJ/mol
# GULP energy per Si atom -5576.260766 kJ/mol
# Density = 1.970813 g / cm^3
# Si number density = 19.753086 Si / 1000 Ang^3
#
#
#
# Elastic Constant Matrix: (Units=GPa)
#
#
# Indices 1 2 3 4 5 6 
#
# 1 52.0462 25.1861 28.9537 0.0000 3.0111 0.0000
# 2 25.1861 54.8342 39.7450 0.0000 0.0556 0.0000
# 3 28.9537 39.7450 98.3641 0.0000 -10.1988 0.0000
# 4 0.0000 0.0000 0.0000 20.7321 0.0000 -2.4226
# 5 3.0111 0.0556 -10.1988 0.0000 30.6840 0.0000
# 6 0.0000 0.0000 0.0000 -2.4226 0.0000 17.6131
#
#
#
# Elastic Compliance Matrix: (Units=1/GPa)
#
#
# Indices 1 2 3 4 5 6 
#
# 1 0.026233 -0.008683 -0.004638 0.000000 -0.004100 0.000000
# 2 -0.008683 0.029062 -0.009429 0.000000 -0.002335 0.000000
# 3 -0.004638 -0.009429 0.015940 0.000000 0.005770 0.000000
# 4 0.000000 0.000000 0.000000 0.049022 0.000000 0.006743
# 5 -0.004100 -0.002335 0.005770 0.000000 0.034915 0.000000
# 6 0.000000 0.000000 0.000000 0.006743 0.000000 0.057703
#
#
# Mechanical properties :
#
#
# Convention : Reuss Voigt Hill
#
# Bulk Modulus (GPa) = 38.85922 43.66821 41.26372
# Shear Modulus (GPa) = 18.72981 21.22980 19.97981
#
# Velocity S-wave (km/s) = 3.08262 3.28191 3.18382
# Velocity P-wave (km/s) = 5.69080 6.04287 5.86948
#
# Compressibility (1/GPa) = 0.02573392
#
# Stress axis : x y z
#
# Youngs Moduli (GPa) = 38.11954 34.40960 62.73621
#
# Poissons Ratio (x) = 0.29878 0.29100
# Poissons Ratio (y) = 0.33100 0.59153
# Poissons Ratio (z) = 0.17682 0.32444
#
# Static dielectric constant tensor:
#      x y z
#    x 1.791920 0.000000 0.005250 
#    y 0.000000 1.715410 0.000000 
#    z 0.005250 0.000000 1.662300 
# 
# From -- ./inp_files/89502.got.cif
#   From: 2010.05.17/outbox.ucp.g08.bks.cvg/sg10_45_cif.got.tgz:89502.got - 2010.06.11 11:31:16.
