data_PCOD9155387
_publ_section_title
;
Structure prediction by ZEFSAII (Michael W. Deem and Ramdas Pophale) SiO2 
 PCOD9155387
Probable space group: P 2/M
;
_chemical_formula_sum "Si O2"
_cell_formula_units_Z 28
_cell_length_a 21.000000
_cell_length_b 9.000000
_cell_length_c 15.000000
_cell_angle_alpha 90.000000
_cell_angle_beta 30.000000
_cell_angle_gamma 90.000000
_cell_volume 1417.500000
_symmetry_space_group_name_H-M "P 2/M"
_symmetry_group_IT_number 10
_symmetry_cell_setting 'monoclinic'
loop_
_space_group_symop_operation_xyz
x,y,z
-x,y,-z
-x,-y,-z
x,-y,z
loop_
_atom_site_type_symbol
_atom_site_label
_atom_site_fract_x
_atom_site_fract_y
_atom_site_fract_z
Si Si1 0.736463 0.329795 0.943384
Si Si2 0.923630 0.323706 0.210072
Si Si3 0.550036 0.329097 0.665063
Si Si4 0.275742 0.174688 0.419363
Si Si5 0.649160 0.678000 0.847209
Si Si6 0.734086 0.323287 0.281434
Si Si7 0.830993 0.176221 0.999514
O O1 0.783990 0.500000 0.880768
O O2 0.699215 0.283904 0.886593
O O3 0.600386 0.329264 0.157616
O O4 0.822030 0.238081 0.909306
O O5 0.949158 0.500000 0.179452
O O6 0.817582 0.277565 0.410341
O O7 0.858404 0.288277 0.193299
O O8 0.043557 0.235349 0.102026
O O9 0.588159 0.500000 0.643462
O O10 0.592165 0.216166 0.691286
O O11 0.618260 0.292801 0.489566
O O12 0.276879 0.228086 0.316586
O O13 0.248132 0.000000 0.461082
O O14 0.668485 0.500000 0.814066
O O15 0.500000 0.702527 0.000000
O O16 0.737710 0.500000 0.259322
O O17 0.727807 0.238106 0.195933
O O18 0.827343 0.000000 0.000935
#
# Coordination Sequence:
#
# PCOD9155387 Si02
#       7
#     4   4   4   4   4   4   4
#     4  10  21  38  60  82 112 153 196 236 276 330
#     4  10  21  40  64  84 108 147 199 241 273 328
#     4   9  18  36  59  84 112 149 196 239 274 326
#     4  11  21  33  56  90 123 147 177 231 295 342
#     4  10  19  36  62  87 112 147 195 237 272 328
#     4   9  19  36  61  86 109 144 194 241 279 328
#     4  12  25  38  54  81 120 154 185 233 292 345
#
# _framework density 19.753086
#
# number of rings (size 3 to 8) (size 9 to 14) (size 15 to 20)
#    0.000    1.857    1.429    4.286    0.000    6.571 
#    0.000    3.571    0.000    4.286    0.000    0.000 
#    0.000    0.000    0.000    0.000    0.000    0.000 
#
# Total GULP energy -156067.587277 kJ/mol
# GULP energy per Si atom -5573.842403 kJ/mol
# Density = 1.970813 g / cm^3
# Si number density = 19.753086 Si / 1000 Ang^3
#
#
#
# Elastic Constant Matrix: (Units=GPa)
#
#
# Indices 1 2 3 4 5 6 
#
# 1 119.7173 54.5876 11.7598 0.0000 32.3649 0.0000
# 2 54.5876 60.4420 7.3959 0.0000 17.4987 0.0000
# 3 11.7598 7.3959 18.6699 0.0000 8.1147 0.0000
# 4 0.0000 0.0000 0.0000 -17.7883 0.0000 26.9030
# 5 32.3649 17.4987 8.1147 0.0000 21.8806 0.0000
# 6 0.0000 0.0000 0.0000 26.9030 0.0000 1.2853
#
#
#
# Elastic Compliance Matrix: (Units=1/GPa)
#
#
# Indices 1 2 3 4 5 6 
#
# 1 0.018496 -0.011449 0.000950 0.000000 -0.018555 0.000000
# 2 -0.011449 0.028641 -0.001835 0.000000 -0.005289 0.000000
# 3 0.000950 -0.001835 0.063976 0.000000 -0.023664 0.000000
# 4 0.000000 0.000000 0.000000 -0.001721 0.000000 0.036032
# 5 -0.018555 -0.005289 -0.023664 0.000000 0.086155 0.000000
# 6 0.000000 0.000000 0.000000 0.036032 0.000000 0.023825
#
#
# Mechanical properties :
#
#
# Convention : Reuss Voigt Hill
#
# Bulk Modulus (GPa) = 11.56815 38.47953 25.02384
# Shear Modulus (GPa) = 18.32472 9.41458 13.86965
#
# Velocity S-wave (km/s) = 3.04910 2.18552 2.65269
# Velocity P-wave (km/s) = 4.27377 5.08834 4.69874
#
# Compressibility (1/GPa) = 0.08644427
#
# Stress axis : x y z
#
# Youngs Moduli (GPa) = 54.06429 34.91510 15.63086
#
# Poissons Ratio (x) = 0.39975 -0.01485
# Poissons Ratio (y) = 0.61899 0.02869
# Poissons Ratio (z) = -0.05135 0.06408
#
# Static dielectric constant tensor:
#      x y z
#    x 1.693310 0.000000 -0.037270 
#    y 0.000000 1.668640 0.000000 
#    z -0.037270 0.000000 1.830570 
# 
# From -- ./inp_files/70214.got.cif
#   From: 2010.05.17/outbox.ucp.g08.bks.cvg/sg10_36_cif.got.tgz:70214.got - 2010.06.11 11:31:16.
