data_PCOD9155440
_publ_section_title
;
Structure prediction by ZEFSAII (Michael W. Deem and Ramdas Pophale) SiO2 
 PCOD9155440
Probable space group: P 2/M
;
_chemical_formula_sum "Si O2"
_cell_formula_units_Z 32
_cell_length_a 27.000000
_cell_length_b 9.000000
_cell_length_c 21.000000
_cell_angle_alpha 90.000000
_cell_angle_beta 160.000000
_cell_angle_gamma 90.000000
_cell_volume 1745.328791
_symmetry_space_group_name_H-M "P 2/M"
_symmetry_group_IT_number 10
_symmetry_cell_setting 'monoclinic'
loop_
_space_group_symop_operation_xyz
x,y,z
-x,y,-z
-x,-y,-z
x,-y,z
loop_
_atom_site_type_symbol
_atom_site_label
_atom_site_fract_x
_atom_site_fract_y
_atom_site_fract_z
Si Si1 0.538776 0.819988 0.475274
Si Si2 0.268135 0.819591 0.061025
Si Si3 0.651712 0.329000 0.103623
Si Si4 0.403562 0.822030 0.091465
Si Si5 0.862593 0.820910 0.878530
Si Si6 0.303804 0.327566 0.703681
Si Si7 0.035085 0.677705 0.868338
Si Si8 0.737937 0.177326 0.476897
O O1 0.500000 0.771556 0.500000
O O2 0.409835 0.773585 0.273176
O O3 0.704650 0.778701 0.659823
O O4 0.535966 0.000000 0.471154
O O5 0.310432 0.778181 0.040217
O O6 0.252550 0.000000 0.046448
O O7 0.126533 0.743899 0.919588
O O8 0.694189 0.500000 0.144583
O O9 0.668834 0.236298 0.060559
O O10 0.478206 0.328088 0.906169
O O11 0.723835 0.278414 0.257040
O O12 0.574512 0.775242 0.300515
O O13 0.408884 0.000000 0.096140
O O14 0.861223 0.000000 0.887690
O O15 0.885069 0.738901 0.972371
O O16 0.000000 0.787446 0.000000
O O17 0.256356 0.500000 0.638166
O O18 0.247540 0.223201 0.579845
O O19 0.033329 0.500000 0.864183
O O20 0.871531 0.741490 0.671973
O O21 0.749942 0.000000 0.500001
#
# Coordination Sequence:
#
# PCOD9155440 Si02
#       8
#     4   4   4   4   4   4   4   4
#     4   9  16  31  57  82 101 130 174 220 262 308
#     4  10  20  37  58  79 106 140 182 225 266 317
#     4   8  14  26  47  73 108 145 177 212 259 323
#     4   9  19  32  53  83 110 136 176 230 273 312
#     4  10  21  37  61  85 106 137 177 221 267 318
#     4   8  14  27  47  74 106 144 180 214 261 316
#     4  12  25  39  54  76 111 149 181 218 267 323
#     4  10  20  34  54  81 110 141 181 226 271 320
#
# _framework density 18.334654
#
# number of rings (size 3 to 8) (size 9 to 14) (size 15 to 20)
#    0.000    2.500    1.250    2.250    1.750    1.750 
#    0.000    3.750    0.000    0.750    0.000    5.250 
#    0.000    0.000    0.000    0.000    0.000    0.000 
#
# Total GULP energy -178366.158406 kJ/mol
# GULP energy per Si atom -5573.942450 kJ/mol
# Density = 1.829292 g / cm^3
# Si number density = 18.334654 Si / 1000 Ang^3
#
#
#
# Elastic Constant Matrix: (Units=GPa)
#
#
# Indices 1 2 3 4 5 6 
#
# 1 87.5225 22.5495 -9.4566 0.0000 8.6795 0.0000
# 2 22.5495 34.5939 5.6793 0.0000 6.4243 0.0000
# 3 -9.4566 5.6793 14.9727 0.0000 12.1505 0.0000
# 4 0.0000 0.0000 0.0000 14.6623 0.0000 2.7489
# 5 8.6795 6.4243 12.1505 0.0000 25.3802 0.0000
# 6 0.0000 0.0000 0.0000 2.7489 0.0000 7.6675
#
#
#
# Elastic Compliance Matrix: (Units=1/GPa)
#
#
# Indices 1 2 3 4 5 6 
#
# 1 0.021687 -0.016301 0.036878 0.000000 -0.020945 0.000000
# 2 -0.016301 0.043282 -0.036543 0.000000 0.012113 0.000000
# 3 0.036878 -0.036543 0.174438 0.000000 -0.086872 0.000000
# 4 0.000000 0.000000 0.000000 0.073117 0.000000 -0.026214
# 5 -0.020945 0.012113 -0.086872 0.000000 0.085086 0.000000
# 6 0.000000 0.000000 0.000000 -0.026214 0.000000 0.139819
#
#
# Mechanical properties :
#
#
# Convention : Reuss Voigt Hill
#
# Bulk Modulus (GPa) = 4.81987 19.40373 12.11180
# Shear Modulus (GPa) = 7.83061 17.42979 12.63020
#
# Velocity S-wave (km/s) = 2.06887 3.08660 2.62748
# Velocity P-wave (km/s) = 2.88816 4.82793 3.97809
#
# Compressibility (1/GPa) = 0.20747466
#
# Stress axis : x y z
#
# Youngs Moduli (GPa) = 46.11043 23.10429 5.73269
#
# Poissons Ratio (x) = 0.37662 -0.21141
# Poissons Ratio (y) = 0.75164 0.20949
# Poissons Ratio (z) = -1.70044 0.84430
#
# Static dielectric constant tensor:
#      x y z
#    x 1.651860 0.000000 -0.016410 
#    y 0.000000 1.613680 0.000000 
#    z -0.016410 0.000000 1.633900 
# 
# From -- ./inp_files/86987.got.cif
#   From: 2010.05.17/outbox.ucp.g08.bks.cvg/sg10_44_cif.got.tgz:86987.got - 2010.06.11 11:31:16.
