data_PCOD9155498
_publ_section_title
;
Structure prediction by ZEFSAII (Michael W. Deem and Ramdas Pophale) SiO2 
 PCOD9155498
Probable space group: P 2/M
;
_chemical_formula_sum "Si O2"
_cell_formula_units_Z 28
_cell_length_a 12.000000
_cell_length_b 9.000000
_cell_length_c 15.000000
_cell_angle_alpha 90.000000
_cell_angle_beta 70.000000
_cell_angle_gamma 90.000000
_cell_volume 1522.302046
_symmetry_space_group_name_H-M "P 2/M"
_symmetry_group_IT_number 10
_symmetry_cell_setting 'monoclinic'
loop_
_space_group_symop_operation_xyz
x,y,z
-x,y,-z
-x,-y,-z
x,-y,z
loop_
_atom_site_type_symbol
_atom_site_label
_atom_site_fract_x
_atom_site_fract_y
_atom_site_fract_z
Si Si1 0.361776 0.821315 0.523693
Si Si2 0.255099 0.321660 0.374987
Si Si3 0.732535 0.178979 0.913025
Si Si4 0.720618 0.819286 0.116689
Si Si5 0.173875 0.179306 0.726493
Si Si6 0.075251 0.820059 0.291715
Si Si7 0.557511 0.820558 0.811409
O O1 0.500000 0.778445 0.500000
O O2 0.293462 0.742273 0.460842
O O3 0.287869 0.791014 0.633740
O O4 0.359789 0.000000 0.507783
O O5 0.248355 0.500000 0.378582
O O6 0.134749 0.254685 0.362764
O O7 0.360013 0.263956 0.281220
O O8 0.836861 0.215297 0.815123
O O9 0.610441 0.217956 0.894821
O O10 0.730448 0.000000 0.921320
O O11 0.751730 0.235370 0.008227
O O12 0.798034 0.766485 0.180342
O O13 0.580393 0.786549 0.165140
O O14 0.730644 0.000000 0.113992
O O15 0.055336 0.228593 0.705958
O O16 0.161119 0.000000 0.736486
O O17 0.075526 0.000000 0.304697
O O18 0.572629 0.000000 0.795997
#
# Coordination Sequence:
#
# PCOD9155498 Si02
#       7
#     4   4   4   4   4   4   4
#     4  10  20  36  57  79 103 132 164 200 249 305
#     4  11  22  35  53  75 100 132 169 211 255 296
#     4   8  14  24  44  74 105 135 164 201 248 294
#     4   9  15  25  46  78 108 131 163 207 251 294
#     4   9  18  30  48  75 103 132 168 209 248 293
#     4   9  18  34  52  73 102 134 170 207 246 294
#     4   9  16  29  50  76 105 135 167 204 249 301
#
# _framework density 18.393196
#
# number of rings (size 3 to 8) (size 9 to 14) (size 15 to 20)
#    0.000    2.714    0.000    3.429    0.000    5.429 
#    0.000    6.429    0.000    7.714    0.000    4.000 
#    0.000    0.000    0.000    0.000    0.000    0.000 
#
# Total GULP energy -156025.621716 kJ/mol
# GULP energy per Si atom -5572.343633 kJ/mol
# Density = 1.835133 g / cm^3
# Si number density = 18.393196 Si / 1000 Ang^3
#
#
#
# Elastic Constant Matrix: (Units=GPa)
#
#
# Indices 1 2 3 4 5 6 
#
# 1 134.1978 23.2453 33.0578 0.0000 27.1756 0.0000
# 2 23.2453 32.5334 17.6903 0.0000 7.7796 0.0000
# 3 33.0578 17.6903 69.5876 0.0000 34.5070 0.0000
# 4 0.0000 0.0000 0.0000 5.7887 0.0000 0.8767
# 5 27.1756 7.7796 34.5070 0.0000 35.3607 0.0000
# 6 0.0000 0.0000 0.0000 0.8767 0.0000 9.5354
#
#
#
# Elastic Compliance Matrix: (Units=1/GPa)
#
#
# Indices 1 2 3 4 5 6 
#
# 1 0.009651 -0.005321 -0.000261 0.000000 -0.005992 0.000000
# 2 -0.005321 0.038671 -0.009905 0.000000 0.005248 0.000000
# 3 -0.000261 -0.009905 0.030677 0.000000 -0.027557 0.000000
# 4 0.000000 0.000000 0.000000 0.175191 0.000000 -0.016108
# 5 -0.005992 0.005248 -0.027557 0.000000 0.058622 0.000000
# 6 0.000000 0.000000 0.000000 -0.016108 0.000000 0.106354
#
#
# Mechanical properties :
#
#
# Convention : Reuss Voigt Hill
#
# Bulk Modulus (GPa) = 20.82246 42.70063 31.76154
# Shear Modulus (GPa) = 10.72621 20.95864 15.84242
#
# Velocity S-wave (km/s) = 2.41749 3.37928 2.93801
# Velocity P-wave (km/s) = 4.37466 6.20418 5.36794
#
# Compressibility (1/GPa) = 0.04802508
#
# Stress axis : x y z
#
# Youngs Moduli (GPa) = 103.61600 25.85933 32.59743
#
# Poissons Ratio (x) = 0.13760 0.00850
# Poissons Ratio (y) = 0.55135 0.32288
# Poissons Ratio (z) = 0.02702 0.25614
#
# Static dielectric constant tensor:
#      x y z
#    x 1.647290 0.000000 0.001730 
#    y 0.000000 1.606760 0.000000 
#    z 0.001730 0.000000 1.663810 
# 
# From -- ./inp_files/49062.got.cif
#   From: 2010.05.17/outbox.ucp.g08.bks.cvg/sg10_25_cif.got.tgz:49062.got - 2010.06.11 11:31:16.
