data_PCOD9155842
_publ_section_title
;
Structure prediction by ZEFSAII (Michael W. Deem and Ramdas Pophale) SiO2 
 PCOD9155842
Probable space group: P 21/M
;
_chemical_formula_sum "Si O2"
_cell_formula_units_Z 32
_cell_length_a 21.213147
_cell_length_b 8.555441
_cell_length_c 14.607653
_cell_angle_alpha 90.000000
_cell_angle_beta 53.769268
_cell_angle_gamma 90.000000
_cell_volume 2138.501387
_symmetry_space_group_name_H-M "P 21/M"
_symmetry_group_IT_number 11
_symmetry_cell_setting 'monoclinic'
loop_
_space_group_symop_operation_xyz
x,y,z
-x,1/2+y,-z
-x,-y,-z
x,1/2-y,z
loop_
_atom_site_type_symbol
_atom_site_label
_atom_site_fract_x
_atom_site_fract_y
_atom_site_fract_z
Si Si1 0.612910 0.562988 0.839901
Si Si2 0.928279 0.063750 0.123243
Si Si3 0.545397 0.439521 0.090050
Si Si4 0.053169 0.062375 0.372798
Si Si5 0.702176 0.436915 0.039778
Si Si6 0.976182 0.436344 0.803041
Si Si7 0.833395 0.564492 0.049289
Si Si8 0.232599 0.060318 0.209957
O O1 0.616118 0.750000 0.829700
O O2 0.545659 0.510966 0.826176
O O3 0.702685 0.508806 0.770390
O O4 0.578146 0.515554 0.968706
O O5 0.930283 0.250000 0.122951
O O6 0.853114 0.004991 0.132130
O O7 0.948505 0.997474 0.205578
O O8 0.000000 0.000000 0.000000
O O9 0.547687 0.250000 0.077940
O O10 0.610201 0.479126 0.110393
O O11 0.049753 0.250000 0.372850
O O12 0.144062 0.015855 0.307875
O O13 0.026195 0.996054 0.298218
O O14 0.000000 0.000000 0.500000
O O15 0.709212 0.250000 0.040883
O O16 0.741788 0.490780 0.910037
O O17 0.750321 0.515215 0.079738
O O18 0.974060 0.250000 0.808275
O O19 0.899300 0.499955 0.922204
O O20 0.841275 0.750000 0.045588
O O21 0.235574 0.250000 0.199385
#
# Coordination Sequence:
#
# PCOD9155842 Si02
#       8
#     4   4   4   4   4   4   4   4
#     4   8  13  23  37  52  71  98 130 165 201 239
#     4  10  18  29  44  62  82 105 134 169 205 247
#     4   8  14  22  33  52  76 100 130 164 197 236
#     4  11  22  34  46  62  82 108 142 181 219 254
#     4  10  17  24  37  57  81 109 138 168 203 241
#     4  11  20  32  47  62  80 105 135 173 214 254
#     4  11  19  28  41  60  84 111 141 172 203 244
#     4   9  17  28  42  56  74 102 137 173 211 250
#
# _framework density 14.963749999999999
#
# number of rings (size 3 to 8) (size 9 to 14) (size 15 to 20)
#    0.000    2.250    1.250    5.625    0.000    1.000 
#    0.000    0.000    0.000    0.000    0.000    0.000 
#    0.000    0.000    0.000    1.125    0.000   11.250 
#
# Total GULP energy -178153.736983 kJ/mol
# GULP energy per Si atom -5567.304281 kJ/mol
# Density = 1.492969 g / cm^3
# Si number density = 14.963750 Si / 1000 Ang^3
#
#
#
# Elastic Constant Matrix: (Units=GPa)
#
#
# Indices 1 2 3 4 5 6 
#
# 1 167.7986 41.0659 46.3840 0.0000 8.3447 0.0000
# 2 41.0659 72.5492 19.8126 0.0000 3.1745 0.0000
# 3 46.3840 19.8126 40.8658 0.0000 4.8147 0.0000
# 4 0.0000 0.0000 0.0000 13.7324 0.0000 5.3796
# 5 8.3447 3.1745 4.8147 0.0000 11.1015 0.0000
# 6 0.0000 0.0000 0.0000 5.3796 0.0000 20.5844
#
#
#
# Elastic Compliance Matrix: (Units=1/GPa)
#
#
# Indices 1 2 3 4 5 6 
#
# 1 0.009173 -0.002677 -0.008844 0.000000 -0.002294 0.000000
# 2 -0.002677 0.016685 -0.004980 0.000000 -0.000599 0.000000
# 3 -0.008844 -0.004980 0.037909 0.000000 -0.008369 0.000000
# 4 0.000000 0.000000 0.000000 0.081126 0.000000 -0.021202
# 5 -0.002294 -0.000599 -0.008369 0.000000 0.095603 0.000000
# 6 0.000000 0.000000 0.000000 -0.021202 0.000000 0.054121
#
#
# Mechanical properties :
#
#
# Convention : Reuss Voigt Hill
#
# Bulk Modulus (GPa) = 32.50418 55.08207 43.79313
# Shear Modulus (GPa) = 14.79827 20.68039 17.73933
#
# Velocity S-wave (km/s) = 3.14815 3.72160 3.44683
# Velocity P-wave (km/s) = 5.91469 7.44025 6.72090
#
# Compressibility (1/GPa) = 0.03076527
#
# Stress axis : x y z
#
# Youngs Moduli (GPa) = 109.00966 59.93278 26.37876
#
# Poissons Ratio (x) = 0.16044 0.23330
# Poissons Ratio (y) = 0.29181 0.13138
# Poissons Ratio (z) = 0.96409 0.29849
#
# Static dielectric constant tensor:
#      x y z
#    x 1.583610 0.000000 0.002470 
#    y 0.000000 1.503420 0.000000 
#    z 0.002470 0.000000 1.437350 
# 
# From -- ./inp_files/42496.got.cif
#   From: 2010.05.17/outbox.cif.g08.bks.cpg/sg11_22_cif.got.tgz:42496.got - 2010.06.03 12:22:45.
