data_PCOD9155105
_publ_section_title
;
Structure prediction by ZEFSAII (Michael W. Deem and Ramdas Pophale) SiO2 
 PCOD9155105
Probable space group: P 2/M
;
_chemical_formula_sum "Si O2"
_cell_formula_units_Z 32
_cell_length_a 9.000000
_cell_length_b 15.000000
_cell_length_c 24.000000
_cell_angle_alpha 90.000000
_cell_angle_beta 30.000000
_cell_angle_gamma 90.000000
_cell_volume 1620.000000
_symmetry_space_group_name_H-M "P 2/M"
_symmetry_group_IT_number 10
_symmetry_cell_setting 'monoclinic'
loop_
_space_group_symop_operation_xyz
x,y,z
-x,y,-z
-x,-y,-z
x,-y,z
loop_
_atom_site_type_symbol
_atom_site_label
_atom_site_fract_x
_atom_site_fract_y
_atom_site_fract_z
Si Si1 0.549881 0.902762 0.051061
Si Si2 0.683926 0.291044 0.998848
Si Si3 0.779561 0.406850 0.449553
Si Si4 0.298512 0.100641 0.485036
Si Si5 0.826039 0.397486 0.220118
Si Si6 0.119989 0.347540 0.240844
Si Si7 0.303006 0.278870 0.427287
Si Si8 0.045977 0.144585 0.685305
O O1 0.738653 0.811998 0.998174
O O2 0.241358 0.891866 0.186962
O O3 0.678332 0.000000 0.024374
O O4 0.500000 0.905215 0.000000
O O5 0.462392 0.332180 0.115819
O O6 0.500000 0.285603 0.000000
O O7 0.950031 0.356519 0.897801
O O8 0.500000 0.413358 0.500000
O O9 0.796639 0.500000 0.477073
O O10 0.708756 0.320973 0.507941
O O11 0.057551 0.396603 0.318597
O O12 0.297079 0.173363 0.436699
O O13 0.078177 0.126535 0.608317
O O14 0.641940 0.105925 0.394140
O O15 0.231482 0.000000 0.489938
O O16 0.743634 0.500000 0.235873
O O17 0.565246 0.325467 0.309230
O O18 0.977200 0.393535 0.232809
O O19 0.970097 0.250047 0.296756
O O20 0.000000 0.310644 0.500000
#
# Coordination Sequence:
#
# PCOD9155105 Si02
#       8
#     4   4   4   4   4   4   4   4
#     4   9  16  26  44  77 122 150 171 217 283 342
#     4   8  18  30  47  79 113 145 180 221 279 331
#     4  11  20  34  58  85 111 144 185 234 284 332
#     4  11  21  34  57  81 110 149 188 230 281 333
#     4  11  21  36  56  78 112 151 187 231 280 334
#     4  10  17  31  55  84 118 142 178 229 282 329
#     4  12  26  41  56  80 115 151 190 233 286 340
#     4  10  17  32  53  86 119 147 181 229 282 335
#
# _framework density 19.753086
#
# number of rings (size 3 to 8) (size 9 to 14) (size 15 to 20)
#    0.000    1.750    3.750    3.000    0.000    4.000 
#    0.000    0.000    0.000    0.750    0.000    1.750 
#    0.000    3.250    0.000    0.000    0.000    0.000 
#
# Total GULP energy -178230.317964 kJ/mol
# GULP energy per Si atom -5569.697436 kJ/mol
# Density = 1.970813 g / cm^3
# Si number density = 19.753086 Si / 1000 Ang^3
#
#
#
# Elastic Constant Matrix: (Units=GPa)
#
#
# Indices 1 2 3 4 5 6 
#
# 1 2.3660 7.8070 8.2229 0.0000 -7.8578 0.0000
# 2 7.8070 142.5627 55.4954 0.0000 4.6623 0.0000
# 3 8.2229 55.4954 129.5608 0.0000 17.8955 0.0000
# 4 0.0000 0.0000 0.0000 18.0265 0.0000 3.0822
# 5 -7.8578 4.6623 17.8955 0.0000 9.2304 0.0000
# 6 0.0000 0.0000 0.0000 3.0822 0.0000 -25.4651
#
#
#
# Elastic Compliance Matrix: (Units=1/GPa)
#
#
# Indices 1 2 3 4 5 6 
#
# 1 -0.098773 0.000243 0.024304 0.000000 -0.131328 0.000000
# 2 0.000243 0.008513 -0.004229 0.000000 0.004106 0.000000
# 3 0.024304 -0.004229 0.006602 0.000000 0.010026 0.000000
# 4 0.000000 0.000000 0.000000 0.054349 0.000000 0.006578
# 5 -0.131328 0.004106 0.010026 0.000000 -0.024972 0.000000
# 6 0.000000 0.000000 0.000000 0.006578 0.000000 -0.038473
#
#
# Mechanical properties :
#
#
# Convention : Reuss Voigt Hill
#
# Bulk Modulus (GPa) = -23.24459 46.39333 11.57437
# Shear Modulus (GPa) = -33.84550 13.88930 -9.97810
#
# Velocity S-wave (km/s) = -4.14385 2.65457 -2.24997
# Velocity P-wave (km/s) = 5.88969 5.73875 0.93680
#
# Compressibility (1/GPa) = -0.04302077
#
# Stress axis : x y z
#
# Youngs Moduli (GPa) = -10.12423 117.46603 151.45816
#
# Poissons Ratio (x) = -0.02853 -3.68110
# Poissons Ratio (y) = 0.00246 0.64051
# Poissons Ratio (z) = 0.24606 0.49676
#
# Static dielectric constant tensor:
#      x y z
#    x 1.700110 0.000000 -0.007000 
#    y 0.000000 1.741510 0.000000 
#    z -0.007000 0.000000 1.707380 
# 
# From -- ./inp_files/88244.got.cif
#   From: 2010.05.17/outbox.ucp.g08.bks.cvg/sg10_45_cif.got.tgz:88244.got - 2010.06.11 11:31:16.
