data_PCOD9155663
_publ_section_title
;
Structure prediction by ZEFSAII (Michael W. Deem and Ramdas Pophale) SiO2 
 PCOD9155663
Probable space group: P 2/M
;
_chemical_formula_sum "Si O2"
_cell_formula_units_Z 32
_cell_length_a 12.000000
_cell_length_b 15.000000
_cell_length_c 18.000000
_cell_angle_alpha 90.000000
_cell_angle_beta 30.000000
_cell_angle_gamma 90.000000
_cell_volume 1620.000000
_symmetry_space_group_name_H-M "P 2/M"
_symmetry_group_IT_number 10
_symmetry_cell_setting 'monoclinic'
loop_
_space_group_symop_operation_xyz
x,y,z
-x,y,-z
-x,-y,-z
x,-y,z
loop_
_atom_site_type_symbol
_atom_site_label
_atom_site_fract_x
_atom_site_fract_y
_atom_site_fract_z
Si Si1 0.965314 0.393806 0.835171
Si Si2 0.009808 0.104918 0.320676
Si Si3 0.023676 0.606445 0.621898
Si Si4 0.356358 0.895026 0.254885
Si Si5 0.122053 0.896203 0.084977
Si Si6 0.849969 0.256796 0.158633
Si Si7 0.473071 0.608270 0.101004
Si Si8 0.665076 0.231679 0.591493
O O1 0.986450 0.500000 0.837504
O O2 0.124489 0.334638 0.794436
O O3 0.006411 0.382709 0.722388
O O4 0.707560 0.365065 0.002474
O O5 0.199724 0.120968 0.273592
O O6 0.097723 0.121229 0.186938
O O7 0.802499 0.169331 0.455156
O O8 0.948696 0.000000 0.361455
O O9 0.060500 0.500000 0.586857
O O10 0.778184 0.632652 0.731140
O O11 0.211139 0.672338 0.481959
O O12 0.309580 0.823506 0.346303
O O13 0.319008 0.000000 0.299014
O O14 0.617603 0.885511 0.085069
O O15 0.963562 0.830768 0.129956
O O16 0.062907 0.000000 0.105288
O O17 0.594136 0.241530 0.281621
O O18 0.000000 0.279731 0.000000
O O19 0.474748 0.500000 0.099985
O O20 0.500000 0.637581 0.000000
#
# Coordination Sequence:
#
# PCOD9155663 Si02
#       8
#     4   4   4   4   4   4   4   4
#     4   9  19  38  65  91 124 170 217 266 313 362
#     4  10  22  41  68 101 126 153 206 269 321 374
#     4   9  19  37  63  98 130 163 210 264 322 376
#     4  10  21  42  69  95 128 166 206 254 319 386
#     4  10  22  42  69  95 123 164 211 262 313 367
#     4  12  26  43  58  87 130 173 222 256 300 381
#     4   7  12  29  58  90 119 148 194 254 311 364
#     4  12  24  39  61  93 132 177 205 251 318 378
#
# _framework density 19.753086
#
# number of rings (size 3 to 8) (size 9 to 14) (size 15 to 20)
#    0.000    2.125    1.250    3.375    0.000    7.500 
#    2.250    5.000    0.000    1.500    0.000    0.000 
#    0.000    1.000    0.000    0.000    0.000    0.000 
#
# Total GULP energy -178783.526735 kJ/mol
# GULP energy per Si atom -5586.985210 kJ/mol
# Density = 1.970813 g / cm^3
# Si number density = 19.753086 Si / 1000 Ang^3
#
#
#
# Elastic Constant Matrix: (Units=GPa)
#
#
# Indices 1 2 3 4 5 6 
#
# 1 65.5439 30.9713 23.4435 0.0000 -9.7403 0.0000
# 2 30.9713 86.0373 47.5692 0.0000 0.8747 0.0000
# 3 23.4435 47.5692 101.2379 0.0000 -12.2300 0.0000
# 4 0.0000 0.0000 0.0000 36.5411 0.0000 -4.1707
# 5 -9.7403 0.8747 -12.2300 0.0000 38.6096 0.0000
# 6 0.0000 0.0000 0.0000 -4.1707 0.0000 33.5711
#
#
#
# Elastic Compliance Matrix: (Units=1/GPa)
#
#
# Indices 1 2 3 4 5 6 
#
# 1 0.019362 -0.006563 -0.000823 0.000000 0.004773 0.000000
# 2 -0.006563 0.018223 -0.007583 0.000000 -0.004471 0.000000
# 3 -0.000823 -0.007583 0.014169 0.000000 0.004452 0.000000
# 4 0.000000 0.000000 0.000000 0.027760 0.000000 0.003449
# 5 0.004773 -0.004471 0.004452 0.000000 0.028616 0.000000
# 6 0.000000 0.000000 0.000000 0.003449 0.000000 0.030216
#
#
# Mechanical properties :
#
#
# Convention : Reuss Voigt Hill
#
# Bulk Modulus (GPa) = 45.83811 50.75411 48.29611
# Shear Modulus (GPa) = 28.48072 31.80003 30.14038
#
# Velocity S-wave (km/s) = 3.80127 4.01668 3.91046
# Velocity P-wave (km/s) = 6.52090 6.87471 6.70014
#
# Compressibility (1/GPa) = 0.02181591
#
# Stress axis : x y z
#
# Youngs Moduli (GPa) = 51.64782 54.87430 70.57523
#
# Poissons Ratio (x) = 0.36015 0.05810
# Poissons Ratio (y) = 0.33897 0.53517
# Poissons Ratio (z) = 0.04252 0.41611
#
# Static dielectric constant tensor:
#      x y z
#    x 1.670230 0.000000 0.012490 
#    y 0.000000 1.707580 0.000000 
#    z 0.012490 0.000000 1.710420 
# 
# From -- ./inp_files/76990.got.cif
#   From: 2010.05.17/outbox.ucp.g08.bks.cvg/sg10_39_cif.got.tgz:76990.got - 2010.06.11 11:31:16.
