data_PCOD9155302
_publ_section_title
;
Structure prediction by ZEFSAII (Michael W. Deem and Ramdas Pophale) SiO2 
 PCOD9155302
Probable space group: P 2/M
;
_chemical_formula_sum "Si O2"
_cell_formula_units_Z 32
_cell_length_a 27.000000
_cell_length_b 9.000000
_cell_length_c 21.000000
_cell_angle_alpha 90.000000
_cell_angle_beta 20.000000
_cell_angle_gamma 90.000000
_cell_volume 1745.328791
_symmetry_space_group_name_H-M "P 2/M"
_symmetry_group_IT_number 10
_symmetry_cell_setting 'monoclinic'
loop_
_space_group_symop_operation_xyz
x,y,z
-x,y,-z
-x,-y,-z
x,-y,z
loop_
_atom_site_type_symbol
_atom_site_label
_atom_site_fract_x
_atom_site_fract_y
_atom_site_fract_z
Si Si1 0.914035 0.821876 0.897401
Si Si2 0.474541 0.176327 0.927454
Si Si3 0.381246 0.671904 0.780512
Si Si4 0.269427 0.178208 0.295180
Si Si5 0.929455 0.177675 0.019300
Si Si6 0.984136 0.677707 0.679301
Si Si7 0.316970 0.329111 0.005605
Si Si8 0.627684 0.327132 0.397381
O O1 0.982855 0.747856 0.751585
O O2 0.924080 0.000000 0.880600
O O3 0.745689 0.771098 0.095808
O O4 0.976750 0.773202 0.890673
O O5 0.628864 0.224464 0.768607
O O6 0.482118 0.000000 0.911363
O O7 0.359038 0.206653 0.122892
O O8 0.419855 0.245835 0.929129
O O9 0.354205 0.500000 0.792715
O O10 0.541796 0.711120 0.565127
O O11 0.372478 0.676664 0.866542
O O12 0.125200 0.270855 0.472690
O O13 0.243244 0.000000 0.330750
O O14 0.762043 0.222602 0.224427
O O15 0.946542 0.000000 0.999018
O O16 0.000000 0.235862 0.000000
O O17 0.971272 0.500000 0.701435
O O18 0.845451 0.731826 0.806446
O O19 0.308018 0.500000 0.037246
O O20 0.500000 0.312533 0.500000
O O21 0.674722 0.500000 0.340901
#
# Coordination Sequence:
#
# PCOD9155302 Si02
#       8
#     4   4   4   4   4   4   4   4
#     4  10  19  33  55  77 103 140 178 216 262 313
#     4   9  19  36  57  79 106 139 175 216 259 305
#     4   9  18  34  53  77 109 138 173 219 265 311
#     4   9  19  37  57  78 106 140 177 215 256 308
#     4  10  22  38  53  75 109 141 174 220 269 314
#     4  10  21  36  55  80 108 139 175 216 261 312
#     4   9  19  34  52  76 110 141 170 216 264 309
#     4  10  19  33  57  81 102 136 180 221 261 311
#
# _framework density 18.334654
#
# number of rings (size 3 to 8) (size 9 to 14) (size 15 to 20)
#    0.000    2.500    1.250    2.250    0.000    5.500 
#    2.250    3.750    0.000    0.000    0.000    0.000 
#    0.000    0.000    0.000    0.000    0.000    0.000 
#
# Total GULP energy -178225.262010 kJ/mol
# GULP energy per Si atom -5569.539438 kJ/mol
# Density = 1.829292 g / cm^3
# Si number density = 18.334654 Si / 1000 Ang^3
#
#
#
# Elastic Constant Matrix: (Units=GPa)
#
#
# Indices 1 2 3 4 5 6 
#
# 1 30.4165 -7.3329 -29.5498 0.0000 -9.4043 0.0000
# 2 -7.3329 -5.9220 -6.5869 0.0000 8.8550 0.0000
# 3 -29.5498 -6.5869 9.9663 0.0000 -3.2936 0.0000
# 4 0.0000 0.0000 0.0000 34.1775 0.0000 -11.1135
# 5 -9.4043 8.8550 -3.2936 0.0000 -2.6053 0.0000
# 6 0.0000 0.0000 0.0000 -11.1135 0.0000 68.7907
#
#
#
# Elastic Compliance Matrix: (Units=1/GPa)
#
#
# Indices 1 2 3 4 5 6 
#
# 1 -0.000485 -0.016588 -0.021480 0.000000 -0.027474 0.000000
# 2 -0.016588 -0.011402 -0.035081 0.000000 0.065472 0.000000
# 3 -0.021480 -0.035081 -0.000224 0.000000 -0.041416 0.000000
# 4 0.000000 0.000000 0.000000 0.030881 0.000000 0.004989
# 5 -0.027474 0.065472 -0.041416 0.000000 -0.009773 0.000000
# 6 0.000000 0.000000 0.000000 0.004989 0.000000 0.015343
#
#
# Mechanical properties :
#
#
# Convention : Reuss Voigt Hill
#
# Bulk Modulus (GPa) = -6.31270 -5.83095 -6.07182
# Shear Modulus (GPa) = 42.43195 25.26794 33.84995
#
# Velocity S-wave (km/s) = 4.81594 3.71637 4.30144
# Velocity P-wave (km/s) = 5.24155 3.90231 4.62071
#
# Compressibility (1/GPa) = -0.15841083
#
# Stress axis : x y z
#
# Youngs Moduli (GPa) = -2062.25197 -87.70216 -4461.49797
#
# Poissons Ratio (x) = -1.45479 -95.83509
# Poissons Ratio (y) = -34.20828 -156.51593
# Poissons Ratio (z) = -44.29815 -3.07672
#
# Static dielectric constant tensor:
#      x y z
#    x 6.405000 0.000000 11.154570 
#    y 0.000000 1.620990 0.000000 
#    z 11.154570 0.000000 27.666790 
# 
# From -- ./inp_files/86892.got.cif
#   From: 2010.05.17/outbox.ucp.g08.bks.cvg/sg10_44_cif.got.tgz:86892.got - 2010.06.11 11:31:16.
