data_PCOD9155355
_publ_section_title
;
Structure prediction by ZEFSAII (Michael W. Deem and Ramdas Pophale) SiO2 
 PCOD9155355
Probable space group: P 2/M
;
_chemical_formula_sum "Si O2"
_cell_formula_units_Z 28
_cell_length_a 27.000000
_cell_length_b 9.000000
_cell_length_c 9.000000
_cell_angle_alpha 90.000000
_cell_angle_beta 40.000000
_cell_angle_gamma 90.000000
_cell_volume 1405.776502
_symmetry_space_group_name_H-M "P 2/M"
_symmetry_group_IT_number 10
_symmetry_cell_setting 'monoclinic'
loop_
_space_group_symop_operation_xyz
x,y,z
-x,y,-z
-x,-y,-z
x,-y,z
loop_
_atom_site_type_symbol
_atom_site_label
_atom_site_fract_x
_atom_site_fract_y
_atom_site_fract_z
Si Si1 0.579310 0.672574 0.883975
Si Si2 0.929879 0.669790 0.574220
Si Si3 0.742155 0.174723 0.504613
Si Si4 0.697900 0.161357 0.133993
Si Si5 0.580727 0.339146 0.232707
Si Si6 0.831147 0.166697 0.582815
Si Si7 0.209127 0.664241 0.871315
O O1 0.585498 0.500000 0.821489
O O2 0.659036 0.753826 0.666705
O O3 0.500000 0.735384 0.000000
O O4 0.570789 0.676616 0.080936
O O5 0.951275 0.500000 0.489412
O O6 0.902048 0.745795 0.488160
O O7 0.000000 0.744315 0.500000
O O8 0.860368 0.666485 0.852597
O O9 0.783449 0.236293 0.557345
O O10 0.797210 0.214708 0.241698
O O11 0.731581 0.000000 0.548894
O O12 0.627535 0.204931 0.193544
O O13 0.715164 0.289357 0.211263
O O14 0.688988 0.000000 0.226715
O O15 0.770458 0.155743 0.857047
O O16 0.500000 0.343942 0.500000
O O17 0.620803 0.500000 0.165961
O O18 0.854654 0.000000 0.485864
O O19 0.215550 0.500000 0.791866
#
# Coordination Sequence:
#
# PCOD9155355 Si02
#       7
#     4   4   4   4   4   4   4
#     4  10  22  38  55  78 110 150 192 234 283 335
#     4   9  19  37  61  88 115 143 182 229 274 327
#     4  11  22  38  57  82 115 150 190 235 279 332
#     4  10  19  35  55  78 106 141 185 232 277 325
#     4  10  21  35  52  76 107 142 184 231 279 332
#     4   9  19  35  56  81 111 145 183 222 269 330
#     4  10  21  36  57  84 112 145 185 227 278 334
#
# _framework density 19.917818
#
# number of rings (size 3 to 8) (size 9 to 14) (size 15 to 20)
#    0.000    2.143    1.429    1.286    2.000    3.143 
#    0.000    0.714    0.000    4.286    0.000    0.000 
#    0.000    0.000    0.000    0.000    0.000    0.000 
#
# Total GULP energy -155932.308942 kJ/mol
# GULP energy per Si atom -5569.011034 kJ/mol
# Density = 1.987248 g / cm^3
# Si number density = 19.917818 Si / 1000 Ang^3
#
#
#
# Elastic Constant Matrix: (Units=GPa)
#
#
# Indices 1 2 3 4 5 6 
#
# 1 109.5348 38.8693 10.9069 0.0000 -19.3929 0.0000
# 2 38.8693 37.3503 9.4124 0.0000 -14.3043 0.0000
# 3 10.9069 9.4124 3.3426 0.0000 8.7506 0.0000
# 4 0.0000 0.0000 0.0000 7.5960 0.0000 3.5216
# 5 -19.3929 -14.3043 8.7506 0.0000 20.2523 0.0000
# 6 0.0000 0.0000 0.0000 3.5216 0.0000 19.4931
#
#
#
# Elastic Compliance Matrix: (Units=1/GPa)
#
#
# Indices 1 2 3 4 5 6 
#
# 1 0.014234 -0.017397 0.007421 0.000000 -0.001864 0.000000
# 2 -0.017397 0.022981 0.052059 0.000000 -0.022921 0.000000
# 3 0.007421 0.052059 -0.102948 0.000000 0.088357 0.000000
# 4 0.000000 0.000000 0.000000 0.143682 0.000000 -0.025957
# 5 -0.001864 -0.022921 0.088357 0.000000 -0.006773 0.000000
# 6 0.000000 0.000000 0.000000 -0.025957 0.000000 0.055990
#
#
# Mechanical properties :
#
#
# Convention : Reuss Voigt Hill
#
# Bulk Modulus (GPa) = 54.25021 29.84499 42.04760
# Shear Modulus (GPa) = 101.74430 15.53756 58.64093
#
# Velocity S-wave (km/s) = 7.15492 2.79603 5.43188
# Velocity P-wave (km/s) = 9.77514 5.04384 7.77797
#
# Compressibility (1/GPa) = 0.01843311
#
# Stress axis : x y z
#
# Youngs Moduli (GPa) = 70.25449 43.51498 -9.71365
#
# Poissons Ratio (x) = 0.75702 0.07208
# Poissons Ratio (y) = 1.22220 0.50568
# Poissons Ratio (z) = -0.52135 -2.26535
#
# Static dielectric constant tensor:
#      x y z
#    x 1.729650 0.000000 0.010140 
#    y 0.000000 1.731220 0.000000 
#    z 0.010140 0.000000 1.691540 
# 
# From -- ./inp_files/31609.got.cif
#   From: 2010.05.17/outbox.ucp.g08.bks.cvg/sg10_16_cif.got.tgz:31609.got - 2010.06.11 11:31:16.
