data_PCOD9155599
_publ_section_title
;
Structure prediction by ZEFSAII (Michael W. Deem and Ramdas Pophale) SiO2 
 PCOD9155599
Probable space group: P 2/M
;
_chemical_formula_sum "Si O2"
_cell_formula_units_Z 28
_cell_length_a 30.000000
_cell_length_b 9.000000
_cell_length_c 30.000000
_cell_angle_alpha 90.000000
_cell_angle_beta 10.000000
_cell_angle_gamma 90.000000
_cell_volume 1406.550239
_symmetry_space_group_name_H-M "P 2/M"
_symmetry_group_IT_number 10
_symmetry_cell_setting 'monoclinic'
loop_
_space_group_symop_operation_xyz
x,y,z
-x,y,-z
-x,-y,-z
x,-y,z
loop_
_atom_site_type_symbol
_atom_site_label
_atom_site_fract_x
_atom_site_fract_y
_atom_site_fract_z
Si Si1 0.424882 0.177852 0.369317
Si Si2 0.597707 0.832111 0.790058
Si Si3 0.905857 0.326801 0.848282
Si Si4 0.979524 0.181940 0.969321
Si Si5 0.070493 0.830743 0.262850
Si Si6 0.546214 0.819554 0.555789
Si Si7 0.738486 0.322520 0.737776
O O1 0.428935 0.216864 0.417350
O O2 0.161108 0.238583 0.609871
O O3 0.441565 0.000000 0.347755
O O4 0.664617 0.255406 0.110339
O O5 0.783302 0.817850 0.564551
O O6 0.696973 0.716405 0.727790
O O7 0.640380 0.000000 0.764961
O O8 0.297021 0.816479 0.075923
O O9 0.929875 0.500000 0.834492
O O10 0.873899 0.294196 0.827741
O O11 0.217471 0.233811 0.706019
O O12 0.980084 0.000000 0.968344
O O13 0.718177 0.233105 0.204531
O O14 0.000000 0.228292 0.000000
O O15 0.098308 0.000000 0.216917
O O16 0.545745 0.000000 0.553677
O O17 0.742329 0.500000 0.739296
O O18 0.000000 0.260842 0.500000
O O19 0.500000 0.260792 0.000000
#
# Coordination Sequence:
#
# PCOD9155599 Si02
#       7
#     4   4   4   4   4   4   4
#     4  11  22  39  61  83 115 158 197 236 288 351
#     4  10  21  36  57  83 109 141 184 230 273 328
#     4  12  25  40  60  89 119 149 194 246 294 345
#     4   9  15  24  40  67 106 143 174 221 283 336
#     4  10  21  38  58  82 112 147 186 227 282 345
#     4   9  17  28  45  71 102 142 187 223 271 342
#     4  10  21  36  54  78 109 145 182 221 271 329
#
# _framework density 19.906860999999999
#
# number of rings (size 3 to 8) (size 9 to 14) (size 15 to 20)
#    0.000    1.857    0.000    4.714    0.000    6.857 
#    0.000    0.000    0.000    0.000    0.000    0.000 
#    0.000   40.000    0.000    0.000    0.000    0.000 
#
# Total GULP energy -156241.241153 kJ/mol
# GULP energy per Si atom -5580.044327 kJ/mol
# Density = 1.986155 g / cm^3
# Si number density = 19.906861 Si / 1000 Ang^3
#
#
#
# Elastic Constant Matrix: (Units=GPa)
#
#
# Indices 1 2 3 4 5 6 
#
# 1 45.5159 5.4999 13.8828 0.0000 -3.0534 0.0000
# 2 5.4999 -8.0096 -15.8997 0.0000 5.5928 0.0000
# 3 13.8828 -15.8997 83.2412 0.0000 -0.1847 0.0000
# 4 0.0000 0.0000 0.0000 -23.4980 0.0000 -11.0492
# 5 -3.0534 5.5928 -0.1847 0.0000 30.3032 0.0000
# 6 0.0000 0.0000 0.0000 -11.0492 0.0000 -6.8287
#
#
#
# Elastic Compliance Matrix: (Units=1/GPa)
#
#
# Indices 1 2 3 4 5 6 
#
# 1 0.020333 0.014671 -0.000590 0.000000 -0.000663 0.000000
# 2 0.014671 -0.072293 -0.016223 0.000000 0.014722 0.000000
# 3 -0.000590 -0.016223 0.009020 0.000000 0.002990 0.000000
# 4 0.000000 0.000000 0.000000 -0.177946 0.000000 0.287926
# 5 -0.000663 0.014722 0.002990 0.000000 0.030234 0.000000
# 6 0.000000 0.000000 0.000000 0.287926 0.000000 -0.612322
#
#
# Mechanical properties :
#
#
# Convention : Reuss Voigt Hill
#
# Bulk Modulus (GPa) = -21.17573 14.19037 -3.49268
# Shear Modulus (GPa) = -6.13925 7.81295 0.83685
#
# Velocity S-wave (km/s) = -1.75803 1.98325 0.64907
# Velocity P-wave (km/s) = 3.84466 3.51969 1.09389
#
# Compressibility (1/GPa) = -0.04722388
#
# Stress axis : x y z
#
# Youngs Moduli (GPa) = 49.18071 -13.83258 110.86854
#
# Poissons Ratio (x) = 0.20294 0.06544
# Poissons Ratio (y) = -0.72154 1.79859
# Poissons Ratio (z) = 0.02903 -0.22440
#
# Static dielectric constant tensor:
#      x y z
#    x 1.707520 0.000000 -0.002030 
#    y 0.000000 1.677940 0.000000 
#    z -0.002030 0.000000 1.703190 
# 
# From -- ./inp_files/13592.got.cif
#   From: 2010.05.17/outbox.ucp.g08.bks.cvg/sg10_7_cif.got.tgz:13592.got - 2010.06.11 11:31:16.
