data_PCOD9155569
_publ_section_title
;
Structure prediction by ZEFSAII (Michael W. Deem and Ramdas Pophale) SiO2 
 PCOD9155569
Probable space group: P 2/M
;
_chemical_formula_sum "Si O2"
_cell_formula_units_Z 32
_cell_length_a 12.000000
_cell_length_b 9.000000
_cell_length_c 30.000000
_cell_angle_alpha 90.000000
_cell_angle_beta 150.000000
_cell_angle_gamma 90.000000
_cell_volume 1620.000000
_symmetry_space_group_name_H-M "P 2/M"
_symmetry_group_IT_number 10
_symmetry_cell_setting 'monoclinic'
loop_
_space_group_symop_operation_xyz
x,y,z
-x,y,-z
-x,-y,-z
x,-y,z
loop_
_atom_site_type_symbol
_atom_site_label
_atom_site_fract_x
_atom_site_fract_y
_atom_site_fract_z
Si Si1 0.735081 0.177038 0.605406
Si Si2 0.342693 0.170856 0.244357
Si Si3 0.075734 0.321729 0.785574
Si Si4 0.123900 0.676009 0.906307
Si Si5 0.520162 0.822700 0.902769
Si Si6 0.431381 0.829884 0.772063
Si Si7 0.025679 0.324936 0.392199
Si Si8 0.779642 0.174911 0.454475
O O1 0.500000 0.220760 0.500000
O O2 0.904668 0.228867 0.626181
O O3 0.840216 0.252785 0.686368
O O4 0.728748 0.000000 0.610248
O O5 0.414662 0.170410 0.217818
O O6 0.556588 0.212401 0.349232
O O7 0.130500 0.275624 0.173905
O O8 0.282424 0.000000 0.235807
O O9 0.064655 0.500000 0.776005
O O10 0.145056 0.289796 0.860833
O O11 0.280578 0.251452 0.829358
O O12 0.155894 0.500000 0.923109
O O13 0.294350 0.756831 0.999240
O O14 0.554165 0.796863 0.861358
O O15 0.508898 0.000000 0.905933
O O16 0.232476 0.717510 0.691590
O O17 0.340024 0.000000 0.744329
O O18 0.055042 0.500000 0.394752
O O19 0.171917 0.271356 0.485002
O O20 0.000000 0.189878 0.500000
O O21 0.763337 0.000000 0.461457
#
# Coordination Sequence:
#
# PCOD9155569 Si02
#       8
#     4   4   4   4   4   4   4   4
#     4  11  25  43  64  92 125 165 211 257 306 369
#     4  10  22  41  65  91 124 167 215 262 311 370
#     4  11  24  43  66  94 128 166 206 258 322 377
#     4  11  26  44  62  90 132 168 203 261 325 379
#     4  11  23  41  70  97 120 160 214 264 313 378
#     4  10  21  41  66  93 125 163 212 266 311 365
#     4  12  24  37  60  92 128 166 204 255 313 377
#     4  10  20  38  63  88 120 165 211 255 300 359
#
# _framework density 19.753086
#
# number of rings (size 3 to 8) (size 9 to 14) (size 15 to 20)
#    0.000    1.250    2.500    3.000    1.750    6.750 
#    0.000    2.500    0.000    0.000    0.000    0.000 
#    0.000    0.000    0.000    0.000    0.000    0.000 
#
# Total GULP energy -178681.137520 kJ/mol
# GULP energy per Si atom -5583.785548 kJ/mol
# Density = 1.970813 g / cm^3
# Si number density = 19.753086 Si / 1000 Ang^3
#
#
#
# Elastic Constant Matrix: (Units=GPa)
#
#
# Indices 1 2 3 4 5 6 
#
# 1 46.8758 13.6991 22.8493 0.0000 -19.1154 0.0000
# 2 13.6991 36.8004 41.2714 0.0000 -15.4304 0.0000
# 3 22.8493 41.2714 154.4820 0.0000 -30.1771 0.0000
# 4 0.0000 0.0000 0.0000 50.9287 0.0000 -17.6904
# 5 -19.1154 -15.4304 -30.1771 0.0000 38.0586 0.0000
# 6 0.0000 0.0000 0.0000 -17.6904 0.0000 30.3880
#
#
#
# Elastic Compliance Matrix: (Units=1/GPa)
#
#
# Indices 1 2 3 4 5 6 
#
# 1 0.027719 -0.004877 -0.000549 0.000000 0.011510 0.000000
# 2 -0.004877 0.042376 -0.009137 0.000000 0.007486 0.000000
# 3 -0.000549 -0.009137 0.009724 0.000000 0.003730 0.000000
# 4 0.000000 0.000000 0.000000 0.024612 0.000000 0.014328
# 5 0.011510 0.007486 0.003730 0.000000 0.038049 0.000000
# 6 0.000000 0.000000 0.000000 0.014328 0.000000 0.041249
#
#
# Mechanical properties :
#
#
# Convention : Reuss Voigt Hill
#
# Bulk Modulus (GPa) = 19.72671 43.75532 31.74102
# Shear Modulus (GPa) = 21.76250 34.56431 28.16340
#
# Velocity S-wave (km/s) = 3.32283 4.18762 3.78004
# Velocity P-wave (km/s) = 4.97292 6.75135 5.92919
#
# Compressibility (1/GPa) = 0.05069268
#
# Stress axis : x y z
#
# Youngs Moduli (GPa) = 36.07593 23.59853 102.83627
#
# Poissons Ratio (x) = 0.11510 0.05641
# Poissons Ratio (y) = 0.17596 0.93965
# Poissons Ratio (z) = 0.01979 0.21563
#
# Static dielectric constant tensor:
#      x y z
#    x 1.745970 0.000000 0.002600 
#    y 0.000000 1.677080 0.000000 
#    z 0.002600 0.000000 1.684090 
# 
# From -- ./inp_files/95096.got.cif
#   From: 2010.05.17/outbox.ucp.g08.bks.cvg/sg10_48_cif.got.tgz:95096.got - 2010.06.11 11:31:16.
