data_PCOD9155611
_publ_section_title
;
Structure prediction by ZEFSAII (Michael W. Deem and Ramdas Pophale) SiO2 
 PCOD9155611
Probable space group: P 2/M
;
_chemical_formula_sum "Si O2"
_cell_formula_units_Z 32
_cell_length_a 15.000000
_cell_length_b 9.000000
_cell_length_c 21.000000
_cell_angle_alpha 90.000000
_cell_angle_beta 40.000000
_cell_angle_gamma 90.000000
_cell_volume 1822.302873
_symmetry_space_group_name_H-M "P 2/M"
_symmetry_group_IT_number 10
_symmetry_cell_setting 'monoclinic'
loop_
_space_group_symop_operation_xyz
x,y,z
-x,y,-z
-x,-y,-z
x,-y,z
loop_
_atom_site_type_symbol
_atom_site_label
_atom_site_fract_x
_atom_site_fract_y
_atom_site_fract_z
Si Si1 0.346001 0.319152 0.064558
Si Si2 0.131964 0.822684 0.787872
Si Si3 0.168272 0.170613 0.403910
Si Si4 0.833273 0.330430 0.101094
Si Si5 0.136373 0.321179 0.290168
Si Si6 0.187117 0.321418 0.525731
Si Si7 0.826550 0.680321 0.963176
Si Si8 0.660246 0.679363 0.427847
O O1 0.350003 0.500000 0.062600
O O2 0.231981 0.273378 0.179219
O O3 0.285917 0.276467 0.028387
O O4 0.500000 0.267799 0.000000
O O5 0.190026 0.772098 0.825326
O O6 0.233707 0.756243 0.678947
O O7 0.976892 0.752835 0.867198
O O8 0.123776 0.000000 0.788241
O O9 0.196235 0.256204 0.323083
O O10 0.221761 0.247415 0.439045
O O11 0.000000 0.173110 0.500000
O O12 0.213323 0.000000 0.375928
O O13 0.787390 0.500000 0.139719
O O14 0.780180 0.281720 0.060696
O O15 0.000000 0.334891 0.000000
O O16 0.139514 0.500000 0.292151
O O17 0.973859 0.279184 0.370743
O O18 0.190041 0.500000 0.516695
O O19 0.288298 0.281996 0.528759
O O20 0.844753 0.500000 0.951725
O O21 0.500000 0.718183 0.500000
O O22 0.673239 0.500000 0.414281
#
# Coordination Sequence:
#
# PCOD9155611 Si02
#       8
#     4   4   4   4   4   4   4   4
#     4   9  17  30  50  76 102 129 166 211 252 288
#     4  11  21  32  51  77 104 133 165 205 251 301
#     4   9  17  29  47  72 100 127 158 199 243 289
#     4   8  15  29  50  74 100 130 165 208 252 293
#     4   9  16  28  49  74 100 128 159 200 245 290
#     4   9  17  31  52  75  96 123 161 203 246 290
#     4   9  17  32  54  77 101 131 169 211 252 296
#     4  10  21  37  55  74  99 132 169 208 249 296
#
# _framework density 17.560198
#
# number of rings (size 3 to 8) (size 9 to 14) (size 15 to 20)
#    0.000    2.750    0.000    3.000    0.000    6.500 
#    0.000    4.375    0.000    6.000    0.000    0.000 
#    0.000    0.000    0.000    0.000    0.000    0.000 
#
# Total GULP energy -178356.330034 kJ/mol
# GULP energy per Si atom -5573.635314 kJ/mol
# Density = 1.752023 g / cm^3
# Si number density = 17.560198 Si / 1000 Ang^3
#
#
#
# Elastic Constant Matrix: (Units=GPa)
#
#
# Indices 1 2 3 4 5 6 
#
# 1 177.4818 36.2716 55.0970 0.0000 20.2896 0.0000
# 2 36.2716 33.4752 13.2119 0.0000 4.5791 0.0000
# 3 55.0970 13.2119 27.1257 0.0000 8.5854 0.0000
# 4 0.0000 0.0000 0.0000 5.0033 0.0000 -5.1809
# 5 20.2896 4.5791 8.5854 0.0000 26.3456 0.0000
# 6 0.0000 0.0000 0.0000 -5.1809 0.0000 1.9113
#
#
#
# Elastic Compliance Matrix: (Units=1/GPa)
#
#
# Indices 1 2 3 4 5 6 
#
# 1 0.016138 -0.005604 -0.029463 0.000000 -0.001853 0.000000
# 2 -0.005604 0.038937 -0.007588 0.000000 0.000021 0.000000
# 3 -0.029463 -0.007588 0.103479 0.000000 -0.009712 0.000000
# 4 0.000000 0.000000 0.000000 -0.110617 0.000000 -0.299844
# 5 -0.001853 0.000021 -0.009712 0.000000 0.042545 0.000000
# 6 0.000000 0.000000 0.000000 -0.299844 0.000000 -0.289569
#
#
# Mechanical properties :
#
#
# Convention : Reuss Voigt Hill
#
# Bulk Modulus (GPa) = 13.65308 49.69375 31.67341
# Shear Modulus (GPa) = -55.95302 15.55220 -20.20041
#
# Velocity S-wave (km/s) = -5.65090 2.97922 -3.39536
# Velocity P-wave (km/s) = 5.89789 6.33994 1.64465
#
# Compressibility (1/GPa) = 0.07324356
#
# Stress axis : x y z
#
# Youngs Moduli (GPa) = 61.96611 25.68232 9.66379
#
# Poissons Ratio (x) = 0.14393 0.28472
# Poissons Ratio (y) = 0.34727 0.07333
# Poissons Ratio (z) = 1.82569 0.19489
#
# Static dielectric constant tensor:
#      x y z
#    x 1.611870 0.000000 0.016130 
#    y 0.000000 1.586400 0.000000 
#    z 0.016130 0.000000 1.583970 
# 
# From -- ./inp_files/84725.got.cif
#   From: 2010.05.17/outbox.ucp.g08.bks.cvg/sg10_43_cif.got.tgz:84725.got - 2010.06.11 11:31:16.
