data_PCOD9155759
_publ_section_title
;
Structure prediction by ZEFSAII (Michael W. Deem and Ramdas Pophale) SiO2 
 PCOD9155759
Probable space group: P 21/M
;
_chemical_formula_sum "Si O2"
_cell_formula_units_Z 28
_cell_length_a 19.242566
_cell_length_b 8.444679
_cell_length_c 21.543662
_cell_angle_alpha 90.000000
_cell_angle_beta 153.690824
_cell_angle_gamma 90.000000
_cell_volume 1551.600358
_symmetry_space_group_name_H-M "P 21/M"
_symmetry_group_IT_number 11
_symmetry_cell_setting 'monoclinic'
loop_
_space_group_symop_operation_xyz
x,y,z
-x,1/2+y,-z
-x,-y,-z
x,1/2-y,z
loop_
_atom_site_type_symbol
_atom_site_label
_atom_site_fract_x
_atom_site_fract_y
_atom_site_fract_z
Si Si1 0.585048 0.441133 0.160276
Si Si2 0.529086 0.562353 0.669961
Si Si3 0.627601 0.443067 0.334887
Si Si4 0.335166 0.562680 0.339368
Si Si5 0.793470 0.937041 0.647256
Si Si6 0.952596 0.058349 0.660913
Si Si7 0.737375 0.558995 0.163588
O O1 0.586876 0.250000 0.162497
O O2 0.606038 0.497879 0.247400
O O3 0.715419 0.498104 0.215929
O O4 0.417249 0.492776 0.998160
O O5 0.555139 0.750000 0.689808
O O6 0.505483 0.507064 0.722028
O O7 0.654703 0.483512 0.724787
O O8 0.357845 0.526582 0.502964
O O9 0.624492 0.250000 0.332166
O O10 0.797216 0.489080 0.497929
O O11 0.500000 0.500000 0.500000
O O12 0.330369 0.750000 0.341854
O O13 0.203592 0.486987 0.278352
O O14 0.766290 0.750000 0.621385
O O15 0.934574 0.987728 0.715414
O O16 0.953148 0.250000 0.666311
O O17 0.106555 0.007522 0.747025
O O18 0.738154 0.750000 0.165904
#
# Coordination Sequence:
#
# PCOD9155759 Si02
#       7
#     4   4   4   4   4   4   4
#     4   9  17  31  48  65  85 112 145 177 211 256
#     4   9  15  25  39  57  84 116 146 177 214 254
#     4   8  15  27  44  63  86 115 144 175 213 256
#     4  10  16  23  36  56  84 117 148 177 212 253
#     4  10  17  25  38  59  85 113 145 179 215 254
#     4   9  17  30  44  61  87 116 143 175 217 259
#     4   9  18  31  47  65  86 112 143 178 215 255
#
# _framework density 18.045883
#
# number of rings (size 3 to 8) (size 9 to 14) (size 15 to 20)
#    0.000    2.857    0.000    5.571    0.000    1.143 
#    0.000    3.571    0.000    0.000    0.000    1.000 
#    0.000    0.000    0.000    0.000    0.000    0.000 
#
# Total GULP energy -155911.591236 kJ/mol
# GULP energy per Si atom -5568.271116 kJ/mol
# Density = 1.800481 g / cm^3
# Si number density = 18.045883 Si / 1000 Ang^3
#
#
#
# Elastic Constant Matrix: (Units=GPa)
#
#
# Indices 1 2 3 4 5 6 
#
# 1 224.8034 24.5495 49.3218 0.0000 -2.7009 0.0000
# 2 24.5495 31.1995 6.7406 0.0000 -1.4018 0.0000
# 3 49.3218 6.7406 21.8288 0.0000 -1.2057 0.0000
# 4 0.0000 0.0000 0.0000 6.8483 0.0000 0.9871
# 5 -2.7009 -1.4018 -1.2057 0.0000 -7.4009 0.0000
# 6 0.0000 0.0000 0.0000 0.9871 0.0000 32.2358
#
#
#
# Elastic Compliance Matrix: (Units=1/GPa)
#
#
# Indices 1 2 3 4 5 6 
#
# 1 0.009058 -0.002884 -0.019553 0.000000 0.000426 0.000000
# 2 -0.002884 0.035095 -0.004588 0.000000 -0.004847 0.000000
# 3 -0.019553 -0.004588 0.091031 0.000000 -0.006825 0.000000
# 4 0.000000 0.000000 0.000000 0.146670 0.000000 -0.004491
# 5 0.000426 -0.004847 -0.006825 0.000000 -0.133244 0.000000
# 6 0.000000 0.000000 0.000000 -0.004491 0.000000 0.031159
#
#
# Mechanical properties :
#
#
# Convention : Reuss Voigt Hill
#
# Bulk Modulus (GPa) = 12.32543 48.78392 30.55467
# Shear Modulus (GPa) = 19.16711 19.48462 19.32587
#
# Velocity S-wave (km/s) = 3.26257 3.28948 3.27606
# Velocity P-wave (km/s) = 4.58665 6.44357 5.59272
#
# Compressibility (1/GPa) = 0.08113308
#
# Stress axis : x y z
#
# Youngs Moduli (GPa) = 110.39555 28.49441 10.98528
#
# Poissons Ratio (x) = 0.08218 0.21480
# Poissons Ratio (y) = 0.31839 0.05040
# Poissons Ratio (z) = 2.15857 0.13074
#
# Static dielectric constant tensor:
#      x y z
#    x 1.688500 0.000000 -0.006390 
#    y 0.000000 1.627510 0.000000 
#    z -0.006390 0.000000 1.598200 
# 
# From -- ./inp_files/65982.got.cif
#   From: 2010.05.17/outbox.cif.g08.bks.cpg/sg11_33_cif.got.tgz:65982.got - 2010.06.03 12:22:45.
