data_PCOD9155850
_publ_section_title
;
Structure prediction by ZEFSAII (Michael W. Deem and Ramdas Pophale) SiO2 
 PCOD9155850
Probable space group: P 21/M
;
_chemical_formula_sum "Si O2"
_cell_formula_units_Z 28
_cell_length_a 20.480792
_cell_length_b 8.540195
_cell_length_c 23.684433
_cell_angle_alpha 90.000000
_cell_angle_beta 163.262817
_cell_angle_gamma 90.000000
_cell_volume 1193.006886
_symmetry_space_group_name_H-M "P 21/M"
_symmetry_group_IT_number 11
_symmetry_cell_setting 'monoclinic'
loop_
_space_group_symop_operation_xyz
x,y,z
-x,1/2+y,-z
-x,-y,-z
x,1/2-y,z
loop_
_atom_site_type_symbol
_atom_site_label
_atom_site_fract_x
_atom_site_fract_y
_atom_site_fract_z
Si Si1 0.116097 0.932451 0.827074
Si Si2 0.449691 0.563536 0.315126
Si Si3 0.731171 0.060825 0.721261
Si Si4 0.095627 0.563849 0.248559
Si Si5 0.113337 0.926419 0.537740
Si Si6 0.664508 0.926127 0.091193
Si Si7 0.329051 0.561030 0.606875
O O1 0.106929 0.750000 0.831084
O O2 0.312700 0.973744 0.946167
O O3 0.111537 0.024937 0.881886
O O4 0.889622 0.987270 0.606077
O O5 0.426864 0.750000 0.288515
O O6 0.272981 0.505099 0.217206
O O7 0.689576 0.525784 0.545731
O O8 0.471668 0.485618 0.271808
O O9 0.723945 0.250000 0.718125
O O10 0.916859 0.017198 0.827563
O O11 0.500000 0.000000 0.500000
O O12 0.140027 0.750000 0.288446
O O13 0.179510 0.750000 0.608027
O O14 0.305538 0.992549 0.653207
O O15 0.902392 0.920172 0.320313
O O16 0.000000 0.000000 0.500000
O O17 0.601385 0.750000 0.024399
O O18 0.500000 0.000000 0.000000
O O19 0.312392 0.750000 0.593346
#
# Coordination Sequence:
#
# PCOD9155850 Si02
#       7
#     4   4   4   4   4   4   4
#     4  10  17  25  38  56  76 103 137 173 209 252
#     4   9  14  20  30  46  66  93 130 168 203 247
#     4   8  14  20  27  41  63  91 126 164 202 241
#     4   9  14  21  31  44  66  97 129 166 206 245
#     4   9  19  32  47  66  89 114 146 182 219 261
#     4  10  20  34  49  68  90 115 146 182 220 263
#     4   9  16  26  37  53  76 103 135 173 211 253
#
# _framework density 23.470109000000001
#
# number of rings (size 3 to 8) (size 9 to 14) (size 15 to 20)
#    0.000    2.857    0.000    5.571    0.000    4.571 
#    0.000    0.000    0.000    0.000    0.000    0.000 
#    0.000    0.000    0.000    1.286    0.000   17.714 
#
# Total GULP energy -156048.545545 kJ/mol
# GULP energy per Si atom -5573.162341 kJ/mol
# Density = 2.341669 g / cm^3
# Si number density = 23.470109 Si / 1000 Ang^3
#
#
#
# Elastic Constant Matrix: (Units=GPa)
#
#
# Indices 1 2 3 4 5 6 
#
# 1 258.9962 28.9418 34.6779 0.0000 47.1082 0.0000
# 2 28.9418 51.4565 -14.7583 0.0000 6.7242 0.0000
# 3 34.6779 -14.7583 43.4171 0.0000 -7.4707 0.0000
# 4 0.0000 0.0000 0.0000 -3.3212 0.0000 9.3734
# 5 47.1082 6.7242 -7.4707 0.0000 53.8028 0.0000
# 6 0.0000 0.0000 0.0000 9.3734 0.0000 30.7215
#
#
#
# Elastic Compliance Matrix: (Units=1/GPa)
#
#
# Indices 1 2 3 4 5 6 
#
# 1 0.006722 -0.005322 -0.008274 0.000000 -0.006369 0.000000
# 2 -0.005322 0.025902 0.013625 0.000000 0.003314 0.000000
# 3 -0.008274 0.013625 0.036088 0.000000 0.010552 0.000000
# 4 0.000000 0.000000 0.000000 -0.161784 0.000000 0.049362
# 5 -0.006369 0.003314 0.010552 0.000000 0.025214 0.000000
# 6 0.000000 0.000000 0.000000 0.049362 0.000000 0.017490
#
#
# Mechanical properties :
#
#
# Convention : Reuss Voigt Hill
#
# Bulk Modulus (GPa) = 14.54090 50.17696 32.35893
# Shear Modulus (GPa) = -181.79490 36.57451 -72.61020
#
# Velocity S-wave (km/s) = -8.81057 3.95187 -5.56817
# Velocity P-wave (km/s) = 9.86370 6.49989 5.24615
#
# Compressibility (1/GPa) = 0.06877154
#
# Stress axis : x y z
#
# Youngs Moduli (GPa) = 148.76372 38.60734 27.70992
#
# Poissons Ratio (x) = 0.20545 0.22927
# Poissons Ratio (y) = 0.79166 -0.37755
# Poissons Ratio (z) = 1.23086 -0.52603
#
# Static dielectric constant tensor:
#      x y z
#    x 1.975740 0.000000 0.093960 
#    y 0.000000 1.800450 0.000000 
#    z 0.093960 0.000000 2.163620 
# 
# From -- ./inp_files/71946.got.cif
#   From: 2010.05.17/outbox.cif.g08.bks.cpg/sg11_36_cif.got.tgz:71946.got - 2010.06.03 12:22:45.
