data_PCOD9155674
_publ_section_title
;
Structure prediction by ZEFSAII (Michael W. Deem and Ramdas Pophale) SiO2 
 PCOD9155674
Probable space group: P 2/M
;
_chemical_formula_sum "Si O2"
_cell_formula_units_Z 32
_cell_length_a 15.000000
_cell_length_b 9.000000
_cell_length_c 24.000000
_cell_angle_alpha 90.000000
_cell_angle_beta 30.000000
_cell_angle_gamma 90.000000
_cell_volume 1620.000000
_symmetry_space_group_name_H-M "P 2/M"
_symmetry_group_IT_number 10
_symmetry_cell_setting 'monoclinic'
loop_
_space_group_symop_operation_xyz
x,y,z
-x,y,-z
-x,-y,-z
x,-y,z
loop_
_atom_site_type_symbol
_atom_site_label
_atom_site_fract_x
_atom_site_fract_y
_atom_site_fract_z
Si Si1 0.473128 0.821691 0.189153
Si Si2 0.091095 0.672782 0.389997
Si Si3 0.460166 0.324057 0.732667
Si Si4 0.778056 0.821469 0.491515
Si Si5 0.000003 0.821107 0.177443
Si Si6 0.068966 0.324031 0.901538
Si Si7 0.617620 0.180005 0.988846
Si Si8 0.699938 0.323410 0.414257
O O1 0.269524 0.767884 0.299482
O O2 0.566754 0.740014 0.190523
O O3 0.543463 0.778960 0.089886
O O4 0.488727 0.000000 0.187186
O O5 0.127663 0.500000 0.355731
O O6 0.000000 0.673496 0.500000
O O7 0.958656 0.748015 0.417400
O O8 0.503305 0.500000 0.712882
O O9 0.620828 0.235072 0.617320
O O10 0.282979 0.308110 0.791220
O O11 0.734036 0.760351 0.453937
O O12 0.790259 0.000000 0.485164
O O13 0.008485 0.764832 0.108953
O O14 0.832877 0.743176 0.296605
O O15 0.984546 0.000000 0.186013
O O16 0.174270 0.779230 0.119710
O O17 0.027766 0.500000 0.917082
O O18 0.000000 0.277574 0.000000
O O19 0.611229 0.000000 0.989522
O O20 0.500000 0.235198 0.000000
O O21 0.500000 0.302212 0.500000
O O22 0.729020 0.500000 0.406118
#
# Coordination Sequence:
#
# PCOD9155674 Si02
#       8
#     4   4   4   4   4   4   4   4
#     4  11  22  37  63  92 122 163 211 259 311 369
#     4  11  23  40  62  90 128 167 204 254 316 378
#     4  11  22  38  60  88 124 163 200 250 314 374
#     4  12  25  40  63  92 123 160 208 258 310 373
#     4  11  23  40  66  96 127 165 211 265 316 369
#     4  10  22  40  63  89 122 165 207 252 312 376
#     4   9  21  41  62  89 126 166 207 256 316 372
#     4  11  25  45  67  92 129 172 210 257 317 379
#
# _framework density 19.753086
#
# number of rings (size 3 to 8) (size 9 to 14) (size 15 to 20)
#    0.000    1.250    1.250    4.500    1.750    5.750 
#    0.000    1.875    0.000    3.000    0.000    0.000 
#    0.000    0.000    0.000    0.000    0.000    0.000 
#
# Total GULP energy -178917.867722 kJ/mol
# GULP energy per Si atom -5591.183366 kJ/mol
# Density = 1.970813 g / cm^3
# Si number density = 19.753086 Si / 1000 Ang^3
#
#
#
# Elastic Constant Matrix: (Units=GPa)
#
#
# Indices 1 2 3 4 5 6 
#
# 1 141.4290 44.7864 19.8399 0.0000 4.0776 0.0000
# 2 44.7864 90.5005 12.4261 0.0000 2.2777 0.0000
# 3 19.8399 12.4261 69.5911 0.0000 2.8397 0.0000
# 4 0.0000 0.0000 0.0000 14.1401 0.0000 10.3079
# 5 4.0776 2.2777 2.8397 0.0000 30.8385 0.0000
# 6 0.0000 0.0000 0.0000 10.3079 0.0000 35.1937
#
#
#
# Elastic Compliance Matrix: (Units=1/GPa)
#
#
# Indices 1 2 3 4 5 6 
#
# 1 0.008598 -0.004003 -0.001708 0.000000 -0.000684 0.000000
# 2 -0.004003 0.013204 -0.001203 0.000000 -0.000335 0.000000
# 3 -0.001708 -0.001203 0.015115 0.000000 -0.001077 0.000000
# 4 0.000000 0.000000 0.000000 0.089919 0.000000 -0.026336
# 5 -0.000684 -0.000335 -0.001077 0.000000 0.032641 0.000000
# 6 0.000000 0.000000 0.000000 -0.026336 0.000000 0.036128
#
#
# Mechanical properties :
#
#
# Convention : Reuss Voigt Hill
#
# Bulk Modulus (GPa) = 43.31100 50.62502 46.96801
# Shear Modulus (GPa) = 23.02760 30.99902 27.01331
#
# Velocity S-wave (km/s) = 3.41804 3.96577 3.70205
# Velocity P-wave (km/s) = 6.12790 6.83040 6.48866
#
# Compressibility (1/GPa) = 0.02308882
#
# Stress axis : x y z
#
# Youngs Moduli (GPa) = 116.31023 75.73329 66.15743
#
# Poissons Ratio (x) = 0.30316 0.11303
# Poissons Ratio (y) = 0.46559 0.07958
# Poissons Ratio (z) = 0.19871 0.09109
#
# Static dielectric constant tensor:
#      x y z
#    x 1.672000 0.000000 -0.003050 
#    y 0.000000 1.656150 0.000000 
#    z -0.003050 0.000000 1.728150 
# 
# From -- ./inp_files/89550.got.cif
#   From: 2010.05.17/outbox.ucp.g08.bks.cvg/sg10_45_cif.got.tgz:89550.got - 2010.06.11 11:31:16.
