data_PCOD9155121
_publ_section_title
;
Structure prediction by ZEFSAII (Michael W. Deem and Ramdas Pophale) SiO2 
 PCOD9155121
Probable space group: P 2/M
;
_chemical_formula_sum "Si O2"
_cell_formula_units_Z 32
_cell_length_a 12.000000
_cell_length_b 9.000000
_cell_length_c 21.000000
_cell_angle_alpha 90.000000
_cell_angle_beta 50.000000
_cell_angle_gamma 90.000000
_cell_volume 1737.388797
_symmetry_space_group_name_H-M "P 2/M"
_symmetry_group_IT_number 10
_symmetry_cell_setting 'monoclinic'
loop_
_space_group_symop_operation_xyz
x,y,z
-x,y,-z
-x,-y,-z
x,-y,z
loop_
_atom_site_type_symbol
_atom_site_label
_atom_site_fract_x
_atom_site_fract_y
_atom_site_fract_z
Si Si1 0.204939 0.823032 0.373203
Si Si2 0.291605 0.321721 0.881859
Si Si3 0.783909 0.327807 0.223699
Si Si4 0.866692 0.176400 0.459389
Si Si5 0.875544 0.679390 0.324085
Si Si6 0.818475 0.823590 0.828546
Si Si7 0.125388 0.673410 0.063479
Si Si8 0.383339 0.324929 0.197313
O O1 0.211794 0.783113 0.445459
O O2 0.307942 0.729253 0.290096
O O3 0.038627 0.800316 0.410659
O O4 0.234040 0.000000 0.356415
O O5 0.268457 0.500000 0.882267
O O6 0.293311 0.257989 0.809536
O O7 0.445619 0.299954 0.858577
O O8 0.169364 0.272846 0.977061
O O9 0.736758 0.500000 0.246828
O O10 0.782403 0.268431 0.296473
O O11 0.953218 0.324362 0.139891
O O12 0.824173 0.264284 0.411644
O O13 0.847138 0.000000 0.456166
O O14 0.884088 0.500000 0.319547
O O15 0.036278 0.746052 0.253027
O O16 0.803858 0.768636 0.906357
O O17 0.686668 0.767402 0.833977
O O18 0.834869 0.000000 0.818899
O O19 0.171200 0.500000 0.052527
O O20 0.355864 0.500000 0.197785
#
# Coordination Sequence:
#
# PCOD9155121 Si02
#       8
#     4   4   4   4   4   4   4   4
#     4   9  18  32  49  71 100 135 164 194 239 292
#     4   9  18  32  51  74  99 129 163 204 252 292
#     4   8  15  29  51  77 100 124 159 204 250 292
#     4   9  17  30  50  74 101 131 162 195 242 293
#     4  10  18  29  51  80 103 124 160 205 245 289
#     4  11  21  33  48  68 101 137 163 196 248 297
#     4   9  17  32  55  77  95 121 165 213 248 287
#     4  11  21  32  49  73 101 131 166 203 239 290
#
# _framework density 18.418444999999998
#
# number of rings (size 3 to 8) (size 9 to 14) (size 15 to 20)
#    0.000    2.500    1.250    3.750    0.000    2.500 
#    0.000    5.000    0.000   15.000    0.000    5.250 
#    0.000    0.000    0.000    0.000    0.000    0.000 
#
# Total GULP energy -178335.748955 kJ/mol
# GULP energy per Si atom -5572.992155 kJ/mol
# Density = 1.837652 g / cm^3
# Si number density = 18.418445 Si / 1000 Ang^3
#
#
#
# Elastic Constant Matrix: (Units=GPa)
#
#
# Indices 1 2 3 4 5 6 
#
# 1 63.4311 18.4996 13.8175 0.0000 34.6208 0.0000
# 2 18.4996 40.1067 -0.4657 0.0000 2.1337 0.0000
# 3 13.8175 -0.4657 10.2450 0.0000 9.8442 0.0000
# 4 0.0000 0.0000 0.0000 12.2919 0.0000 7.3312
# 5 34.6208 2.1337 9.8442 0.0000 23.2597 0.0000
# 6 0.0000 0.0000 0.0000 7.3312 0.0000 1.1193
#
#
#
# Elastic Compliance Matrix: (Units=1/GPa)
#
#
# Indices 1 2 3 4 5 6 
#
# 1 0.166653 -0.063692 0.008550 0.000000 -0.245829 0.000000
# 2 -0.063692 0.049593 0.002418 0.000000 0.089230 0.000000
# 3 0.008550 0.002418 0.166228 0.000000 -0.083300 0.000000
# 4 0.000000 0.000000 0.000000 -0.027992 0.000000 0.183337
# 5 -0.245829 0.089230 -0.083300 0.000000 0.435965 0.000000
# 6 0.000000 0.000000 0.000000 0.183337 0.000000 -0.307394
#
#
# Mechanical properties :
#
#
# Convention : Reuss Voigt Hill
#
# Bulk Modulus (GPa) = 3.60978 19.72062 11.66520
# Shear Modulus (GPa) = 7.34383 12.79628 10.07006
#
# Velocity S-wave (km/s) = 1.99897 2.63868 2.34078
# Velocity P-wave (km/s) = 2.70036 4.47367 3.69498
#
# Compressibility (1/GPa) = 0.27702484
#
# Stress axis : x y z
#
# Youngs Moduli (GPa) = 6.00050 20.16407 6.01585
#
# Poissons Ratio (x) = 1.28430 -0.05144
# Poissons Ratio (y) = 0.38219 -0.01455
# Poissons Ratio (z) = -0.05130 -0.04876
#
# Static dielectric constant tensor:
#      x y z
#    x 1.667480 0.000000 0.028450 
#    y 0.000000 1.615090 0.000000 
#    z 0.028450 0.000000 1.647800 
# 
# From -- ./inp_files/83545.got.cif
#   From: 2010.05.17/outbox.ucp.g08.bks.cvg/sg10_42_cif.got.tgz:83545.got - 2010.06.11 11:31:16.
