data_PCOD9155890
_publ_section_title
;
Structure prediction by ZEFSAII (Michael W. Deem and Ramdas Pophale) SiO2 
 PCOD9155890
Probable space group: P 21/M
;
_chemical_formula_sum "Si O2"
_cell_formula_units_Z 28
_cell_length_a 14.046377
_cell_length_b 7.310985
_cell_length_c 15.531069
_cell_angle_alpha 90.000000
_cell_angle_beta 139.231928
_cell_angle_gamma 90.000000
_cell_volume 1041.487011
_symmetry_space_group_name_H-M "P 21/M"
_symmetry_group_IT_number 11
_symmetry_cell_setting 'monoclinic'
loop_
_space_group_symop_operation_xyz
x,y,z
-x,1/2+y,-z
-x,-y,-z
x,1/2-y,z
loop_
_atom_site_type_symbol
_atom_site_label
_atom_site_fract_x
_atom_site_fract_y
_atom_site_fract_z
Si Si1 0.420759 0.028444 0.582490
Si Si2 0.811651 0.970840 0.424110
Si Si3 0.821843 0.967239 0.704059
Si Si4 0.251437 0.532315 0.161541
Si Si5 0.723043 0.026924 0.005219
Si Si6 0.422326 0.466940 0.856244
Si Si7 0.952426 0.472383 0.289524
O O1 0.430182 0.250000 0.587128
O O2 0.309551 0.988193 0.584935
O O3 0.334796 0.964817 0.438203
O O4 0.585130 0.961188 0.705975
O O5 0.824521 0.750000 0.429067
O O6 0.733098 0.040631 0.283201
O O7 0.965499 0.038960 0.568174
O O8 0.820511 0.750000 0.693377
O O9 0.942043 0.027709 0.717909
O O10 0.844135 0.000750 0.819666
O O11 0.262268 0.750000 0.160122
O O12 0.204623 0.467521 0.034768
O O13 0.727703 0.250000 0.013079
O O14 0.798654 0.963403 0.145437
O O15 0.554421 0.972723 0.884622
O O16 0.409285 0.250000 0.838859
O O17 0.500000 0.500000 0.000000
O O18 0.949684 0.250000 0.292060
#
# Coordination Sequence:
#
# PCOD9155890 Si02
#       7
#     4   4   4   4   4   4   4
#     4   8  13  24  42  63  87 118 157 192 220 259
#     4   8  13  26  48  69  89 120 157 188 220 268
#     4   9  17  27  41  64  93 123 155 192 227 259
#     4  10  17  26  43  65  91 121 157 193 225 263
#     4   9  17  30  48  69  92 122 157 192 227 269
#     4  10  19  33  54  76  95 115 147 190 235 280
#     4   8  15  28  47  69  93 123 161 193 218 261
#
# _framework density 26.884636
#
# number of rings (size 3 to 8) (size 9 to 14) (size 15 to 20)
#    0.000    3.143    1.429    2.143    0.000    0.571 
#    0.000    1.429    0.000    4.286    0.000    0.000 
#    0.000    0.000    0.000    0.000    0.000    0.000 
#
# Total GULP energy -156395.338500 kJ/mol
# GULP energy per Si atom -5585.547804 kJ/mol
# Density = 2.682345 g / cm^3
# Si number density = 26.884636 Si / 1000 Ang^3
#
#
#
# Elastic Constant Matrix: (Units=GPa)
#
#
# Indices 1 2 3 4 5 6 
#
# 1 80.3902 -2.0065 55.9190 0.0000 -10.4402 0.0000
# 2 -2.0065 109.1525 5.5473 0.0000 4.4892 0.0000
# 3 55.9190 5.5473 242.1359 0.0000 -3.2781 0.0000
# 4 0.0000 0.0000 0.0000 4.1265 0.0000 -10.6229
# 5 -10.4402 4.4892 -3.2781 0.0000 55.2337 0.0000
# 6 0.0000 0.0000 0.0000 -10.6229 0.0000 6.6922
#
#
#
# Elastic Compliance Matrix: (Units=1/GPa)
#
#
# Indices 1 2 3 4 5 6 
#
# 1 0.015216 0.000348 -0.003486 0.000000 0.002641 0.000000
# 2 0.000348 0.009212 -0.000301 0.000000 -0.000701 0.000000
# 3 -0.003486 -0.000301 0.004937 0.000000 -0.000341 0.000000
# 4 0.000000 0.000000 0.000000 -0.078519 0.000000 -0.124638
# 5 0.002641 -0.000701 -0.000341 0.000000 0.018641 0.000000
# 6 0.000000 0.000000 0.000000 -0.124638 0.000000 -0.048416
#
#
# Mechanical properties :
#
#
# Convention : Reuss Voigt Hill
#
# Bulk Modulus (GPa) = 44.46920 61.17757 52.82338
# Shear Modulus (GPa) = -77.45218 38.02508 -19.71355
#
# Velocity S-wave (km/s) = -5.37323 3.76490 -2.71082
# Velocity P-wave (km/s) = 4.68176 6.45789 3.14527
#
# Compressibility (1/GPa) = 0.02248747
#
# Stress axis : x y z
#
# Youngs Moduli (GPa) = 65.72037 108.55394 202.54020
#
# Poissons Ratio (x) = -0.03781 0.70610
# Poissons Ratio (y) = -0.02289 0.06096
# Poissons Ratio (z) = 0.22912 0.03267
#
# Static dielectric constant tensor:
#      x y z
#    x 2.166650 0.000000 0.000440 
#    y 0.000000 2.029690 0.000000 
#    z 0.000440 0.000000 2.260620 
# 
# From -- ./inp_files/34386.got.cif
#   From: 2010.05.17/outbox.cif.g08.bks.cpg/sg11_18_cif.got.tgz:34386.got - 2010.06.03 12:22:45.
