data_PCOD9155515
_publ_section_title
;
Structure prediction by ZEFSAII (Michael W. Deem and Ramdas Pophale) SiO2 
 PCOD9155515
Probable space group: P 2/M
;
_chemical_formula_sum "Si O2"
_cell_formula_units_Z 28
_cell_length_a 21.000000
_cell_length_b 9.000000
_cell_length_c 15.000000
_cell_angle_alpha 90.000000
_cell_angle_beta 30.000000
_cell_angle_gamma 90.000000
_cell_volume 1417.500000
_symmetry_space_group_name_H-M "P 2/M"
_symmetry_group_IT_number 10
_symmetry_cell_setting 'monoclinic'
loop_
_space_group_symop_operation_xyz
x,y,z
-x,y,-z
-x,-y,-z
x,-y,z
loop_
_atom_site_type_symbol
_atom_site_label
_atom_site_fract_x
_atom_site_fract_y
_atom_site_fract_z
Si Si1 0.102536 0.678952 0.954815
Si Si2 0.948074 0.822560 0.794378
Si Si3 0.760661 0.677822 0.893280
Si Si4 0.368160 0.834278 0.213659
Si Si5 0.617530 0.820459 0.424514
Si Si6 0.495184 0.172908 0.244680
Si Si7 0.138645 0.672965 0.422393
O O1 0.112813 0.500000 0.951150
O O2 0.047660 0.748916 0.113102
O O3 0.245162 0.745122 0.763074
O O4 0.000000 0.710438 0.000000
O O5 0.051258 0.763835 0.597148
O O6 0.817951 0.765167 0.907373
O O7 0.953564 0.000000 0.794750
O O8 0.768561 0.500000 0.894409
O O9 0.843448 0.715980 0.703782
O O10 0.614496 0.729390 0.067629
O O11 0.394419 0.822668 0.286557
O O12 0.279494 0.703115 0.288518
O O13 0.311942 0.000000 0.263301
O O14 0.500000 0.829677 0.000000
O O15 0.500000 0.781626 0.500000
O O16 0.567454 0.783626 0.585176
O O17 0.635099 0.000000 0.397907
O O18 0.537717 0.000000 0.201156
O O19 0.101506 0.500000 0.470601
#
# Coordination Sequence:
#
# PCOD9155515 Si02
#       7
#     4   4   4   4   4   4   4
#     4  11  26  47  69  97 132 170 215 271 331 393
#     4  12  26  43  67  92 122 166 213 262 317 378
#     4  11  23  40  63  94 131 168 207 257 317 378
#     4  10  20  36  58  87 124 166 211 258 307 370
#     4  10  22  41  66  97 130 168 217 270 323 383
#     4  10  21  37  61  92 127 165 211 260 311 373
#     4  11  24  40  61  91 129 168 210 259 314 378
#
# _framework density 19.753086
#
# number of rings (size 3 to 8) (size 9 to 14) (size 15 to 20)
#    0.000    1.286    1.429    3.857    2.000    7.429 
#    0.000    0.000    0.000    0.000    0.000    0.000 
#    0.000    0.000    0.000    0.000    0.000    0.000 
#
# Total GULP energy -156399.763043 kJ/mol
# GULP energy per Si atom -5585.705823 kJ/mol
# Density = 1.970813 g / cm^3
# Si number density = 19.753086 Si / 1000 Ang^3
#
#
#
# Elastic Constant Matrix: (Units=GPa)
#
#
# Indices 1 2 3 4 5 6 
#
# 1 133.6364 50.9631 45.6165 0.0000 24.8197 0.0000
# 2 50.9631 95.8612 48.5503 0.0000 9.4019 0.0000
# 3 45.6165 48.5503 104.6655 0.0000 15.7229 0.0000
# 4 0.0000 0.0000 0.0000 43.0921 0.0000 -0.7765
# 5 24.8197 9.4019 15.7229 0.0000 41.1015 0.0000
# 6 0.0000 0.0000 0.0000 -0.7765 0.0000 22.4888
#
#
#
# Elastic Compliance Matrix: (Units=1/GPa)
#
#
# Indices 1 2 3 4 5 6 
#
# 1 0.010630 -0.004184 -0.001985 0.000000 -0.004702 0.000000
# 2 -0.004184 0.015304 -0.005441 0.000000 0.001108 0.000000
# 3 -0.001985 -0.005441 0.013343 0.000000 -0.002661 0.000000
# 4 0.000000 0.000000 0.000000 0.023221 0.000000 0.000802
# 5 -0.004702 0.001108 -0.002661 0.000000 0.027934 0.000000
# 6 0.000000 0.000000 0.000000 0.000802 0.000000 0.044494
#
#
# Mechanical properties :
#
#
# Convention : Reuss Voigt Hill
#
# Bulk Modulus (GPa) = 62.28931 69.38033 65.83482
# Shear Modulus (GPa) = 30.58112 33.93869 32.25991
#
# Velocity S-wave (km/s) = 3.93895 4.14955 4.04562
# Velocity P-wave (km/s) = 7.23115 7.62616 7.43128
#
# Compressibility (1/GPa) = 0.01605412
#
# Stress axis : x y z
#
# Youngs Moduli (GPa) = 94.07510 65.34413 74.94375
#
# Poissons Ratio (x) = 0.27343 0.14880
# Poissons Ratio (y) = 0.39365 0.40780
# Poissons Ratio (z) = 0.18678 0.35557
#
# Static dielectric constant tensor:
#      x y z
#    x 1.727040 0.000000 -0.026830 
#    y 0.000000 1.679540 0.000000 
#    z -0.026830 0.000000 1.690130 
# 
# From -- ./inp_files/70191.got.cif
#   From: 2010.05.17/outbox.ucp.g08.bks.cvg/sg10_36_cif.got.tgz:70191.got - 2010.06.11 11:31:16.
