data_PCOD9155447
_publ_section_title
;
Structure prediction by ZEFSAII (Michael W. Deem and Ramdas Pophale) SiO2 
 PCOD9155447
Probable space group: P 2/M
;
_chemical_formula_sum "Si O2"
_cell_formula_units_Z 32
_cell_length_a 15.000000
_cell_length_b 9.000000
_cell_length_c 24.000000
_cell_angle_alpha 90.000000
_cell_angle_beta 30.000000
_cell_angle_gamma 90.000000
_cell_volume 1620.000000
_symmetry_space_group_name_H-M "P 2/M"
_symmetry_group_IT_number 10
_symmetry_cell_setting 'monoclinic'
loop_
_space_group_symop_operation_xyz
x,y,z
-x,y,-z
-x,-y,-z
x,-y,z
loop_
_atom_site_type_symbol
_atom_site_label
_atom_site_fract_x
_atom_site_fract_y
_atom_site_fract_z
Si Si1 0.131404 0.829295 0.233364
Si Si2 0.136120 0.821738 0.782801
Si Si3 0.381290 0.822580 0.198420
Si Si4 0.524238 0.677496 0.742106
Si Si5 0.641154 0.331037 0.975270
Si Si6 0.887652 0.321554 0.005342
Si Si7 0.258087 0.827890 0.590486
Si Si8 0.487461 0.678275 0.635323
O O1 0.223813 0.778214 0.240444
O O2 0.191506 0.740328 0.146138
O O3 0.920518 0.825390 0.349717
O O4 0.190773 0.000000 0.192155
O O5 0.195151 0.782035 0.686985
O O6 0.299658 0.760986 0.730971
O O7 0.964466 0.752648 0.907259
O O8 0.119899 0.000000 0.792223
O O9 0.365396 0.755504 0.268504
O O10 0.388721 0.000000 0.197788
O O11 0.555601 0.760470 0.071833
O O12 0.545730 0.500000 0.735413
O O13 0.561944 0.716685 0.656944
O O14 0.317722 0.712710 0.869026
O O15 0.672149 0.500000 0.976275
O O16 0.500000 0.331061 0.000000
O O17 0.904887 0.500000 0.989681
O O18 0.000000 0.278313 0.000000
O O19 0.397812 0.730500 0.480272
O O20 0.321158 0.000000 0.559827
O O21 0.463082 0.500000 0.647187
#
# Coordination Sequence:
#
# PCOD9155447 Si02
#       8
#     4   4   4   4   4   4   4   4
#     4   9  19  37  56  79 115 154 192 239 288 339
#     4  11  23  38  60  90 121 151 189 238 290 345
#     4  10  20  34  56  83 113 153 196 234 285 348
#     4  10  22  39  59  84 117 154 192 239 290 342
#     4   9  17  30  50  77 110 147 186 231 282 335
#     4  10  20  39  61  84 119 157 191 235 290 345
#     4  10  23  41  60  85 117 151 192 243 291 335
#     4  11  23  42  63  84 113 153 197 238 289 349
#
# _framework density 19.753086
#
# number of rings (size 3 to 8) (size 9 to 14) (size 15 to 20)
#    0.000    2.000    1.250    1.875    1.750    6.750 
#    0.000    0.625    0.000    3.750    0.000    0.000 
#    0.000    0.000    0.000    0.000    0.000    0.000 
#
# Total GULP energy -178578.337226 kJ/mol
# GULP energy per Si atom -5580.573038 kJ/mol
# Density = 1.970813 g / cm^3
# Si number density = 19.753086 Si / 1000 Ang^3
#
#
#
# Elastic Constant Matrix: (Units=GPa)
#
#
# Indices 1 2 3 4 5 6 
#
# 1 104.2709 21.5077 20.9382 0.0000 18.9057 0.0000
# 2 21.5077 36.0348 24.3906 0.0000 10.8153 0.0000
# 3 20.9382 24.3906 68.5694 0.0000 18.4858 0.0000
# 4 0.0000 0.0000 0.0000 21.0427 0.0000 11.4511
# 5 18.9057 10.8153 18.4858 0.0000 39.4908 0.0000
# 6 0.0000 0.0000 0.0000 11.4511 0.0000 20.1160
#
#
#
# Elastic Compliance Matrix: (Units=1/GPa)
#
#
# Indices 1 2 3 4 5 6 
#
# 1 0.011491 -0.005322 -0.000601 0.000000 -0.003762 0.000000
# 2 -0.005322 0.039726 -0.011741 0.000000 -0.002836 0.000000
# 3 -0.000601 -0.011741 0.020599 0.000000 -0.006139 0.000000
# 4 0.000000 0.000000 0.000000 0.068851 0.000000 -0.039194
# 5 -0.003762 -0.002836 -0.006139 0.000000 0.030774 0.000000
# 6 0.000000 0.000000 0.000000 -0.039194 0.000000 0.072023
#
#
# Mechanical properties :
#
#
# Convention : Reuss Voigt Hill
#
# Bulk Modulus (GPa) = 27.40780 38.06090 32.73435
# Shear Modulus (GPa) = 17.18477 25.59914 21.39196
#
# Velocity S-wave (km/s) = 2.95274 3.60385 3.29442
# Velocity P-wave (km/s) = 5.05274 6.05203 5.57482
#
# Compressibility (1/GPa) = 0.03648596
#
# Stress axis : x y z
#
# Youngs Moduli (GPa) = 87.02362 25.17257 48.54655
#
# Poissons Ratio (x) = 0.13398 0.02920
# Poissons Ratio (y) = 0.46317 0.56999
# Poissons Ratio (z) = 0.05234 0.29555
#
# Static dielectric constant tensor:
#      x y z
#    x 1.741060 0.000000 -0.042320 
#    y 0.000000 1.678990 0.000000 
#    z -0.042320 0.000000 1.694010 
# 
# From -- ./inp_files/89537.got.cif
#   From: 2010.05.17/outbox.ucp.g08.bks.cvg/sg10_45_cif.got.tgz:89537.got - 2010.06.11 11:31:16.
