data_PCOD9155743
_publ_section_title
;
Structure prediction by ZEFSAII (Michael W. Deem and Ramdas Pophale) SiO2 
 PCOD9155743
Probable space group: P 21/M
;
_chemical_formula_sum "Si O2"
_cell_formula_units_Z 32
_cell_length_a 17.779083
_cell_length_b 15.537630
_cell_length_c 20.354916
_cell_angle_alpha 90.000000
_cell_angle_beta 160.729989
_cell_angle_gamma 90.000000
_cell_volume 1855.684649
_symmetry_space_group_name_H-M "P 21/M"
_symmetry_group_IT_number 11
_symmetry_cell_setting 'monoclinic'
loop_
_space_group_symop_operation_xyz
x,y,z
-x,1/2+y,-z
-x,-y,-z
x,1/2-y,z
loop_
_atom_site_type_symbol
_atom_site_label
_atom_site_fract_x
_atom_site_fract_y
_atom_site_fract_z
Si Si1 0.460131 0.151568 0.521793
Si Si2 0.548157 0.654376 0.150325
Si Si3 0.985924 0.427876 0.431560
Si Si4 0.803700 0.488116 0.646102
Si Si5 0.823472 0.495249 0.158328
Si Si6 0.044333 0.578504 0.086233
Si Si7 0.488562 0.402321 0.020692
Si Si8 0.573503 0.847427 0.662782
O O1 0.417077 0.250000 0.506364
O O2 0.401113 0.143121 0.395492
O O3 0.728121 0.129020 0.747813
O O4 0.316869 0.080253 0.442281
O O5 0.475504 0.750000 0.109752
O O6 0.786210 0.627514 0.378782
O O7 0.355419 0.582182 0.004213
O O8 0.592738 0.651880 0.108234
O O9 0.954618 0.469226 0.333679
O O10 0.748681 0.378289 0.250300
O O11 0.000000 0.500000 0.500000
O O12 0.609504 0.418784 0.467241
O O13 0.000270 0.492780 0.754481
O O14 0.904840 0.457708 0.799444
O O15 0.678210 0.581372 0.056198
O O16 0.817777 0.635618 0.896615
O O17 0.000000 0.500000 0.000000
O O18 0.500000 0.500000 0.000000
O O19 0.494747 0.750000 0.610398
#
# Coordination Sequence:
#
# PCOD9155743 Si02
#       8
#     4   4   4   4   4   4   4   4
#     4  10  20  35  56  83 112 146 187 231 276 328
#     4  10  19  33  55  82 107 137 184 230 262 316
#     4  10  15  33  59  76  96 137 192 210 253 323
#     4  11  22  36  56  84 118 149 179 226 285 339
#     4  10  21  34  55  79 111 148 168 219 280 333
#     4  11  18  36  60  81 104 143 197 229 271 326
#     4   8  16  32  53  74  98 137 177 211 257 312
#     4  10  20  37  60  81 107 146 193 238 273 322
#
# _framework density 17.244309000000001
#
# number of rings (size 3 to 8) (size 9 to 14) (size 15 to 20)
#    0.000    2.250    6.250    1.125    0.000    4.000 
#    0.000    0.625    0.000    0.000    0.000    0.000 
#    0.000    0.000    0.000    0.000    0.000    0.000 
#
# Total GULP energy -178280.106655 kJ/mol
# GULP energy per Si atom -5571.253333 kJ/mol
# Density = 1.720506 g / cm^3
# Si number density = 17.244309 Si / 1000 Ang^3
#
#
#
# Elastic Constant Matrix: (Units=GPa)
#
#
# Indices 1 2 3 4 5 6 
#
# 1 75.4218 25.9000 35.2964 0.0000 25.8294 0.0000
# 2 25.9000 75.1872 23.9805 0.0000 14.2068 0.0000
# 3 35.2964 23.9805 108.8447 0.0000 2.3207 0.0000
# 4 0.0000 0.0000 0.0000 16.7914 0.0000 -3.7139
# 5 25.8294 14.2068 2.3207 0.0000 29.1132 0.0000
# 6 0.0000 0.0000 0.0000 -3.7139 0.0000 5.9385
#
#
#
# Elastic Compliance Matrix: (Units=1/GPa)
#
#
# Indices 1 2 3 4 5 6 
#
# 1 0.023974 -0.002383 -0.006832 0.000000 -0.019562 0.000000
# 2 -0.002383 0.015997 -0.002635 0.000000 -0.005482 0.000000
# 3 -0.006832 -0.002635 0.011847 0.000000 0.006403 0.000000
# 4 0.000000 0.000000 0.000000 0.069114 0.000000 0.043224
# 5 -0.019562 -0.005482 0.006403 0.000000 0.053869 0.000000
# 6 0.000000 0.000000 0.000000 0.043224 0.000000 0.195425
#
#
# Mechanical properties :
#
#
# Convention : Reuss Voigt Hill
#
# Bulk Modulus (GPa) = 35.56431 47.75641 41.66036
# Shear Modulus (GPa) = 12.39774 21.98708 17.19241
#
# Velocity S-wave (km/s) = 2.68423 3.57464 3.16094
# Velocity P-wave (km/s) = 5.50230 6.69264 6.12645
#
# Compressibility (1/GPa) = 0.02811807
#
# Stress axis : x y z
#
# Youngs Moduli (GPa) = 41.71202 62.51078 84.40987
#
# Poissons Ratio (x) = 0.14896 0.57671
# Poissons Ratio (y) = 0.09940 0.22241
# Poissons Ratio (z) = 0.28499 0.16471
#
# Static dielectric constant tensor:
#      x y z
#    x 1.580670 0.000000 0.003380 
#    y 0.000000 1.604880 0.000000 
#    z 0.003380 0.000000 1.609940 
# 
# From -- ./inp_files/66292.got.cif
#   From: 2010.05.17/outbox.cif.g08.bks.cpg/sg11_34_cif.got.tgz:66292.got - 2010.06.03 12:22:45.
