data_PCOD9155576
_publ_section_title
;
Structure prediction by ZEFSAII (Michael W. Deem and Ramdas Pophale) SiO2 
 PCOD9155576
Probable space group: P 2/M
;
_chemical_formula_sum "Si O2"
_cell_formula_units_Z 28
_cell_length_a 15.000000
_cell_length_b 9.000000
_cell_length_c 21.000000
_cell_angle_alpha 90.000000
_cell_angle_beta 30.000000
_cell_angle_gamma 90.000000
_cell_volume 1417.500000
_symmetry_space_group_name_H-M "P 2/M"
_symmetry_group_IT_number 10
_symmetry_cell_setting 'monoclinic'
loop_
_space_group_symop_operation_xyz
x,y,z
-x,y,-z
-x,-y,-z
x,-y,z
loop_
_atom_site_type_symbol
_atom_site_label
_atom_site_fract_x
_atom_site_fract_y
_atom_site_fract_z
Si Si1 0.700201 0.320408 0.347828
Si Si2 0.427359 0.822929 0.315538
Si Si3 0.942837 0.826166 0.413222
Si Si4 0.546266 0.830098 0.045910
Si Si5 0.960048 0.824717 0.791765
Si Si6 0.797157 0.819306 0.149892
Si Si7 0.246355 0.326250 0.305251
O O1 0.500000 0.279193 0.500000
O O2 0.702920 0.500000 0.342854
O O3 0.741497 0.250784 0.252401
O O4 0.872898 0.263847 0.281642
O O5 0.268346 0.790954 0.464572
O O6 0.629038 0.774687 0.207999
O O7 0.329425 0.753081 0.315516
O O8 0.439068 0.000000 0.300649
O O9 0.029741 0.807831 0.290609
O O10 0.061485 0.736911 0.390725
O O11 0.954369 0.000000 0.424420
O O12 0.404005 0.712608 0.158733
O O13 0.516251 0.000000 0.089784
O O14 0.500000 0.839731 0.000000
O O15 0.751756 0.789373 0.935983
O O16 0.985099 0.000000 0.792027
O O17 0.795960 0.000000 0.155886
O O18 0.000000 0.779287 0.000000
O O19 0.226075 0.500000 0.329105
#
# Coordination Sequence:
#
# PCOD9155576 Si02
#       7
#     4   4   4   4   4   4   4
#     4  11  25  43  64  94 133 171 205 252 318 384
#     4  10  22  40  64  88 118 158 205 257 302 355
#     4  10  20  39  63  89 119 159 206 251 300 353
#     4  10  20  39  63  86 117 157 202 250 299 356
#     4  10  21  38  66  94 118 155 205 257 302 352
#     4  10  23  44  69  96 122 158 215 273 318 366
#     4  12  25  37  56  88 127 163 198 243 300 368
#
# _framework density 19.753086
#
# number of rings (size 3 to 8) (size 9 to 14) (size 15 to 20)
#    0.000    1.571    1.429    3.000    2.000    6.857 
#    0.000    0.000    0.000    0.000    0.000    0.000 
#    0.000    0.000    0.000    0.000    0.000    0.000 
#
# Total GULP energy -156095.670583 kJ/mol
# GULP energy per Si atom -5574.845378 kJ/mol
# Density = 1.970813 g / cm^3
# Si number density = 19.753086 Si / 1000 Ang^3
#
#
#
# Elastic Constant Matrix: (Units=GPa)
#
#
# Indices 1 2 3 4 5 6 
#
# 1 105.0525 29.9855 51.1704 0.0000 -38.2912 0.0000
# 2 29.9855 32.3224 29.0902 0.0000 -14.1101 0.0000
# 3 51.1704 29.0902 133.8540 0.0000 -34.3417 0.0000
# 4 0.0000 0.0000 0.0000 25.9398 0.0000 -8.0625
# 5 -38.2912 -14.1101 -34.3417 0.0000 46.0645 0.0000
# 6 0.0000 0.0000 0.0000 -8.0625 0.0000 -50.1663
#
#
#
# Elastic Compliance Matrix: (Units=1/GPa)
#
#
# Indices 1 2 3 4 5 6 
#
# 1 0.016620 -0.009628 -0.001822 0.000000 0.009508 0.000000
# 2 -0.009628 0.045877 -0.005858 0.000000 0.001682 0.000000
# 3 -0.001822 -0.005858 0.010623 0.000000 0.004611 0.000000
# 4 0.000000 0.000000 0.000000 0.036717 0.000000 -0.005901
# 5 0.009508 0.001682 0.004611 0.000000 0.033565 0.000000
# 6 0.000000 0.000000 0.000000 -0.005901 0.000000 -0.018985
#
#
# Mechanical properties :
#
#
# Convention : Reuss Voigt Hill
#
# Bulk Modulus (GPa) = 25.97103 54.63568 40.30336
# Shear Modulus (GPa) = 29.09197 15.09980 22.09589
#
# Velocity S-wave (km/s) = 3.84185 2.76783 3.34818
# Velocity P-wave (km/s) = 5.73202 6.15905 5.94937
#
# Compressibility (1/GPa) = 0.03850443
#
# Stress axis : x y z
#
# Youngs Moduli (GPa) = 60.16697 21.79738 94.13162
#
# Poissons Ratio (x) = 0.20987 0.17149
# Poissons Ratio (y) = 0.57931 0.55143
# Poissons Ratio (z) = 0.10961 0.12769
#
# Static dielectric constant tensor:
#      x y z
#    x 1.720440 0.000000 0.060480 
#    y 0.000000 1.670430 0.000000 
#    z 0.060480 0.000000 1.805520 
# 
# From -- ./inp_files/63625.got.cif
#   From: 2010.05.17/outbox.ucp.g08.bks.cvg/sg10_32_cif.got.tgz:63625.got - 2010.06.11 11:31:16.
