data_PCOD9155210
_publ_section_title
;
Structure prediction by ZEFSAII (Michael W. Deem and Ramdas Pophale) SiO2 
 PCOD9155210
Probable space group: P 2/M
;
_chemical_formula_sum "Si O2"
_cell_formula_units_Z 28
_cell_length_a 18.000000
_cell_length_b 9.000000
_cell_length_c 15.000000
_cell_angle_alpha 90.000000
_cell_angle_beta 40.000000
_cell_angle_gamma 90.000000
_cell_volume 1561.973892
_symmetry_space_group_name_H-M "P 2/M"
_symmetry_group_IT_number 10
_symmetry_cell_setting 'monoclinic'
loop_
_space_group_symop_operation_xyz
x,y,z
-x,y,-z
-x,-y,-z
x,-y,z
loop_
_atom_site_type_symbol
_atom_site_label
_atom_site_fract_x
_atom_site_fract_y
_atom_site_fract_z
Si Si1 0.289346 0.332498 0.990269
Si Si2 0.862061 0.169427 0.311491
Si Si3 0.264630 0.831163 0.756656
Si Si4 0.538203 0.332164 0.337818
Si Si5 0.500360 0.322904 0.894906
Si Si6 0.649842 0.821912 0.610564
Si Si7 0.096100 0.678536 0.049960
O O1 0.265960 0.500000 0.044422
O O2 0.169319 0.267774 0.068793
O O3 0.366030 0.341104 0.829769
O O4 0.377056 0.257634 0.976609
O O5 0.775334 0.164082 0.307709
O O6 0.781872 0.220118 0.466855
O O7 0.966566 0.272014 0.185414
O O8 0.903674 0.000000 0.288185
O O9 0.385592 0.746311 0.656805
O O10 0.839120 0.752820 0.093147
O O11 0.278602 0.000000 0.777586
O O12 0.503133 0.500000 0.391940
O O13 0.434364 0.242577 0.388777
O O14 0.504495 0.500000 0.867546
O O15 0.600656 0.243767 0.747568
O O16 0.500000 0.310047 0.000000
O O17 0.642874 0.000000 0.616381
O O18 0.105884 0.500000 0.032937
#
# Coordination Sequence:
#
# PCOD9155210 Si02
#       7
#     4   4   4   4   4   4   4
#     4   7  13  27  46  70  96 119 148 190 237 284
#     4  10  22  35  46  65  97 136 172 207 246 292
#     4  10  19  32  49  68  94 130 171 211 251 290
#     4   9  17  31  49  70  97 126 162 206 247 291
#     4   9  17  32  56  81 102 123 150 193 249 304
#     4  10  20  34  50  70  99 132 164 199 246 300
#     4  10  19  31  49  71  96 128 169 212 246 284
#
# _framework density 17.926036
#
# number of rings (size 3 to 8) (size 9 to 14) (size 15 to 20)
#    0.000    2.714    0.000    3.857    0.000    4.857 
#    0.000    3.571    0.000    0.857    0.000    6.000 
#    0.000    0.000    0.000    0.000    0.000    0.000 
#
# Total GULP energy -155883.789182 kJ/mol
# GULP energy per Si atom -5567.278185 kJ/mol
# Density = 1.788524 g / cm^3
# Si number density = 17.926036 Si / 1000 Ang^3
#
#
#
# Elastic Constant Matrix: (Units=GPa)
#
#
# Indices 1 2 3 4 5 6 
#
# 1 35.3193 14.2873 26.1649 0.0000 3.3859 0.0000
# 2 14.2873 67.4521 42.2403 0.0000 -5.7155 0.0000
# 3 26.1649 42.2403 91.0945 0.0000 -7.5025 0.0000
# 4 0.0000 0.0000 0.0000 10.8394 0.0000 4.5116
# 5 3.3859 -5.7155 -7.5025 0.0000 17.1488 0.0000
# 6 0.0000 0.0000 0.0000 4.5116 0.0000 11.1357
#
#
#
# Elastic Compliance Matrix: (Units=1/GPa)
#
#
# Indices 1 2 3 4 5 6 
#
# 1 0.038806 -0.002370 -0.011145 0.000000 -0.013327 0.000000
# 2 -0.002370 0.021170 -0.008834 0.000000 0.003659 0.000000
# 3 -0.011145 -0.008834 0.018895 0.000000 0.007522 0.000000
# 4 0.000000 0.000000 0.000000 0.110968 0.000000 -0.044958
# 5 -0.013327 0.003659 0.007522 0.000000 0.065455 0.000000
# 6 0.000000 0.000000 0.000000 -0.044958 0.000000 0.108015
#
#
# Mechanical properties :
#
#
# Convention : Reuss Voigt Hill
#
# Bulk Modulus (GPa) = 29.26361 39.91676 34.59018
# Shear Modulus (GPa) = 11.92190 15.23636 13.57913
#
# Velocity S-wave (km/s) = 2.58167 2.91857 2.75527
# Velocity P-wave (km/s) = 5.02462 5.80286 5.42771
#
# Compressibility (1/GPa) = 0.03417214
#
# Stress axis : x y z
#
# Youngs Moduli (GPa) = 25.76952 47.23762 52.92495
#
# Poissons Ratio (x) = 0.11194 0.58984
# Poissons Ratio (y) = 0.06107 0.46756
# Poissons Ratio (z) = 0.28720 0.41731
#
# Static dielectric constant tensor:
#      x y z
#    x 1.666870 0.000000 -0.002270 
#    y 0.000000 1.629940 0.000000 
#    z -0.002270 0.000000 1.600640 
# 
# From -- ./inp_files/68581.got.cif
#   From: 2010.05.17/outbox.ucp.g08.bks.cvg/sg10_35_cif.got.tgz:68581.got - 2010.06.11 11:31:16.
