data_PCOD9155993
_publ_section_title
;
Structure prediction by ZEFSAII (Michael W. Deem and Ramdas Pophale) SiO2 
 PCOD9155993
Probable space group: P 21/M
;
_chemical_formula_sum "Si O2"
_cell_formula_units_Z 32
_cell_length_a 13.572323
_cell_length_b 15.525770
_cell_length_c 8.880039
_cell_angle_alpha 90.000000
_cell_angle_beta 46.010218
_cell_angle_gamma 90.000000
_cell_volume 1346.266622
_symmetry_space_group_name_H-M "P 21/M"
_symmetry_group_IT_number 11
_symmetry_cell_setting 'monoclinic'
loop_
_space_group_symop_operation_xyz
x,y,z
-x,1/2+y,-z
-x,-y,-z
x,1/2-y,z
loop_
_atom_site_type_symbol
_atom_site_label
_atom_site_fract_x
_atom_site_fract_y
_atom_site_fract_z
Si Si1 0.931328 0.619818 0.674794
Si Si2 0.942813 0.422056 0.757351
Si Si3 0.365179 0.594784 0.175752
Si Si4 0.328597 0.647221 0.869772
Si Si5 0.623532 0.650776 0.481617
Si Si6 0.146398 0.476846 0.769874
Si Si7 0.171167 0.659801 0.624124
Si Si8 0.662551 0.608815 0.790477
O O1 0.911833 0.519812 0.741352
O O2 0.786411 0.645819 0.758662
O O3 0.033672 0.627481 0.423289
O O4 0.014920 0.656780 0.727195
O O5 0.088573 0.426487 0.684898
O O6 0.826417 0.385079 0.989280
O O7 0.269961 0.654566 0.375891
O O8 0.327500 0.494996 0.245490
O O9 0.348839 0.609804 0.015913
O O10 0.523607 0.615631 0.034691
O O11 0.330023 0.750000 0.875324
O O12 0.463871 0.623025 0.630483
O O13 0.642038 0.750000 0.412590
O O14 0.643338 0.648199 0.643892
O O15 0.735546 0.585375 0.292039
O O16 0.204216 0.570322 0.669060
O O17 0.000000 0.500000 0.000000
O O18 0.192987 0.750000 0.684494
#
# Coordination Sequence:
#
# PCOD9155993 Si02
#       8
#     4   4   4   4   4   4   4   4
#     4  10  17  30  51  79 114 144 173 217 281 340
#     4  10  18  32  52  79 110 141 180 228 275 331
#     4  10  17  28  53  83 117 149 180 217 274 345
#     4  10  19  31  53  85 117 148 181 223 283 345
#     4  10  21  36  55  82 114 148 187 231 280 335
#     4  11  24  42  60  79 107 151 200 242 279 320
#     4  11  22  36  56  82 114 149 184 230 286 340
#     4  10  17  30  52  83 117 151 178 216 276 348
#
# _framework density 23.769437
#
# number of rings (size 3 to 8) (size 9 to 14) (size 15 to 20)
#    0.000    1.750    5.000    1.125    0.000    2.000 
#    0.000    0.625    0.000    0.000    0.000    0.000 
#    0.000    0.000    0.000    0.000    0.000    0.000 
#
# Total GULP energy -178540.937302 kJ/mol
# GULP energy per Si atom -5579.404291 kJ/mol
# Density = 2.371534 g / cm^3
# Si number density = 23.769437 Si / 1000 Ang^3
#
#
#
# Elastic Constant Matrix: (Units=GPa)
#
#
# Indices 1 2 3 4 5 6 
#
# 1 40.1690 7.4415 6.1045 0.0000 -22.2544 0.0000
# 2 7.4415 105.9993 43.2529 0.0000 -18.4109 0.0000
# 3 6.1045 43.2529 116.5986 0.0000 -36.1877 0.0000
# 4 0.0000 0.0000 0.0000 14.5924 0.0000 -5.9861
# 5 -22.2544 -18.4109 -36.1877 0.0000 40.7797 0.0000
# 6 0.0000 0.0000 0.0000 -5.9861 0.0000 4.3227
#
#
#
# Elastic Compliance Matrix: (Units=1/GPa)
#
#
# Indices 1 2 3 4 5 6 
#
# 1 0.038779 -0.000758 0.006504 0.000000 0.026592 0.000000
# 2 -0.000758 0.011237 -0.003702 0.000000 0.001374 0.000000
# 3 0.006504 -0.003702 0.014066 0.000000 0.014360 0.000000
# 4 0.000000 0.000000 0.000000 0.158657 0.000000 0.219707
# 5 0.026592 0.001374 0.014360 0.000000 0.052398 0.000000
# 6 0.000000 0.000000 0.000000 0.219707 0.000000 0.535586
#
#
# Mechanical properties :
#
#
# Convention : Reuss Voigt Hill
#
# Bulk Modulus (GPa) = 14.66905 41.81831 28.24368
# Shear Modulus (GPa) = 6.02877 25.67017 15.84947
#
# Velocity S-wave (km/s) = 1.59432 3.28985 2.58505
# Velocity P-wave (km/s) = 3.09418 5.66236 4.56269
#
# Compressibility (1/GPa) = 0.06817075
#
# Stress axis : x y z
#
# Youngs Moduli (GPa) = 25.78684 88.99545 71.09317
#
# Poissons Ratio (x) = 0.06742 -0.46239
# Poissons Ratio (y) = 0.01954 0.26319
# Poissons Ratio (z) = -0.16772 0.32946
#
# Static dielectric constant tensor:
#      x y z
#    x 1.975550 0.000000 0.000160 
#    y 0.000000 1.894790 0.000000 
#    z 0.000160 0.000000 1.967220 
# 
# From -- ./inp_files/41648.got.cif
#   From: 2010.05.17/outbox.cif.g08.bks.cpg/sg11_21_cif.got.tgz:41648.got - 2010.06.03 12:22:45.
