data_PCOD9155126
_publ_section_title
;
Structure prediction by ZEFSAII (Michael W. Deem and Ramdas Pophale) SiO2 
 PCOD9155126
Probable space group: P 2/M
;
_chemical_formula_sum "Si O2"
_cell_formula_units_Z 32
_cell_length_a 21.000000
_cell_length_b 9.000000
_cell_length_c 30.000000
_cell_angle_alpha 90.000000
_cell_angle_beta 160.000000
_cell_angle_gamma 90.000000
_cell_volume 1939.254213
_symmetry_space_group_name_H-M "P 2/M"
_symmetry_group_IT_number 10
_symmetry_cell_setting 'monoclinic'
loop_
_space_group_symop_operation_xyz
x,y,z
-x,y,-z
-x,-y,-z
x,-y,z
loop_
_atom_site_type_symbol
_atom_site_label
_atom_site_fract_x
_atom_site_fract_y
_atom_site_fract_z
Si Si1 0.185566 0.177835 0.484428
Si Si2 0.046606 0.678417 0.828076
Si Si3 0.429787 0.321860 0.241746
Si Si4 0.716079 0.177834 0.554108
Si Si5 0.331734 0.321685 0.280513
Si Si6 0.755887 0.819797 0.202309
Si Si7 0.381627 0.320746 0.981262
Si Si8 0.073669 0.319310 0.949401
O O1 0.363237 0.251425 0.625959
O O2 0.213757 0.212553 0.450263
O O3 0.971339 0.219052 0.355850
O O4 0.200419 0.000000 0.499259
O O5 0.018026 0.500000 0.807526
O O6 0.235722 0.710274 0.924883
O O7 0.070749 0.722354 0.895486
O O8 0.868164 0.754762 0.687756
O O9 0.448935 0.500000 0.249329
O O10 0.360291 0.292418 0.246626
O O11 0.262685 0.270025 0.099093
O O12 0.507719 0.245231 0.420672
O O13 0.708608 0.000000 0.553877
O O14 0.344799 0.500000 0.295926
O O15 0.124819 0.273159 0.159568
O O16 0.708871 0.751974 0.122630
O O17 0.741488 0.000000 0.191604
O O18 0.588044 0.750820 0.121541
O O19 0.397828 0.500000 0.986657
O O20 0.076132 0.500000 0.953753
#
# Coordination Sequence:
#
# PCOD9155126 Si02
#       8
#     4   4   4   4   4   4   4   4
#     4   9  18  31  48  71  98 126 154 193 241 287
#     4  10  20  33  49  68  98 134 162 192 234 289
#     4   9  17  30  52  76  94 119 160 207 244 278
#     4  10  19  32  48  69  99 129 160 197 240 286
#     4   9  17  31  52  74  95 121 159 205 247 285
#     4  10  18  30  49  71  97 128 157 187 237 290
#     4  10  19  29  45  72 100 124 156 197 233 275
#     4   9  18  33  51  71  95 127 164 199 240 288
#
# _framework density 16.501189
#
# number of rings (size 3 to 8) (size 9 to 14) (size 15 to 20)
#    0.000    2.500    1.250    2.250    0.000    4.000 
#    0.000    4.375    0.000    3.750    0.000    5.250 
#    0.000    0.000    0.000    0.000    0.000    0.000 
#
# Total GULP energy -178330.726231 kJ/mol
# GULP energy per Si atom -5572.835195 kJ/mol
# Density = 1.646363 g / cm^3
# Si number density = 16.501189 Si / 1000 Ang^3
#
#
#
# Elastic Constant Matrix: (Units=GPa)
#
#
# Indices 1 2 3 4 5 6 
#
# 1 60.7489 25.6781 70.5178 0.0000 3.7128 0.0000
# 2 25.6781 42.9179 49.6740 0.0000 2.3410 0.0000
# 3 70.5178 49.6740 207.0300 0.0000 13.6327 0.0000
# 4 0.0000 0.0000 0.0000 28.2759 0.0000 4.8426
# 5 3.7128 2.3410 13.6327 0.0000 27.0180 0.0000
# 6 0.0000 0.0000 0.0000 4.8426 0.0000 12.5941
#
#
#
# Elastic Compliance Matrix: (Units=1/GPa)
#
#
# Indices 1 2 3 4 5 6 
#
# 1 0.029207 -0.008230 -0.008023 0.000000 0.000748 0.000000
# 2 -0.008230 0.034612 -0.005563 0.000000 0.000939 0.000000
# 3 -0.008023 -0.005563 0.009096 0.000000 -0.003005 0.000000
# 4 0.000000 0.000000 0.000000 0.037859 0.000000 -0.014557
# 5 0.000748 0.000939 -0.003005 0.000000 0.038345 0.000000
# 6 0.000000 0.000000 0.000000 -0.014557 0.000000 0.084999
#
#
# Mechanical properties :
#
#
# Convention : Reuss Voigt Hill
#
# Bulk Modulus (GPa) = 34.14956 66.93739 50.54347
# Shear Modulus (GPa) = 17.39060 24.56606 20.97833
#
# Velocity S-wave (km/s) = 3.24990 3.86261 3.56943
# Velocity P-wave (km/s) = 5.90107 7.78115 6.90539
#
# Compressibility (1/GPa) = 0.02928296
#
# Stress axis : x y z
#
# Youngs Moduli (GPa) = 34.23782 28.89159 109.94112
#
# Poissons Ratio (x) = 0.23777 0.88208
# Poissons Ratio (y) = 0.28176 0.61165
# Poissons Ratio (z) = 0.27470 0.16074
#
# Static dielectric constant tensor:
#      x y z
#    x 1.557880 0.000000 0.013930 
#    y 0.000000 1.555620 0.000000 
#    z 0.013930 0.000000 1.552670 
# 
# From -- ./inp_files/87209.got.cif
#   From: 2010.05.17/outbox.ucp.g08.bks.cvg/sg10_44_cif.got.tgz:87209.got - 2010.06.11 11:31:16.
