data_PCOD9155090
_publ_section_title
;
Structure prediction by ZEFSAII (Michael W. Deem and Ramdas Pophale) SiO2 
 PCOD9155090
Probable space group: P 2/M
;
_chemical_formula_sum "Si O2"
_cell_formula_units_Z 26
_cell_length_a 12.000000
_cell_length_b 12.000000
_cell_length_c 27.000000
_cell_angle_alpha 90.000000
_cell_angle_beta 20.000000
_cell_angle_gamma 90.000000
_cell_volume 1329.774317
_symmetry_space_group_name_H-M "P 2/M"
_symmetry_group_IT_number 10
_symmetry_cell_setting 'monoclinic'
loop_
_space_group_symop_operation_xyz
x,y,z
-x,y,-z
-x,-y,-z
x,-y,z
loop_
_atom_site_type_symbol
_atom_site_label
_atom_site_fract_x
_atom_site_fract_y
_atom_site_fract_z
Si Si1 0.588159 0.000000 0.043256
Si Si2 0.344837 0.228815 0.826720
Si Si3 0.884931 0.374048 0.832099
Si Si4 0.912210 0.237861 0.916105
Si Si5 0.887350 0.000000 0.351472
Si Si6 0.132549 0.747048 0.634611
Si Si7 0.608039 0.000000 0.153720
Si Si8 0.384200 0.368983 0.206158
O O1 0.554430 0.000000 0.117548
O O2 0.777461 0.116515 0.954672
O O3 0.214022 0.000000 0.179596
O O4 0.516722 0.113565 0.770190
O O5 0.537783 0.330700 0.770452
O O6 0.227474 0.225852 0.819536
O O7 0.000000 0.230853 0.000000
O O8 0.012812 0.500000 0.769361
O O9 0.005505 0.316601 0.831723
O O10 0.940343 0.289707 0.764104
O O11 0.500000 0.383880 0.000000
O O12 0.630734 0.298660 0.067134
O O13 0.500000 0.000000 0.500000
O O14 0.918994 0.875209 0.360365
O O15 0.500000 0.731604 0.500000
O O16 0.979522 0.667337 0.657163
O O17 0.000000 0.000000 0.000000
O O18 0.436283 0.500000 0.176786
#
# Coordination Sequence:
#
# PCOD9155090 Si02
#       8
#     2   4   4   4   2   4   2   4
#     4  12  16  31  54  81 116 146 180 231 284 334
#     4   9  17  28  47  77 109 140 177 221 276 330
#     4  11  22  37  54  77 114 151 182 228 281 327
#     4  11  20  31  52  81 112 145 179 223 282 336
#     4  10  20  35  56  79 107 138 176 232 285 323
#     4  11  23  40  60  82 107 145 193 232 274 334
#     4  10  12  26  46  72 107 141 173 218 275 325
#     4  11  20  32  51  77 110 146 184 228 268 318
#
# _framework density 19.55219
#
# number of rings (size 3 to 8) (size 9 to 14) (size 15 to 20)
#    0.000    1.385    7.692    0.923    0.000    5.231 
#    0.000    1.538    0.000    0.923    0.000    2.154 
#    0.000    8.615    0.000    0.000    0.000    0.000 
#
# Total GULP energy -144756.645981 kJ/mol
# GULP energy per Si atom -5567.563307 kJ/mol
# Density = 1.950769 g / cm^3
# Si number density = 19.552190 Si / 1000 Ang^3
#
#
#
# Elastic Constant Matrix: (Units=GPa)
#
#
# Indices 1 2 3 4 5 6 
#
# 1 74.9961 21.1759 8.1403 0.0000 -10.7311 0.0000
# 2 21.1759 139.2312 13.3886 0.0000 -11.3801 0.0000
# 3 8.1403 13.3886 30.5436 0.0000 -16.9644 0.0000
# 4 0.0000 0.0000 0.0000 10.8780 0.0000 -9.7736
# 5 -10.7311 -11.3801 -16.9644 0.0000 16.9058 0.0000
# 6 0.0000 0.0000 0.0000 -9.7736 0.0000 25.5360
#
#
#
# Elastic Compliance Matrix: (Units=1/GPa)
#
#
# Indices 1 2 3 4 5 6 
#
# 1 0.015127 -0.001652 0.003181 0.000000 0.011682 0.000000
# 2 -0.001652 0.007797 -0.001457 0.000000 0.002739 0.000000
# 3 0.003181 -0.001457 0.074793 0.000000 0.076091 0.000000
# 4 0.000000 0.000000 0.000000 0.140110 0.000000 0.053625
# 5 0.011682 0.002739 0.076091 0.000000 0.144765 0.000000
# 6 0.000000 0.000000 0.000000 0.053625 0.000000 0.059685
#
#
# Mechanical properties :
#
#
# Convention : Reuss Voigt Hill
#
# Bulk Modulus (GPa) = 10.21847 36.68672 23.45260
# Shear Modulus (GPa) = 10.53181 24.13503 17.33342
#
# Velocity S-wave (km/s) = 2.32340 3.51720 2.98068
# Velocity P-wave (km/s) = 3.52636 5.94125 4.88537
#
# Compressibility (1/GPa) = 0.09786200
#
# Stress axis : x y z
#
# Youngs Moduli (GPa) = 66.10841 128.24739 13.37022
#
# Poissons Ratio (x) = 0.21183 -0.04253
# Poissons Ratio (y) = 0.10919 0.01948
# Poissons Ratio (z) = -0.21028 0.18681
#
# Static dielectric constant tensor:
#      x y z
#    x 1.746350 0.000000 -0.027010 
#    y 0.000000 1.718760 0.000000 
#    z -0.027010 0.000000 1.705330 
# 
# From -- ./inp_files/92840.got.cif
#   From: 2010.05.17/outbox.ucp.g08.bks.cvg/sg10_47_cif.got.tgz:92840.got - 2010.06.11 11:31:16.
