data_PCOD9155410
_publ_section_title
;
Structure prediction by ZEFSAII (Michael W. Deem and Ramdas Pophale) SiO2 
 PCOD9155410
Probable space group: P 2/M
;
_chemical_formula_sum "Si O2"
_cell_formula_units_Z 32
_cell_length_a 30.000000
_cell_length_b 9.000000
_cell_length_c 12.000000
_cell_angle_alpha 90.000000
_cell_angle_beta 30.000000
_cell_angle_gamma 90.000000
_cell_volume 1620.000000
_symmetry_space_group_name_H-M "P 2/M"
_symmetry_group_IT_number 10
_symmetry_cell_setting 'monoclinic'
loop_
_space_group_symop_operation_xyz
x,y,z
-x,y,-z
-x,-y,-z
x,-y,z
loop_
_atom_site_type_symbol
_atom_site_label
_atom_site_fract_x
_atom_site_fract_y
_atom_site_fract_z
Si Si1 0.848373 0.328114 0.128194
Si Si2 0.764588 0.827433 0.106283
Si Si3 0.191213 0.174779 0.342813
Si Si4 0.334681 0.672900 0.358631
Si Si5 0.978214 0.834226 0.175830
Si Si6 0.580042 0.178495 0.606814
Si Si7 0.093884 0.675878 0.351555
Si Si8 0.622746 0.820745 0.967461
O O1 0.846763 0.500000 0.089633
O O2 0.809217 0.206828 0.128202
O O3 0.772232 0.322299 0.388249
O O4 0.949927 0.282186 0.932380
O O5 0.659513 0.794020 0.346088
O O6 0.775397 0.000000 0.050836
O O7 0.821629 0.719577 0.906256
O O8 0.127828 0.193756 0.587131
O O9 0.124243 0.248525 0.399677
O O10 0.292136 0.232030 0.142457
O O11 0.199373 0.000000 0.298425
O O12 0.359210 0.500000 0.292735
O O13 0.387809 0.739127 0.350224
O O14 0.359239 0.763518 0.195915
O O15 0.993505 0.000000 0.193025
O O16 0.000000 0.841505 0.000000
O O17 0.580104 0.000000 0.627907
O O18 0.480271 0.221193 0.783814
O O19 0.086007 0.500000 0.382995
O O20 0.000000 0.728298 0.500000
O O21 0.626526 0.000000 0.961470
#
# Coordination Sequence:
#
# PCOD9155410 Si02
#       8
#     4   4   4   4   4   4   4   4
#     4  10  20  33  50  76 110 144 178 220 271 324
#     4  10  20  36  59  83 106 135 176 224 271 320
#     4  10  22  38  57  82 110 143 183 225 270 322
#     4  10  20  32  50  80 115 150 187 225 268 320
#     4  10  20  34  53  78 108 143 182 221 263 315
#     4   9  19  35  56  82 110 144 185 227 270 317
#     4  11  24  41  61  84 110 140 175 220 274 329
#     4  10  20  36  56  78 109 147 186 227 270 318
#
# _framework density 19.753086
#
# number of rings (size 3 to 8) (size 9 to 14) (size 15 to 20)
#    0.000    2.000    0.000    3.375    0.000    9.250 
#    0.000    0.625    0.000    3.750    0.000    0.000 
#    0.000    0.000    0.000    0.000    0.000    0.000 
#
# Total GULP energy -178255.165564 kJ/mol
# GULP energy per Si atom -5570.473924 kJ/mol
# Density = 1.970813 g / cm^3
# Si number density = 19.753086 Si / 1000 Ang^3
#
#
#
# Elastic Constant Matrix: (Units=GPa)
#
#
# Indices 1 2 3 4 5 6 
#
# 1 74.0488 24.4542 39.9637 0.0000 -30.1072 0.0000
# 2 24.4542 23.8075 21.5320 0.0000 -18.6583 0.0000
# 3 39.9637 21.5320 85.4846 0.0000 -34.7331 0.0000
# 4 0.0000 0.0000 0.0000 24.9416 0.0000 -3.1689
# 5 -30.1072 -18.6583 -34.7331 0.0000 38.1355 0.0000
# 6 0.0000 0.0000 0.0000 -3.1689 0.0000 19.3737
#
#
#
# Elastic Compliance Matrix: (Units=1/GPa)
#
#
# Indices 1 2 3 4 5 6 
#
# 1 0.023751 -0.014398 -0.004318 0.000000 0.007773 0.000000
# 2 -0.014398 0.078678 -0.003277 0.000000 0.024142 0.000000
# 3 -0.004318 -0.003277 0.019852 0.000000 0.013068 0.000000
# 4 0.000000 0.000000 0.000000 0.040944 0.000000 0.006697
# 5 0.007773 0.024142 0.013068 0.000000 0.056073 0.000000
# 6 0.000000 0.000000 0.000000 0.006697 0.000000 0.052712
#
#
# Mechanical properties :
#
#
# Convention : Reuss Voigt Hill
#
# Bulk Modulus (GPa) = 12.77265 39.47119 26.12192
# Shear Modulus (GPa) = 14.61585 22.98291 18.79938
#
# Velocity S-wave (km/s) = 2.72311 3.41473 3.08834
# Velocity P-wave (km/s) = 4.04565 5.96429 5.09608
#
# Compressibility (1/GPa) = 0.07829227
#
# Stress axis : x y z
#
# Youngs Moduli (GPa) = 42.10434 12.71010 50.37284
#
# Poissons Ratio (x) = 0.18300 0.21753
# Poissons Ratio (y) = 0.60623 0.16508
# Poissons Ratio (z) = 0.18182 0.04165
#
# Static dielectric constant tensor:
#      x y z
#    x 1.771930 0.000000 0.093220 
#    y 0.000000 1.702190 0.000000 
#    z 0.093220 0.000000 1.856860 
# 
# From -- ./inp_files/58178.got.cif
#   From: 2010.05.17/outbox.ucp.g08.bks.cvg/sg10_30_cif.got.tgz:58178.got - 2010.06.11 11:31:16.
