data_PCOD9155645
_publ_section_title
;
Structure prediction by ZEFSAII (Michael W. Deem and Ramdas Pophale) SiO2 
 PCOD9155645
Probable space group: P 2/M
;
_chemical_formula_sum "Si O2"
_cell_formula_units_Z 32
_cell_length_a 15.000000
_cell_length_b 9.000000
_cell_length_c 24.000000
_cell_angle_alpha 90.000000
_cell_angle_beta 30.000000
_cell_angle_gamma 90.000000
_cell_volume 1620.000000
_symmetry_space_group_name_H-M "P 2/M"
_symmetry_group_IT_number 10
_symmetry_cell_setting 'monoclinic'
loop_
_space_group_symop_operation_xyz
x,y,z
-x,y,-z
-x,-y,-z
x,-y,z
loop_
_atom_site_type_symbol
_atom_site_label
_atom_site_fract_x
_atom_site_fract_y
_atom_site_fract_z
Si Si1 0.234764 0.678844 0.771188
Si Si2 0.171750 0.323965 0.991775
Si Si3 0.899356 0.675716 0.395454
Si Si4 0.343930 0.828056 0.001957
Si Si5 0.163309 0.178782 0.451669
Si Si6 0.710593 0.678364 0.383943
Si Si7 0.741973 0.172514 0.820475
Si Si8 0.435689 0.822590 0.761408
O O1 0.263656 0.500000 0.755318
O O2 0.230562 0.731978 0.709077
O O3 0.384116 0.752002 0.729428
O O4 0.037779 0.708867 0.901588
O O5 0.195201 0.500000 0.971650
O O6 0.237706 0.276116 0.017557
O O7 0.291730 0.237765 0.882781
O O8 0.864349 0.500000 0.419058
O O9 0.845612 0.755974 0.481376
O O10 0.805185 0.733011 0.389315
O O11 0.107327 0.712645 0.277082
O O12 0.556024 0.799158 0.889669
O O13 0.317641 0.000000 0.998866
O O14 0.286242 0.816149 0.097675
O O15 0.365695 0.215935 0.323982
O O16 0.000000 0.229996 0.500000
O O17 0.149272 0.000000 0.462119
O O18 0.500000 0.704971 0.500000
O O19 0.741032 0.500000 0.367404
O O20 0.793567 0.000000 0.780616
O O21 0.425854 0.000000 0.762053
#
# Coordination Sequence:
#
# PCOD9155645 Si02
#       8
#     4   4   4   4   4   4   4   4
#     4  10  21  39  61  87 123 163 196 236 300 364
#     4  11  23  37  58  87 122 160 198 245 304 361
#     4  11  22  36  60  92 119 148 195 246 293 355
#     4   9  19  36  57  82 114 158 204 241 286 348
#     4  10  24  45  64  83 114 158 201 246 306 366
#     4   9  18  34  58  86 118 155 191 233 292 354
#     4   9  19  36  57  81 116 158 196 239 295 353
#     4  11  24  41  62  87 115 154 206 257 300 355
#
# _framework density 19.753086
#
# number of rings (size 3 to 8) (size 9 to 14) (size 15 to 20)
#    0.000    2.000    0.000    3.750    1.750    6.750 
#    0.000    2.500    0.000    3.375    0.000    0.000 
#    0.000    0.000    0.000    0.000    0.000    0.000 
#
# Total GULP energy -178662.039478 kJ/mol
# GULP energy per Si atom -5583.188734 kJ/mol
# Density = 1.970813 g / cm^3
# Si number density = 19.753086 Si / 1000 Ang^3
#
#
#
# Elastic Constant Matrix: (Units=GPa)
#
#
# Indices 1 2 3 4 5 6 
#
# 1 98.7779 37.7568 67.3106 0.0000 -26.4219 0.0000
# 2 37.7568 7.7824 -24.0557 0.0000 10.3960 0.0000
# 3 67.3106 -24.0557 -120.1217 0.0000 69.8770 0.0000
# 4 0.0000 0.0000 0.0000 26.0317 0.0000 3.1268
# 5 -26.4219 10.3960 69.8770 0.0000 -3.3482 0.0000
# 6 0.0000 0.0000 0.0000 3.1268 0.0000 35.6390
#
#
#
# Elastic Compliance Matrix: (Units=1/GPa)
#
#
# Indices 1 2 3 4 5 6 
#
# 1 0.012649 -0.026330 0.008372 0.000000 -0.006858 0.000000
# 2 -0.026330 0.136422 -0.029191 0.000000 0.022147 0.000000
# 3 0.008372 -0.029191 0.007984 0.000000 0.009922 0.000000
# 4 0.000000 0.000000 0.000000 0.038824 0.000000 -0.003406
# 5 -0.006858 0.022147 0.009922 0.000000 0.031287 0.000000
# 6 0.000000 0.000000 0.000000 -0.003406 0.000000 0.028358
#
#
# Mechanical properties :
#
#
# Convention : Reuss Voigt Hill
#
# Bulk Modulus (GPa) = 15.93476 16.49577 16.21527
# Shear Modulus (GPa) = 13.48649 5.35963 9.42306
#
# Velocity S-wave (km/s) = 2.61579 1.64900 2.18650
# Velocity P-wave (km/s) = 4.14821 3.46334 3.82115
#
# Compressibility (1/GPa) = 0.06275588
#
# Stress axis : x y z
#
# Youngs Moduli (GPa) = 79.05697 7.33018 125.25401
#
# Poissons Ratio (x) = 0.19300 -1.04857
# Poissons Ratio (y) = 2.08158 3.65629
# Poissons Ratio (z) = -0.66183 0.21398
#
# Static dielectric constant tensor:
#      x y z
#    x 1.684250 0.000000 0.017350 
#    y 0.000000 1.669790 0.000000 
#    z 0.017350 0.000000 1.738700 
# 
# From -- ./inp_files/89575.got.cif
#   From: 2010.05.17/outbox.ucp.g08.bks.cvg/sg10_45_cif.got.tgz:89575.got - 2010.06.11 11:31:16.
