data_PCOD9155608
_publ_section_title
;
Structure prediction by ZEFSAII (Michael W. Deem and Ramdas Pophale) SiO2 
 PCOD9155608
Probable space group: P 2/M
;
_chemical_formula_sum "Si O2"
_cell_formula_units_Z 32
_cell_length_a 15.000000
_cell_length_b 15.000000
_cell_length_c 21.000000
_cell_angle_alpha 90.000000
_cell_angle_beta 160.000000
_cell_angle_gamma 90.000000
_cell_volume 1616.045177
_symmetry_space_group_name_H-M "P 2/M"
_symmetry_group_IT_number 10
_symmetry_cell_setting 'monoclinic'
loop_
_space_group_symop_operation_xyz
x,y,z
-x,y,-z
-x,-y,-z
x,-y,z
loop_
_atom_site_type_symbol
_atom_site_label
_atom_site_fract_x
_atom_site_fract_y
_atom_site_fract_z
Si Si1 0.547580 0.741710 0.834659
Si Si2 0.457098 0.603292 0.583075
Si Si3 0.652520 0.900226 0.537114
Si Si4 0.160577 0.602969 0.521371
Si Si5 0.301459 0.779785 0.208652
Si Si6 0.958151 0.274569 0.751307
Si Si7 0.255926 0.104378 0.715885
Si Si8 0.208011 0.257858 0.781548
O O1 0.340653 0.661092 0.689491
O O2 0.591758 0.771528 0.791460
O O3 0.451843 0.827760 0.810794
O O4 0.808544 0.706408 0.043808
O O5 0.532675 0.500000 0.619039
O O6 0.307739 0.599225 0.551289
O O7 0.669333 0.682068 0.737730
O O8 0.261960 0.648380 0.400153
O O9 0.500000 0.912169 0.500000
O O10 0.471976 0.850691 0.363204
O O11 0.859479 0.825491 0.697148
O O12 0.739882 0.000000 0.574683
O O13 0.115058 0.500000 0.509093
O O14 0.905760 0.664042 0.339199
O O15 0.000000 0.805002 0.000000
O O16 0.048378 0.264275 0.739088
O O17 0.191081 0.161369 0.736084
O O18 0.000000 0.101624 0.500000
O O19 0.337443 0.000000 0.780666
O O20 0.500000 0.274065 0.000000
#
# Coordination Sequence:
#
# PCOD9155608 Si02
#       8
#     4   4   4   4   4   4   4   4
#     4  11  21  39  59  85 120 151 192 239 288 343
#     4   8  17  35  57  85 117 150 189 234 283 338
#     4  10  22  40  60  84 114 148 191 240 289 346
#     4   9  19  36  58  84 116 153 193 237 288 341
#     4  10  21  37  62  87 115 154 189 235 288 342
#     4  10  21  36  61  84 115 156 189 238 285 341
#     4  11  24  40  60  84 115 152 195 244 292 344
#     4  11  21  39  60  83 120 154 194 242 284 341
#
# _framework density 19.801427
#
# number of rings (size 3 to 8) (size 9 to 14) (size 15 to 20)
#    0.000    2.000    2.500    1.500    0.000    3.000 
#    0.000    1.250    0.000   12.750    0.000    0.000 
#    0.000    0.000    0.000    0.000    0.000    0.000 
#
# Total GULP energy -178405.619303 kJ/mol
# GULP energy per Si atom -5575.175603 kJ/mol
# Density = 1.975636 g / cm^3
# Si number density = 19.801427 Si / 1000 Ang^3
#
#
#
# Elastic Constant Matrix: (Units=GPa)
#
#
# Indices 1 2 3 4 5 6 
#
# 1 53.3370 7.6426 0.7653 0.0000 -17.0776 0.0000
# 2 7.6426 160.3641 39.1488 0.0000 -13.8186 0.0000
# 3 0.7653 39.1488 102.3162 0.0000 -30.2442 0.0000
# 4 0.0000 0.0000 0.0000 16.7141 0.0000 1.4351
# 5 -17.0776 -13.8186 -30.2442 0.0000 27.9531 0.0000
# 6 0.0000 0.0000 0.0000 1.4351 0.0000 11.7333
#
#
#
# Elastic Compliance Matrix: (Units=1/GPa)
#
#
# Indices 1 2 3 4 5 6 
#
# 1 0.026179 -0.000967 0.006999 0.000000 0.023089 0.000000
# 2 -0.000967 0.006927 -0.002654 0.000000 -0.000038 0.000000
# 3 0.006999 -0.002654 0.017073 0.000000 0.021437 0.000000
# 4 0.000000 0.000000 0.000000 0.060465 0.000000 -0.007395
# 5 0.023089 -0.000038 0.021437 0.000000 0.073054 0.000000
# 6 0.000000 0.000000 0.000000 -0.007395 0.000000 0.086132
#
#
# Mechanical properties :
#
#
# Convention : Reuss Voigt Hill
#
# Bulk Modulus (GPa) = 17.56388 45.68119 31.62253
# Shear Modulus (GPa) = 17.72715 29.17747 23.45231
#
# Velocity S-wave (km/s) = 2.99531 3.84279 3.44521
# Velocity P-wave (km/s) = 4.56638 6.54287 5.64185
#
# Compressibility (1/GPa) = 0.05693502
#
# Stress axis : x y z
#
# Youngs Moduli (GPa) = 38.19804 144.37148 58.57046
#
# Poissons Ratio (x) = 0.13957 -0.40993
# Poissons Ratio (y) = 0.03693 0.15547
# Poissons Ratio (z) = -0.26735 0.38322
#
# Static dielectric constant tensor:
#      x y z
#    x 1.676490 0.000000 -0.000890 
#    y 0.000000 1.715420 0.000000 
#    z -0.000890 0.000000 1.684720 
# 
# From -- ./inp_files/61892.got.cif
#   From: 2010.05.17/outbox.ucp.g08.bks.cvg/sg10_31_cif.got.tgz:61892.got - 2010.06.11 11:31:16.
