data_PCOD9155013
_publ_section_title
;
Structure prediction by ZEFSAII (Michael W. Deem and Ramdas Pophale) SiO2 
 PCOD9155013
Probable space group: P 2/M
;
_chemical_formula_sum "Si O2"
_cell_formula_units_Z 28
_cell_length_a 14.439754
_cell_length_b 11.985188
_cell_length_c 15.456012
_cell_angle_alpha 90.000000
_cell_angle_beta 31.659031
_cell_angle_gamma 90.000000
_cell_volume 1403.938791
_symmetry_space_group_name_H-M "P 2/M"
_symmetry_group_IT_number 10
_symmetry_cell_setting 'monoclinic'
loop_
_space_group_symop_operation_xyz
x,y,z
-x,y,-z
-x,-y,-z
x,-y,z
loop_
_atom_site_type_symbol
_atom_site_label
_atom_site_fract_x
_atom_site_fract_y
_atom_site_fract_z
Si Si1 0.359105 0.131590 0.931325
Si Si2 0.884502 0.864255 0.174534
Si Si3 0.290358 0.270859 0.144310
Si Si4 0.577176 0.134638 0.306150
Si Si5 0.164616 0.134196 0.599536
Si Si6 0.268723 0.751310 0.354114
Si Si7 0.750967 0.500000 0.622224
Si Si8 0.145026 0.500000 0.257302
O O1 0.325646 0.171576 0.859896
O O2 0.565018 0.165176 0.779380
O O3 0.335350 0.000000 0.950719
O O4 0.264871 0.180603 0.090178
O O5 0.687502 0.828720 0.301538
O O6 0.931738 0.830995 0.234874
O O7 0.889905 0.000000 0.173984
O O8 0.000000 0.830926 0.000000
O O9 0.201956 0.250952 0.308212
O O10 0.226750 0.387729 0.156161
O O11 0.500000 0.279164 0.000000
O O12 0.370929 0.157935 0.459657
O O13 0.586549 0.000000 0.300256
O O14 0.139346 0.203263 0.531531
O O15 0.144330 0.000000 0.601592
O O16 0.329230 0.623599 0.328204
O O17 0.796665 0.500000 0.687982
O O18 0.934967 0.500000 0.424126
#
# Coordination Sequence:
#
# PCOD9155013 Si02
#       8
#     4   4   4   4   4   4   2   2
#     4   9  17  28  45  72 101 127 152 185 234 285
#     4   9  16  26  41  64  91 120 152 190 233 276
#     4   9  17  28  47  71  94 121 155 195 234 272
#     4   8  14  26  42  61  91 123 154 188 221 270
#     4   9  16  27  45  69  92 120 154 188 233 288
#     4   9  17  29  46  68  91 121 158 194 229 270
#     4   9  18  32  48  64  87 121 164 205 236 262
#     4   9  17  32  48  64  88 119 161 209 239 264
#
# _framework density 19.943888999999999
#
# number of rings (size 3 to 8) (size 9 to 14) (size 15 to 20)
#    0.000    3.143    0.000    1.929    0.000    6.571 
#    2.571    0.000    0.000    0.857    0.000   24.500 
#    0.000    0.000    0.000    0.000    0.000    0.000 
#
# Total GULP energy -155910.201918 kJ/mol
# GULP energy per Si atom -5568.221497 kJ/mol
# Density = 1.989850 g / cm^3
# Si number density = 19.943889 Si / 1000 Ang^3
#
#
#
# Elastic Constant Matrix: (Units=GPa)
#
#
# Indices 1 2 3 4 5 6 
#
# 1 68.4522 19.5133 25.1990 0.0000 23.2051 0.0000
# 2 19.5133 53.2320 21.9768 0.0000 24.3300 0.0000
# 3 25.1990 21.9768 91.2047 0.0000 29.4612 0.0000
# 4 0.0000 0.0000 0.0000 -9.4354 0.0000 -7.3119
# 5 23.2051 24.3300 29.4612 0.0000 38.4770 0.0000
# 6 0.0000 0.0000 0.0000 -7.3119 0.0000 -3.8715
#
#
#
# Elastic Compliance Matrix: (Units=1/GPa)
#
#
# Indices 1 2 3 4 5 6 
#
# 1 0.018825 -0.002237 -0.001929 0.000000 -0.008462 0.000000
# 2 -0.002237 0.026802 -0.001065 0.000000 -0.014783 0.000000
# 3 -0.001929 -0.001065 0.014828 0.000000 -0.009517 0.000000
# 4 0.000000 0.000000 0.000000 0.228605 0.000000 -0.431759
# 5 -0.008462 -0.014783 -0.009517 0.000000 0.047728 0.000000
# 6 0.000000 0.000000 0.000000 -0.431759 0.000000 0.557148
#
#
# Mechanical properties :
#
#
# Convention : Reuss Voigt Hill
#
# Bulk Modulus (GPa) = 20.00241 38.47412 29.23827
# Shear Modulus (GPa) = 5.42852 14.78069 10.10460
#
# Velocity S-wave (km/s) = 1.65161 2.72529 2.25333
# Velocity P-wave (km/s) = 3.69976 5.40704 4.63272
#
# Compressibility (1/GPa) = 0.04999397
#
# Stress axis : x y z
#
# Youngs Moduli (GPa) = 53.12087 37.31063 67.43967
#
# Poissons Ratio (x) = 0.08346 0.13008
# Poissons Ratio (y) = 0.11882 0.07182
# Poissons Ratio (z) = 0.10246 0.03973
#
# Static dielectric constant tensor:
#      x y z
#    x 1.733980 0.000000 -0.022760 
#    y 0.000000 1.680290 0.000000 
#    z -0.022760 0.000000 1.845200 
# 
# From -- ./inp_files/67117.got.cif
#   From: 2010.05.17/outbox.cif.g08.bks.cpg/sg10_34_cif.got.tgz:67117.got - 2010.06.03 11:33:40.
