data_PCOD9155571
_publ_section_title
;
Structure prediction by ZEFSAII (Michael W. Deem and Ramdas Pophale) SiO2 
 PCOD9155571
Probable space group: P 2/M
;
_chemical_formula_sum "Si O2"
_cell_formula_units_Z 32
_cell_length_a 21.000000
_cell_length_b 9.000000
_cell_length_c 27.000000
_cell_angle_alpha 90.000000
_cell_angle_beta 20.000000
_cell_angle_gamma 90.000000
_cell_volume 1745.328791
_symmetry_space_group_name_H-M "P 2/M"
_symmetry_group_IT_number 10
_symmetry_cell_setting 'monoclinic'
loop_
_space_group_symop_operation_xyz
x,y,z
-x,y,-z
-x,-y,-z
x,-y,z
loop_
_atom_site_type_symbol
_atom_site_label
_atom_site_fract_x
_atom_site_fract_y
_atom_site_fract_z
Si Si1 0.484143 0.826092 0.952147
Si Si2 0.905243 0.177789 0.622421
Si Si3 0.936257 0.179477 0.883850
Si Si4 0.219020 0.176737 0.832097
Si Si5 0.700391 0.678021 0.329385
Si Si6 0.423937 0.177630 0.786523
Si Si7 0.101493 0.321544 0.196358
Si Si8 0.835036 0.678387 0.483453
O O1 0.686636 0.777792 0.783319
O O2 0.455441 0.000000 0.959253
O O3 0.500000 0.818117 0.000000
O O4 0.304364 0.733894 0.066686
O O5 0.000000 0.203172 0.500000
O O6 0.028255 0.259033 0.573898
O O7 0.908186 0.000000 0.630459
O O8 0.935151 0.242498 0.829127
O O9 0.119052 0.244848 0.777560
O O10 0.946634 0.000000 0.877057
O O11 0.740353 0.221023 0.054487
O O12 0.296928 0.269646 0.729453
O O13 0.333077 0.204693 0.798947
O O14 0.230705 0.000000 0.812389
O O15 0.000000 0.210839 0.000000
O O16 0.500000 0.718341 0.500000
O O17 0.721028 0.500000 0.318198
O O18 0.626310 0.255076 0.641663
O O19 0.452757 0.000000 0.771196
O O20 0.103242 0.500000 0.189327
O O21 0.940920 0.284269 0.354228
O O22 0.823889 0.500000 0.494896
#
# Coordination Sequence:
#
# PCOD9155571 Si02
#       8
#     4   4   4   4   4   4   4   4
#     4  10  20  38  64  90 116 156 207 252 299 360
#     4  10  22  40  63  90 122 158 204 259 305 355
#     4  11  24  44  67  91 121 162 210 256 305 363
#     4  10  20  41  67  92 120 156 208 258 301 359
#     4  11  25  42  62  93 131 164 201 253 310 367
#     4  10  23  42  65  91 122 159 205 259 306 359
#     4  11  25  42  61  90 129 165 202 252 309 368
#     4  11  25  42  61  89 127 166 204 248 305 372
#
# _framework density 18.334654
#
# number of rings (size 3 to 8) (size 9 to 14) (size 15 to 20)
#    0.000    1.500    2.500    1.500    3.500    5.250 
#    0.000    0.000    0.000    0.000    0.000    0.000 
#    0.000    0.000    0.000    0.000    0.000    0.000 
#
# Total GULP energy -178787.811636 kJ/mol
# GULP energy per Si atom -5587.119114 kJ/mol
# Density = 1.829292 g / cm^3
# Si number density = 18.334654 Si / 1000 Ang^3
#
#
#
# Elastic Constant Matrix: (Units=GPa)
#
#
# Indices 1 2 3 4 5 6 
#
# 1 95.4243 45.3673 58.8104 0.0000 10.1350 0.0000
# 2 45.3673 66.8465 61.7684 0.0000 4.9593 0.0000
# 3 58.8104 61.7684 185.3522 0.0000 6.9359 0.0000
# 4 0.0000 0.0000 0.0000 31.9987 0.0000 3.0734
# 5 10.1350 4.9593 6.9359 0.0000 35.2586 0.0000
# 6 0.0000 0.0000 0.0000 3.0734 0.0000 23.0067
#
#
#
# Elastic Compliance Matrix: (Units=1/GPa)
#
#
# Indices 1 2 3 4 5 6 
#
# 1 0.016336 -0.008926 -0.002095 0.000000 -0.003028 0.000000
# 2 -0.008926 0.026587 -0.006028 0.000000 0.000012 0.000000
# 3 -0.002095 -0.006028 0.008074 0.000000 -0.000138 0.000000
# 4 0.000000 0.000000 0.000000 0.031657 0.000000 -0.004229
# 5 -0.003028 0.000012 -0.000138 0.000000 0.029258 0.000000
# 6 0.000000 0.000000 0.000000 -0.004229 0.000000 0.044031
#
#
# Mechanical properties :
#
#
# Convention : Reuss Voigt Hill
#
# Bulk Modulus (GPa) = 59.18006 75.50171 67.34088
# Shear Modulus (GPa) = 25.55244 30.16460 27.85852
#
# Velocity S-wave (km/s) = 3.73724 4.06054 3.90224
# Velocity P-wave (km/s) = 7.13935 7.95318 7.55723
#
# Compressibility (1/GPa) = 0.01689758
#
# Stress axis : x y z
#
# Youngs Moduli (GPa) = 61.21338 37.61200 123.85286
#
# Poissons Ratio (x) = 0.33573 0.25952
# Poissons Ratio (y) = 0.54641 0.74664
# Poissons Ratio (z) = 0.12826 0.22674
#
# Static dielectric constant tensor:
#      x y z
#    x 1.619560 0.000000 0.012260 
#    y 0.000000 1.618420 0.000000 
#    z 0.012260 0.000000 1.616720 
# 
# From -- ./inp_files/93582.got.cif
#   From: 2010.05.17/outbox.ucp.g08.bks.cvg/sg10_47_cif.got.tgz:93582.got - 2010.06.11 11:31:16.
