data_PCOD9155646
_publ_section_title
;
Structure prediction by ZEFSAII (Michael W. Deem and Ramdas Pophale) SiO2 
 PCOD9155646
Probable space group: P 2/M
;
_chemical_formula_sum "Si O2"
_cell_formula_units_Z 28
_cell_length_a 12.000000
_cell_length_b 9.000000
_cell_length_c 15.000000
_cell_angle_alpha 90.000000
_cell_angle_beta 110.000000
_cell_angle_gamma 90.000000
_cell_volume 1522.302046
_symmetry_space_group_name_H-M "P 2/M"
_symmetry_group_IT_number 10
_symmetry_cell_setting 'monoclinic'
loop_
_space_group_symop_operation_xyz
x,y,z
-x,y,-z
-x,-y,-z
x,-y,z
loop_
_atom_site_type_symbol
_atom_site_label
_atom_site_fract_x
_atom_site_fract_y
_atom_site_fract_z
Si Si1 0.428814 0.820782 0.253637
Si Si2 0.652893 0.821103 0.445628
Si Si3 0.001254 0.179872 0.746265
Si Si4 0.740845 0.679309 0.651507
Si Si5 0.893265 0.320730 0.045061
Si Si6 0.601817 0.320300 0.948890
Si Si7 0.891019 0.179921 0.409865
O O1 0.540717 0.792344 0.350672
O O2 0.321244 0.740854 0.275941
O O3 0.438321 0.755235 0.155931
O O4 0.412725 0.000000 0.244617
O O5 0.667603 0.740135 0.545116
O O6 0.767968 0.774853 0.419952
O O7 0.655367 0.000000 0.463461
O O8 0.873258 0.251695 0.688762
O O9 0.057469 0.243824 0.851871
O O10 0.086330 0.218928 0.686198
O O11 0.988873 0.000000 0.747513
O O12 0.744187 0.500000 0.651589
O O13 0.895195 0.500000 0.052693
O O14 0.747912 0.282867 0.996932
O O15 0.000000 0.284994 0.000000
O O16 0.598210 0.500000 0.940844
O O17 0.500000 0.283166 0.000000
O O18 0.000000 0.234568 0.500000
O O19 0.892598 0.000000 0.414174
#
# Coordination Sequence:
#
# PCOD9155646 Si02
#       7
#     4   4   4   4   4   4   4
#     4  11  24  40  64  91 120 159 209 260 305 359
#     4  10  21  39  61  88 123 161 203 250 305 361
#     4  11  22  37  64  93 121 157 202 253 308 363
#     4  12  24  39  60  89 127 164 202 248 305 373
#     4  10  22  41  63  88 121 164 209 256 312 370
#     4  10  23  43  64  89 128 171 208 256 318 376
#     4   9  17  34  59  85 119 158 193 241 301 360
#
# _framework density 18.393196
#
# number of rings (size 3 to 8) (size 9 to 14) (size 15 to 20)
#    0.000    1.571    1.429    3.429    2.000    5.143 
#    0.000    2.143    0.000    0.000    0.000    0.000 
#    0.000    0.000    0.000    0.000    0.000    0.000 
#
# Total GULP energy -156079.903419 kJ/mol
# GULP energy per Si atom -5574.282265 kJ/mol
# Density = 1.835133 g / cm^3
# Si number density = 18.393196 Si / 1000 Ang^3
#
#
#
# Elastic Constant Matrix: (Units=GPa)
#
#
# Indices 1 2 3 4 5 6 
#
# 1 114.3159 28.0005 46.7474 0.0000 -16.3188 0.0000
# 2 28.0005 67.6139 47.3242 0.0000 -3.8876 0.0000
# 3 46.7474 47.3242 146.1856 0.0000 -17.2662 0.0000
# 4 0.0000 0.0000 0.0000 35.4276 0.0000 -1.2423
# 5 -16.3188 -3.8876 -17.2662 0.0000 47.3394 0.0000
# 6 0.0000 0.0000 0.0000 -1.2423 0.0000 22.3913
#
#
#
# Elastic Compliance Matrix: (Units=1/GPa)
#
#
# Indices 1 2 3 4 5 6 
#
# 1 0.010704 -0.002720 -0.002229 0.000000 0.002654 0.000000
# 2 -0.002720 0.019837 -0.005717 0.000000 -0.001394 0.000000
# 3 -0.002229 -0.005717 0.009675 0.000000 0.002291 0.000000
# 4 0.000000 0.000000 0.000000 0.028282 0.000000 0.001569
# 5 0.002654 -0.001394 0.002291 0.000000 0.022760 0.000000
# 6 0.000000 0.000000 0.000000 0.001569 0.000000 0.044747
#
#
# Mechanical properties :
#
#
# Convention : Reuss Voigt Hill
#
# Bulk Modulus (GPa) = 52.95317 63.58439 58.26878
# Shear Modulus (GPa) = 30.55644 34.76789 32.66216
#
# Velocity S-wave (km/s) = 4.08032 4.35243 4.21857
# Velocity P-wave (km/s) = 7.14498 7.73968 7.44827
#
# Compressibility (1/GPa) = 0.01888461
#
# Stress axis : x y z
#
# Youngs Moduli (GPa) = 93.42044 50.40982 103.36333
#
# Poissons Ratio (x) = 0.13713 0.23040
# Poissons Ratio (y) = 0.25412 0.59089
# Poissons Ratio (z) = 0.20823 0.28817
#
# Static dielectric constant tensor:
#      x y z
#    x 1.682800 0.000000 -0.002510 
#    y 0.000000 1.613590 0.000000 
#    z -0.002510 0.000000 1.626200 
# 
# From -- ./inp_files/63495.got.cif
#   From: 2010.05.17/outbox.ucp.g08.bks.cvg/sg10_32_cif.got.tgz:63495.got - 2010.06.11 11:31:16.
