data_PCOD9155687
_publ_section_title
;
Structure prediction by ZEFSAII (Michael W. Deem and Ramdas Pophale) SiO2 
 PCOD9155687
Probable space group: P 2/M
;
_chemical_formula_sum "Si O2"
_cell_formula_units_Z 28
_cell_length_a 9.000000
_cell_length_b 15.000000
_cell_length_c 12.000000
_cell_angle_alpha 90.000000
_cell_angle_beta 60.000000
_cell_angle_gamma 90.000000
_cell_volume 1402.961154
_symmetry_space_group_name_H-M "P 2/M"
_symmetry_group_IT_number 10
_symmetry_cell_setting 'monoclinic'
loop_
_space_group_symop_operation_xyz
x,y,z
-x,y,-z
-x,-y,-z
x,-y,z
loop_
_atom_site_type_symbol
_atom_site_label
_atom_site_fract_x
_atom_site_fract_y
_atom_site_fract_z
Si Si1 0.413642 0.322020 0.784199
Si Si2 0.313405 0.771827 0.027946
Si Si3 0.263390 0.607489 0.196301
Si Si4 0.989139 0.104992 0.139194
Si Si5 0.730839 0.500000 0.505246
Si Si6 0.085341 0.322002 0.571261
Si Si7 0.665230 0.801856 0.379281
Si Si8 0.668435 0.500000 0.274225
O O1 0.588969 0.355579 0.775484
O O2 0.429740 0.272562 0.661252
O O3 0.300177 0.410065 0.805247
O O4 0.328640 0.246153 0.891695
O O5 0.297730 0.669653 0.076801
O O6 0.150169 0.832925 0.119515
O O7 0.500000 0.806526 0.000000
O O8 0.277999 0.500000 0.179718
O O9 0.071534 0.637254 0.299885
O O10 0.806923 0.138795 0.259278
O O11 0.012658 0.000000 0.158577
O O12 0.000000 0.111615 0.000000
O O13 0.818246 0.409597 0.511565
O O14 0.752970 0.500000 0.363329
O O15 0.534272 0.500000 0.616870
O O16 0.213674 0.257894 0.586602
O O17 0.000000 0.271520 0.500000
O O18 0.500000 0.848647 0.500000
#
# Coordination Sequence:
#
# PCOD9155687 Si02
#       8
#     4   4   4   4   2   4   4   2
#     4  11  22  37  59  87 130 176 219 262 309 373
#     4  10  23  41  66  97 129 168 216 266 325 391
#     4  11  22  36  57  91 131 177 224 267 314 372
#     4  11  24  47  76 100 125 163 213 273 336 401
#     4  11  21  32  49  77 120 174 225 260 302 363
#     4  12  23  35  55  85 125 173 222 266 315 377
#     4  12  24  42  67  95 130 170 215 273 331 386
#     4  11  20  32  50  81 123 168 220 265 301 359
#
# _framework density 19.957787
#
# number of rings (size 3 to 8) (size 9 to 14) (size 15 to 20)
#    0.000    0.857    5.714    2.786    1.000    1.429 
#    0.000    0.000    0.000    3.429    0.000    0.000 
#    0.000    0.000    0.000    0.000    0.000    0.000 
#
# Total GULP energy -156139.356977 kJ/mol
# GULP energy per Si atom -5576.405606 kJ/mol
# Density = 1.991236 g / cm^3
# Si number density = 19.957787 Si / 1000 Ang^3
#
#
#
# Elastic Constant Matrix: (Units=GPa)
#
#
# Indices 1 2 3 4 5 6 
#
# 1 94.4104 43.1813 50.3856 0.0000 -8.0218 0.0000
# 2 43.1813 99.5492 36.1933 0.0000 -14.2291 0.0000
# 3 50.3856 36.1933 79.3351 0.0000 -19.3531 0.0000
# 4 0.0000 0.0000 0.0000 7.8916 0.0000 -5.2909
# 5 -8.0218 -14.2291 -19.3531 0.0000 42.9848 0.0000
# 6 0.0000 0.0000 0.0000 -5.2909 0.0000 22.4551
#
#
#
# Elastic Compliance Matrix: (Units=1/GPa)
#
#
# Indices 1 2 3 4 5 6 
#
# 1 0.017644 -0.004460 -0.009805 0.000000 -0.002598 0.000000
# 2 -0.004460 0.013282 -0.002648 0.000000 0.002372 0.000000
# 3 -0.009805 -0.002648 0.021771 0.000000 0.007095 0.000000
# 4 0.000000 0.000000 0.000000 0.150490 0.000000 0.035459
# 5 -0.002598 0.002372 0.007095 0.000000 0.026759 0.000000
# 6 0.000000 0.000000 0.000000 0.035459 0.000000 0.052888
#
#
# Mechanical properties :
#
#
# Convention : Reuss Voigt Hill
#
# Bulk Modulus (GPa) = 52.99204 59.20168 56.09686
# Shear Modulus (GPa) = 15.48234 24.23528 19.85881
#
# Velocity S-wave (km/s) = 2.78826 3.48850 3.15785
# Velocity P-wave (km/s) = 6.08075 6.77894 6.43932
#
# Compressibility (1/GPa) = 0.01887076
#
# Stress axis : x y z
#
# Youngs Moduli (GPa) = 56.67704 75.29160 45.93344
#
# Poissons Ratio (x) = 0.33580 0.45036
# Poissons Ratio (y) = 0.25278 0.12163
# Poissons Ratio (z) = 0.55570 0.19938
#
# Static dielectric constant tensor:
#      x y z
#    x 1.734630 0.000000 0.028260 
#    y 0.000000 1.665670 0.000000 
#    z 0.028260 0.000000 1.846940 
# 
# From -- ./inp_files/42911.got.cif
#   From: 2010.05.17/outbox.ucp.g08.bks.cvg/sg10_22_cif.got.tgz:42911.got - 2010.06.11 11:31:16.
