data_PCOD9155994
_publ_section_title
;
Structure prediction by ZEFSAII (Michael W. Deem and Ramdas Pophale) SiO2 
 PCOD9155994
Probable space group: P 21/M
;
_chemical_formula_sum "Si O2"
_cell_formula_units_Z 28
_cell_length_a 15.784672
_cell_length_b 14.187819
_cell_length_c 8.137422
_cell_angle_alpha 90.000000
_cell_angle_beta 43.774620
_cell_angle_gamma 90.000000
_cell_volume 1260.762498
_symmetry_space_group_name_H-M "P 21/M"
_symmetry_group_IT_number 11
_symmetry_cell_setting 'monoclinic'
loop_
_space_group_symop_operation_xyz
x,y,z
-x,1/2+y,-z
-x,-y,-z
x,1/2-y,z
loop_
_atom_site_type_symbol
_atom_site_label
_atom_site_fract_x
_atom_site_fract_y
_atom_site_fract_z
Si Si1 0.418057 0.359385 0.382428
Si Si2 0.971194 0.525962 0.291011
Si Si3 0.079788 0.855843 0.397674
Si Si4 0.208658 0.014395 0.756064
Si Si5 0.356525 0.144892 0.076573
Si Si6 0.326295 0.938227 0.049392
Si Si7 0.360704 0.641715 0.369543
O O1 0.438350 0.250000 0.391974
O O2 0.310533 0.405877 0.639159
O O3 0.377080 0.364624 0.246162
O O4 0.544987 0.416219 0.217505
O O5 0.983083 0.613971 0.395487
O O6 0.932830 0.432569 0.441960
O O7 0.874879 0.543188 0.283012
O O8 0.106833 0.505145 0.033542
O O9 0.064831 0.750000 0.475038
O O10 0.216641 0.873882 0.138174
O O11 0.284403 0.921061 0.601971
O O12 0.304892 0.250000 0.117652
O O13 0.493470 0.142038 0.807713
O O14 0.294648 0.049250 0.098684
O O15 0.344842 0.905036 0.212292
O O16 0.318769 0.750000 0.423130
#
# Coordination Sequence:
#
# PCOD9155994 Si02
#       7
#     4   4   4   4   4   4   4
#     4  10  18  29  53  87 117 151 190 243 306 353
#     4  10  25  40  60  86 116 160 202 249 298 347
#     4  11  23  43  63  83 115 162 208 242 289 363
#     4  11  20  39  59  88 125 148 193 260 303 352
#     4   9  16  27  50  87 124 152 189 236 292 351
#     4  11  17  33  57  86 119 152 200 244 292 355
#     4  10  17  28  54  87 118 154 191 241 299 349
#
# _framework density 22.208784000000001
#
# number of rings (size 3 to 8) (size 9 to 14) (size 15 to 20)
#    0.000    1.714    4.286    3.000    0.000    1.714 
#    0.000    7.857    0.000    0.000    0.000    0.000 
#    0.000    0.000    0.000    0.000    0.000    0.000 
#
# Total GULP energy -156513.875763 kJ/mol
# GULP energy per Si atom -5589.781277 kJ/mol
# Density = 2.215824 g / cm^3
# Si number density = 22.208784 Si / 1000 Ang^3
#
#
#
# Elastic Constant Matrix: (Units=GPa)
#
#
# Indices 1 2 3 4 5 6 
#
# 1 18.6451 10.9017 4.1144 0.0000 3.6965 0.0000
# 2 10.9017 135.6060 4.9417 0.0000 -17.6189 0.0000
# 3 4.1144 4.9417 83.2399 0.0000 -34.3716 0.0000
# 4 0.0000 0.0000 0.0000 11.8638 0.0000 -10.1597
# 5 3.6965 -17.6189 -34.3716 0.0000 11.7958 0.0000
# 6 0.0000 0.0000 0.0000 -10.1597 0.0000 9.1524
#
#
#
# Elastic Compliance Matrix: (Units=1/GPa)
#
#
# Indices 1 2 3 4 5 6 
#
# 1 0.035628 0.003676 0.021270 0.000000 0.056303 0.000000
# 2 0.003676 0.004607 -0.009401 0.000000 -0.021664 0.000000
# 3 0.021270 -0.009401 -0.014615 0.000000 -0.063293 0.000000
# 4 0.000000 0.000000 0.000000 1.706756 0.000000 1.894607
# 5 0.056303 -0.021664 -0.063293 0.000000 -0.149655 0.000000
# 6 0.000000 0.000000 0.000000 1.894607 0.000000 2.212394
#
#
# Mechanical properties :
#
#
# Convention : Reuss Voigt Hill
#
# Bulk Modulus (GPa) = 17.63365 30.82295 24.22830
# Shear Modulus (GPa) = 1.32173 21.06461 11.19317
#
# Velocity S-wave (km/s) = 0.77229 3.08308 2.24742
# Velocity P-wave (km/s) = 2.95845 5.15584 4.20328
#
# Compressibility (1/GPa) = 0.05670976
#
# Stress axis : x y z
#
# Youngs Moduli (GPa) = 28.06760 217.08000 -68.42432
#
# Poissons Ratio (x) = -0.79798 1.45536
# Poissons Ratio (y) = -0.10318 -0.64324
# Poissons Ratio (z) = -0.59699 2.04072
#
# Static dielectric constant tensor:
#      x y z
#    x 1.842420 0.000000 -0.000300 
#    y 0.000000 1.780080 0.000000 
#    z -0.000300 0.000000 1.833290 
# 
# From -- ./inp_files/24937.got.cif
#   From: 2010.05.17/outbox.cif.g08.bks.cpg/sg11_13_cif.got.tgz:24937.got - 2010.06.03 12:22:45.
