data_PCOD9155011
_publ_section_title
;
Structure prediction by ZEFSAII (Michael W. Deem and Ramdas Pophale) SiO2 
 PCOD9155011
Probable space group: P 2/M
;
_chemical_formula_sum "Si O2"
_cell_formula_units_Z 24
_cell_length_a 9.927206
_cell_length_b 14.335391
_cell_length_c 19.479126
_cell_angle_alpha 90.000000
_cell_angle_beta 156.776322
_cell_angle_gamma 90.000000
_cell_volume 1093.092061
_symmetry_space_group_name_H-M "P 2/M"
_symmetry_group_IT_number 10
_symmetry_cell_setting 'monoclinic'
loop_
_space_group_symop_operation_xyz
x,y,z
-x,y,-z
-x,-y,-z
x,-y,z
loop_
_atom_site_type_symbol
_atom_site_label
_atom_site_fract_x
_atom_site_fract_y
_atom_site_fract_z
Si Si1 0.860368 0.101855 0.011788
Si Si2 0.153834 0.894451 0.292765
Si Si3 0.596794 0.607834 0.334876
Si Si4 0.116059 0.691071 0.841954
Si Si5 0.418838 0.702963 0.118881
Si Si6 0.879967 0.610648 0.603640
O O1 0.596849 0.185838 0.895834
O O2 0.699166 0.000000 0.945209
O O3 0.000000 0.108042 0.000000
O O4 0.153200 0.107831 0.208289
O O5 0.500000 0.884997 0.500000
O O6 0.939835 0.799993 0.204295
O O7 0.021648 0.000000 0.247372
O O8 0.483183 0.500000 0.277179
O O9 0.395560 0.670089 0.186174
O O10 0.000000 0.608816 0.500000
O O11 0.608512 0.641204 0.419140
O O12 0.859951 0.634078 0.674344
O O13 0.500000 0.664521 0.000000
O O14 0.127032 0.672246 0.928441
O O15 0.772990 0.661035 0.258153
O O16 0.915195 0.500000 0.611839
#
# Coordination Sequence:
#
# PCOD9155011 Si02
#       6
#     4   4   4   4   4   4
#     4   9  18  32  48  66  89 120 159 199 238 281
#     4   9  18  33  51  70  95 128 163 197 235 283
#     4   8  14  25  42  63  87 116 147 180 222 271
#     4   9  18  29  45  73 100 124 156 196 241 282
#     4   9  16  27  45  67  91 119 153 193 237 278
#     4   9  17  29  46  69  96 125 155 190 236 287
#
# _framework density 21.956064000000001
#
# number of rings (size 3 to 8) (size 9 to 14) (size 15 to 20)
#    0.000    3.167    0.000    1.500    0.000    5.333 
#    0.000    2.500    0.000    7.000    0.000    2.333 
#    0.000    0.000    0.000    0.000    0.000    0.000 
#
# Total GULP energy -133612.020195 kJ/mol
# GULP energy per Si atom -5567.167508 kJ/mol
# Density = 2.190609 g / cm^3
# Si number density = 21.956064 Si / 1000 Ang^3
#
#
#
# Elastic Constant Matrix: (Units=GPa)
#
#
# Indices 1 2 3 4 5 6 
#
# 1 75.4587 15.6724 60.6461 0.0000 -46.5096 0.0000
# 2 15.6724 76.8464 75.2442 0.0000 -34.6585 0.0000
# 3 60.6461 75.2442 162.0980 0.0000 -46.6048 0.0000
# 4 0.0000 0.0000 0.0000 37.6240 0.0000 -4.8290
# 5 -46.5096 -34.6585 -46.6048 0.0000 54.7489 0.0000
# 6 0.0000 0.0000 0.0000 -4.8290 0.0000 31.8371
#
#
#
# Elastic Compliance Matrix: (Units=1/GPa)
#
#
# Indices 1 2 3 4 5 6 
#
# 1 0.050132 0.028683 -0.019338 0.000000 0.044283 0.000000
# 2 0.028683 0.042855 -0.020945 0.000000 0.033667 0.000000
# 3 -0.019338 -0.020945 0.019320 0.000000 -0.013242 0.000000
# 4 0.000000 0.000000 0.000000 0.027106 0.000000 0.004111
# 5 0.044283 0.033667 -0.013242 0.000000 0.065925 0.000000
# 6 0.000000 0.000000 0.000000 0.004111 0.000000 0.032033
#
#
# Mechanical properties :
#
#
# Convention : Reuss Voigt Hill
#
# Bulk Modulus (GPa) = 11.22250 68.61426 39.91838
# Shear Modulus (GPa) = 17.22513 35.69804 26.46159
#
# Velocity S-wave (km/s) = 2.80398 4.03660 3.47537
# Velocity P-wave (km/s) = 3.95038 7.28314 5.85874
#
# Compressibility (1/GPa) = 0.08910670
#
# Stress axis : x y z
#
# Youngs Moduli (GPa) = 19.94753 23.33428 51.76109
#
# Poissons Ratio (x) = -0.66931 1.00098
# Poissons Ratio (y) = -0.57216 1.08413
# Poissons Ratio (z) = 0.38575 0.48873
#
# Static dielectric constant tensor:
#      x y z
#    x 1.910870 0.000000 -0.056100 
#    y 0.000000 1.785270 0.000000 
#    z -0.056100 0.000000 1.817430 
# 
# From -- ./inp_files/84155.got.cif
#   From: 2010.05.17/outbox.cif.g08.bks.cpg/sg10_43_cif.got.tgz:84155.got - 2010.06.03 11:33:40.
