data_PCOD9155092
_publ_section_title
;
Structure prediction by ZEFSAII (Michael W. Deem and Ramdas Pophale) SiO2 
 PCOD9155092
Probable space group: P 2/M
;
_chemical_formula_sum "Si O2"
_cell_formula_units_Z 30
_cell_length_a 15.000000
_cell_length_b 9.000000
_cell_length_c 12.000000
_cell_angle_alpha 90.000000
_cell_angle_beta 110.000000
_cell_angle_gamma 90.000000
_cell_volume 1522.302046
_symmetry_space_group_name_H-M "P 2/M"
_symmetry_group_IT_number 10
_symmetry_cell_setting 'monoclinic'
loop_
_space_group_symop_operation_xyz
x,y,z
-x,y,-z
-x,-y,-z
x,-y,z
loop_
_atom_site_type_symbol
_atom_site_label
_atom_site_fract_x
_atom_site_fract_y
_atom_site_fract_z
Si Si1 0.000000 0.747134 0.000000
Si Si2 0.928970 0.170050 0.729536
Si Si3 0.293145 0.178929 0.658425
Si Si4 0.640596 0.677939 0.781801
Si Si5 0.195051 0.667234 0.980434
Si Si6 0.716034 0.179918 0.598978
Si Si7 0.124804 0.821061 0.732358
Si Si8 0.462788 0.678044 0.862167
O O1 0.037534 0.830000 0.126921
O O2 0.092845 0.662672 0.996700
O O3 0.824096 0.234349 0.670346
O O4 0.017276 0.237975 0.698956
O O5 0.919674 0.000000 0.687128
O O6 0.310506 0.223974 0.538131
O O7 0.186751 0.220733 0.652034
O O8 0.367651 0.247170 0.776523
O O9 0.299745 0.000000 0.666355
O O10 0.648549 0.500000 0.771194
O O11 0.727617 0.725636 0.899342
O O12 0.650201 0.754861 0.667031
O O13 0.544553 0.710176 0.806888
O O14 0.223815 0.500000 0.959971
O O15 0.181140 0.765916 0.865487
O O16 0.713947 0.000000 0.605066
O O17 0.119390 0.000000 0.734089
O O18 0.448938 0.500000 0.861829
O O19 0.500000 0.726312 0.000000
#
# Coordination Sequence:
#
# PCOD9155092 Si02
#       8
#     2   4   4   4   4   4   4   4
#     4  10  16  28  50  78 109 146 181 222 273 320
#     4   9  17  30  51  80 112 148 188 225 267 323
#     4  10  22  39  58  82 113 145 186 233 279 325
#     4  10  21  37  56  82 112 145 183 225 274 331
#     4  10  19  31  51  80 111 141 178 226 277 327
#     4  10  21  37  56  81 114 153 186 222 272 328
#     4   9  19  34  53  79 109 146 187 231 274 323
#     4  10  22  41  65  86 108 141 183 229 280 334
#
# _framework density 19.706996
#
# number of rings (size 3 to 8) (size 9 to 14) (size 15 to 20)
#    0.000    2.267    1.333    1.200    0.000    5.067 
#    0.000    5.333    0.000    0.000    0.000    3.733 
#    0.000    0.000    0.000    0.000    0.000    0.000 
#
# Total GULP energy -167287.364080 kJ/mol
# GULP energy per Si atom -5576.245469 kJ/mol
# Density = 1.966214 g / cm^3
# Si number density = 19.706996 Si / 1000 Ang^3
#
#
#
# Elastic Constant Matrix: (Units=GPa)
#
#
# Indices 1 2 3 4 5 6 
#
# 1 89.4451 22.2677 39.1215 0.0000 -17.2772 0.0000
# 2 22.2677 10.0681 11.9273 0.0000 -7.4069 0.0000
# 3 39.1215 11.9273 75.3125 0.0000 -14.5322 0.0000
# 4 0.0000 0.0000 0.0000 17.6933 0.0000 -1.4518
# 5 -17.2772 -7.4069 -14.5322 0.0000 32.4631 0.0000
# 6 0.0000 0.0000 0.0000 -1.4518 0.0000 18.2839
#
#
#
# Elastic Compliance Matrix: (Units=1/GPa)
#
#
# Indices 1 2 3 4 5 6 
#
# 1 0.026639 -0.052537 -0.005577 0.000000 -0.000306 0.000000
# 2 -0.052537 0.240591 -0.006146 0.000000 0.024182 0.000000
# 3 -0.005577 -0.006146 0.017846 0.000000 0.003619 0.000000
# 4 0.000000 0.000000 0.000000 0.056889 0.000000 0.004517
# 5 -0.000306 0.024182 0.003619 0.000000 0.037779 0.000000
# 6 0.000000 0.000000 0.000000 0.004517 0.000000 0.055052
#
#
# Mechanical properties :
#
#
# Convention : Reuss Voigt Hill
#
# Bulk Modulus (GPa) = 6.38740 35.71762 21.05251
# Shear Modulus (GPa) = 8.12347 20.45536 14.28941
#
# Velocity S-wave (km/s) = 2.03250 3.22526 2.69568
# Velocity P-wave (km/s) = 2.95911 5.65980 4.51607
#
# Compressibility (1/GPa) = 0.15655812
#
# Stress axis : x y z
#
# Youngs Moduli (GPa) = 37.53848 4.15643 56.03361
#
# Poissons Ratio (x) = 0.21837 0.31248
# Poissons Ratio (y) = 1.97215 0.34437
# Poissons Ratio (z) = 0.20934 0.02554
#
# Static dielectric constant tensor:
#      x y z
#    x 1.731110 0.000000 -0.005980 
#    y 0.000000 1.682390 0.000000 
#    z -0.005980 0.000000 1.669640 
# 
# From -- ./inp_files/49992.got.cif
#   From: 2010.05.17/outbox.ucp.g08.bks.cvg/sg10_25_cif.got.tgz:49992.got - 2010.06.11 11:31:16.
