data_PCOD9155095
_publ_section_title
;
Structure prediction by ZEFSAII (Michael W. Deem and Ramdas Pophale) SiO2 
 PCOD9155095
Probable space group: P 2/M
;
_chemical_formula_sum "Si O2"
_cell_formula_units_Z 32
_cell_length_a 30.000000
_cell_length_b 9.000000
_cell_length_c 21.000000
_cell_angle_alpha 90.000000
_cell_angle_beta 160.000000
_cell_angle_gamma 90.000000
_cell_volume 1939.254213
_symmetry_space_group_name_H-M "P 2/M"
_symmetry_group_IT_number 10
_symmetry_cell_setting 'monoclinic'
loop_
_space_group_symop_operation_xyz
x,y,z
-x,y,-z
-x,-y,-z
x,-y,z
loop_
_atom_site_type_symbol
_atom_site_label
_atom_site_fract_x
_atom_site_fract_y
_atom_site_fract_z
Si Si1 0.307103 0.821308 0.196054
Si Si2 0.624040 0.327681 0.118108
Si Si3 0.332195 0.180578 0.502856
Si Si4 0.461648 0.177244 0.800432
Si Si5 0.038083 0.178491 0.123537
Si Si6 0.773683 0.320662 0.436640
Si Si7 0.950881 0.676708 0.132754
Si Si8 0.584302 0.180416 0.521219
O O1 0.346349 0.773419 0.320607
O O2 0.431936 0.782545 0.321267
O O3 0.292461 0.000000 0.176210
O O4 0.173726 0.743807 0.999713
O O5 0.637679 0.500000 0.119131
O O6 0.744250 0.280356 0.323705
O O7 0.500000 0.316808 0.000000
O O8 0.586476 0.236149 0.005690
O O9 0.441744 0.224383 0.700576
O O10 0.188980 0.222223 0.334567
O O11 0.354238 0.236496 0.461295
O O12 0.331883 0.000000 0.499446
O O13 0.335540 0.241883 0.667488
O O14 0.458266 0.000000 0.799167
O O15 0.957426 0.255868 0.070534
O O16 0.023899 0.000000 0.111164
O O17 0.000000 0.215548 0.000000
O O18 0.755753 0.500000 0.417539
O O19 0.915793 0.281876 0.652480
O O20 0.943125 0.500000 0.118910
O O21 0.592398 0.000000 0.532230
#
# Coordination Sequence:
#
# PCOD9155095 Si02
#       8
#     4   4   4   4   4   4   4   4
#     4   9  17  31  52  70  85 113 157 197 225 261
#     4   8  15  28  43  57  81 118 154 179 212 264
#     4   9  16  26  42  67  94 116 143 184 228 265
#     4  10  17  25  41  66  92 115 143 184 227 263
#     4  10  19  31  47  65  89 123 157 183 214 266
#     4   9  18  31  43  58  86 125 154 176 213 268
#     4  11  21  31  45  66  95 123 149 185 229 269
#     4   8  15  30  50  69  87 114 153 192 227 267
#
# _framework density 16.501189
#
# number of rings (size 3 to 8) (size 9 to 14) (size 15 to 20)
#    0.000    2.750    1.250    3.000    0.000    5.000 
#    0.000    1.250    0.000    3.000    0.000    0.875 
#    0.000    7.000    0.000    0.000    0.000    0.000 
#
# Total GULP energy -178185.547871 kJ/mol
# GULP energy per Si atom -5568.298371 kJ/mol
# Density = 1.646363 g / cm^3
# Si number density = 16.501189 Si / 1000 Ang^3
#
#
#
# Elastic Constant Matrix: (Units=GPa)
#
#
# Indices 1 2 3 4 5 6 
#
# 1 15.0106 1.1250 3.8284 0.0000 3.9373 0.0000
# 2 1.1250 8.6515 16.8658 0.0000 -1.4606 0.0000
# 3 3.8284 16.8658 62.4342 0.0000 -2.3359 0.0000
# 4 0.0000 0.0000 0.0000 21.5091 0.0000 -6.1030
# 5 3.9373 -1.4606 -2.3359 0.0000 21.3968 0.0000
# 6 0.0000 0.0000 0.0000 -6.1030 0.0000 -13.6746
#
#
#
# Elastic Compliance Matrix: (Units=1/GPa)
#
#
# Indices 1 2 3 4 5 6 
#
# 1 0.071535 -0.004396 -0.003718 0.000000 -0.013869 0.000000
# 2 -0.004396 0.246386 -0.065898 0.000000 0.010434 0.000000
# 3 -0.003718 -0.065898 0.034043 0.000000 -0.000098 0.000000
# 4 0.000000 0.000000 0.000000 0.041266 0.000000 -0.018417
# 5 -0.013869 0.010434 -0.000098 0.000000 0.049990 0.000000
# 6 0.000000 0.000000 0.000000 -0.018417 0.000000 -0.064909
#
#
# Mechanical properties :
#
#
# Convention : Reuss Voigt Hill
#
# Bulk Modulus (GPa) = 4.90338 14.41496 9.65917
# Shear Modulus (GPa) = 8.41304 10.13141 9.27223
#
# Velocity S-wave (km/s) = 2.26042 2.48055 2.37304
# Velocity P-wave (km/s) = 3.12900 4.11811 3.65715
#
# Compressibility (1/GPa) = 0.20394077
#
# Stress axis : x y z
#
# Youngs Moduli (GPa) = 13.97910 4.05867 29.37492
#
# Poissons Ratio (x) = 0.01784 0.10921
# Poissons Ratio (y) = 0.06145 1.93575
# Poissons Ratio (z) = 0.05197 0.26746
#
# Static dielectric constant tensor:
#      x y z
#    x 1.547680 0.000000 -0.022560 
#    y 0.000000 1.551700 0.000000 
#    z -0.022560 0.000000 1.594630 
# 
# From -- ./inp_files/54856.got.cif
#   From: 2010.05.17/outbox.ucp.g08.bks.cvg/sg10_28_cif.got.tgz:54856.got - 2010.06.11 11:31:16.
