data_PCOD9155415
_publ_section_title
;
Structure prediction by ZEFSAII (Michael W. Deem and Ramdas Pophale) SiO2 
 PCOD9155415
Probable space group: P 2/M
;
_chemical_formula_sum "Si O2"
_cell_formula_units_Z 32
_cell_length_a 24.000000
_cell_length_b 9.000000
_cell_length_c 15.000000
_cell_angle_alpha 90.000000
_cell_angle_beta 150.000000
_cell_angle_gamma 90.000000
_cell_volume 1620.000000
_symmetry_space_group_name_H-M "P 2/M"
_symmetry_group_IT_number 10
_symmetry_cell_setting 'monoclinic'
loop_
_space_group_symop_operation_xyz
x,y,z
-x,y,-z
-x,-y,-z
x,-y,z
loop_
_atom_site_type_symbol
_atom_site_label
_atom_site_fract_x
_atom_site_fract_y
_atom_site_fract_z
Si Si1 0.180427 0.326731 0.195660
Si Si2 0.172133 0.819842 0.679592
Si Si3 0.572603 0.322388 0.516172
Si Si4 0.079308 0.821884 0.733740
Si Si5 0.005575 0.327532 0.800315
Si Si6 0.599548 0.174077 0.076193
Si Si7 0.445959 0.172519 0.697538
Si Si8 0.204587 0.824389 0.415388
O O1 0.189559 0.500000 0.238426
O O2 0.293866 0.292600 0.297629
O O3 0.174134 0.221293 0.272111
O O4 0.072188 0.313958 0.985109
O O5 0.162873 0.772494 0.770792
O O6 0.275550 0.763402 0.763567
O O7 0.048838 0.788050 0.472145
O O8 0.182941 0.000000 0.695556
O O9 0.500000 0.266625 0.500000
O O10 0.559295 0.500000 0.495668
O O11 0.537105 0.258538 0.370858
O O12 0.085313 0.745602 0.837104
O O13 0.088676 0.000000 0.754436
O O14 0.990381 0.500000 0.758367
O O15 0.885438 0.251512 0.645533
O O16 0.611598 0.000000 0.121922
O O17 0.500000 0.237809 0.000000
O O18 0.549091 0.178511 0.906902
O O19 0.334902 0.222462 0.598253
O O20 0.424924 0.000000 0.645351
O O21 0.198136 0.000000 0.421629
#
# Coordination Sequence:
#
# PCOD9155415 Si02
#       8
#     4   4   4   4   4   4   4   4
#     4   9  19  35  50  69 101 135 168 205 247 301
#     4   8  16  32  52  74 103 135 167 207 256 304
#     4   9  18  34  55  74  97 136 175 204 247 307
#     4   9  18  33  53  76 101 132 170 211 253 298
#     4  11  22  33  49  74 101 133 170 205 249 303
#     4   9  17  29  51  80 107 135 169 209 257 310
#     4   9  19  33  50  78 105 130 168 213 259 302
#     4  10  20  33  51  74 102 131 166 210 254 298
#
# _framework density 19.753086
#
# number of rings (size 3 to 8) (size 9 to 14) (size 15 to 20)
#    0.000    2.750    0.000    1.875    1.750    4.250 
#    0.000    1.250    0.000    1.125    0.000    0.000 
#    0.000    0.000    0.000    0.000    0.000    0.000 
#
# Total GULP energy -178322.915015 kJ/mol
# GULP energy per Si atom -5572.591094 kJ/mol
# Density = 1.970813 g / cm^3
# Si number density = 19.753086 Si / 1000 Ang^3
#
#
#
# Elastic Constant Matrix: (Units=GPa)
#
#
# Indices 1 2 3 4 5 6 
#
# 1 104.9319 12.5091 15.4979 0.0000 24.8671 0.0000
# 2 12.5091 13.6641 13.6651 0.0000 0.2856 0.0000
# 3 15.4979 13.6651 38.5016 0.0000 7.3767 0.0000
# 4 0.0000 0.0000 0.0000 15.2395 0.0000 -12.9400
# 5 24.8671 0.2856 7.3767 0.0000 27.9738 0.0000
# 6 0.0000 0.0000 0.0000 -12.9400 0.0000 70.0309
#
#
#
# Elastic Compliance Matrix: (Units=1/GPa)
#
#
# Indices 1 2 3 4 5 6 
#
# 1 0.014011 -0.014535 0.001977 0.000000 -0.012828 0.000000
# 2 -0.014535 0.131234 -0.045231 0.000000 0.023509 0.000000
# 3 0.001977 -0.045231 0.043686 0.000000 -0.012816 0.000000
# 4 0.000000 0.000000 0.000000 0.077830 0.000000 0.014381
# 5 -0.012828 0.023509 -0.012816 0.000000 0.050290 0.000000
# 6 0.000000 0.000000 0.000000 0.014381 0.000000 0.016937
#
#
# Mechanical properties :
#
#
# Convention : Reuss Voigt Hill
#
# Bulk Modulus (GPa) = 13.63292 26.71574 20.17433
# Shear Modulus (GPa) = 10.54811 30.34387 20.44599
#
# Velocity S-wave (km/s) = 2.31335 3.92364 3.22075
# Velocity P-wave (km/s) = 3.74861 5.83788 4.90575
#
# Compressibility (1/GPa) = 0.07335188
#
# Stress axis : x y z
#
# Youngs Moduli (GPa) = 71.37380 7.61995 22.89058
#
# Poissons Ratio (x) = 0.11076 -0.04525
# Poissons Ratio (y) = 1.03745 1.03537
# Poissons Ratio (z) = -0.14111 0.34466
#
# Static dielectric constant tensor:
#      x y z
#    x 1.727520 0.000000 -0.001690 
#    y 0.000000 1.665980 0.000000 
#    z -0.001690 0.000000 1.750730 
# 
# From -- ./inp_files/71596.got.cif
#   From: 2010.05.17/outbox.ucp.g08.bks.cvg/sg10_36_cif.got.tgz:71596.got - 2010.06.11 11:31:16.
