data_PCOD9155730
_publ_section_title
;
Structure prediction by ZEFSAII (Michael W. Deem and Ramdas Pophale) SiO2 
 PCOD9155730
Probable space group: P 21/M
;
_chemical_formula_sum "Si O2"
_cell_formula_units_Z 32
_cell_length_a 7.326101
_cell_length_b 15.621561
_cell_length_c 16.653703
_cell_angle_alpha 90.000000
_cell_angle_beta 48.919837
_cell_angle_gamma 90.000000
_cell_volume 1436.676744
_symmetry_space_group_name_H-M "P 21/M"
_symmetry_group_IT_number 11
_symmetry_cell_setting 'monoclinic'
loop_
_space_group_symop_operation_xyz
x,y,z
-x,1/2+y,-z
-x,-y,-z
x,1/2-y,z
loop_
_atom_site_type_symbol
_atom_site_label
_atom_site_fract_x
_atom_site_fract_y
_atom_site_fract_z
Si Si1 0.661168 0.347953 0.746036
Si Si2 0.391877 0.511131 0.889677
Si Si3 0.223169 0.656303 0.725382
Si Si4 0.559041 0.901539 0.495812
Si Si5 0.325246 0.349019 0.278386
Si Si6 0.010793 0.493696 0.125017
Si Si7 0.010201 0.146403 0.511568
Si Si8 0.119802 0.344038 0.734463
O O1 0.568846 0.250000 0.770057
O O2 0.489008 0.419303 0.832628
O O3 0.758765 0.373940 0.628993
O O4 0.894741 0.346695 0.737286
O O5 0.591464 0.583307 0.812469
O O6 0.166505 0.531947 0.896486
O O7 0.275288 0.506149 0.011302
O O8 0.114882 0.750000 0.766417
O O9 0.340122 0.644564 0.604267
O O10 0.453932 0.650895 0.719755
O O11 0.035300 0.581831 0.798748
O O12 0.785586 0.894604 0.490988
O O13 0.645676 0.859160 0.388437
O O14 0.500000 0.000000 0.500000
O O15 0.299126 0.250000 0.259156
O O16 0.087589 0.376214 0.398590
O O17 0.918845 0.580984 0.191421
O O18 0.035600 0.250000 0.509861
O O19 0.126383 0.250000 0.769690
#
# Coordination Sequence:
#
# PCOD9155730 Si02
#       8
#     4   4   4   4   4   4   4   4
#     4   9  19  35  54  76 102 136 172 210 260 314
#     4  10  21  34  52  76 105 135 174 222 255 298
#     4   9  16  29  48  71 100 133 168 209 257 308
#     4  10  15  25  49  77 100 128 164 216 255 307
#     4   8  15  29  50  72  96 131 172 210 252 306
#     4  10  21  35  50  78 105 133 177 218 258 297
#     4   8  15  29  49  74 100 131 175 210 247 313
#     4  10  20  35  54  77 105 137 173 211 256 314
#
# _framework density 22.273624999999999
#
# number of rings (size 3 to 8) (size 9 to 14) (size 15 to 20)
#    0.000    2.750    1.250    2.625    0.000    2.500 
#    0.000    2.500    0.000    0.750    0.000    0.000 
#    0.000    0.000    0.000    0.000    0.000    0.000 
#
# Total GULP energy -178709.622044 kJ/mol
# GULP energy per Si atom -5584.675689 kJ/mol
# Density = 2.222293 g / cm^3
# Si number density = 22.273625 Si / 1000 Ang^3
#
#
#
# Elastic Constant Matrix: (Units=GPa)
#
#
# Indices 1 2 3 4 5 6 
#
# 1 66.5444 -22.9332 -15.6536 0.0000 -1.0107 0.0000
# 2 -22.9332 117.2406 70.1588 0.0000 19.9006 0.0000
# 3 -15.6536 70.1588 151.7955 0.0000 45.5199 0.0000
# 4 0.0000 0.0000 0.0000 -19.7471 0.0000 -17.4830
# 5 -1.0107 19.9006 45.5199 0.0000 -33.0473 0.0000
# 6 0.0000 0.0000 0.0000 -17.4830 0.0000 5.4204
#
#
#
# Elastic Compliance Matrix: (Units=1/GPa)
#
#
# Indices 1 2 3 4 5 6 
#
# 1 0.016056 0.002988 -0.000083 0.000000 0.001194 0.000000
# 2 0.002988 0.012343 -0.005377 0.000000 -0.000065 0.000000
# 3 -0.000083 -0.005377 0.007101 0.000000 0.006546 0.000000
# 4 0.000000 0.000000 0.000000 -0.013134 0.000000 -0.042363
# 5 0.001194 -0.000065 0.006546 0.000000 -0.021319 0.000000
# 6 0.000000 0.000000 0.000000 -0.042363 0.000000 0.047850
#
#
# Mechanical properties :
#
#
# Convention : Reuss Voigt Hill
#
# Bulk Modulus (GPa) = 32.72774 44.30273 38.51524
# Shear Modulus (GPa) = 78.09251 10.79241 44.44246
#
# Velocity S-wave (km/s) = 5.92762 2.20361 4.47172
# Velocity P-wave (km/s) = 7.84693 5.13886 6.63258
#
# Compressibility (1/GPa) = 0.03055512
#
# Stress axis : x y z
#
# Youngs Moduli (GPa) = 62.28275 81.01967 140.81678
#
# Poissons Ratio (x) = -0.24207 0.01171
# Poissons Ratio (y) = -0.18609 0.75718
# Poissons Ratio (z) = 0.00518 0.43565
#
# Static dielectric constant tensor:
#      x y z
#    x 1.882700 0.000000 -0.005170 
#    y 0.000000 1.767190 0.000000 
#    z -0.005170 0.000000 1.824760 
# 
# From -- ./inp_files/63800.got.cif
#   From: 2010.05.17/outbox.cif.g08.bks.cpg/sg11_32_cif.got.tgz:63800.got - 2010.06.03 12:22:45.
