data_PCOD9155926
_publ_section_title
;
Structure prediction by ZEFSAII (Michael W. Deem and Ramdas Pophale) SiO2 
 PCOD9155926
Probable space group: P 21/M
;
_chemical_formula_sum "Si O2"
_cell_formula_units_Z 20
_cell_length_a 10.190605
_cell_length_b 7.418371
_cell_length_c 28.655030
_cell_angle_alpha 90.000000
_cell_angle_beta 27.228566
_cell_angle_gamma 90.000000
_cell_volume 991.150703
_symmetry_space_group_name_H-M "P 21/M"
_symmetry_group_IT_number 11
_symmetry_cell_setting 'monoclinic'
loop_
_space_group_symop_operation_xyz
x,y,z
-x,1/2+y,-z
-x,-y,-z
x,1/2-y,z
loop_
_atom_site_type_symbol
_atom_site_label
_atom_site_fract_x
_atom_site_fract_y
_atom_site_fract_z
Si Si1 0.298479 0.964830 0.380587
Si Si2 0.089802 0.029531 0.779038
Si Si3 0.109986 0.967709 0.055940
Si Si4 0.484335 0.529529 0.221140
Si Si5 0.702347 0.457946 0.819080
O O1 0.330724 0.750000 0.367686
O O2 0.580733 0.029186 0.319011
O O3 0.323773 0.029195 0.319124
O O4 0.000000 0.000000 0.500000
O O5 0.083320 0.250000 0.780241
O O6 0.926716 0.977287 0.878370
O O7 0.930915 0.963206 0.783087
O O8 0.122976 0.750000 0.050742
O O9 0.818015 0.022706 0.121741
O O10 0.395142 0.038066 0.941873
O O11 0.483829 0.750000 0.219950
O O12 0.345552 0.463210 0.217147
O O13 0.787867 0.250000 0.784898
#
# Coordination Sequence:
#
# PCOD9155926 Si02
#       5
#     4   4   4   4   4
#     4   9  17  33  51  64  80 109 144 179 216 258
#     4   8  16  29  45  63  87 116 144 170 209 258
#     4   9  16  28  43  62  90 122 144 167 205 248
#     4   8  16  29  45  63  87 116 144 170 209 258
#     4  10  17  27  44  66  88 115 146 174 202 246
#
# _framework density 20.178566
#
# number of rings (size 3 to 8) (size 9 to 14) (size 15 to 20)
#    0.000    3.200    0.000    3.600    0.000    0.000 
#    0.000    7.000    0.000    0.000    0.000    0.000 
#    0.000    0.000    0.000    0.000    0.000    0.000 
#
# Total GULP energy -111572.461148 kJ/mol
# GULP energy per Si atom -5578.623057 kJ/mol
# Density = 2.013264 g / cm^3
# Si number density = 20.178566 Si / 1000 Ang^3
#
#
#
# Elastic Constant Matrix: (Units=GPa)
#
#
# Indices 1 2 3 4 5 6 
#
# 1 241.6459 9.5815 91.3429 0.0000 -4.7299 0.0000
# 2 9.5815 63.8103 -8.2502 0.0000 -0.6147 0.0000
# 3 91.3429 -8.2502 127.3957 0.0000 1.4084 0.0000
# 4 0.0000 0.0000 0.0000 22.6463 0.0000 1.0425
# 5 -4.7299 -0.6147 1.4084 0.0000 2.4258 0.0000
# 6 0.0000 0.0000 0.0000 1.0425 0.0000 -7.3464
#
#
#
# Elastic Compliance Matrix: (Units=1/GPa)
#
#
# Indices 1 2 3 4 5 6 
#
# 1 0.006279 -0.001417 -0.004755 0.000000 0.014644 0.000000
# 2 -0.001417 0.016152 0.002060 0.000000 0.000135 0.000000
# 3 -0.004755 0.002060 0.011564 0.000000 -0.015464 0.000000
# 4 0.000000 0.000000 0.000000 0.043871 0.000000 0.006225
# 5 0.014644 0.000135 -0.015464 0.000000 0.449800 0.000000
# 6 0.000000 0.000000 0.000000 0.006225 0.000000 -0.135237
#
#
# Mechanical properties :
#
#
# Convention : Reuss Voigt Hill
#
# Bulk Modulus (GPa) = 38.80414 68.68892 53.74653
# Shear Modulus (GPa) = 12.21771 26.22364 19.22067
#
# Velocity S-wave (km/s) = 2.46332 3.60888 3.08966
# Velocity P-wave (km/s) = 5.23094 7.17494 6.27863
#
# Compressibility (1/GPa) = 0.02577045
#
# Stress axis : x y z
#
# Youngs Moduli (GPa) = 159.26942 61.91252 86.47828
#
# Poissons Ratio (x) = 0.08770 0.41124
# Poissons Ratio (y) = 0.22561 -0.17816
# Poissons Ratio (z) = 0.75740 -0.12755
#
# Static dielectric constant tensor:
#      x y z
#    x 1.736520 0.000000 -0.002250 
#    y 0.000000 1.760480 0.000000 
#    z -0.002250 0.000000 1.670710 
# 
# From -- ./inp_files/16311.got.cif
#   From: 2010.05.17/outbox.cif.g08.bks.cpg/sg11_9_cif.got.tgz:16311.got - 2010.06.03 12:22:45.
