data_PCOD9155162
_publ_section_title
;
Structure prediction by ZEFSAII (Michael W. Deem and Ramdas Pophale) SiO2 
 PCOD9155162
Probable space group: P 2/M
;
_chemical_formula_sum "Si O2"
_cell_formula_units_Z 30
_cell_length_a 30.000000
_cell_length_b 9.000000
_cell_length_c 12.000000
_cell_angle_alpha 90.000000
_cell_angle_beta 150.000000
_cell_angle_gamma 90.000000
_cell_volume 1620.000000
_symmetry_space_group_name_H-M "P 2/M"
_symmetry_group_IT_number 10
_symmetry_cell_setting 'monoclinic'
loop_
_space_group_symop_operation_xyz
x,y,z
-x,y,-z
-x,-y,-z
x,-y,z
loop_
_atom_site_type_symbol
_atom_site_label
_atom_site_fract_x
_atom_site_fract_y
_atom_site_fract_z
Si Si1 0.006161 0.822683 0.880569
Si Si2 0.162983 0.328839 0.603345
Si Si3 0.297788 0.330518 0.095535
Si Si4 0.688201 0.671100 0.266192
Si Si5 0.197021 0.676230 0.277127
Si Si6 0.517173 0.169340 0.791539
Si Si7 0.500000 0.255372 0.500000
Si Si8 0.682726 0.175677 0.636087
O O1 0.923350 0.760259 0.628098
O O2 0.008294 0.000000 0.871807
O O3 0.000000 0.789569 0.000000
O O4 0.100952 0.751026 0.056965
O O5 0.134437 0.500000 0.558349
O O6 0.235866 0.325137 0.663271
O O7 0.224136 0.286856 0.843015
O O8 0.275956 0.500000 0.083681
O O9 0.403166 0.335749 0.289779
O O10 0.298851 0.210255 0.195203
O O11 0.665681 0.500000 0.243044
O O12 0.739630 0.735591 0.485061
O O13 0.599476 0.743708 0.023207
O O14 0.185297 0.500000 0.268654
O O15 0.251402 0.718829 0.286585
O O16 0.509040 0.173651 0.638787
O O17 0.418730 0.220482 0.614330
O O18 0.528649 0.000000 0.851077
O O19 0.693666 0.000000 0.636694
#
# Coordination Sequence:
#
# PCOD9155162 Si02
#       8
#     4   4   4   4   4   4   2   4
#     4  11  23  38  60  91 119 150 189 236 293 351
#     4  10  20  37  58  88 122 152 189 239 292 343
#     4  10  20  35  59  87 117 154 196 239 286 340
#     4  10  21  36  57  87 119 151 192 240 291 340
#     4  11  23  41  64  85 113 154 196 242 290 345
#     4  10  21  35  54  82 118 160 198 236 288 343
#     4  10  18  32  54  86 118 154 196 242 284 334
#     4  10  23  41  58  82 119 159 198 240 286 345
#
# _framework density 18.518519000000001
#
# number of rings (size 3 to 8) (size 9 to 14) (size 15 to 20)
#    0.000    1.733    2.667    1.600    0.000    6.400 
#    0.000    3.333    0.000    4.000    0.000    0.000 
#    0.000    0.000    0.000    0.000    0.000    0.000 
#
# Total GULP energy -167021.170239 kJ/mol
# GULP energy per Si atom -5567.372341 kJ/mol
# Density = 1.847637 g / cm^3
# Si number density = 18.518519 Si / 1000 Ang^3
#
#
#
# Elastic Constant Matrix: (Units=GPa)
#
#
# Indices 1 2 3 4 5 6 
#
# 1 30.4810 6.1403 36.2693 0.0000 9.6298 0.0000
# 2 6.1403 30.7112 57.3530 0.0000 8.1401 0.0000
# 3 36.2693 57.3530 199.7071 0.0000 4.9256 0.0000
# 4 0.0000 0.0000 0.0000 18.5161 0.0000 -3.2412
# 5 9.6298 8.1401 4.9256 0.0000 25.4231 0.0000
# 6 0.0000 0.0000 0.0000 -3.2412 0.0000 13.1268
#
#
#
# Elastic Compliance Matrix: (Units=1/GPa)
#
#
# Indices 1 2 3 4 5 6 
#
# 1 0.057529 0.030481 -0.018512 0.000000 -0.027964 0.000000
# 2 0.030481 0.096455 -0.032344 0.000000 -0.036163 0.000000
# 3 -0.018512 -0.032344 0.017312 0.000000 0.014014 0.000000
# 4 0.000000 0.000000 0.000000 0.056447 0.000000 0.013938
# 5 -0.027964 -0.036163 0.014014 0.000000 0.058790 0.000000
# 6 0.000000 0.000000 0.000000 0.013938 0.000000 0.079621
#
#
# Mechanical properties :
#
#
# Convention : Reuss Voigt Hill
#
# Bulk Modulus (GPa) = 7.66016 51.15827 29.40921
# Shear Modulus (GPa) = 11.10073 22.15566 16.62819
#
# Velocity S-wave (km/s) = 2.45100 3.46266 2.99979
# Velocity P-wave (km/s) = 3.48645 6.60849 5.28335
#
# Compressibility (1/GPa) = 0.13054562
#
# Stress axis : x y z
#
# Youngs Moduli (GPa) = 17.38258 10.36750 57.76174
#
# Poissons Ratio (x) = -0.31601 1.06928
# Poissons Ratio (y) = -0.52983 1.86826
# Poissons Ratio (z) = 0.32178 0.33533
#
# Static dielectric constant tensor:
#      x y z
#    x 1.685750 0.000000 -0.016250 
#    y 0.000000 1.643090 0.000000 
#    z -0.016250 0.000000 1.663180 
# 
# From -- ./inp_files/58027.got.cif
#   From: 2010.05.17/outbox.ucp.g08.bks.cvg/sg10_30_cif.got.tgz:58027.got - 2010.06.11 11:31:16.
