data_PCOD9155916
_publ_section_title
;
Structure prediction by ZEFSAII (Michael W. Deem and Ramdas Pophale) SiO2 
 PCOD9155916
Probable space group: P 21/M
;
_chemical_formula_sum "Si O2"
_cell_formula_units_Z 28
_cell_length_a 14.618141
_cell_length_b 8.694746
_cell_length_c 22.903968
_cell_angle_alpha 90.000000
_cell_angle_beta 140.940217
_cell_angle_gamma 90.000000
_cell_volume 1834.385345
_symmetry_space_group_name_H-M "P 21/M"
_symmetry_group_IT_number 11
_symmetry_cell_setting 'monoclinic'
loop_
_space_group_symop_operation_xyz
x,y,z
-x,1/2+y,-z
-x,-y,-z
x,1/2-y,z
loop_
_atom_site_type_symbol
_atom_site_label
_atom_site_fract_x
_atom_site_fract_y
_atom_site_fract_z
Si Si1 0.842800 0.066085 0.704527
Si Si2 0.998949 0.434204 0.434690
Si Si3 0.548814 0.565740 0.586889
Si Si4 0.845067 0.065643 0.139504
Si Si5 0.751509 0.063481 0.224418
Si Si6 0.447344 0.065145 0.036357
Si Si7 0.759437 0.434872 0.529338
O O1 0.844150 0.250000 0.707879
O O2 0.812409 0.022267 0.621276
O O3 0.707965 0.002785 0.675357
O O4 0.997808 0.998414 0.798779
O O5 0.993808 0.250000 0.434651
O O6 0.858857 0.490361 0.328137
O O7 0.000000 0.500000 0.500000
O O8 0.139572 0.485806 0.467888
O O9 0.500000 0.500000 0.500000
O O10 0.557691 0.750000 0.588016
O O11 0.411868 0.526250 0.560057
O O12 0.844820 0.250000 0.138133
O O13 0.811215 0.015620 0.190060
O O14 0.712522 0.002967 0.034759
O O15 0.755781 0.250000 0.226356
O O16 0.581661 0.020525 0.144881
O O17 0.439198 0.250000 0.029842
O O18 0.500000 0.000000 0.000000
O O19 0.773355 0.250000 0.531392
#
# Coordination Sequence:
#
# PCOD9155916 Si02
#       7
#     4   4   4   4   4   4   4
#     4  10  18  27  42  65  90 117 149 180 215 261
#     4  11  21  33  47  64  85 115 152 191 226 261
#     4   9  17  28  42  61  86 114 146 180 217 263
#     4  10  17  27  42  63  88 117 148 177 216 263
#     4   8  16  29  43  58  81 113 146 180 222 262
#     4   9  16  27  41  60  83 111 145 179 217 263
#     4   9  18  31  44  61  84 113 148 185 222 259
#
# _framework density 15.263968
#
# number of rings (size 3 to 8) (size 9 to 14) (size 15 to 20)
#    0.000    2.571    1.429    3.857    0.000    2.857 
#    0.000    2.143    0.000    0.000    0.000    0.000 
#    0.000    1.143    0.000    3.429    0.000    4.571 
#
# Total GULP energy -155907.101731 kJ/mol
# GULP energy per Si atom -5568.110776 kJ/mol
# Density = 1.522923 g / cm^3
# Si number density = 15.263968 Si / 1000 Ang^3
#
#
#
# Elastic Constant Matrix: (Units=GPa)
#
#
# Indices 1 2 3 4 5 6 
#
# 1 79.7779 35.4759 67.1994 0.0000 28.9083 0.0000
# 2 35.4759 47.1220 32.8896 0.0000 14.9242 0.0000
# 3 67.1994 32.8896 107.1123 0.0000 36.6135 0.0000
# 4 0.0000 0.0000 0.0000 20.8270 0.0000 7.6052
# 5 28.9083 14.9242 36.6135 0.0000 34.6540 0.0000
# 6 0.0000 0.0000 0.0000 7.6052 0.0000 23.5964
#
#
#
# Elastic Compliance Matrix: (Units=1/GPa)
#
#
# Indices 1 2 3 4 5 6 
#
# 1 0.032516 -0.012372 -0.014323 0.000000 -0.006664 0.000000
# 2 -0.012372 0.032172 -0.001422 0.000000 -0.002032 0.000000
# 3 -0.014323 -0.001422 0.022642 0.000000 -0.011362 0.000000
# 4 0.000000 0.000000 0.000000 0.054419 0.000000 -0.017540
# 5 -0.006664 -0.002032 -0.011362 0.000000 0.047295 0.000000
# 6 0.000000 0.000000 0.000000 -0.017540 0.000000 0.048032
#
#
# Mechanical properties :
#
#
# Convention : Reuss Voigt Hill
#
# Bulk Modulus (GPa) = 32.15861 56.12688 44.14274
# Shear Modulus (GPa) = 16.46492 22.37862 19.42177
#
# Velocity S-wave (km/s) = 3.28789 3.83313 3.57093
# Velocity P-wave (km/s) = 5.96051 7.51274 6.78118
#
# Compressibility (1/GPa) = 0.03109587
#
# Stress axis : x y z
#
# Youngs Moduli (GPa) = 30.75447 31.08282 44.16547
#
# Poissons Ratio (x) = 0.38456 0.63257
# Poissons Ratio (y) = 0.38050 0.06281
# Poissons Ratio (z) = 0.44049 0.04420
#
# Static dielectric constant tensor:
#      x y z
#    x 1.494030 0.000000 0.038310 
#    y 0.000000 1.495890 0.000000 
#    z 0.038310 0.000000 1.523510 
# 
# From -- ./inp_files/48747.got.cif
#   From: 2010.05.17/outbox.cif.g08.bks.cpg/sg11_25_cif.got.tgz:48747.got - 2010.06.03 12:22:45.
