data_PCOD9155915
_publ_section_title
;
Structure prediction by ZEFSAII (Michael W. Deem and Ramdas Pophale) SiO2 
 PCOD9155915
Probable space group: P 21/M
;
_chemical_formula_sum "Si O2"
_cell_formula_units_Z 28
_cell_length_a 23.346992
_cell_length_b 8.587668
_cell_length_c 16.928024
_cell_angle_alpha 90.000000
_cell_angle_beta 148.576685
_cell_angle_gamma 90.000000
_cell_volume 1769.487862
_symmetry_space_group_name_H-M "P 21/M"
_symmetry_group_IT_number 11
_symmetry_cell_setting 'monoclinic'
loop_
_space_group_symop_operation_xyz
x,y,z
-x,1/2+y,-z
-x,-y,-z
x,1/2-y,z
loop_
_atom_site_type_symbol
_atom_site_label
_atom_site_fract_x
_atom_site_fract_y
_atom_site_fract_z
Si Si1 0.950815 0.933840 0.066084
Si Si2 0.159235 0.436250 0.216315
Si Si3 0.541588 0.062470 0.170038
Si Si4 0.925905 0.934399 0.650999
Si Si5 0.914056 0.437284 0.462120
Si Si6 0.283809 0.936867 0.499664
Si Si7 0.336528 0.937376 0.847819
O O1 0.948597 0.750000 0.079477
O O2 0.971343 0.023492 0.171445
O O3 0.851332 0.973436 0.889154
O O4 0.059102 0.974808 0.141755
O O5 0.142417 0.250000 0.204811
O O6 0.263686 0.487261 0.390448
O O7 0.538382 0.250000 0.165245
O O8 0.605977 0.014653 0.324626
O O9 0.614077 0.011774 0.179126
O O10 0.420019 0.999363 0.011927
O O11 0.909982 0.750000 0.631329
O O12 0.939191 0.999292 0.578994
O O13 0.818431 0.012155 0.564893
O O14 0.916673 0.250000 0.466983
O O15 0.789472 0.487217 0.293945
O O16 0.000000 0.500000 0.500000
O O17 0.281563 0.750000 0.490053
O O18 0.339164 0.750000 0.852070
#
# Coordination Sequence:
#
# PCOD9155915 Si02
#       7
#     4   4   4   4   4   4   4
#     4   9  16  26  39  55  82 116 147 184 223 261
#     4   9  16  24  36  58  84 114 150 182 217 265
#     4   9  17  29  45  66  90 118 151 185 224 270
#     4  11  20  29  44  64  85 116 155 188 224 271
#     4  11  22  37  51  67  91 118 153 192 233 270
#     4  10  17  27  42  62  91 122 149 185 225 265
#     4   9  18  32  47  64  88 116 148 188 228 267
#
# _framework density 15.823786999999999
#
# number of rings (size 3 to 8) (size 9 to 14) (size 15 to 20)
#    0.000    2.286    1.429    4.714    0.000    4.000 
#    0.000    0.000    0.000    0.000    0.000    0.000 
#    0.000    1.143    0.000    3.714    0.000    6.000 
#
# Total GULP energy -155986.216953 kJ/mol
# GULP energy per Si atom -5570.936320 kJ/mol
# Density = 1.578777 g / cm^3
# Si number density = 15.823787 Si / 1000 Ang^3
#
#
#
# Elastic Constant Matrix: (Units=GPa)
#
#
# Indices 1 2 3 4 5 6 
#
# 1 50.3523 12.8363 52.1070 0.0000 -7.6936 0.0000
# 2 12.8363 32.0598 21.7620 0.0000 -3.9494 0.0000
# 3 52.1070 21.7620 142.3068 0.0000 -28.5498 0.0000
# 4 0.0000 0.0000 0.0000 27.1856 0.0000 -5.6720
# 5 -7.6936 -3.9494 -28.5498 0.0000 22.4885 0.0000
# 6 0.0000 0.0000 0.0000 -5.6720 0.0000 18.6737
#
#
#
# Elastic Compliance Matrix: (Units=1/GPa)
#
#
# Indices 1 2 3 4 5 6 
#
# 1 0.033315 -0.005567 -0.012420 0.000000 -0.005348 0.000000
# 2 -0.005567 0.035747 -0.003423 0.000000 0.000028 0.000000
# 3 -0.012420 -0.003423 0.014927 0.000000 0.014100 0.000000
# 4 0.000000 0.000000 0.000000 0.039273 0.000000 0.011929
# 5 -0.005348 0.000028 0.014100 0.000000 0.060543 0.000000
# 6 0.000000 0.000000 0.000000 0.011929 0.000000 0.057175
#
#
# Mechanical properties :
#
#
# Convention : Reuss Voigt Hill
#
# Bulk Modulus (GPa) = 24.28949 44.23660 34.26305
# Shear Modulus (GPa) = 16.80541 22.87044 19.83792
#
# Velocity S-wave (km/s) = 3.26242 3.80586 3.54457
# Velocity P-wave (km/s) = 5.43825 6.87962 6.20096
#
# Compressibility (1/GPa) = 0.04117007
#
# Stress axis : x y z
#
# Youngs Moduli (GPa) = 30.01630 27.97416 66.99256
#
# Poissons Ratio (x) = 0.15573 0.83207
# Poissons Ratio (y) = 0.16710 0.22928
# Poissons Ratio (z) = 0.37281 0.09574
#
# Static dielectric constant tensor:
#      x y z
#    x 1.497020 0.000000 -0.038100 
#    y 0.000000 1.532100 0.000000 
#    z -0.038100 0.000000 1.581110 
# 
# From -- ./inp_files/61705.got.cif
#   From: 2010.05.17/outbox.cif.g08.bks.cpg/sg11_31_cif.got.tgz:61705.got - 2010.06.03 12:22:45.
