data_PCOD9155892
_publ_section_title
;
Structure prediction by ZEFSAII (Michael W. Deem and Ramdas Pophale) SiO2 
 PCOD9155892
Probable space group: P 21/M
;
_chemical_formula_sum "Si O2"
_cell_formula_units_Z 32
_cell_length_a 10.028092
_cell_length_b 21.988132
_cell_length_c 7.092408
_cell_angle_alpha 90.000000
_cell_angle_beta 118.188729
_cell_angle_gamma 90.000000
_cell_volume 1378.388449
_symmetry_space_group_name_H-M "P 21/M"
_symmetry_group_IT_number 11
_symmetry_cell_setting 'monoclinic'
loop_
_space_group_symop_operation_xyz
x,y,z
-x,1/2+y,-z
-x,-y,-z
x,1/2-y,z
loop_
_atom_site_type_symbol
_atom_site_label
_atom_site_fract_x
_atom_site_fract_y
_atom_site_fract_z
Si Si1 0.891736 0.626209 0.122134
Si Si2 0.156742 0.320539 0.320934
Si Si3 0.611406 0.084353 0.041387
Si Si4 0.846134 0.180216 0.226192
Si Si5 0.457438 0.361713 0.423095
Si Si6 0.392787 0.317528 0.948800
Si Si7 0.794599 0.178433 0.738485
Si Si8 0.639662 0.968011 0.862528
O O1 0.069780 0.639007 0.266232
O O2 0.873715 0.642996 0.889983
O O3 0.786506 0.672404 0.169833
O O4 0.788345 0.564330 0.058488
O O5 0.132308 0.250000 0.261708
O O6 0.332777 0.330280 0.473613
O O7 0.021634 0.336354 0.370874
O O8 0.740104 0.125630 0.221601
O O9 0.486774 0.133235 0.897175
O O10 0.517521 0.046304 0.132507
O O11 0.663416 0.039516 0.909908
O O12 0.814915 0.250000 0.267119
O O13 0.817715 0.178947 0.980461
O O14 0.434109 0.331185 0.197834
O O15 0.629628 0.348811 0.587684
O O16 0.399081 0.431792 0.356011
O O17 0.436513 0.250000 0.927640
O O18 0.803638 0.250000 0.687489
#
# Coordination Sequence:
#
# PCOD9155892 Si02
#       8
#     4   4   4   4   4   4   4   4
#     4   8  14  25  41  64  86 107 140 176 215 251
#     4   8  13  24  40  60  86 111 136 170 211 251
#     4   9  16  29  47  64  83 112 151 181 210 251
#     4   9  17  27  43  67  92 114 136 168 212 263
#     4   9  16  27  44  66  88 112 143 175 216 255
#     4   9  15  25  46  68  85 108 143 187 221 250
#     4  10  17  26  43  67  93 114 135 173 221 263
#     4   8  17  31  48  62  82 114 149 187 213 241
#
# _framework density 23.215519
#
# number of rings (size 3 to 8) (size 9 to 14) (size 15 to 20)
#    0.000    3.750    0.000    4.125    0.000    0.000 
#    0.000    6.250    0.000   18.000    0.000    7.000 
#    0.000    0.000    0.000    0.000    0.000    0.000 
#
# Total GULP energy -178195.890747 kJ/mol
# GULP energy per Si atom -5568.621586 kJ/mol
# Density = 2.316268 g / cm^3
# Si number density = 23.215519 Si / 1000 Ang^3
#
#
#
# Elastic Constant Matrix: (Units=GPa)
#
#
# Indices 1 2 3 4 5 6 
#
# 1 82.3635 31.2808 52.8242 0.0000 35.6016 0.0000
# 2 31.2808 79.9081 2.4931 0.0000 20.2734 0.0000
# 3 52.8242 2.4931 116.2019 0.0000 42.5309 0.0000
# 4 0.0000 0.0000 0.0000 47.5578 0.0000 0.0525
# 5 35.6016 20.2734 42.5309 0.0000 46.8518 0.0000
# 6 0.0000 0.0000 0.0000 0.0525 0.0000 23.3372
#
#
#
# Elastic Compliance Matrix: (Units=1/GPa)
#
#
# Indices 1 2 3 4 5 6 
#
# 1 0.022753 -0.006731 -0.007393 0.000000 -0.007665 0.000000
# 2 -0.006731 0.016725 0.005208 0.000000 -0.006850 0.000000
# 3 -0.007393 0.005208 0.015910 0.000000 -0.011078 0.000000
# 4 0.000000 0.000000 0.000000 0.021027 0.000000 -0.000047
# 5 -0.007665 -0.006850 -0.011078 0.000000 0.040189 0.000000
# 6 0.000000 0.000000 0.000000 -0.000047 0.000000 0.042850
#
#
# Mechanical properties :
#
#
# Convention : Reuss Voigt Hill
#
# Bulk Modulus (GPa) = 26.62794 50.18554 38.40674
# Shear Modulus (GPa) = 26.34296 36.34105 31.34201
#
# Velocity S-wave (km/s) = 3.37221 3.96078 3.67828
# Velocity P-wave (km/s) = 5.16306 6.52543 5.88381
#
# Compressibility (1/GPa) = 0.03755454
#
# Stress axis : x y z
#
# Youngs Moduli (GPa) = 43.95070 59.79127 62.85550
#
# Poissons Ratio (x) = 0.40248 0.46471
# Poissons Ratio (y) = 0.29585 -0.32737
# Poissons Ratio (z) = 0.32494 -0.31141
#
# Static dielectric constant tensor:
#      x y z
#    x 1.998810 0.000000 -0.000120 
#    y 0.000000 1.908910 0.000000 
#    z -0.000120 0.000000 2.002310 
# 
# From -- ./inp_files/36493.got.cif
#   From: 2010.05.17/outbox.cif.g08.bks.cpg/sg11_19_cif.got.tgz:36493.got - 2010.06.03 12:22:45.
