data_PCOD9155230
_publ_section_title
;
Structure prediction by ZEFSAII (Michael W. Deem and Ramdas Pophale) SiO2 
 PCOD9155230
Probable space group: P 2/M
;
_chemical_formula_sum "Si O2"
_cell_formula_units_Z 28
_cell_length_a 9.000000
_cell_length_b 15.000000
_cell_length_c 12.000000
_cell_angle_alpha 90.000000
_cell_angle_beta 120.000000
_cell_angle_gamma 90.000000
_cell_volume 1402.961154
_symmetry_space_group_name_H-M "P 2/M"
_symmetry_group_IT_number 10
_symmetry_cell_setting 'monoclinic'
loop_
_space_group_symop_operation_xyz
x,y,z
-x,y,-z
-x,-y,-z
x,-y,z
loop_
_atom_site_type_symbol
_atom_site_label
_atom_site_fract_x
_atom_site_fract_y
_atom_site_fract_z
Si Si1 0.801166 0.899482 0.912962
Si Si2 0.697784 0.896008 0.110119
Si Si3 0.756969 0.600704 0.283495
Si Si4 0.157084 0.258129 0.240047
Si Si5 0.377840 0.398850 0.236709
Si Si6 0.070463 0.786695 0.641003
Si Si7 0.145851 0.602964 0.929922
O O1 0.780815 0.825248 0.811286
O O2 0.719386 0.000000 0.868905
O O3 0.767127 0.857178 0.020707
O O4 0.000000 0.915393 0.000000
O O5 0.772805 0.840153 0.240894
O O6 0.751542 0.000000 0.143175
O O7 0.500000 0.896611 0.000000
O O8 0.823450 0.500000 0.332010
O O9 0.573643 0.609717 0.272745
O O10 0.868965 0.685473 0.358953
O O11 0.747184 0.607599 0.144966
O O12 0.313939 0.327344 0.301922
O O13 0.081722 0.219784 0.325870
O O14 0.001735 0.321868 0.134700
O O15 0.349124 0.500000 0.264744
O O16 0.265679 0.384705 0.081861
O O17 0.000000 0.826949 0.500000
O O18 0.077194 0.500000 0.908867
#
# Coordination Sequence:
#
# PCOD9155230 Si02
#       7
#     4   4   4   4   4   4   4
#     4  10  19  34  57  88 120 149 187 236 293 355
#     4  10  23  42  67  96 122 152 195 246 298 356
#     4   9  20  36  54  78 114 161 204 245 293 349
#     4  11  21  32  54  82 117 156 197 241 299 349
#     4  10  19  31  52  84 116 150 198 253 305 347
#     4  11  25  41  60  87 121 164 205 241 293 357
#     4   9  17  29  48  80 119 152 191 243 303 359
#
# _framework density 19.957787
#
# number of rings (size 3 to 8) (size 9 to 14) (size 15 to 20)
#    0.000    2.000    1.429    2.143    4.000    4.000 
#    0.000    0.714    0.000    1.714    0.000    3.000 
#    0.000    0.000    0.000    0.000    0.000    0.000 
#
# Total GULP energy -155989.904469 kJ/mol
# GULP energy per Si atom -5571.068017 kJ/mol
# Density = 1.991236 g / cm^3
# Si number density = 19.957787 Si / 1000 Ang^3
#
#
#
# Elastic Constant Matrix: (Units=GPa)
#
#
# Indices 1 2 3 4 5 6 
#
# 1 36.9532 17.3116 27.2253 0.0000 0.2755 0.0000
# 2 17.3116 106.4392 36.6244 0.0000 -3.9220 0.0000
# 3 27.2253 36.6244 77.8081 0.0000 -13.6718 0.0000
# 4 0.0000 0.0000 0.0000 10.9246 0.0000 0.2051
# 5 0.2755 -3.9220 -13.6718 0.0000 3.7330 0.0000
# 6 0.0000 0.0000 0.0000 0.2051 0.0000 28.9109
#
#
#
# Elastic Compliance Matrix: (Units=1/GPa)
#
#
# Indices 1 2 3 4 5 6 
#
# 1 0.126778 0.007595 -0.135153 0.000000 -0.496368 0.000000
# 2 0.007595 0.012296 -0.017600 0.000000 -0.052100 0.000000
# 3 -0.135153 -0.017600 0.187762 0.000000 0.679153 0.000000
# 4 0.000000 0.000000 0.000000 0.091548 0.000000 -0.000649
# 5 -0.496368 -0.052100 0.679153 0.000000 2.737141 0.000000
# 6 0.000000 0.000000 0.000000 -0.000649 0.000000 0.034594
#
#
# Mechanical properties :
#
#
# Convention : Reuss Voigt Hill
#
# Bulk Modulus (GPa) = 27.38170 42.61368 34.99769
# Shear Modulus (GPa) = 1.43160 18.04966 9.74063
#
# Velocity S-wave (km/s) = 0.84786 3.01057 2.21161
# Velocity P-wave (km/s) = 3.83511 5.78645 4.90872
#
# Compressibility (1/GPa) = 0.03652074
#
# Stress axis : x y z
#
# Youngs Moduli (GPa) = 7.88778 81.32810 5.32589
#
# Poissons Ratio (x) = -0.61767 0.71981
# Poissons Ratio (y) = -0.05991 0.09373
# Poissons Ratio (z) = 1.06606 1.43135
#
# Static dielectric constant tensor:
#      x y z
#    x 1.712840 0.000000 -0.016660 
#    y 0.000000 1.754560 0.000000 
#    z -0.016660 0.000000 1.687360 
# 
# From -- ./inp_files/43059.got.cif
#   From: 2010.05.17/outbox.ucp.g08.bks.cvg/sg10_22_cif.got.tgz:43059.got - 2010.06.11 11:31:16.
