data_PCOD9155352
_publ_section_title
;
Structure prediction by ZEFSAII (Michael W. Deem and Ramdas Pophale) SiO2 
 PCOD9155352
Probable space group: P 2/M
;
_chemical_formula_sum "Si O2"
_cell_formula_units_Z 32
_cell_length_a 12.000000
_cell_length_b 9.000000
_cell_length_c 30.000000
_cell_angle_alpha 90.000000
_cell_angle_beta 30.000000
_cell_angle_gamma 90.000000
_cell_volume 1620.000000
_symmetry_space_group_name_H-M "P 2/M"
_symmetry_group_IT_number 10
_symmetry_cell_setting 'monoclinic'
loop_
_space_group_symop_operation_xyz
x,y,z
-x,y,-z
-x,-y,-z
x,-y,z
loop_
_atom_site_type_symbol
_atom_site_label
_atom_site_fract_x
_atom_site_fract_y
_atom_site_fract_z
Si Si1 0.228828 0.175211 0.642324
Si Si2 0.061874 0.323516 0.614404
Si Si3 0.968319 0.321939 0.878783
Si Si4 0.184531 0.676910 0.165556
Si Si5 0.448778 0.178819 0.719863
Si Si6 0.661391 0.176741 0.554491
Si Si7 0.374452 0.322017 0.929002
Si Si8 0.584703 0.821698 0.773459
O O1 0.222594 0.261637 0.597697
O O2 0.437925 0.200945 0.602425
O O3 0.010694 0.229820 0.744054
O O4 0.219874 0.000000 0.635658
O O5 0.049471 0.500000 0.621365
O O6 0.150608 0.268071 0.536051
O O7 0.819591 0.251878 0.705205
O O8 0.996359 0.500000 0.870668
O O9 0.823384 0.290824 0.884518
O O10 0.207635 0.246415 0.793081
O O11 0.839884 0.276268 0.968047
O O12 0.137588 0.500000 0.187126
O O13 0.414558 0.706025 0.111399
O O14 0.612532 0.220476 0.622411
O O15 0.525563 0.221087 0.743014
O O16 0.432045 0.000000 0.724403
O O17 0.713292 0.000000 0.535032
O O18 0.366257 0.500000 0.923910
O O19 0.409899 0.238155 0.870370
O O20 0.601206 0.000000 0.770018
#
# Coordination Sequence:
#
# PCOD9155352 Si02
#       8
#     4   4   4   4   4   4   4   4
#     4  11  21  36  62  91 122 156 194 238 291 352
#     4  12  25  40  61  90 123 155 193 242 297 358
#     4  10  21  37  61  91 123 159 197 242 297 355
#     4  10  19  34  59  89 123 158 194 238 294 352
#     4  10  23  43  63  85 116 157 203 250 297 347
#     4  10  22  41  63  88 120 156 195 242 295 352
#     4  10  21  38  60  89 124 160 197 241 296 353
#     4  11  24  42  63  85 115 157 204 250 297 349
#
# _framework density 19.753086
#
# number of rings (size 3 to 8) (size 9 to 14) (size 15 to 20)
#    0.000    1.500    2.500    2.625    0.000    7.000 
#    0.000    5.000    0.000    2.250    0.000    0.000 
#    0.000    0.000    0.000    0.000    0.000    0.000 
#
# Total GULP energy -178865.944328 kJ/mol
# GULP energy per Si atom -5589.560760 kJ/mol
# Density = 1.970813 g / cm^3
# Si number density = 19.753086 Si / 1000 Ang^3
#
#
#
# Elastic Constant Matrix: (Units=GPa)
#
#
# Indices 1 2 3 4 5 6 
#
# 1 84.9684 24.4795 8.8060 0.0000 37.5239 0.0000
# 2 24.4795 34.9050 19.9250 0.0000 15.2331 0.0000
# 3 8.8060 19.9250 80.4435 0.0000 37.0365 0.0000
# 4 0.0000 0.0000 0.0000 29.1161 0.0000 9.0916
# 5 37.5239 15.2331 37.0365 0.0000 36.6806 0.0000
# 6 0.0000 0.0000 0.0000 9.0916 0.0000 31.8594
#
#
#
# Elastic Compliance Matrix: (Units=1/GPa)
#
#
# Indices 1 2 3 4 5 6 
#
# 1 0.045790 -0.019500 0.032993 0.000000 -0.072058 0.000000
# 2 -0.019500 0.043892 -0.017807 0.000000 0.019699 0.000000
# 3 0.032993 -0.017807 0.047399 0.000000 -0.074216 0.000000
# 4 0.000000 0.000000 0.000000 0.037705 0.000000 -0.010760
# 5 -0.072058 0.019699 -0.074216 0.000000 0.167731 0.000000
# 6 0.000000 0.000000 0.000000 -0.010760 0.000000 0.034458
#
#
# Mechanical properties :
#
#
# Convention : Reuss Voigt Hill
#
# Bulk Modulus (GPa) = 7.78485 34.08198 20.93342
# Shear Modulus (GPa) = 11.67078 29.33833 20.50456
#
# Velocity S-wave (km/s) = 2.43334 3.85808 3.22536
# Velocity P-wave (km/s) = 3.44159 6.09408 4.94886
#
# Compressibility (1/GPa) = 0.12845456
#
# Stress axis : x y z
#
# Youngs Moduli (GPa) = 21.83887 22.78311 21.09747
#
# Poissons Ratio (x) = 0.44426 -0.69607
# Poissons Ratio (y) = 0.42585 0.37568
# Poissons Ratio (z) = -0.72053 0.40569
#
# Static dielectric constant tensor:
#      x y z
#    x 1.690230 0.000000 0.017830 
#    y 0.000000 1.655770 0.000000 
#    z 0.017830 0.000000 1.703510 
# 
# From -- ./inp_files/49834.got.cif
#   From: 2010.05.17/outbox.ucp.g08.bks.cvg/sg10_25_cif.got.tgz:49834.got - 2010.06.11 11:31:16.
