data_PCOD9155357
_publ_section_title
;
Structure prediction by ZEFSAII (Michael W. Deem and Ramdas Pophale) SiO2 
 PCOD9155357
Probable space group: P 2/M
;
_chemical_formula_sum "Si O2"
_cell_formula_units_Z 24
_cell_length_a 9.000000
_cell_length_b 9.000000
_cell_length_c 21.000000
_cell_angle_alpha 90.000000
_cell_angle_beta 130.000000
_cell_angle_gamma 90.000000
_cell_volume 1303.041598
_symmetry_space_group_name_H-M "P 2/M"
_symmetry_group_IT_number 10
_symmetry_cell_setting 'monoclinic'
loop_
_space_group_symop_operation_xyz
x,y,z
-x,y,-z
-x,-y,-z
x,-y,z
loop_
_atom_site_type_symbol
_atom_site_label
_atom_site_fract_x
_atom_site_fract_y
_atom_site_fract_z
Si Si1 0.791019 0.180597 0.575777
Si Si2 0.488079 0.678090 0.591438
Si Si3 0.214015 0.326369 0.086790
Si Si4 0.474941 0.180126 0.919721
Si Si5 0.569231 0.175449 0.747494
Si Si6 0.202015 0.176137 0.739743
O O1 0.714514 0.253226 0.489484
O O2 0.647280 0.243528 0.590122
O O3 0.004604 0.233114 0.655017
O O4 0.779716 0.000000 0.568897
O O5 0.491116 0.500000 0.585242
O O6 0.534461 0.730308 0.675025
O O7 0.260635 0.500000 0.109929
O O8 0.355959 0.255063 0.073988
O O9 0.251214 0.236630 0.162014
O O10 0.000000 0.314406 0.000000
O O11 0.276220 0.228442 0.829384
O O12 0.488770 0.000000 0.917808
O O13 0.500000 0.219283 0.000000
O O14 0.381579 0.195369 0.741254
O O15 0.589971 0.000000 0.739193
O O16 0.169079 0.000000 0.737419
#
# Coordination Sequence:
#
# PCOD9155357 Si02
#       6
#     4   4   4   4   4   4
#     4  10  19  35  56  77 103 139 180 218 260 310
#     4  11  22  36  52  77 110 139 172 216 264 312
#     4  10  21  36  53  78 111 141 172 214 262 309
#     4   9  18  34  55  79 106 138 178 219 258 306
#     4  10  20  37  58  79 103 136 177 217 260 311
#     4   8  17  33  54  79 104 131 173 225 263 299
#
# _framework density 18.418444999999998
#
# number of rings (size 3 to 8) (size 9 to 14) (size 15 to 20)
#    0.000    2.333    0.000    5.000    0.000    3.667 
#    0.000   13.333    0.000    0.000    0.000    0.000 
#    0.000    0.000    0.000    0.000    0.000    0.000 
#
# Total GULP energy -133778.415727 kJ/mol
# GULP energy per Si atom -5574.100655 kJ/mol
# Density = 1.837652 g / cm^3
# Si number density = 18.418445 Si / 1000 Ang^3
#
#
#
# Elastic Constant Matrix: (Units=GPa)
#
#
# Indices 1 2 3 4 5 6 
#
# 1 7.5637 18.8603 30.1147 0.0000 0.2997 0.0000
# 2 18.8603 86.6747 48.7105 0.0000 -8.1381 0.0000
# 3 30.1147 48.7105 133.2248 0.0000 -10.7013 0.0000
# 4 0.0000 0.0000 0.0000 27.3370 0.0000 -6.9757
# 5 0.2997 -8.1381 -10.7013 0.0000 23.1372 0.0000
# 6 0.0000 0.0000 0.0000 -6.9757 0.0000 -18.6753
#
#
#
# Elastic Compliance Matrix: (Units=1/GPa)
#
#
# Indices 1 2 3 4 5 6 
#
# 1 -1.657055 0.203657 0.319452 0.000000 0.240851 0.000000
# 2 0.203657 -0.010338 -0.044410 0.000000 -0.026815 0.000000
# 3 0.319452 -0.044410 -0.051985 0.000000 -0.043803 0.000000
# 4 0.000000 0.000000 0.000000 0.033397 0.000000 -0.012475
# 5 0.240851 -0.026815 -0.043803 0.000000 0.010409 0.000000
# 6 0.000000 0.000000 0.000000 -0.012475 0.000000 -0.048887
#
#
# Mechanical properties :
#
#
# Convention : Reuss Voigt Hill
#
# Bulk Modulus (GPa) = -1.31237 46.98156 22.83460
# Shear Modulus (GPa) = -1.70308 15.01162 6.65427
#
# Velocity S-wave (km/s) = -0.96264 2.85797 1.90281
# Velocity P-wave (km/s) = 1.39629 6.03771 4.15357
#
# Compressibility (1/GPa) = -0.76197963
#
# Stress axis : x y z
#
# Youngs Moduli (GPa) = -0.60348 -96.73221 -19.23616
#
# Poissons Ratio (x) = 19.70017 6.14503
# Poissons Ratio (y) = 0.12290 -0.85427
# Poissons Ratio (z) = 0.19278 -4.29584
#
# Static dielectric constant tensor:
#      x y z
#    x 1.628070 0.000000 0.010230 
#    y 0.000000 1.610900 0.000000 
#    z 0.010230 0.000000 1.688350 
# 
# From -- ./inp_files/33970.got.cif
#   From: 2010.05.17/outbox.ucp.g08.bks.cvg/sg10_17_cif.got.tgz:33970.got - 2010.06.11 11:31:16.
