data_PCOD9155952
_publ_section_title
;
Structure prediction by ZEFSAII (Michael W. Deem and Ramdas Pophale) SiO2 
 PCOD9155952
Probable space group: P 21/M
;
_chemical_formula_sum "Si O2"
_cell_formula_units_Z 32
_cell_length_a 7.062265
_cell_length_b 23.617657
_cell_length_c 18.202491
_cell_angle_alpha 90.000000
_cell_angle_beta 133.758808
_cell_angle_gamma 90.000000
_cell_volume 2192.824098
_symmetry_space_group_name_H-M "P 21/M"
_symmetry_group_IT_number 11
_symmetry_cell_setting 'monoclinic'
loop_
_space_group_symop_operation_xyz
x,y,z
-x,1/2+y,-z
-x,-y,-z
x,1/2-y,z
loop_
_atom_site_type_symbol
_atom_site_label
_atom_site_fract_x
_atom_site_fract_y
_atom_site_fract_z
Si Si1 0.067565 0.906927 0.035924
Si Si2 0.549902 0.814608 0.313917
Si Si3 0.021760 0.134790 0.827263
Si Si4 0.487270 0.815453 0.123160
Si Si5 0.789209 0.925456 0.439525
Si Si6 0.213455 0.521874 0.295829
Si Si7 0.686853 0.521043 0.835643
Si Si8 0.083847 0.981621 0.644572
O O1 0.949165 0.881531 0.079316
O O2 0.248574 0.858964 0.048604
O O3 0.849222 0.932732 0.924177
O O4 0.249645 0.959808 0.110720
O O5 0.610140 0.750000 0.349623
O O6 0.569887 0.821322 0.231083
O O7 0.728219 0.861441 0.400689
O O8 0.246790 0.829336 0.250736
O O9 0.268812 0.167123 0.861440
O O10 0.969540 0.076280 0.769746
O O11 0.412990 0.750000 0.091623
O O12 0.509413 0.954783 0.383232
O O13 0.978829 0.935205 0.559045
O O14 0.898564 0.960624 0.399134
O O15 0.217041 0.484454 0.222776
O O16 0.109226 0.490354 0.339170
O O17 0.376560 0.530663 0.751081
#
# Coordination Sequence:
#
# PCOD9155952 Si02
#       8
#     4   4   4   4   4   4   4   4
#     4   9  18  31  44  64  91 115 142 180 216 253
#     4   9  17  29  43  62  89 113 137 173 212 254
#     4   9  16  27  44  65  88 112 139 171 214 260
#     4  10  18  28  45  66  88 115 144 175 214 258
#     4   9  18  28  42  65  88 113 143 174 214 259
#     4   9  16  27  44  65  88 113 139 175 217 257
#     4   9  18  30  45  65  88 115 147 176 214 261
#     4  10  17  28  44  63  89 115 143 178 213 254
#
# _framework density 14.593052999999999
#
# number of rings (size 3 to 8) (size 9 to 14) (size 15 to 20)
#    0.000    2.750    0.000    4.500    0.000    1.500 
#    0.000    3.750    0.000    0.750    0.000    0.875 
#    0.000    0.000    0.000    0.000    0.000    0.000 
#
# Total GULP energy -178333.290341 kJ/mol
# GULP energy per Si atom -5572.915323 kJ/mol
# Density = 1.455984 g / cm^3
# Si number density = 14.593053 Si / 1000 Ang^3
#
#
#
# Elastic Constant Matrix: (Units=GPa)
#
#
# Indices 1 2 3 4 5 6 
#
# 1 54.0654 26.3075 15.4394 0.0000 -0.0286 0.0000
# 2 26.3075 85.8266 34.8841 0.0000 1.5416 0.0000
# 3 15.4394 34.8841 73.8135 0.0000 0.7249 0.0000
# 4 0.0000 0.0000 0.0000 19.9195 0.0000 0.4868
# 5 -0.0286 1.5416 0.7249 0.0000 7.2226 0.0000
# 6 0.0000 0.0000 0.0000 0.4868 0.0000 14.1760
#
#
#
# Elastic Compliance Matrix: (Units=1/GPa)
#
#
# Indices 1 2 3 4 5 6 
#
# 1 0.021936 -0.006041 -0.001749 0.000000 0.001552 0.000000
# 2 -0.006041 0.016127 -0.006330 0.000000 -0.002831 0.000000
# 3 -0.001749 -0.006330 0.016908 0.000000 -0.000353 0.000000
# 4 0.000000 0.000000 0.000000 0.050244 0.000000 -0.001726
# 5 0.001552 -0.002831 -0.000353 0.000000 0.139100 0.000000
# 6 0.000000 0.000000 0.000000 -0.001726 0.000000 0.070601
#
#
# Mechanical properties :
#
#
# Convention : Reuss Voigt Hill
#
# Bulk Modulus (GPa) = 37.40863 40.77414 39.09139
# Shear Modulus (GPa) = 14.20190 17.40193 15.80192
#
# Velocity S-wave (km/s) = 3.12299 3.45698 3.29422
# Velocity P-wave (km/s) = 6.22048 6.62840 6.42768
#
# Compressibility (1/GPa) = 0.02673180
#
# Stress axis : x y z
#
# Youngs Moduli (GPa) = 45.58782 62.00880 59.14197
#
# Poissons Ratio (x) = 0.37459 0.10341
# Poissons Ratio (y) = 0.27539 0.37437
# Poissons Ratio (z) = 0.07971 0.39252
#
# Static dielectric constant tensor:
#      x y z
#    x 1.479370 0.000000 -0.001380 
#    y 0.000000 1.473880 0.000000 
#    z -0.001380 0.000000 1.469740 
# 
# From -- ./inp_files/5389.got.cif
#   From: 2010.05.17/outbox.cif.g08.bks.cpg/sg11_3_cif.got.tgz:5389.got - 2010.06.03 12:22:45.
