data_PCOD9155181
_publ_section_title
;
Structure prediction by ZEFSAII (Michael W. Deem and Ramdas Pophale) SiO2 
 PCOD9155181
Probable space group: P 2/M
;
_chemical_formula_sum "Si O2"
_cell_formula_units_Z 32
_cell_length_a 12.000000
_cell_length_b 9.000000
_cell_length_c 30.000000
_cell_angle_alpha 90.000000
_cell_angle_beta 150.000000
_cell_angle_gamma 90.000000
_cell_volume 1620.000000
_symmetry_space_group_name_H-M "P 2/M"
_symmetry_group_IT_number 10
_symmetry_cell_setting 'monoclinic'
loop_
_space_group_symop_operation_xyz
x,y,z
-x,y,-z
-x,-y,-z
x,-y,z
loop_
_atom_site_type_symbol
_atom_site_label
_atom_site_fract_x
_atom_site_fract_y
_atom_site_fract_z
Si Si1 0.422599 0.327582 0.810396
Si Si2 0.005493 0.671554 0.454756
Si Si3 0.488716 0.663383 0.258405
Si Si4 0.875012 0.320161 0.002345
Si Si5 0.198302 0.174678 0.296176
Si Si6 0.961635 0.827668 0.664887
Si Si7 0.632099 0.678578 0.488787
Si Si8 0.117191 0.173780 0.169831
O O1 0.363360 0.500000 0.798259
O O2 0.552078 0.323886 0.808083
O O3 0.194015 0.238375 0.728491
O O4 0.613932 0.275800 0.910314
O O5 0.086268 0.500000 0.489209
O O6 0.753071 0.665127 0.352581
O O7 0.000000 0.750428 0.500000
O O8 0.170148 0.732277 0.475672
O O9 0.410852 0.500000 0.247249
O O10 0.373730 0.791105 0.246281
O O11 0.883386 0.500000 0.005239
O O12 0.985815 0.259194 0.085612
O O13 0.000000 0.269526 0.000000
O O14 0.028435 0.184687 0.278232
O O15 0.412799 0.263220 0.388156
O O16 0.097599 0.224793 0.214230
O O17 0.260374 0.000000 0.312635
O O18 0.737809 0.743248 0.570966
O O19 0.937613 0.000000 0.644359
O O20 0.623039 0.500000 0.489970
O O21 0.066127 0.000000 0.149409
#
# Coordination Sequence:
#
# PCOD9155181 Si02
#       8
#     4   4   4   4   4   4   4   4
#     4  10  20  37  61  87 115 146 188 239 284 340
#     4   9  17  29  48  77 112 147 181 221 276 338
#     4  10  18  34  56  79 116 154 183 226 290 349
#     4  10  20  38  62  87 118 154 187 229 294 356
#     4  10  24  43  57  79 118 161 196 237 293 343
#     4  11  23  40  61  82 116 160 197 236 290 346
#     4  11  21  36  60  88 114 148 200 248 283 334
#     4  11  23  38  58  86 119 151 195 244 283 342
#
# _framework density 19.753086
#
# number of rings (size 3 to 8) (size 9 to 14) (size 15 to 20)
#    0.000    1.750    2.500    2.250    0.000    5.750 
#    0.000    0.625    0.000    6.375    0.000    0.000 
#    0.000    0.000    0.000    0.000    0.000    0.000 
#
# Total GULP energy -178243.638998 kJ/mol
# GULP energy per Si atom -5570.113719 kJ/mol
# Density = 1.970813 g / cm^3
# Si number density = 19.753086 Si / 1000 Ang^3
#
#
#
# Elastic Constant Matrix: (Units=GPa)
#
#
# Indices 1 2 3 4 5 6 
#
# 1 47.1821 15.6334 34.9493 0.0000 -26.5928 0.0000
# 2 15.6334 44.3255 32.6336 0.0000 -8.5094 0.0000
# 3 34.9493 32.6336 85.2130 0.0000 -19.4091 0.0000
# 4 0.0000 0.0000 0.0000 26.5400 0.0000 -6.3520
# 5 -26.5928 -8.5094 -19.4091 0.0000 30.5598 0.0000
# 6 0.0000 0.0000 0.0000 -6.3520 0.0000 7.7147
#
#
#
# Elastic Compliance Matrix: (Units=1/GPa)
#
#
# Indices 1 2 3 4 5 6 
#
# 1 0.051289 -0.002391 -0.011815 0.000000 0.036461 0.000000
# 2 -0.002391 0.031574 -0.011203 0.000000 -0.000404 0.000000
# 3 -0.011815 -0.011203 0.020833 0.000000 -0.000169 0.000000
# 4 0.000000 0.000000 0.000000 0.046926 0.000000 0.038637
# 5 0.036461 -0.000404 -0.000169 0.000000 0.064231 0.000000
# 6 0.000000 0.000000 0.000000 0.038637 0.000000 0.161435
#
#
# Mechanical properties :
#
#
# Convention : Reuss Voigt Hill
#
# Bulk Modulus (GPa) = 18.91173 38.12814 28.51993
# Shear Modulus (GPa) = 11.24271 19.19651 15.21961
#
# Velocity S-wave (km/s) = 2.38830 3.12079 2.77879
# Velocity P-wave (km/s) = 4.14731 5.68595 4.97645
#
# Compressibility (1/GPa) = 0.05287723
#
# Stress axis : x y z
#
# Youngs Moduli (GPa) = 19.49740 31.67143 48.00078
#
# Poissons Ratio (x) = 0.07573 0.56713
# Poissons Ratio (y) = 0.04662 0.53776
# Poissons Ratio (z) = 0.23036 0.35482
#
# Static dielectric constant tensor:
#      x y z
#    x 1.797750 0.000000 -0.010860 
#    y 0.000000 1.687710 0.000000 
#    z -0.010860 0.000000 1.764430 
# 
# From -- ./inp_files/95080.got.cif
#   From: 2010.05.17/outbox.ucp.g08.bks.cvg/sg10_48_cif.got.tgz:95080.got - 2010.06.11 11:31:16.
