data_PCOD9155913
_publ_section_title
;
Structure prediction by ZEFSAII (Michael W. Deem and Ramdas Pophale) SiO2 
 PCOD9155913
Probable space group: P 21/M
;
_chemical_formula_sum "Si O2"
_cell_formula_units_Z 32
_cell_length_a 20.090231
_cell_length_b 8.678808
_cell_length_c 13.852302
_cell_angle_alpha 90.000000
_cell_angle_beta 60.238089
_cell_angle_gamma 90.000000
_cell_volume 2096.691511
_symmetry_space_group_name_H-M "P 21/M"
_symmetry_group_IT_number 11
_symmetry_cell_setting 'monoclinic'
loop_
_space_group_symop_operation_xyz
x,y,z
-x,1/2+y,-z
-x,-y,-z
x,1/2-y,z
loop_
_atom_site_type_symbol
_atom_site_label
_atom_site_fract_x
_atom_site_fract_y
_atom_site_fract_z
Si Si1 0.506910 0.564979 0.103614
Si Si2 0.091513 0.069929 0.336182
Si Si3 0.332935 0.565552 0.014855
Si Si4 0.942412 0.063119 0.329274
Si Si5 0.175287 0.430219 0.069801
Si Si6 0.338663 0.562581 0.236893
Si Si7 0.973750 0.433315 0.916834
Si Si8 0.185002 0.565874 0.442507
O O1 0.511698 0.750000 0.097740
O O2 0.424653 0.520490 0.208225
O O3 0.500000 0.500000 0.000000
O O4 0.586588 0.497240 0.084051
O O5 0.089624 0.250000 0.366328
O O6 0.006814 0.021580 0.363167
O O7 0.142073 0.057006 0.202656
O O8 0.130366 0.971914 0.391369
O O9 0.334123 0.750000 0.013558
O O10 0.259041 0.504387 0.012014
O O11 0.327489 0.515146 0.132416
O O12 0.944532 0.250000 0.319449
O O13 0.860289 0.011752 0.429733
O O14 0.970610 0.993854 0.208518
O O15 0.820383 0.750000 0.957393
O O16 0.111826 0.510177 0.048779
O O17 0.335656 0.750000 0.238197
O O18 0.269025 0.504998 0.353222
O O19 0.975463 0.250000 0.917422
O O20 0.000000 0.500000 0.000000
O O21 0.191188 0.750000 0.447165
#
# Coordination Sequence:
#
# PCOD9155913 Si02
#       8
#     4   4   4   4   4   4   4   4
#     4   9  16  26  38  55  82 118 158 196 232 267
#     4   9  17  27  38  59  89 118 149 186 221 260
#     4  10  17  27  42  62  88 118 157 194 227 269
#     4   9  19  32  45  64  89 116 150 186 225 269
#     4  10  19  31  47  69  93 118 151 188 228 271
#     4   8  15  25  38  58  85 119 158 192 224 261
#     4  11  22  37  55  70  89 115 145 185 231 276
#     4  10  17  27  43  61  87 122 155 189 222 261
#
# _framework density 15.262138999999999
#
# number of rings (size 3 to 8) (size 9 to 14) (size 15 to 20)
#    0.000    2.500    1.250    4.125    0.000    2.500 
#    0.000    0.625    0.000    0.000    0.000    0.000 
#    0.000    1.000    0.000    2.750    0.000    4.000 
#
# Total GULP energy -178265.373898 kJ/mol
# GULP energy per Si atom -5570.792934 kJ/mol
# Density = 1.522740 g / cm^3
# Si number density = 15.262139 Si / 1000 Ang^3
#
#
#
# Elastic Constant Matrix: (Units=GPa)
#
#
# Indices 1 2 3 4 5 6 
#
# 1 114.4166 38.2677 69.5347 0.0000 -27.2935 0.0000
# 2 38.2677 45.6942 26.0142 0.0000 -8.5947 0.0000
# 3 69.5347 26.0142 71.0770 0.0000 -24.5026 0.0000
# 4 0.0000 0.0000 0.0000 14.8251 0.0000 -0.3062
# 5 -27.2935 -8.5947 -24.5026 0.0000 26.5015 0.0000
# 6 0.0000 0.0000 0.0000 -0.3062 0.0000 24.2490
#
#
#
# Elastic Compliance Matrix: (Units=1/GPa)
#
#
# Indices 1 2 3 4 5 6 
#
# 1 0.024279 -0.008651 -0.018984 0.000000 0.004647 0.000000
# 2 -0.008651 0.030734 -0.003553 0.000000 -0.002228 0.000000
# 3 -0.018984 -0.003553 0.039345 0.000000 0.015674 0.000000
# 4 0.000000 0.000000 0.000000 0.067471 0.000000 0.000852
# 5 0.004647 -0.002228 0.015674 0.000000 0.056289 0.000000
# 6 0.000000 0.000000 0.000000 0.000852 0.000000 0.041250
#
#
# Mechanical properties :
#
#
# Convention : Reuss Voigt Hill
#
# Bulk Modulus (GPa) = 31.26813 55.42453 43.34633
# Shear Modulus (GPa) = 15.04195 19.60654 17.32424
#
# Velocity S-wave (km/s) = 3.14279 3.58809 3.37280
# Velocity P-wave (km/s) = 5.80529 7.31845 6.60534
#
# Compressibility (1/GPa) = 0.03198145
#
# Stress axis : x y z
#
# Youngs Moduli (GPa) = 41.18742 32.53770 25.41617
#
# Poissons Ratio (x) = 0.28150 0.48250
# Poissons Ratio (y) = 0.35633 0.09030
# Poissons Ratio (z) = 0.78191 0.11560
#
# Static dielectric constant tensor:
#      x y z
#    x 1.484540 0.000000 -0.054810 
#    y 0.000000 1.514170 0.000000 
#    z -0.054810 0.000000 1.510010 
# 
# From -- ./inp_files/40711.got.cif
#   From: 2010.05.17/outbox.cif.g08.bks.cpg/sg11_21_cif.got.tgz:40711.got - 2010.06.03 12:22:45.
