data_PCOD9155560
_publ_section_title
;
Structure prediction by ZEFSAII (Michael W. Deem and Ramdas Pophale) SiO2 
 PCOD9155560
Probable space group: P 2/M
;
_chemical_formula_sum "Si O2"
_cell_formula_units_Z 32
_cell_length_a 15.000000
_cell_length_b 9.000000
_cell_length_c 24.000000
_cell_angle_alpha 90.000000
_cell_angle_beta 150.000000
_cell_angle_gamma 90.000000
_cell_volume 1620.000000
_symmetry_space_group_name_H-M "P 2/M"
_symmetry_group_IT_number 10
_symmetry_cell_setting 'monoclinic'
loop_
_space_group_symop_operation_xyz
x,y,z
-x,y,-z
-x,-y,-z
x,-y,z
loop_
_atom_site_type_symbol
_atom_site_label
_atom_site_fract_x
_atom_site_fract_y
_atom_site_fract_z
Si Si1 0.307246 0.172044 0.377862
Si Si2 0.413744 0.168293 0.307973
Si Si3 0.062797 0.679214 0.790016
Si Si4 0.212793 0.178085 0.981063
Si Si5 0.112599 0.679868 0.688169
Si Si6 0.917769 0.665493 0.894790
Si Si7 0.265905 0.678980 0.566598
Si Si8 0.429043 0.679914 0.776952
O O1 0.500000 0.232326 0.500000
O O2 0.328044 0.166987 0.322721
O O3 0.138236 0.265223 0.305851
O O4 0.290406 0.000000 0.388940
O O5 0.606047 0.242008 0.408550
O O6 0.278196 0.270696 0.201388
O O7 0.421339 0.000000 0.291203
O O8 0.073320 0.500000 0.799571
O O9 0.108072 0.725353 0.750722
O O10 0.186324 0.752164 0.904867
O O11 0.385368 0.242528 0.106547
O O12 0.218463 0.000000 0.980818
O O13 0.040580 0.230991 0.923094
O O14 0.110914 0.500000 0.687982
O O15 0.286769 0.723233 0.747719
O O16 0.935719 0.724025 0.557712
O O17 0.909790 0.500000 0.865166
O O18 0.000000 0.656278 0.000000
O O19 0.276902 0.500000 0.567579
O O20 0.341674 0.717128 0.669279
O O21 0.453788 0.500000 0.791051
#
# Coordination Sequence:
#
# PCOD9155560 Si02
#       8
#     4   4   4   4   4   4   4   4
#     4  10  21  37  56  82 119 160 197 236 291 358
#     4  11  22  35  55  85 121 160 193 231 288 350
#     4  11  22  38  62  89 120 159 206 257 303 355
#     4  12  25  41  60  86 124 163 204 252 305 365
#     4   9  20  39  64  93 120 154 203 257 311 361
#     4  11  23  39  60  86 116 153 198 245 293 351
#     4  10  20  37  63  93 124 157 199 252 305 365
#     4  10  21  40  65  90 119 158 204 254 309 366
#
# _framework density 19.753086
#
# number of rings (size 3 to 8) (size 9 to 14) (size 15 to 20)
#    0.000    1.500    1.250    4.125    0.000    7.250 
#    0.000    5.000    0.000    1.500    0.000    0.000 
#    0.000    0.000    0.000    0.000    0.000    0.000 
#
# Total GULP energy -178700.771567 kJ/mol
# GULP energy per Si atom -5584.399111 kJ/mol
# Density = 1.970813 g / cm^3
# Si number density = 19.753086 Si / 1000 Ang^3
#
#
#
# Elastic Constant Matrix: (Units=GPa)
#
#
# Indices 1 2 3 4 5 6 
#
# 1 84.9754 19.4866 13.1965 0.0000 0.5525 0.0000
# 2 19.4866 74.0220 28.2843 0.0000 0.3497 0.0000
# 3 13.1965 28.2843 96.5213 0.0000 1.6047 0.0000
# 4 0.0000 0.0000 0.0000 867.2939 0.0000 469.4465
# 5 0.5525 0.3497 1.6047 0.0000 35.3712 0.0000
# 6 0.0000 0.0000 0.0000 469.4465 0.0000 265.1246
#
#
#
# Elastic Compliance Matrix: (Units=1/GPa)
#
#
# Indices 1 2 3 4 5 6 
#
# 1 0.012586 -0.002991 -0.000842 0.000000 -0.000129 0.000000
# 2 -0.002991 0.015924 -0.004259 0.000000 0.000083 0.000000
# 3 -0.000842 -0.004259 0.011731 0.000000 -0.000477 0.000000
# 4 0.000000 0.000000 0.000000 0.027730 0.000000 -0.049100
# 5 -0.000129 0.000083 -0.000477 0.000000 0.028294 0.000000
# 6 0.000000 0.000000 0.000000 -0.049100 0.000000 0.090712
#
#
# Mechanical properties :
#
#
# Convention : Reuss Voigt Hill
#
# Bulk Modulus (GPa) = 41.56724 41.93929 41.75327
# Shear Modulus (GPa) = 23.67652 246.52802 135.10227
#
# Velocity S-wave (km/s) = 3.46587 11.18373 8.27913
# Velocity P-wave (km/s) = 6.09142 13.71297 10.61016
#
# Compressibility (1/GPa) = 0.02405741
#
# Stress axis : x y z
#
# Youngs Moduli (GPa) = 79.45594 62.79939 85.24109
#
# Poissons Ratio (x) = 0.18782 0.07179
# Poissons Ratio (y) = 0.23764 0.36302
# Poissons Ratio (z) = 0.06691 0.26744
#
# Static dielectric constant tensor:
#      x y z
#    x 1.700740 0.000000 -0.025570 
#    y 0.000000 1.684330 0.000000 
#    z -0.025570 0.000000 1.731650 
# 
# From -- ./inp_files/66576.got.cif
#   From: 2010.05.17/outbox.ucp.g08.bks.cvg/sg10_34_cif.got.tgz:66576.got - 2010.06.11 11:31:16.
