data_PCOD9155341
_publ_section_title
;
Structure prediction by ZEFSAII (Michael W. Deem and Ramdas Pophale) SiO2 
 PCOD9155341
Probable space group: P 2/M
;
_chemical_formula_sum "Si O2"
_cell_formula_units_Z 32
_cell_length_a 30.000000
_cell_length_b 9.000000
_cell_length_c 12.000000
_cell_angle_alpha 90.000000
_cell_angle_beta 150.000000
_cell_angle_gamma 90.000000
_cell_volume 1620.000000
_symmetry_space_group_name_H-M "P 2/M"
_symmetry_group_IT_number 10
_symmetry_cell_setting 'monoclinic'
loop_
_space_group_symop_operation_xyz
x,y,z
-x,y,-z
-x,-y,-z
x,-y,z
loop_
_atom_site_type_symbol
_atom_site_label
_atom_site_fract_x
_atom_site_fract_y
_atom_site_fract_z
Si Si1 0.968407 0.671279 0.110511
Si Si2 0.388385 0.820565 0.453977
Si Si3 0.315480 0.174997 0.729060
Si Si4 0.409407 0.323420 0.739368
Si Si5 0.856372 0.672100 0.663894
Si Si6 0.946182 0.821263 0.493911
Si Si7 0.742939 0.181299 0.016473
Si Si8 0.583044 0.820676 0.829391
O O1 0.950228 0.500000 0.102024
O O2 0.055650 0.672298 0.220967
O O3 0.997059 0.763327 0.279243
O O4 0.887760 0.721998 0.855482
O O5 0.396126 0.753988 0.592877
O O6 0.298686 0.778209 0.193941
O O7 0.480592 0.773770 0.591008
O O8 0.390208 0.000000 0.464053
O O9 0.333374 0.269563 0.658196
O O10 0.216374 0.221734 0.548684
O O11 0.321871 0.000000 0.721573
O O12 0.386340 0.213025 0.978310
O O13 0.589325 0.500000 0.271665
O O14 0.500000 0.277726 0.000000
O O15 0.825561 0.500000 0.602520
O O16 0.000000 0.778160 0.500000
O O17 0.942729 0.000000 0.491928
O O18 0.842857 0.767592 0.261957
O O19 0.664427 0.233681 0.929589
O O20 0.745243 0.000000 0.026407
O O21 0.582796 0.000000 0.815626
#
# Coordination Sequence:
#
# PCOD9155341 Si02
#       8
#     4   4   4   4   4   4   4   4
#     4   9  19  37  59  80 108 148 186 224 273 335
#     4  10  19  34  57  80 106 141 185 232 272 322
#     4  11  21  33  55  85 113 143 185 229 272 325
#     4  11  23  38  54  74 109 152 186 222 273 322
#     4   9  19  36  56  82 114 144 180 226 279 332
#     4  10  21  36  54  78 112 146 181 231 282 326
#     4   9  18  33  54  81 109 140 178 223 281 334
#     4   9  17  30  52  81 109 137 176 227 275 324
#
# _framework density 19.753086
#
# number of rings (size 3 to 8) (size 9 to 14) (size 15 to 20)
#    0.000    2.250    1.250    2.625    0.000    5.250 
#    0.000    3.125    0.000    3.000    0.000    0.000 
#    0.000    0.000    0.000    0.000    0.000    0.000 
#
# Total GULP energy -178401.830966 kJ/mol
# GULP energy per Si atom -5575.057218 kJ/mol
# Density = 1.970813 g / cm^3
# Si number density = 19.753086 Si / 1000 Ang^3
#
#
#
# Elastic Constant Matrix: (Units=GPa)
#
#
# Indices 1 2 3 4 5 6 
#
# 1 48.8906 10.4167 -9.0016 0.0000 -17.8454 0.0000
# 2 10.4167 -1.7719 11.8093 0.0000 -7.8298 0.0000
# 3 -9.0016 11.8093 53.1917 0.0000 -8.7757 0.0000
# 4 0.0000 0.0000 0.0000 24.4643 0.0000 0.4552
# 5 -17.8454 -7.8298 -8.7757 0.0000 29.2604 0.0000
# 6 0.0000 0.0000 0.0000 0.4552 0.0000 6.1706
#
#
#
# Elastic Compliance Matrix: (Units=1/GPa)
#
#
# Indices 1 2 3 4 5 6 
#
# 1 0.021630 0.031950 0.000162 0.000000 0.021790 0.000000
# 2 0.031950 -0.130189 0.033432 0.000000 -0.005325 0.000000
# 3 0.000162 0.033432 0.013569 0.000000 0.013114 0.000000
# 4 0.000000 0.000000 0.000000 0.040932 0.000000 -0.003020
# 5 0.021790 -0.005325 0.013114 0.000000 0.049973 0.000000
# 6 0.000000 0.000000 0.000000 -0.003020 0.000000 0.162281
#
#
# Mechanical properties :
#
#
# Convention : Reuss Voigt Hill
#
# Bulk Modulus (GPa) = 27.70269 14.08433 20.89351
# Shear Modulus (GPa) = 127.74623 17.78479 72.76551
#
# Velocity S-wave (km/s) = 8.05059 3.00385 6.07598
# Velocity P-wave (km/s) = 10.02351 4.37909 7.73458
#
# Compressibility (1/GPa) = 0.03609758
#
# Stress axis : x y z
#
# Youngs Moduli (GPa) = 46.23247 -7.68114 73.69963
#
# Poissons Ratio (x) = 0.24541 -0.01194
# Poissons Ratio (y) = -1.47712 -2.46393
# Poissons Ratio (z) = -0.00749 0.25680
#
# Static dielectric constant tensor:
#      x y z
#    x 1.760860 0.000000 0.020270 
#    y 0.000000 1.664130 0.000000 
#    z 0.020270 0.000000 1.738110 
# 
# From -- ./inp_files/58271.got.cif
#   From: 2010.05.17/outbox.ucp.g08.bks.cvg/sg10_30_cif.got.tgz:58271.got - 2010.06.11 11:31:16.
