data_PCOD9155637
_publ_section_title
;
Structure prediction by ZEFSAII (Michael W. Deem and Ramdas Pophale) SiO2 
 PCOD9155637
Probable space group: P 2/M
;
_chemical_formula_sum "Si O2"
_cell_formula_units_Z 20
_cell_length_a 24.000000
_cell_length_b 9.000000
_cell_length_c 15.000000
_cell_angle_alpha 90.000000
_cell_angle_beta 20.000000
_cell_angle_gamma 90.000000
_cell_volume 1108.145264
_symmetry_space_group_name_H-M "P 2/M"
_symmetry_group_IT_number 10
_symmetry_cell_setting 'monoclinic'
loop_
_space_group_symop_operation_xyz
x,y,z
-x,y,-z
-x,-y,-z
x,-y,z
loop_
_atom_site_type_symbol
_atom_site_label
_atom_site_fract_x
_atom_site_fract_y
_atom_site_fract_z
Si Si1 0.198812 0.679938 0.703458
Si Si2 0.541196 0.180549 0.830097
Si Si3 0.682921 0.320649 0.267315
Si Si4 0.778544 0.681230 0.778445
Si Si5 0.893783 0.181435 0.791020
O O1 0.214037 0.500000 0.670591
O O2 0.300614 0.756270 0.466677
O O3 0.276404 0.716045 0.687544
O O4 0.000000 0.713518 0.000000
O O5 0.542462 0.000000 0.819050
O O6 0.500000 0.208617 0.000000
O O7 0.390100 0.259850 0.007877
O O8 0.500000 0.288386 0.500000
O O9 0.703546 0.500000 0.229677
O O10 0.808894 0.239048 0.009900
O O11 0.787702 0.500000 0.767413
O O12 0.799778 0.749999 0.846036
O O13 0.925462 0.749967 0.497401
O O14 0.897169 0.000000 0.782704
#
# Coordination Sequence:
#
# PCOD9155637 Si02
#       5
#     4   4   4   4   4
#     4  10  23  42  64  94 129 169 218 267 317 381
#     4  11  25  43  64  93 129 168 212 263 322 382
#     4  10  21  38  61  89 124 166 214 262 314 380
#     4  11  22  39  63  90 124 165 212 261 314 373
#     4  11  22  37  61  93 128 162 204 260 322 381
#
# _framework density 18.048175000000001
#
# number of rings (size 3 to 8) (size 9 to 14) (size 15 to 20)
#    0.000    1.400    0.000    6.600    2.800    4.800 
#    0.000    0.000    0.000    0.000    0.000    0.000 
#    0.000    0.000    0.000    0.000    0.000    0.000 
#
# Total GULP energy -111442.977133 kJ/mol
# GULP energy per Si atom -5572.148857 kJ/mol
# Density = 1.800710 g / cm^3
# Si number density = 18.048175 Si / 1000 Ang^3
#
#
#
# Elastic Constant Matrix: (Units=GPa)
#
#
# Indices 1 2 3 4 5 6 
#
# 1 121.7668 41.6519 73.0511 0.0000 12.5054 0.0000
# 2 41.6519 137.1348 54.4756 0.0000 10.5120 0.0000
# 3 73.0511 54.4756 153.4432 0.0000 12.6797 0.0000
# 4 0.0000 0.0000 0.0000 42.3211 0.0000 9.9029
# 5 12.5054 10.5120 12.6797 0.0000 47.6129 0.0000
# 6 0.0000 0.0000 0.0000 9.9029 0.0000 33.4055
#
#
#
# Elastic Compliance Matrix: (Units=1/GPa)
#
#
# Indices 1 2 3 4 5 6 
#
# 1 0.011877 -0.001510 -0.004998 0.000000 -0.001455 0.000000
# 2 -0.001510 0.008738 -0.002307 0.000000 -0.000918 0.000000
# 3 -0.004998 -0.002307 0.009780 0.000000 -0.000782 0.000000
# 4 0.000000 0.000000 0.000000 0.025390 0.000000 -0.007527
# 5 -0.001455 -0.000918 -0.000782 0.000000 0.021796 0.000000
# 6 0.000000 0.000000 0.000000 -0.007527 0.000000 0.032166
#
#
# Mechanical properties :
#
#
# Convention : Reuss Voigt Hill
#
# Bulk Modulus (GPa) = 78.34602 83.41134 80.87868
# Shear Modulus (GPa) = 37.98448 40.87897 39.43172
#
# Velocity S-wave (km/s) = 4.59259 4.76436 4.67926
# Velocity P-wave (km/s) = 8.46322 8.75110 8.60836
#
# Compressibility (1/GPa) = 0.01276389
#
# Stress axis : x y z
#
# Youngs Moduli (GPa) = 84.19732 114.44632 102.24768
#
# Poissons Ratio (x) = 0.17287 0.51102
# Poissons Ratio (y) = 0.12718 0.23590
# Poissons Ratio (z) = 0.42080 0.26404
#
# Static dielectric constant tensor:
#      x y z
#    x 1.651570 0.000000 -0.012130 
#    y 0.000000 1.606250 0.000000 
#    z -0.012130 0.000000 1.656540 
# 
# From -- ./inp_files/53137.got.cif
#   From: 2010.05.17/outbox.ucp.g08.bks.cvg/sg10_27_cif.got.tgz:53137.got - 2010.06.11 11:31:16.
