data_PCOD9155343
_publ_section_title
;
Structure prediction by ZEFSAII (Michael W. Deem and Ramdas Pophale) SiO2 
 PCOD9155343
Probable space group: P 2/M
;
_chemical_formula_sum "Si O2"
_cell_formula_units_Z 32
_cell_length_a 30.000000
_cell_length_b 9.000000
_cell_length_c 12.000000
_cell_angle_alpha 90.000000
_cell_angle_beta 150.000000
_cell_angle_gamma 90.000000
_cell_volume 1620.000000
_symmetry_space_group_name_H-M "P 2/M"
_symmetry_group_IT_number 10
_symmetry_cell_setting 'monoclinic'
loop_
_space_group_symop_operation_xyz
x,y,z
-x,y,-z
-x,-y,-z
x,-y,z
loop_
_atom_site_type_symbol
_atom_site_label
_atom_site_fract_x
_atom_site_fract_y
_atom_site_fract_z
Si Si1 0.897004 0.174435 0.788080
Si Si2 0.046464 0.170047 0.480262
Si Si3 0.266018 0.676210 0.681098
Si Si4 0.675162 0.177159 0.607922
Si Si5 0.870099 0.176721 0.990115
Si Si6 0.398973 0.176644 0.798311
Si Si7 0.762620 0.321882 0.126785
Si Si8 0.585595 0.320701 0.611028
O O1 0.829309 0.267239 0.568392
O O2 0.865603 0.188010 0.847601
O O3 0.891764 0.000000 0.745320
O O4 0.000000 0.219566 0.000000
O O5 0.141173 0.250594 0.687884
O O6 0.000000 0.165820 0.500000
O O7 0.063268 0.000000 0.478851
O O8 0.966555 0.239477 0.233608
O O9 0.271727 0.500000 0.681882
O O10 0.344144 0.748469 0.778111
O O11 0.268731 0.715200 0.816478
O O12 0.777888 0.233477 0.844786
O O13 0.652031 0.199156 0.428464
O O14 0.599209 0.252855 0.518214
O O15 0.674701 0.000000 0.628899
O O16 0.873718 0.000000 0.026095
O O17 0.402205 0.000000 0.827183
O O18 0.500000 0.230406 0.000000
O O19 0.772178 0.500000 0.138650
O O20 0.679712 0.276069 0.870814
O O21 0.500000 0.273846 0.500000
O O22 0.581601 0.500000 0.595624
#
# Coordination Sequence:
#
# PCOD9155343 Si02
#       8
#     4   4   4   4   4   4   4   4
#     4  10  19  34  57  82 114 158 198 235 287 342
#     4  10  20  35  59  88 113 147 197 243 287 343
#     4  11  23  38  58  86 122 159 197 242 289 347
#     4  10  20  38  62  88 119 147 185 244 292 338
#     4   9  17  32  54  82 115 147 182 231 285 336
#     4  10  22  40  63  90 119 153 193 243 299 352
#     4  10  23  41  57  82 120 157 193 239 292 342
#     4  10  23  42  62  82 111 153 196 237 287 348
#
# _framework density 19.753086
#
# number of rings (size 3 to 8) (size 9 to 14) (size 15 to 20)
#    0.000    2.000    1.250    1.875    1.750    5.000 
#    0.000    1.250    0.000    0.000    0.000    0.000 
#    0.000    0.000    0.000    0.000    0.000    0.000 
#
# Total GULP energy -178560.915076 kJ/mol
# GULP energy per Si atom -5580.028596 kJ/mol
# Density = 1.970813 g / cm^3
# Si number density = 19.753086 Si / 1000 Ang^3
#
#
#
# Elastic Constant Matrix: (Units=GPa)
#
#
# Indices 1 2 3 4 5 6 
#
# 1 99.9243 37.6195 17.1736 0.0000 35.1037 0.0000
# 2 37.6195 8.9513 19.5731 0.0000 4.2482 0.0000
# 3 17.1736 19.5731 46.8131 0.0000 23.3566 0.0000
# 4 0.0000 0.0000 0.0000 28.8146 0.0000 11.0746
# 5 35.1037 4.2482 23.3566 0.0000 38.8769 0.0000
# 6 0.0000 0.0000 0.0000 11.0746 0.0000 28.3198
#
#
#
# Elastic Compliance Matrix: (Units=1/GPa)
#
#
# Indices 1 2 3 4 5 6 
#
# 1 0.000268 0.027412 -0.014201 0.000000 0.005294 0.000000
# 2 0.027412 -0.051859 0.030202 0.000000 -0.037229 0.000000
# 3 -0.014201 0.030202 0.013128 0.000000 0.001636 0.000000
# 4 0.000000 0.000000 0.000000 0.040843 0.000000 -0.015972
# 5 0.005294 -0.037229 0.001636 0.000000 0.024027 0.000000
# 6 0.000000 0.000000 0.000000 -0.015972 0.000000 0.041557
#
#
# Mechanical properties :
#
#
# Convention : Reuss Voigt Hill
#
# Bulk Modulus (GPa) = 20.67744 33.82453 27.25098
# Shear Modulus (GPa) = -1824.92534 24.62377 -900.15079
#
# Velocity S-wave (km/s) = -30.42818 3.53452 -21.37032
# Velocity P-wave (km/s) = 34.98583 5.81532 24.39457
#
# Compressibility (1/GPa) = 0.04836189
#
# Stress axis : x y z
#
# Youngs Moduli (GPa) = 3726.11836 -19.28303 76.17571
#
# Poissons Ratio (x) = 0.52859 1.08178
# Poissons Ratio (y) = -102.14045 -2.30063
# Poissons Ratio (z) = 52.91496 0.58238
#
# Static dielectric constant tensor:
#      x y z
#    x 2.197970 0.000000 -0.609040 
#    y 0.000000 1.672380 0.000000 
#    z -0.609040 0.000000 2.386300 
# 
# From -- ./inp_files/58362.got.cif
#   From: 2010.05.17/outbox.ucp.g08.bks.cvg/sg10_30_cif.got.tgz:58362.got - 2010.06.11 11:31:16.
