data_PCOD9155123
_publ_section_title
;
Structure prediction by ZEFSAII (Michael W. Deem and Ramdas Pophale) SiO2 
 PCOD9155123
Probable space group: P 2/M
;
_chemical_formula_sum "Si O2"
_cell_formula_units_Z 32
_cell_length_a 15.000000
_cell_length_b 9.000000
_cell_length_c 15.000000
_cell_angle_alpha 90.000000
_cell_angle_beta 80.000000
_cell_angle_gamma 90.000000
_cell_volume 1994.235700
_symmetry_space_group_name_H-M "P 2/M"
_symmetry_group_IT_number 10
_symmetry_cell_setting 'monoclinic'
loop_
_space_group_symop_operation_xyz
x,y,z
-x,y,-z
-x,-y,-z
x,-y,z
loop_
_atom_site_type_symbol
_atom_site_label
_atom_site_fract_x
_atom_site_fract_y
_atom_site_fract_z
Si Si1 0.630473 0.821462 0.686777
Si Si2 0.468990 0.321255 0.606607
Si Si3 0.601453 0.179854 0.888044
Si Si4 0.306608 0.820831 0.738617
Si Si5 0.043617 0.167632 0.393310
Si Si6 0.388239 0.819680 0.915441
Si Si7 0.207031 0.675384 0.444585
Si Si8 0.146870 0.822152 0.639910
O O1 0.540100 0.747045 0.664078
O O2 0.647812 0.776316 0.786954
O O3 0.708790 0.764312 0.609116
O O4 0.621642 0.000000 0.685211
O O5 0.500000 0.282055 0.500000
O O6 0.466942 0.500000 0.612430
O O7 0.373756 0.253756 0.655078
O O8 0.495160 0.219434 0.893140
O O9 0.603860 0.000000 0.891482
O O10 0.637869 0.230897 0.978849
O O11 0.334439 0.771651 0.834977
O O12 0.205591 0.789745 0.718148
O O13 0.319151 0.000000 0.733812
O O14 0.123793 0.283272 0.393378
O O15 0.000000 0.159807 0.500000
O O16 0.961190 0.207497 0.341716
O O17 0.077190 0.000000 0.366730
O O18 0.382819 0.000000 0.915827
O O19 0.223713 0.500000 0.443830
O O20 0.184965 0.734290 0.547694
O O21 0.155421 0.000000 0.620614
#
# Coordination Sequence:
#
# PCOD9155123 Si02
#       8
#     4   4   4   4   4   4   4   4
#     4  11  20  32  49  67  87 120 158 189 225 270
#     4  11  23  34  42  59  92 128 157 187 221 259
#     4   8  14  25  45  69  90 112 144 189 232 266
#     4  10  18  30  49  70  90 119 154 185 221 270
#     4   8  15  30  48  66  90 118 150 190 229 265
#     4   8  13  25  45  70  92 110 143 189 230 267
#     4  11  21  31  45  67  94 123 153 189 229 269
#     4   9  18  31  48  70  94 121 154 189 223 265
#
# _framework density 16.046247999999999
#
# number of rings (size 3 to 8) (size 9 to 14) (size 15 to 20)
#    0.000    2.500    1.250    4.125    0.000    5.750 
#    0.000    0.000    0.000    2.250    0.000    0.875 
#    0.000    7.000    0.000    0.000    0.000    0.000 
#
# Total GULP energy -178150.971675 kJ/mol
# GULP energy per Si atom -5567.217865 kJ/mol
# Density = 1.600973 g / cm^3
# Si number density = 16.046248 Si / 1000 Ang^3
#
#
#
# Elastic Constant Matrix: (Units=GPa)
#
#
# Indices 1 2 3 4 5 6 
#
# 1 58.5681 6.4390 10.9044 0.0000 29.7478 0.0000
# 2 6.4390 26.3314 14.3697 0.0000 6.0661 0.0000
# 3 10.9044 14.3697 72.1515 0.0000 28.8872 0.0000
# 4 0.0000 0.0000 0.0000 6.4417 0.0000 -2.1087
# 5 29.7478 6.0661 28.8872 0.0000 28.5837 0.0000
# 6 0.0000 0.0000 0.0000 -2.1087 0.0000 -4.7754
#
#
#
# Elastic Compliance Matrix: (Units=1/GPa)
#
#
# Indices 1 2 3 4 5 6 
#
# 1 0.054206 -0.008780 0.025860 0.000000 -0.080685 0.000000
# 2 -0.008780 0.044041 -0.012363 0.000000 0.012285 0.000000
# 3 0.025860 -0.012363 0.037184 0.000000 -0.061868 0.000000
# 4 0.000000 0.000000 0.000000 0.135632 0.000000 -0.059891
# 5 -0.080685 0.012285 -0.061868 0.000000 0.178874 0.000000
# 6 0.000000 0.000000 0.000000 -0.059891 0.000000 -0.182959
#
#
# Mechanical properties :
#
#
# Convention : Reuss Voigt Hill
#
# Bulk Modulus (GPa) = 6.90296 24.49745 15.70021
# Shear Modulus (GPa) = 16.34885 14.40586 15.37735
#
# Velocity S-wave (km/s) = 3.19542 2.99953 3.09902
# Velocity P-wave (km/s) = 4.23385 5.22458 4.75509
#
# Compressibility (1/GPa) = 0.14486538
#
# Stress axis : x y z
#
# Youngs Moduli (GPa) = 18.44812 22.70613 26.89354
#
# Poissons Ratio (x) = 0.19936 -0.69547
# Poissons Ratio (y) = 0.16197 0.33248
# Poissons Ratio (z) = -0.47707 0.28071
#
# Static dielectric constant tensor:
#      x y z
#    x 1.588250 0.000000 0.008190 
#    y 0.000000 1.532410 0.000000 
#    z 0.008190 0.000000 1.552210 
# 
# From -- ./inp_files/66034.got.cif
#   From: 2010.05.17/outbox.ucp.g08.bks.cvg/sg10_34_cif.got.tgz:66034.got - 2010.06.11 11:31:16.
