data_PCOD9155945
_publ_section_title
;
Structure prediction by ZEFSAII (Michael W. Deem and Ramdas Pophale) SiO2 
 PCOD9155945
Probable space group: P 21/M
;
_chemical_formula_sum "Si O2"
_cell_formula_units_Z 32
_cell_length_a 11.710285
_cell_length_b 15.408087
_cell_length_c 10.954907
_cell_angle_alpha 90.000000
_cell_angle_beta 115.732759
_cell_angle_gamma 90.000000
_cell_volume 1780.603432
_symmetry_space_group_name_H-M "P 21/M"
_symmetry_group_IT_number 11
_symmetry_cell_setting 'monoclinic'
loop_
_space_group_symop_operation_xyz
x,y,z
-x,1/2+y,-z
-x,-y,-z
x,1/2-y,z
loop_
_atom_site_type_symbol
_atom_site_label
_atom_site_fract_x
_atom_site_fract_y
_atom_site_fract_z
Si Si1 0.383898 0.345752 0.769304
Si Si2 0.033473 0.043666 0.888851
Si Si3 0.302845 0.847280 0.667893
Si Si4 0.881641 0.602341 0.434479
Si Si5 0.488813 0.018088 0.140689
Si Si6 0.907473 0.426696 0.298252
Si Si7 0.719304 0.650304 0.998270
Si Si8 0.890413 0.348106 0.638591
O O1 0.438690 0.250000 0.779166
O O2 0.256383 0.357186 0.631006
O O3 0.482829 0.422930 0.792320
O O4 0.327768 0.351799 0.881990
O O5 0.916356 0.082541 0.756383
O O6 0.096885 0.969166 0.834801
O O7 0.135166 0.121468 0.944035
O O8 0.000000 0.000000 0.000000
O O9 0.356890 0.750000 0.690024
O O10 0.402698 0.918615 0.756572
O O11 0.191751 0.852652 0.717878
O O12 0.229838 0.863833 0.505775
O O13 0.870926 0.505158 0.374794
O O14 0.951695 0.599894 0.596294
O O15 0.984206 0.646058 0.390614
O O16 0.361769 0.073661 0.102450
O O17 0.500000 0.000000 0.000000
O O18 0.700182 0.750000 0.947588
O O19 0.881446 0.250000 0.681506
#
# Coordination Sequence:
#
# PCOD9155945 Si02
#       8
#     4   4   4   4   4   4   4   4
#     4  10  17  27  49  77 104 140 172 202 254 319
#     4  11  21  33  51  73 102 138 185 221 265 307
#     4  10  18  30  52  82 108 134 168 214 272 324
#     4   9  14  24  48  74 104 131 163 204 267 319
#     4  10  19  31  47  76 113 139 168 207 257 320
#     4   9  16  28  44  73 107 135 158 212 264 315
#     4  10  19  33  52  72 102 142 181 214 247 308
#     4   9  17  30  52  77 100 130 176 226 265 313
#
# _framework density 17.971436000000001
#
# number of rings (size 3 to 8) (size 9 to 14) (size 15 to 20)
#    0.000    2.250    3.750    2.625    0.000    1.000 
#    0.000    1.250    0.000    2.250    0.000    0.000 
#    0.000    0.000    0.000    0.000    0.000    0.000 
#
# Total GULP energy -178173.171359 kJ/mol
# GULP energy per Si atom -5567.911605 kJ/mol
# Density = 1.793053 g / cm^3
# Si number density = 17.971436 Si / 1000 Ang^3
#
#
#
# Elastic Constant Matrix: (Units=GPa)
#
#
# Indices 1 2 3 4 5 6 
#
# 1 16.2279 21.6087 18.9486 0.0000 9.2783 0.0000
# 2 21.6087 126.8346 42.1684 0.0000 11.6607 0.0000
# 3 18.9486 42.1684 60.2995 0.0000 11.9620 0.0000
# 4 0.0000 0.0000 0.0000 21.0640 0.0000 2.9805
# 5 9.2783 11.6607 11.9620 0.0000 24.2170 0.0000
# 6 0.0000 0.0000 0.0000 2.9805 0.0000 12.6593
#
#
#
# Elastic Compliance Matrix: (Units=1/GPa)
#
#
# Indices 1 2 3 4 5 6 
#
# 1 0.120565 -0.009368 -0.025573 0.000000 -0.029050 0.000000
# 2 -0.009368 0.011053 -0.004925 0.000000 0.000699 0.000000
# 3 -0.025573 -0.004925 0.028436 0.000000 -0.001877 0.000000
# 4 0.000000 0.000000 0.000000 0.049110 0.000000 -0.011563
# 5 -0.029050 0.000699 -0.001877 0.000000 0.053014 0.000000
# 6 0.000000 0.000000 0.000000 -0.011563 0.000000 0.081715
#
#
# Mechanical properties :
#
#
# Convention : Reuss Voigt Hill
#
# Bulk Modulus (GPa) = 12.44953 40.97927 26.71440
# Shear Modulus (GPa) = 11.10125 19.63049 15.36587
#
# Velocity S-wave (km/s) = 2.48809 3.30861 2.92724
# Velocity P-wave (km/s) = 3.89827 6.11946 5.13051
#
# Compressibility (1/GPa) = 0.08032430
#
# Stress axis : x y z
#
# Youngs Moduli (GPa) = 8.29425 90.47087 35.16638
#
# Poissons Ratio (x) = 0.84751 0.89930
# Poissons Ratio (y) = 0.07770 0.17319
# Poissons Ratio (z) = 0.21211 0.44555
#
# Static dielectric constant tensor:
#      x y z
#    x 1.619750 0.000000 0.057980 
#    y 0.000000 1.669090 0.000000 
#    z 0.057980 0.000000 1.659560 
# 
# From -- ./inp_files/35524.got.cif
#   From: 2010.05.17/outbox.cif.g08.bks.cpg/sg11_18_cif.got.tgz:35524.got - 2010.06.03 12:22:45.
