data_PCOD9155766
_publ_section_title
;
Structure prediction by ZEFSAII (Michael W. Deem and Ramdas Pophale) SiO2 
 PCOD9155766
Probable space group: P 21/M
;
_chemical_formula_sum "Si O2"
_cell_formula_units_Z 18
_cell_length_a 10.636895
_cell_length_b 5.588502
_cell_length_c 14.594221
_cell_angle_alpha 90.000000
_cell_angle_beta 106.514826
_cell_angle_gamma 90.000000
_cell_volume 831.753930
_symmetry_space_group_name_H-M "P 21/M"
_symmetry_group_IT_number 11
_symmetry_cell_setting 'monoclinic'
loop_
_space_group_symop_operation_xyz
x,y,z
-x,1/2+y,-z
-x,-y,-z
x,1/2-y,z
loop_
_atom_site_type_symbol
_atom_site_label
_atom_site_fract_x
_atom_site_fract_y
_atom_site_fract_z
Si Si1 0.867641 0.750000 0.765235
Si Si2 0.641171 0.750000 0.867986
Si Si3 0.502617 0.750000 0.379431
Si Si4 0.072727 0.000243 0.916121
Si Si5 0.652061 0.250000 0.176092
Si Si6 0.655859 0.750000 0.218860
Si Si7 0.360141 0.250000 0.398167
Si Si8 0.605875 0.250000 0.953668
O O1 0.745561 0.750000 0.809133
O O2 0.960488 0.968445 0.815961
O O3 0.795846 0.750000 0.653973
O O4 0.490196 0.750000 0.802416
O O5 0.662113 0.499324 0.925505
O O6 0.583645 0.750000 0.301974
O O7 0.418618 0.502464 0.370544
O O8 0.599010 0.750000 0.486991
O O9 0.148822 0.750000 0.926825
O O10 0.142583 0.250000 0.919748
O O11 0.000000 0.000000 0.000000
O O12 0.724824 0.494402 0.218119
O O13 0.599896 0.250000 0.061276
O O14 0.542016 0.750000 0.118056
#
# Coordination Sequence:
#
# PCOD9155766 Si02
#       8
#     2   2   2   4   2   2   2   2
#     4  10  20  26  46  61  80 106 148 166 199 229
#     4  10  18  24  38  56  76  96 129 168 185 224
#     4  10  20  32  39  56  80 107 137 177 216 223
#     4   8  16  28  41  57  80 102 130 165 198 247
#     4  10  18  28  40  53  73  99 131 165 203 241
#     4  10  16  26  42  51  66  96 132 162 192 237
#     4  10  20  30  42  55  81 107 136 176 207 236
#     4  10  18  28  37  54  76  99 129 164 204 236
#
# _framework density 21.641016
#
# number of rings (size 3 to 8) (size 9 to 14) (size 15 to 20)
#    0.667    1.778    0.000    6.667    3.111    0.000 
#    0.000    0.000    0.000    0.000    0.000    0.000 
#    0.000    0.000    0.000    0.000    0.000   37.778 
#
# Total GULP energy -100423.516149 kJ/mol
# GULP energy per Si atom -5579.084231 kJ/mol
# Density = 2.159176 g / cm^3
# Si number density = 21.641016 Si / 1000 Ang^3
#
#
#
# Elastic Constant Matrix: (Units=GPa)
#
#
# Indices 1 2 3 4 5 6 
#
# 1 44.8815 17.4965 12.5044 0.0000 9.4264 0.0000
# 2 17.4965 236.1788 35.4130 0.0000 3.5229 0.0000
# 3 12.5044 35.4130 80.3095 0.0000 10.6287 0.0000
# 4 0.0000 0.0000 0.0000 29.4345 0.0000 -1.2499
# 5 9.4264 3.5229 10.6287 0.0000 35.5635 0.0000
# 6 0.0000 0.0000 0.0000 -1.2499 0.0000 31.4714
#
#
#
# Elastic Compliance Matrix: (Units=1/GPa)
#
#
# Indices 1 2 3 4 5 6 
#
# 1 0.024700 -0.001372 -0.002491 0.000000 -0.005667 0.000000
# 2 -0.001372 0.004611 -0.001882 0.000000 0.000469 0.000000
# 3 -0.002491 -0.001882 0.014116 0.000000 -0.003372 0.000000
# 4 0.000000 0.000000 0.000000 0.034031 0.000000 0.001352
# 5 -0.005667 0.000469 -0.003372 0.000000 0.030582 0.000000
# 6 0.000000 0.000000 0.000000 0.001352 0.000000 0.031829
#
#
# Mechanical properties :
#
#
# Convention : Reuss Voigt Hill
#
# Bulk Modulus (GPa) = 31.31121 54.68862 42.99991
# Shear Modulus (GPa) = 30.86366 39.02427 34.94397
#
# Velocity S-wave (km/s) = 3.78056 4.25108 4.02270
# Velocity P-wave (km/s) = 5.79281 7.03003 6.44119
#
# Compressibility (1/GPa) = 0.03193745
#
# Stress axis : x y z
#
# Youngs Moduli (GPa) = 40.48609 216.87980 70.84307
#
# Poissons Ratio (x) = 0.29751 0.17647
# Poissons Ratio (y) = 0.05554 0.13330
# Poissons Ratio (z) = 0.10085 0.40810
#
# Static dielectric constant tensor:
#      x y z
#    x 1.812700 0.000000 0.008420 
#    y 0.000000 1.912350 0.000000 
#    z 0.008420 0.000000 1.823000 
# 
# From -- ./inp_files/40239.got.cif
#   From: 2010.05.17/outbox.cif.g08.bks.cpg/sg11_21_cif.got.tgz:40239.got - 2010.06.03 12:22:45.
