data_PCOD9155023
_publ_section_title
;
Structure prediction by ZEFSAII (Michael W. Deem and Ramdas Pophale) SiO2 
 PCOD9155023
Probable space group: P 2/M
;
_chemical_formula_sum "Si O2"
_cell_formula_units_Z 28
_cell_length_a 13.927055
_cell_length_b 11.904329
_cell_length_c 18.943134
_cell_angle_alpha 90.000000
_cell_angle_beta 18.469565
_cell_angle_gamma 90.000000
_cell_volume 994.952642
_symmetry_space_group_name_H-M "P 2/M"
_symmetry_group_IT_number 10
_symmetry_cell_setting 'monoclinic'
loop_
_space_group_symop_operation_xyz
x,y,z
-x,y,-z
-x,-y,-z
x,-y,z
loop_
_atom_site_type_symbol
_atom_site_label
_atom_site_fract_x
_atom_site_fract_y
_atom_site_fract_z
Si Si1 0.776861 0.623603 0.722423
Si Si2 0.020586 0.874733 0.228949
Si Si3 0.826457 0.870974 0.717491
Si Si4 0.459791 0.156285 0.793095
Si Si5 0.709459 0.374666 0.285571
Si Si6 0.625690 0.616346 0.628605
Si Si7 0.345465 0.131021 0.707248
O O1 0.614610 0.500000 0.839199
O O2 0.000000 0.616511 0.500000
O O3 0.679581 0.755380 0.788866
O O4 0.011922 0.625466 0.624629
O O5 0.161834 0.847276 0.206434
O O6 0.685523 0.828101 0.447761
O O7 0.920934 0.000000 0.313442
O O8 0.241433 0.876466 0.008494
O O9 0.184391 0.876664 0.445747
O O10 0.708424 0.000000 0.787375
O O11 0.479250 0.289314 0.777035
O O12 0.360467 0.121862 0.782632
O O13 0.500000 0.378223 0.500000
O O14 0.874673 0.500000 0.170557
O O15 0.511969 0.380471 0.352197
O O16 0.839313 0.245250 0.187043
O O17 0.554796 0.500000 0.713335
O O18 0.276498 0.000000 0.730477
#
# Coordination Sequence:
#
# PCOD9155023 Si02
#       7
#     4   4   4   4   4   4   4
#     4   9  17  30  49  71  97 129 158 192 242 285
#     4   9  16  27  45  70  99 127 157 197 240 280
#     4   9  17  28  45  71  96 122 162 199 230 281
#     4   9  15  27  47  69  98 130 155 192 245 284
#     4   9  17  30  49  71  97 129 158 192 242 285
#     4   8  15  28  46  69  94 121 161 201 228 278
#     4   9  17  28  45  71  96 122 162 199 230 281
#
# _framework density 28.142043000000001
#
# number of rings (size 3 to 8) (size 9 to 14) (size 15 to 20)
#    0.000    3.143    0.000    3.000    0.000    0.571 
#    0.000    1.429    0.000    6.857    0.000   36.000 
#    0.000    0.000    0.000    0.000    0.000    0.000 
#
# Total GULP energy -156107.842225 kJ/mol
# GULP energy per Si atom -5575.280079 kJ/mol
# Density = 2.807799 g / cm^3
# Si number density = 28.142043 Si / 1000 Ang^3
#
#
#
# Elastic Constant Matrix: (Units=GPa)
#
#
# Indices 1 2 3 4 5 6 
#
# 1 104.9734 38.4323 25.1741 0.0000 15.5691 0.0000
# 2 38.4323 335.7804 38.4392 0.0000 -1.9485 0.0000
# 3 25.1741 38.4392 151.8116 0.0000 23.1403 0.0000
# 4 0.0000 0.0000 0.0000 6.9486 0.0000 -6.1512
# 5 15.5691 -1.9485 23.1403 0.0000 39.7460 0.0000
# 6 0.0000 0.0000 0.0000 -6.1512 0.0000 -0.9581
#
#
#
# Elastic Compliance Matrix: (Units=1/GPa)
#
#
# Indices 1 2 3 4 5 6 
#
# 1 0.010717 -0.001143 -0.000921 0.000000 -0.003718 0.000000
# 2 -0.001143 0.003205 -0.000784 0.000000 0.001061 0.000000
# 3 -0.000921 -0.000784 0.007560 0.000000 -0.004079 0.000000
# 4 0.000000 0.000000 0.000000 0.021533 0.000000 -0.138247
# 5 -0.003718 0.001061 -0.004079 0.000000 0.029043 0.000000
# 6 0.000000 0.000000 0.000000 -0.138247 0.000000 -0.156169
#
#
# Mechanical properties :
#
#
# Convention : Reuss Voigt Hill
#
# Bulk Modulus (GPa) = 63.34459 88.51740 75.93100
# Shear Modulus (GPa) = -68.34830 41.84861 -13.24984
#
# Velocity S-wave (km/s) = -4.93352 3.86041 -2.17219
# Velocity P-wave (km/s) = 3.14565 7.16885 4.55507
#
# Compressibility (1/GPa) = 0.01578667
#
# Stress axis : x y z
#
# Youngs Moduli (GPa) = 93.31068 312.03144 132.27412
#
# Poissons Ratio (x) = 0.35657 0.12184
# Poissons Ratio (y) = 0.10663 0.10366
# Poissons Ratio (z) = 0.08595 0.24454
#
# Static dielectric constant tensor:
#      x y z
#    x 2.289540 0.000000 -0.075550 
#    y 0.000000 2.254060 0.000000 
#    z -0.075550 0.000000 2.190620 
# 
# From -- ./inp_files/85818.got.cif
#   From: 2010.05.17/outbox.cif.g08.bks.cpg/sg10_43_cif.got.tgz:85818.got - 2010.06.03 11:33:40.
