data_PCOD9155056
_publ_section_title
;
Structure prediction by ZEFSAII (Michael W. Deem and Ramdas Pophale) SiO2 
 PCOD9155056
Probable space group: P 2/M
;
_chemical_formula_sum "Si O2"
_cell_formula_units_Z 28
_cell_length_a 29.278253
_cell_length_b 11.289152
_cell_length_c 32.617537
_cell_angle_alpha 90.000000
_cell_angle_beta 7.634619
_cell_angle_gamma 90.000000
_cell_volume 1432.308082
_symmetry_space_group_name_H-M "P 2/M"
_symmetry_group_IT_number 10
_symmetry_cell_setting 'monoclinic'
loop_
_space_group_symop_operation_xyz
x,y,z
-x,y,-z
-x,-y,-z
x,-y,z
loop_
_atom_site_type_symbol
_atom_site_label
_atom_site_fract_x
_atom_site_fract_y
_atom_site_fract_z
Si Si1 0.612882 0.355670 0.354205
Si Si2 0.043143 0.355163 0.794962
Si Si3 0.514416 0.127678 0.901758
Si Si4 0.219028 0.631840 0.459147
Si Si5 0.482509 0.627458 0.966601
Si Si6 0.308145 0.127639 0.351656
Si Si7 0.724103 0.641324 0.500748
O O1 0.500000 0.318518 0.500000
O O2 0.614046 0.500000 0.352901
O O3 0.338473 0.318762 0.564033
O O4 0.000000 0.317193 0.000000
O O5 0.037067 0.500000 0.800572
O O6 0.129572 0.313368 0.672170
O O7 0.665570 0.315738 0.144959
O O8 0.633299 0.249701 0.816252
O O9 0.098038 0.127673 0.275672
O O10 0.621184 0.000000 0.825141
O O11 0.636589 0.129779 0.746228
O O12 0.387109 0.500000 0.309388
O O13 0.438564 0.746797 0.252362
O O14 0.090581 0.654790 0.619959
O O15 0.906828 0.626779 0.704706
O O16 0.627829 0.500000 0.822643
O O17 0.500000 0.629444 0.000000
O O18 0.449727 0.000000 0.240460
O O19 0.704048 0.500000 0.512907
#
# Coordination Sequence:
#
# PCOD9155056 Si02
#       7
#     4   4   4   4   4   4   4
#     4   9  15  22  34  52  76 110 149 184 219 262
#     4   9  16  26  38  56  83 112 148 192 228 261
#     4   9  18  33  52  72  94 121 152 188 234 291
#     4   9  18  32  50  71  94 124 162 199 240 292
#     4   9  18  33  52  74  99 125 156 200 251 297
#     4   9  18  33  52  73  96 121 153 194 239 287
#     4   9  17  27  40  58  81 111 148 190 229 267
#
# _framework density 19.548867000000001
#
# number of rings (size 3 to 8) (size 9 to 14) (size 15 to 20)
#    0.000    3.000    0.000    0.857    0.000    6.571 
#    0.000    7.143    0.000   15.429    0.000    0.000 
#    0.000    0.000    0.000    0.000    0.000   14.286 
#
# Total GULP energy -155937.192653 kJ/mol
# GULP energy per Si atom -5569.185452 kJ/mol
# Density = 1.950437 g / cm^3
# Si number density = 19.548867 Si / 1000 Ang^3
#
#
#
# Elastic Constant Matrix: (Units=GPa)
#
#
# Indices 1 2 3 4 5 6 
#
# 1 132.5680 24.8488 60.4360 0.0000 -2.9047 0.0000
# 2 24.8488 157.2344 -3.4471 0.0000 10.0341 0.0000
# 3 60.4360 -3.4471 98.1801 0.0000 1.3589 0.0000
# 4 0.0000 0.0000 0.0000 -130.1406 0.0000 -77.2002
# 5 -2.9047 10.0341 1.3589 0.0000 34.6522 0.0000
# 6 0.0000 0.0000 0.0000 -77.2002 0.0000 -43.7613
#
#
#
# Elastic Compliance Matrix: (Units=1/GPa)
#
#
# Indices 1 2 3 4 5 6 
#
# 1 0.011129 -0.002025 -0.006947 0.000000 0.001792 0.000000
# 2 -0.002025 0.006855 0.001518 0.000000 -0.002214 0.000000
# 3 -0.006947 0.001518 0.014537 0.000000 -0.001592 0.000000
# 4 0.000000 0.000000 0.000000 0.165293 0.000000 -0.291596
# 5 0.001792 -0.002214 -0.001592 0.000000 0.029712 0.000000
# 6 0.000000 0.000000 0.000000 -0.291596 0.000000 0.491560
#
#
# Mechanical properties :
#
#
# Convention : Reuss Voigt Hill
#
# Bulk Modulus (GPa) = 56.77747 61.29533 59.03640
# Shear Modulus (GPa) = 6.75801 -7.44028 -0.34114
#
# Velocity S-wave (km/s) = 1.86131 -1.95301 -0.41819
# Velocity P-wave (km/s) = 5.80743 5.13199 5.48013
#
# Compressibility (1/GPa) = 0.01761262
#
# Stress axis : x y z
#
# Youngs Moduli (GPa) = 89.85494 145.88725 68.79125
#
# Poissons Ratio (x) = 0.29549 0.47786
# Poissons Ratio (y) = 0.18200 -0.10443
# Poissons Ratio (z) = 0.62418 -0.22147
#
# Static dielectric constant tensor:
#      x y z
#    x 1.680850 0.000000 -0.001550 
#    y 0.000000 1.737910 0.000000 
#    z -0.001550 0.000000 1.738430 
# 
# From -- ./inp_files/13088.got.cif
#   From: 2010.05.17/outbox.cif.g08.bks.cpg/sg10_7_cif.got.tgz:13088.got - 2010.06.03 11:33:40.
