data_PCOD9155872
_publ_section_title
;
Structure prediction by ZEFSAII (Michael W. Deem and Ramdas Pophale) SiO2 
 PCOD9155872
Probable space group: P 21/M
;
_chemical_formula_sum "Si O2"
_cell_formula_units_Z 24
_cell_length_a 12.530761
_cell_length_b 8.731627
_cell_length_c 22.234520
_cell_angle_alpha 90.000000
_cell_angle_beta 38.383401
_cell_angle_gamma 90.000000
_cell_volume 1510.554947
_symmetry_space_group_name_H-M "P 21/M"
_symmetry_group_IT_number 11
_symmetry_cell_setting 'monoclinic'
loop_
_space_group_symop_operation_xyz
x,y,z
-x,1/2+y,-z
-x,-y,-z
x,1/2-y,z
loop_
_atom_site_type_symbol
_atom_site_label
_atom_site_fract_x
_atom_site_fract_y
_atom_site_fract_z
Si Si1 0.723832 0.932818 0.847261
Si Si2 0.337708 0.933114 0.993422
Si Si3 0.570372 0.934189 0.531664
Si Si4 0.076495 0.433572 0.668674
Si Si5 0.782370 0.064881 0.267559
Si Si6 0.038675 0.066548 0.048128
O O1 0.735099 0.750000 0.848585
O O2 0.540161 0.970822 0.898683
O O3 0.890680 0.994658 0.739633
O O4 0.720035 0.005059 0.915726
O O5 0.319022 0.750000 0.000902
O O6 0.217522 0.006369 0.996298
O O7 0.571009 0.750000 0.528028
O O8 0.770223 0.981010 0.444866
O O9 0.420689 0.976496 0.644826
O O10 0.500000 0.000000 0.500000
O O11 0.063041 0.250000 0.675180
O O12 0.137197 0.490203 0.708046
O O13 0.795662 0.250000 0.268248
O O14 0.891291 0.019970 0.161290
O O15 0.041466 0.250000 0.044322
O O16 0.000000 0.000000 0.000000
#
# Coordination Sequence:
#
# PCOD9155872 Si02
#       6
#     4   4   4   4   4   4
#     4  10  19  30  46  68  96 127 153 186 235 284
#     4  10  20  33  48  67  92 122 159 197 232 275
#     4   8  15  26  40  62  90 119 151 185 226 274
#     4  10  17  25  43  69  95 123 152 186 227 276
#     4   9  17  30  45  62  90 124 156 191 231 275
#     4  11  22  34  50  69  93 126 161 196 234 275
#
# _framework density 15.888201
#
# number of rings (size 3 to 8) (size 9 to 14) (size 15 to 20)
#    0.000    2.333    1.667    2.000    0.000    3.333 
#    0.000    0.000    0.000    0.000    0.000    1.167 
#    0.000    0.000    0.000    0.000    0.000    0.000 
#
# Total GULP energy -133695.170355 kJ/mol
# GULP energy per Si atom -5570.632098 kJ/mol
# Density = 1.585204 g / cm^3
# Si number density = 15.888201 Si / 1000 Ang^3
#
#
#
# Elastic Constant Matrix: (Units=GPa)
#
#
# Indices 1 2 3 4 5 6 
#
# 1 91.2031 30.7944 58.4034 0.0000 -15.9889 0.0000
# 2 30.7944 32.9688 33.5292 0.0000 -8.7418 0.0000
# 3 58.4034 33.5292 115.8922 0.0000 -35.0950 0.0000
# 4 0.0000 0.0000 0.0000 20.3898 0.0000 -5.7942
# 5 -15.9889 -8.7418 -35.0950 0.0000 28.3543 0.0000
# 6 0.0000 0.0000 0.0000 -5.7942 0.0000 23.0705
#
#
#
# Elastic Compliance Matrix: (Units=1/GPa)
#
#
# Indices 1 2 3 4 5 6 
#
# 1 0.018716 -0.011124 -0.006488 0.000000 -0.000906 0.000000
# 2 -0.011124 0.049797 -0.009680 0.000000 -0.002901 0.000000
# 3 -0.006488 -0.009680 0.020293 0.000000 0.018475 0.000000
# 4 0.000000 0.000000 0.000000 0.052813 0.000000 0.013264
# 5 -0.000906 -0.002901 0.018475 0.000000 0.056730 0.000000
# 6 0.000000 0.000000 0.000000 0.013264 0.000000 0.046677
#
#
# Mechanical properties :
#
#
# Convention : Reuss Voigt Hill
#
# Bulk Modulus (GPa) = 29.21943 53.94645 41.58294
# Shear Modulus (GPa) = 16.07626 22.18540 19.13083
#
# Velocity S-wave (km/s) = 3.18439 3.74082 3.47377
# Velocity P-wave (km/s) = 5.65252 7.25850 6.50526
#
# Compressibility (1/GPa) = 0.03422380
#
# Stress axis : x y z
#
# Youngs Moduli (GPa) = 53.42906 20.08161 49.27690
#
# Poissons Ratio (x) = 0.22338 0.31972
# Poissons Ratio (y) = 0.59433 0.47698
# Poissons Ratio (z) = 0.34666 0.19438
#
# Static dielectric constant tensor:
#      x y z
#    x 1.497170 0.000000 -0.048550 
#    y 0.000000 1.531860 0.000000 
#    z -0.048550 0.000000 1.579390 
# 
# From -- ./inp_files/36981.got.cif
#   From: 2010.05.17/outbox.cif.g08.bks.cpg/sg11_19_cif.got.tgz:36981.got - 2010.06.03 12:22:45.
