data_PCOD9155246
_publ_section_title
;
Structure prediction by ZEFSAII (Michael W. Deem and Ramdas Pophale) SiO2 
 PCOD9155246
Probable space group: P 2/M
;
_chemical_formula_sum "Si O2"
_cell_formula_units_Z 32
_cell_length_a 21.000000
_cell_length_b 9.000000
_cell_length_c 27.000000
_cell_angle_alpha 90.000000
_cell_angle_beta 160.000000
_cell_angle_gamma 90.000000
_cell_volume 1745.328791
_symmetry_space_group_name_H-M "P 2/M"
_symmetry_group_IT_number 10
_symmetry_cell_setting 'monoclinic'
loop_
_space_group_symop_operation_xyz
x,y,z
-x,y,-z
-x,-y,-z
x,-y,z
loop_
_atom_site_type_symbol
_atom_site_label
_atom_site_fract_x
_atom_site_fract_y
_atom_site_fract_z
Si Si1 0.807864 0.670897 0.878140
Si Si2 0.164035 0.670947 0.984050
Si Si3 0.778263 0.822676 0.209384
Si Si4 0.083055 0.178179 0.508420
Si Si5 0.784591 0.178239 0.690197
Si Si6 0.444365 0.821718 0.379046
Si Si7 0.472111 0.673595 0.797149
Si Si8 0.550208 0.327238 0.969381
O O1 0.800689 0.500000 0.854915
O O2 0.632685 0.753057 0.727175
O O3 0.825316 0.670477 0.949287
O O4 0.000000 0.742403 0.000000
O O5 0.155170 0.500000 0.960133
O O6 0.986594 0.755420 0.834821
O O7 0.355868 0.738451 0.106500
O O8 0.612260 0.769803 0.124355
O O9 0.961347 0.776590 0.372489
O O10 0.772383 0.000000 0.198807
O O11 0.739189 0.739375 0.129713
O O12 0.287770 0.237136 0.653227
O O13 0.000000 0.234379 0.500000
O O14 0.078492 0.000000 0.507103
O O15 0.692666 0.222041 0.675708
O O16 0.647088 0.226314 0.545822
O O17 0.789600 0.000000 0.693564
O O18 0.442203 0.000000 0.374310
O O19 0.443032 0.500000 0.762892
O O20 0.527941 0.682448 0.895091
O O21 0.531300 0.500000 0.969162
#
# Coordination Sequence:
#
# PCOD9155246 Si02
#       8
#     4   4   4   4   4   4   4   4
#     4  10  19  32  52  79 106 137 176 220 265 312
#     4  10  21  37  53  75 108 141 178 218 261 317
#     4  10  19  32  53  79 105 132 165 212 265 302
#     4  10  20  35  55  80 107 136 174 218 260 310
#     4   9  18  33  52  77 104 135 172 215 262 312
#     4   9  18  32  52  78 107 132 169 219 264 310
#     4  10  22  37  54  76 106 144 178 215 263 314
#     4  10  19  32  51  77 104 133 172 212 254 308
#
# _framework density 18.334654
#
# number of rings (size 3 to 8) (size 9 to 14) (size 15 to 20)
#    0.000    2.250    2.500    2.250    0.000    3.500 
#    0.000    2.500    0.000    7.500    0.000    0.000 
#    0.000    0.000    0.000    0.000    0.000    0.000 
#
# Total GULP energy -178249.152700 kJ/mol
# GULP energy per Si atom -5570.286022 kJ/mol
# Density = 1.829292 g / cm^3
# Si number density = 18.334654 Si / 1000 Ang^3
#
#
#
# Elastic Constant Matrix: (Units=GPa)
#
#
# Indices 1 2 3 4 5 6 
#
# 1 8.0856 -3.3638 34.3453 0.0000 8.2015 0.0000
# 2 -3.3638 -24.2138 15.5048 0.0000 -6.5505 0.0000
# 3 34.3453 15.5048 146.8587 0.0000 -1.9458 0.0000
# 4 0.0000 0.0000 0.0000 36.9756 0.0000 -7.3628
# 5 8.2015 -6.5505 -1.9458 0.0000 21.9253 0.0000
# 6 0.0000 0.0000 0.0000 -7.3628 0.0000 14.3667
#
#
#
# Elastic Compliance Matrix: (Units=1/GPa)
#
#
# Indices 1 2 3 4 5 6 
#
# 1 -0.378373 0.061244 0.084239 0.000000 0.167309 0.000000
# 2 0.061244 -0.046028 -0.009961 0.000000 -0.037545 0.000000
# 3 0.084239 -0.009961 -0.012311 0.000000 -0.035579 0.000000
# 4 0.000000 0.000000 0.000000 0.030118 0.000000 0.015435
# 5 0.167309 -0.037545 -0.035579 0.000000 -0.031349 0.000000
# 6 0.000000 0.000000 0.000000 0.015435 0.000000 0.077516
#
#
# Mechanical properties :
#
#
# Convention : Reuss Voigt Hill
#
# Bulk Modulus (GPa) = -6.03619 24.85588 9.40985
# Shear Modulus (GPa) = -7.28125 20.26981 6.49428
#
# Velocity S-wave (km/s) = -1.99498 3.32858 1.88408
# Velocity P-wave (km/s) = 2.93359 5.32530 3.14268
#
# Compressibility (1/GPa) = -0.16566748
#
# Stress axis : x y z
#
# Youngs Moduli (GPa) = -2.64289 -21.72575 -81.22635
#
# Poissons Ratio (x) = 1.33057 6.84247
# Poissons Ratio (y) = 0.16186 -0.80908
# Poissons Ratio (z) = 0.22264 -0.21641
#
# Static dielectric constant tensor:
#      x y z
#    x 1.643830 0.000000 0.000400 
#    y 0.000000 1.624720 0.000000 
#    z 0.000400 0.000000 1.645590 
# 
# From -- ./inp_files/93771.got.cif
#   From: 2010.05.17/outbox.ucp.g08.bks.cvg/sg10_47_cif.got.tgz:93771.got - 2010.06.11 11:31:16.
