data_PCOD9155277
_publ_section_title
;
Structure prediction by ZEFSAII (Michael W. Deem and Ramdas Pophale) SiO2 
 PCOD9155277
Probable space group: P 2/M
;
_chemical_formula_sum "Si O2"
_cell_formula_units_Z 26
_cell_length_a 30.000000
_cell_length_b 9.000000
_cell_length_c 30.000000
_cell_angle_alpha 90.000000
_cell_angle_beta 170.000000
_cell_angle_gamma 90.000000
_cell_volume 1406.550239
_symmetry_space_group_name_H-M "P 2/M"
_symmetry_group_IT_number 10
_symmetry_cell_setting 'monoclinic'
loop_
_space_group_symop_operation_xyz
x,y,z
-x,y,-z
-x,-y,-z
x,-y,z
loop_
_atom_site_type_symbol
_atom_site_label
_atom_site_fract_x
_atom_site_fract_y
_atom_site_fract_z
Si Si1 0.765479 0.500000 0.234521
Si Si2 0.364882 0.679137 0.621885
Si Si3 0.674642 0.829628 0.322264
Si Si4 0.482717 0.822434 0.536248
Si Si5 0.891711 0.680638 0.095030
Si Si6 0.205491 0.179890 0.791453
Si Si7 0.959929 0.320039 0.058447
O O1 0.778305 0.335331 0.221920
O O2 0.000000 0.500000 0.500000
O O3 0.500000 0.500000 0.000000
O O4 0.365108 0.500000 0.621488
O O5 0.344762 0.729959 0.653029
O O6 0.125502 0.731170 0.356377
O O7 0.626070 0.731182 0.855454
O O8 0.937517 0.808108 0.553896
O O9 0.667568 0.000000 0.330847
O O10 0.440070 0.808037 0.057121
O O11 0.500000 0.799721 0.500000
O O12 0.224771 0.747264 0.300972
O O13 0.480399 0.000000 0.542193
O O14 0.725352 0.747051 0.799240
O O15 0.891130 0.500000 0.095143
O O16 0.924340 0.721634 0.075503
O O17 0.215165 0.000000 0.783696
O O18 0.962672 0.500000 0.057793
#
# Coordination Sequence:
#
# PCOD9155277 Si02
#       7
#     2   4   4   4   4   4   4
#     4  12  26  42  66  96 122 158 208 252 296 368
#     4  10  19  32  56  83 112 152 194 237 284 346
#     4  10  21  38  58  86 121 157 195 243 296 341
#     4  11  24  41  59  84 118 151 190 246 310 370
#     4   9  19  35  52  81 116 148 190 238 294 344
#     4  10  23  41  62  88 125 161 197 251 306 354
#     4  11  22  39  64  86 115 155 198 250 295 360
#
# _framework density 18.484942
#
# number of rings (size 3 to 8) (size 9 to 14) (size 15 to 20)
#    0.000    1.692    0.000    4.154    2.154    6.154 
#    0.000    4.615    0.000    0.000    0.000    0.000 
#    0.000    0.000    0.000    0.000    0.000    0.000 
#
# Total GULP energy -145030.844751 kJ/mol
# GULP energy per Si atom -5578.109413 kJ/mol
# Density = 1.844287 g / cm^3
# Si number density = 18.484942 Si / 1000 Ang^3
#
#
#
# Elastic Constant Matrix: (Units=GPa)
#
#
# Indices 1 2 3 4 5 6 
#
# 1 75.0163 40.8919 18.7672 0.0000 -5.2934 0.0000
# 2 40.8919 89.2197 16.8878 0.0000 -5.9288 0.0000
# 3 18.7672 16.8878 115.9936 0.0000 -5.5439 0.0000
# 4 0.0000 0.0000 0.0000 18.6024 0.0000 -0.4347
# 5 -5.2934 -5.9288 -5.5439 0.0000 31.4067 0.0000
# 6 0.0000 0.0000 0.0000 -0.4347 0.0000 20.5962
#
#
#
# Elastic Compliance Matrix: (Units=1/GPa)
#
#
# Indices 1 2 3 4 5 6 
#
# 1 0.018166 -0.007915 -0.001726 0.000000 0.001263 0.000000
# 2 -0.007915 0.015088 -0.000851 0.000000 0.001364 0.000000
# 3 -0.001726 -0.000851 0.009079 0.000000 0.001151 0.000000
# 4 0.000000 0.000000 0.000000 0.053783 0.000000 0.001135
# 5 0.001263 0.001364 0.001151 0.000000 0.032514 0.000000
# 6 0.000000 0.000000 0.000000 0.001135 0.000000 0.048577
#
#
# Mechanical properties :
#
#
# Convention : Reuss Voigt Hill
#
# Bulk Modulus (GPa) = 46.84247 48.14703 47.49475
# Shear Modulus (GPa) = 24.35364 27.69991 26.02678
#
# Velocity S-wave (km/s) = 3.63366 3.87526 3.75640
# Velocity P-wave (km/s) = 6.55748 6.79166 6.67560
#
# Compressibility (1/GPa) = 0.02134815
#
# Stress axis : x y z
#
# Youngs Moduli (GPa) = 55.04735 66.27873 110.13970
#
# Poissons Ratio (x) = 0.52462 0.19015
# Poissons Ratio (y) = 0.43572 0.09371
# Poissons Ratio (z) = 0.09504 0.05639
#
# Static dielectric constant tensor:
#      x y z
#    x 1.609010 0.000000 0.001520 
#    y 0.000000 1.658410 0.000000 
#    z 0.001520 0.000000 1.623630 
# 
# From -- ./inp_files/95945.got.cif
#   From: 2010.05.17/outbox.ucp.g08.bks.cvg/sg10_48_cif.got.tgz:95945.got - 2010.06.11 11:31:16.
