data_PCOD9155232
_publ_section_title
;
Structure prediction by ZEFSAII (Michael W. Deem and Ramdas Pophale) SiO2 
 PCOD9155232
Probable space group: P 2/M
;
_chemical_formula_sum "Si O2"
_cell_formula_units_Z 32
_cell_length_a 21.000000
_cell_length_b 9.000000
_cell_length_c 27.000000
_cell_angle_alpha 90.000000
_cell_angle_beta 160.000000
_cell_angle_gamma 90.000000
_cell_volume 1745.328791
_symmetry_space_group_name_H-M "P 2/M"
_symmetry_group_IT_number 10
_symmetry_cell_setting 'monoclinic'
loop_
_space_group_symop_operation_xyz
x,y,z
-x,y,-z
-x,-y,-z
x,-y,z
loop_
_atom_site_type_symbol
_atom_site_label
_atom_site_fract_x
_atom_site_fract_y
_atom_site_fract_z
Si Si1 0.065595 0.331693 0.670049
Si Si2 0.668004 0.320243 0.835801
Si Si3 0.047704 0.821931 0.154510
Si Si4 0.201710 0.331733 0.173924
Si Si5 0.403262 0.171388 0.874405
Si Si6 0.743568 0.332161 0.082293
Si Si7 0.894459 0.821662 0.692243
Si Si8 0.712446 0.177834 0.455328
O O1 0.010727 0.500000 0.616733
O O2 0.211468 0.260175 0.738923
O O3 0.176748 0.340804 0.803488
O O4 0.891557 0.227310 0.554584
O O5 0.677529 0.500000 0.845656
O O6 0.844967 0.252720 0.994689
O O7 0.680135 0.276256 0.786110
O O8 0.465771 0.256003 0.699785
O O9 0.025010 0.000000 0.136598
O O10 0.136518 0.779803 0.272771
O O11 0.179005 0.768316 0.205459
O O12 0.256123 0.500000 0.227536
O O13 0.000000 0.340416 0.000000
O O14 0.373498 0.000000 0.839778
O O15 0.500000 0.173069 0.000000
O O16 0.547613 0.249966 0.943215
O O17 0.726692 0.500000 0.050707
O O18 0.899449 0.240145 0.167700
O O19 0.763186 0.773327 0.549847
O O20 0.895817 0.000000 0.690855
O O21 0.689052 0.000000 0.438479
#
# Coordination Sequence:
#
# PCOD9155232 Si02
#       8
#     4   4   4   4   4   4   4   4
#     4   9  16  26  40  61  90 121 155 195 236 279
#     4  10  20  34  51  72  97 124 157 197 238 281
#     4  10  19  32  52  75  96 122 158 197 237 282
#     4   8  16  31  49  69  94 122 154 195 238 278
#     4   9  15  23  37  58  86 120 156 194 235 277
#     4   9  16  25  40  62  88 121 158 194 234 279
#     4   9  19  33  47  68  99 129 157 194 239 285
#     4  10  19  32  49  69  96 129 161 194 237 285
#
# _framework density 18.334654
#
# number of rings (size 3 to 8) (size 9 to 14) (size 15 to 20)
#    0.000    2.750    0.000    3.000    0.000    8.750 
#    0.000    0.625    0.000    3.750    0.000    0.875 
#    0.000    7.000    0.000    0.000    0.000    0.000 
#
# Total GULP energy -178159.802749 kJ/mol
# GULP energy per Si atom -5567.493836 kJ/mol
# Density = 1.829292 g / cm^3
# Si number density = 18.334654 Si / 1000 Ang^3
#
#
#
# Elastic Constant Matrix: (Units=GPa)
#
#
# Indices 1 2 3 4 5 6 
#
# 1 -4.4751 -12.2562 -12.3611 0.0000 3.6653 0.0000
# 2 -12.2562 26.4226 4.9759 0.0000 -2.7072 0.0000
# 3 -12.3611 4.9759 26.4434 0.0000 4.8378 0.0000
# 4 0.0000 0.0000 0.0000 10.3991 0.0000 11.7347
# 5 3.6653 -2.7072 4.8378 0.0000 16.3108 0.0000
# 6 0.0000 0.0000 0.0000 11.7347 0.0000 19.3066
#
#
#
# Elastic Compliance Matrix: (Units=1/GPa)
#
#
# Indices 1 2 3 4 5 6 
#
# 1 -0.064554 -0.022377 -0.029543 0.000000 0.019555 0.000000
# 2 -0.022377 0.032832 -0.019619 0.000000 0.016297 0.000000
# 3 -0.029543 -0.019619 0.028633 0.000000 -0.005110 0.000000
# 4 0.000000 0.000000 0.000000 0.306122 0.000000 -0.186062
# 5 0.019555 0.016297 -0.005110 0.000000 0.061135 0.000000
# 6 0.000000 0.000000 0.000000 -0.186062 0.000000 0.164885
#
#
# Mechanical properties :
#
#
# Convention : Reuss Voigt Hill
#
# Bulk Modulus (GPa) = -6.84143 1.01202 -2.91470
# Shear Modulus (GPa) = 8.02043 13.73880 10.87961
#
# Velocity S-wave (km/s) = 2.09379 2.74037 2.43860
# Velocity P-wave (km/s) = 1.45112 3.25054 2.51712
#
# Compressibility (1/GPa) = -0.14616824
#
# Stress axis : x y z
#
# Youngs Moduli (GPa) = -15.49080 30.45855 34.92456
#
# Poissons Ratio (x) = 0.68156 1.03178
# Poissons Ratio (y) = -0.34663 0.68520
# Poissons Ratio (z) = -0.45765 0.59758
#
# Static dielectric constant tensor:
#      x y z
#    x 1.666790 0.000000 0.023670 
#    y 0.000000 1.627030 0.000000 
#    z 0.023670 0.000000 1.621690 
# 
# From -- ./inp_files/54806.got.cif
#   From: 2010.05.17/outbox.ucp.g08.bks.cvg/sg10_28_cif.got.tgz:54806.got - 2010.06.11 11:31:16.
