data_PCOD9155575
_publ_section_title
;
Structure prediction by ZEFSAII (Michael W. Deem and Ramdas Pophale) SiO2 
 PCOD9155575
Probable space group: P 2/M
;
_chemical_formula_sum "Si O2"
_cell_formula_units_Z 28
_cell_length_a 12.000000
_cell_length_b 9.000000
_cell_length_c 15.000000
_cell_angle_alpha 90.000000
_cell_angle_beta 110.000000
_cell_angle_gamma 90.000000
_cell_volume 1522.302046
_symmetry_space_group_name_H-M "P 2/M"
_symmetry_group_IT_number 10
_symmetry_cell_setting 'monoclinic'
loop_
_space_group_symop_operation_xyz
x,y,z
-x,y,-z
-x,-y,-z
x,-y,z
loop_
_atom_site_type_symbol
_atom_site_label
_atom_site_fract_x
_atom_site_fract_y
_atom_site_fract_z
Si Si1 0.396619 0.177481 0.250840
Si Si2 0.029733 0.326911 0.875534
Si Si3 0.103602 0.336879 0.601971
Si Si4 0.295966 0.678214 0.403560
Si Si5 0.790246 0.327794 0.929080
Si Si6 0.949959 0.831620 0.680148
Si Si7 0.624039 0.325786 0.382909
O O1 0.338941 0.243731 0.325438
O O2 0.315295 0.237582 0.146911
O O3 0.532023 0.236257 0.296679
O O4 0.393689 0.000000 0.250358
O O5 0.044199 0.500000 0.852066
O O6 0.909836 0.325051 0.901953
O O7 0.996203 0.217105 0.788375
O O8 0.150043 0.282123 0.960506
O O9 0.099047 0.500000 0.646610
O O10 0.237895 0.317344 0.606803
O O11 0.000000 0.343332 0.500000
O O12 0.062051 0.200357 0.649224
O O13 0.301799 0.500000 0.396063
O O14 0.159449 0.726965 0.377948
O O15 0.371766 0.720630 0.511753
O O16 0.752283 0.500000 0.924971
O O17 0.908785 0.000000 0.665614
O O18 0.589091 0.500000 0.370248
#
# Coordination Sequence:
#
# PCOD9155575 Si02
#       7
#     4   4   4   4   4   4   4
#     4  12  24  35  52  83 119 149 177 221 283 335
#     4   9  18  34  57  82 107 143 185 227 268 320
#     4  10  20  39  61  80 103 143 195 234 266 314
#     4  11  21  37  57  78 108 149 193 228 263 319
#     4   9  18  34  57  81 107 143 187 225 266 322
#     4  12  23  33  53  86 119 146 174 222 288 333
#     4  10  22  39  59  78 103 148 196 230 265 317
#
# _framework density 18.393196
#
# number of rings (size 3 to 8) (size 9 to 14) (size 15 to 20)
#    0.000    1.571    2.857    4.286    0.000    4.286 
#    0.000    1.429    0.000    0.857    0.000    6.000 
#    0.000    0.000    0.000    0.000    0.000    0.000 
#
# Total GULP energy -156055.068499 kJ/mol
# GULP energy per Si atom -5573.395304 kJ/mol
# Density = 1.835133 g / cm^3
# Si number density = 18.393196 Si / 1000 Ang^3
#
#
#
# Elastic Constant Matrix: (Units=GPa)
#
#
# Indices 1 2 3 4 5 6 
#
# 1 74.8644 25.8970 28.2112 0.0000 26.9160 0.0000
# 2 25.8970 70.8680 31.1893 0.0000 20.2326 0.0000
# 3 28.2112 31.1893 64.5916 0.0000 34.0493 0.0000
# 4 0.0000 0.0000 0.0000 15.6392 0.0000 -4.8513
# 5 26.9160 20.2326 34.0493 0.0000 34.1823 0.0000
# 6 0.0000 0.0000 0.0000 -4.8513 0.0000 20.4481
#
#
#
# Elastic Compliance Matrix: (Units=1/GPa)
#
#
# Indices 1 2 3 4 5 6 
#
# 1 0.019240 -0.003315 0.000314 0.000000 -0.013501 0.000000
# 2 -0.003315 0.018779 -0.006604 0.000000 -0.001926 0.000000
# 3 0.000314 -0.006604 0.034962 0.000000 -0.031164 0.000000
# 4 0.000000 0.000000 0.000000 0.069022 0.000000 0.016375
# 5 -0.013501 -0.001926 -0.031164 0.000000 0.072069 0.000000
# 6 0.000000 0.000000 0.000000 0.016375 0.000000 0.052789
#
#
# Mechanical properties :
#
#
# Convention : Reuss Voigt Hill
#
# Bulk Modulus (GPa) = 18.59747 42.32435 30.46091
# Shear Modulus (GPa) = 16.44776 22.38901 19.41839
#
# Velocity S-wave (km/s) = 2.99361 3.49269 3.25274
# Velocity P-wave (km/s) = 4.69915 6.27104 5.54112
#
# Compressibility (1/GPa) = 0.05377075
#
# Stress axis : x y z
#
# Youngs Moduli (GPa) = 51.97617 53.25217 28.60262
#
# Poissons Ratio (x) = 0.17651 -0.00899
# Poissons Ratio (y) = 0.17228 0.18891
# Poissons Ratio (z) = -0.01634 0.35170
#
# Static dielectric constant tensor:
#      x y z
#    x 1.674180 0.000000 -0.069960 
#    y 0.000000 1.629490 0.000000 
#    z -0.069960 0.000000 1.721980 
# 
# From -- ./inp_files/49148.got.cif
#   From: 2010.05.17/outbox.ucp.g08.bks.cvg/sg10_25_cif.got.tgz:49148.got - 2010.06.11 11:31:16.
