data_PCOD9155710
_publ_section_title
;
Structure prediction by ZEFSAII (Michael W. Deem and Ramdas Pophale) SiO2 
 PCOD9155710
Probable space group: P 2/M
;
_chemical_formula_sum "Si O2"
_cell_formula_units_Z 28
_cell_length_a 12.000000
_cell_length_b 9.000000
_cell_length_c 15.000000
_cell_angle_alpha 90.000000
_cell_angle_beta 60.000000
_cell_angle_gamma 90.000000
_cell_volume 1402.961154
_symmetry_space_group_name_H-M "P 2/M"
_symmetry_group_IT_number 10
_symmetry_cell_setting 'monoclinic'
loop_
_space_group_symop_operation_xyz
x,y,z
-x,y,-z
-x,-y,-z
x,-y,z
loop_
_atom_site_type_symbol
_atom_site_label
_atom_site_fract_x
_atom_site_fract_y
_atom_site_fract_z
Si Si1 0.993547 0.175516 0.315634
Si Si2 0.044483 0.325955 0.840170
Si Si3 0.793261 0.673151 0.046594
Si Si4 0.430706 0.174112 0.433004
Si Si5 0.258716 0.178031 0.261984
Si Si6 0.816941 0.674336 0.523324
Si Si7 0.466568 0.822567 0.803811
O O1 0.143765 0.217327 0.241719
O O2 0.919861 0.225934 0.257276
O O3 0.937117 0.264377 0.421039
O O4 0.982428 0.000000 0.335649
O O5 0.035136 0.500000 0.817751
O O6 0.145841 0.315692 0.879124
O O7 0.907501 0.276332 0.935959
O O8 0.771131 0.500000 0.036527
O O9 0.660094 0.757283 0.102155
O O10 0.500000 0.184613 0.500000
O O11 0.309276 0.282612 0.482680
O O12 0.512705 0.211186 0.310490
O O13 0.389871 0.000000 0.438057
O O14 0.207583 0.236193 0.376714
O O15 0.404524 0.232492 0.197144
O O16 0.265684 0.000000 0.261171
O O17 0.827000 0.500000 0.535623
O O18 0.459750 0.000000 0.812751
#
# Coordination Sequence:
#
# PCOD9155710 Si02
#       7
#     4   4   4   4   4   4   4
#     4  11  22  36  57  80 106 142 185 226 269 319
#     4   9  20  38  56  79 109 140 175 220 271 322
#     4   9  19  37  58  78 108 143 173 214 273 330
#     4   9  19  35  52  75 110 146 181 221 262 312
#     4   9  20  39  56  76 108 146 183 222 267 318
#     4  11  22  34  52  80 111 144 181 221 267 319
#     4   9  18  33  55  79 104 138 179 221 265 313
#
# _framework density 19.957787
#
# number of rings (size 3 to 8) (size 9 to 14) (size 15 to 20)
#    0.000    2.429    0.000    3.857    2.000    6.571 
#    0.000    2.143    0.000    4.286    0.000    0.000 
#    0.000    0.000    0.000    0.000    0.000    0.000 
#
# Total GULP energy -156069.252916 kJ/mol
# GULP energy per Si atom -5573.901890 kJ/mol
# Density = 1.991236 g / cm^3
# Si number density = 19.957787 Si / 1000 Ang^3
#
#
#
# Elastic Constant Matrix: (Units=GPa)
#
#
# Indices 1 2 3 4 5 6 
#
# 1 34.0854 -1.1225 1.0852 0.0000 -13.5004 0.0000
# 2 -1.1225 -68.6186 -17.2926 0.0000 -6.4024 0.0000
# 3 1.0852 -17.2926 -3.8526 0.0000 -13.5923 0.0000
# 4 0.0000 0.0000 0.0000 18.1372 0.0000 39.0513
# 5 -13.5004 -6.4024 -13.5923 0.0000 32.6988 0.0000
# 6 0.0000 0.0000 0.0000 39.0513 0.0000 144.8240
#
#
#
# Elastic Compliance Matrix: (Units=1/GPa)
#
#
# Indices 1 2 3 4 5 6 
#
# 1 0.031402 0.006443 -0.028488 0.000000 0.002385 0.000000
# 2 0.006443 -0.034428 0.069223 0.000000 0.024694 0.000000
# 3 -0.028488 0.069223 -0.237018 0.000000 -0.096732 0.000000
# 4 0.000000 0.000000 0.000000 0.131456 0.000000 -0.035447
# 5 0.002385 0.024694 -0.096732 0.000000 -0.003808 0.000000
# 6 0.000000 0.000000 0.000000 -0.035447 0.000000 0.016463
#
#
# Mechanical properties :
#
#
# Convention : Reuss Voigt Hill
#
# Bulk Modulus (GPa) = -6.86400 -8.11619 -7.49010
# Shear Modulus (GPa) = -20.93346 37.72828 8.39741
#
# Velocity S-wave (km/s) = -3.24217 4.35259 2.05347
# Velocity P-wave (km/s) = 4.17878 4.60267 1.36425
#
# Compressibility (1/GPa) = -0.14568766
#
# Stress axis : x y z
#
# Youngs Moduli (GPa) = 31.84536 -29.04640 -4.21909
#
# Poissons Ratio (x) = 0.18715 -0.12019
# Poissons Ratio (y) = -0.20518 0.29206
# Poissons Ratio (z) = 0.90720 2.01067
#
# Static dielectric constant tensor:
#      x y z
#    x 1.774790 0.000000 -0.007310 
#    y 0.000000 1.669160 0.000000 
#    z -0.007310 0.000000 1.707570 
# 
# From -- ./inp_files/63612.got.cif
#   From: 2010.05.17/outbox.ucp.g08.bks.cvg/sg10_32_cif.got.tgz:63612.got - 2010.06.11 11:31:16.
