data_PCOD9155156
_publ_section_title
;
Structure prediction by ZEFSAII (Michael W. Deem and Ramdas Pophale) SiO2 
 PCOD9155156
Probable space group: P 2/M
;
_chemical_formula_sum "Si O2"
_cell_formula_units_Z 32
_cell_length_a 15.000000
_cell_length_b 9.000000
_cell_length_c 12.000000
_cell_angle_alpha 90.000000
_cell_angle_beta 90.000000
_cell_angle_gamma 90.000000
_cell_volume 1620.000000
_symmetry_space_group_name_H-M "P 2/M"
_symmetry_group_IT_number 10
_symmetry_cell_setting 'monoclinic'
loop_
_space_group_symop_operation_xyz
x,y,z
-x,y,-z
-x,-y,-z
x,-y,z
loop_
_atom_site_type_symbol
_atom_site_label
_atom_site_fract_x
_atom_site_fract_y
_atom_site_fract_z
Si Si1 0.171607 0.681035 0.812826
Si Si2 0.505996 0.824796 0.129508
Si Si3 0.899542 0.322308 0.543896
Si Si4 0.170730 0.321151 0.065940
Si Si5 0.975307 0.680122 0.772728
Si Si6 0.643832 0.321585 0.300808
Si Si7 0.715050 0.821892 0.510497
Si Si8 0.690422 0.825917 0.767771
O O1 0.168069 0.500000 0.812866
O O2 0.258678 0.722001 0.745623
O O3 0.076522 0.733665 0.765997
O O4 0.182283 0.731257 0.940188
O O5 0.573528 0.738713 0.210638
O O6 0.408653 0.811582 0.183715
O O7 0.531301 0.000000 0.127302
O O8 0.500000 0.773954 0.000000
O O9 0.882793 0.500000 0.534096
O O10 0.910901 0.274243 0.672347
O O11 0.815905 0.238723 0.491251
O O12 0.000000 0.297022 0.500000
O O13 0.175749 0.500000 0.065528
O O14 0.073495 0.280472 0.113298
O O15 0.243894 0.261222 0.150757
O O16 0.979090 0.500000 0.765099
O O17 0.637232 0.500000 0.308379
O O18 0.645506 0.249496 0.423538
O O19 0.693675 0.778533 0.638571
O O20 0.712794 0.000000 0.500620
O O21 0.715496 0.000000 0.770496
#
# Coordination Sequence:
#
# PCOD9155156 Si02
#       8
#     4   4   4   4   4   4   4   4
#     4   9  18  32  52  82 116 148 183 232 290 340
#     4  10  22  42  66  89 115 150 190 232 288 356
#     4  10  19  33  55  82 114 153 197 243 286 331
#     4  10  18  31  56  85 112 145 190 236 278 338
#     4   9  16  28  49  80 113 146 184 226 277 335
#     4  11  23  39  60  86 117 149 189 242 292 339
#     4  11  23  39  58  81 115 155 195 236 284 346
#     4  10  22  39  59  83 115 153 189 236 292 344
#
# _framework density 19.753086
#
# number of rings (size 3 to 8) (size 9 to 14) (size 15 to 20)
#    0.000    2.000    1.250    2.625    0.000    5.500 
#    0.000    3.125    0.000    3.000    0.000    0.000 
#    0.000    0.000    0.000    0.000    0.000    0.000 
#
# Total GULP energy -178566.167699 kJ/mol
# GULP energy per Si atom -5580.192741 kJ/mol
# Density = 1.970813 g / cm^3
# Si number density = 19.753086 Si / 1000 Ang^3
#
#
#
# Elastic Constant Matrix: (Units=GPa)
#
#
# Indices 1 2 3 4 5 6 
#
# 1 59.2271 21.7647 24.6713 0.0000 19.3021 0.0000
# 2 21.7647 25.4773 14.8568 0.0000 6.8397 0.0000
# 3 24.6713 14.8568 89.6910 0.0000 17.3533 0.0000
# 4 0.0000 0.0000 0.0000 21.6492 0.0000 3.1435
# 5 19.3021 6.8397 17.3533 0.0000 33.4752 0.0000
# 6 0.0000 0.0000 0.0000 3.1435 0.0000 11.3258
#
#
#
# Elastic Compliance Matrix: (Units=1/GPa)
#
#
# Indices 1 2 3 4 5 6 
#
# 1 0.029084 -0.020384 -0.002428 0.000000 -0.011346 0.000000
# 2 -0.020384 0.058742 -0.004529 0.000000 0.002099 0.000000
# 3 -0.002428 -0.004529 0.013469 0.000000 -0.004656 0.000000
# 4 0.000000 0.000000 0.000000 0.048131 0.000000 -0.013359
# 5 -0.011346 0.002099 -0.004656 0.000000 0.038400 0.000000
# 6 0.000000 0.000000 0.000000 -0.013359 0.000000 0.092002
#
#
# Mechanical properties :
#
#
# Convention : Reuss Voigt Hill
#
# Bulk Modulus (GPa) = 21.45406 32.99789 27.22597
# Shear Modulus (GPa) = 14.28378 20.83022 17.55700
#
# Velocity S-wave (km/s) = 2.69200 3.25088 2.98455
# Velocity P-wave (km/s) = 4.53290 5.55269 5.06851
#
# Compressibility (1/GPa) = 0.04661122
#
# Stress axis : x y z
#
# Youngs Moduli (GPa) = 34.38300 17.02364 74.24707
#
# Poissons Ratio (x) = 0.34701 0.18030
# Poissons Ratio (y) = 0.70086 0.33630
# Poissons Ratio (z) = 0.08350 0.07711
#
# Static dielectric constant tensor:
#      x y z
#    x 1.682160 0.000000 -0.035930 
#    y 0.000000 1.666320 0.000000 
#    z -0.035930 0.000000 1.744430 
# 
# From -- ./inp_files/49955.got.cif
#   From: 2010.05.17/outbox.ucp.g08.bks.cvg/sg10_25_cif.got.tgz:49955.got - 2010.06.11 11:31:16.
