data_PCOD9155366
_publ_section_title
;
Structure prediction by ZEFSAII (Michael W. Deem and Ramdas Pophale) SiO2 
 PCOD9155366
Probable space group: P 2/M
;
_chemical_formula_sum "Si O2"
_cell_formula_units_Z 28
_cell_length_a 27.000000
_cell_length_b 9.000000
_cell_length_c 9.000000
_cell_angle_alpha 90.000000
_cell_angle_beta 140.000000
_cell_angle_gamma 90.000000
_cell_volume 1405.776502
_symmetry_space_group_name_H-M "P 2/M"
_symmetry_group_IT_number 10
_symmetry_cell_setting 'monoclinic'
loop_
_space_group_symop_operation_xyz
x,y,z
-x,y,-z
-x,-y,-z
x,-y,z
loop_
_atom_site_type_symbol
_atom_site_label
_atom_site_fract_x
_atom_site_fract_y
_atom_site_fract_z
Si Si1 0.321008 0.180311 0.750916
Si Si2 0.215972 0.168543 0.013513
Si Si3 0.633236 0.819138 0.483037
Si Si4 0.922117 0.177734 0.501872
Si Si5 0.523375 0.180689 0.720775
Si Si6 0.910602 0.169278 0.030379
Si Si7 0.847838 0.324251 0.607769
O O1 0.346648 0.217758 0.640841
O O2 0.239436 0.259238 0.594739
O O3 0.310623 0.000000 0.736403
O O4 0.392079 0.223766 0.023389
O O5 0.150919 0.241328 0.759139
O O6 0.166550 0.156978 0.050079
O O7 0.231910 0.000000 0.992749
O O8 0.298832 0.234417 0.248793
O O9 0.547776 0.772859 0.336636
O O10 0.635342 0.000000 0.495418
O O11 0.898996 0.229901 0.611433
O O12 0.013519 0.212496 0.699691
O O13 0.918815 0.000000 0.468988
O O14 0.500000 0.227217 0.500000
O O15 0.524593 0.000000 0.724163
O O16 0.925527 0.000000 0.006373
O O17 0.889394 0.288320 0.858575
O O18 0.847464 0.500000 0.576062
#
# Coordination Sequence:
#
# PCOD9155366 Si02
#       7
#     4   4   4   4   4   4   4
#     4  10  19  35  58  81 111 146 185 229 278 328
#     4   9  17  31  56  88 116 140 179 232 282 332
#     4   9  16  29  52  84 115 141 174 222 276 327
#     4  10  21  35  58  86 113 145 184 233 288 337
#     4   9  18  29  50  88 120 140 171 223 281 335
#     4  10  19  37  60  85 111 142 187 235 284 336
#     4  12  25  38  54  79 114 153 195 232 275 329
#
# _framework density 19.917818
#
# number of rings (size 3 to 8) (size 9 to 14) (size 15 to 20)
#    0.000    2.143    1.429    2.571    2.000    5.714 
#    0.000    0.714    0.000    3.857    0.000    0.000 
#    0.000    0.000    0.000    0.000    0.000    0.000 
#
# Total GULP energy -155997.674838 kJ/mol
# GULP energy per Si atom -5571.345530 kJ/mol
# Density = 1.987248 g / cm^3
# Si number density = 19.917818 Si / 1000 Ang^3
#
#
#
# Elastic Constant Matrix: (Units=GPa)
#
#
# Indices 1 2 3 4 5 6 
#
# 1 18.7301 -12.1764 -5.9452 0.0000 14.1760 0.0000
# 2 -12.1764 -16.6829 7.9454 0.0000 3.3594 0.0000
# 3 -5.9452 7.9454 140.9838 0.0000 22.8349 0.0000
# 4 0.0000 0.0000 0.0000 9.6200 0.0000 5.5688
# 5 14.1760 3.3594 22.8349 0.0000 32.3686 0.0000
# 6 0.0000 0.0000 0.0000 5.5688 0.0000 -2.5364
#
#
#
# Elastic Compliance Matrix: (Units=1/GPa)
#
#
# Indices 1 2 3 4 5 6 
#
# 1 0.049582 -0.037115 0.007988 0.000000 -0.023498 0.000000
# 2 -0.037115 -0.030085 -0.003396 0.000000 0.021773 0.000000
# 3 0.007988 -0.003396 0.009180 0.000000 -0.009622 0.000000
# 4 0.000000 0.000000 0.000000 0.045774 0.000000 0.100499
# 5 -0.023498 0.021773 -0.009622 0.000000 0.045714 0.000000
# 6 0.000000 0.000000 0.000000 0.100499 0.000000 -0.173611
#
#
# Mechanical properties :
#
#
# Convention : Reuss Voigt Hill
#
# Bulk Modulus (GPa) = -27.49518 13.63094 -6.93212
# Shear Modulus (GPa) = -9540.20273 18.10425 -4761.04924
#
# Velocity S-wave (km/s) = -69.28334 3.01815 -48.94421
# Velocity P-wave (km/s) = 80.08793 4.35936 56.54676
#
# Compressibility (1/GPa) = -0.03637001
#
# Stress axis : x y z
#
# Youngs Moduli (GPa) = 20.16876 -33.23906 108.93536
#
# Poissons Ratio (x) = -1.23368 -0.87023
# Poissons Ratio (y) = 0.74857 0.36997
# Poissons Ratio (z) = -0.16112 -0.11289
#
# Static dielectric constant tensor:
#      x y z
#    x 1.730150 0.000000 -0.038400 
#    y 0.000000 1.685270 0.000000 
#    z -0.038400 0.000000 1.754420 
# 
# From -- ./inp_files/36969.got.cif
#   From: 2010.05.17/outbox.ucp.g08.bks.cvg/sg10_19_cif.got.tgz:36969.got - 2010.06.11 11:31:16.
