data_PCOD9155383
_publ_section_title
;
Structure prediction by ZEFSAII (Michael W. Deem and Ramdas Pophale) SiO2 
 PCOD9155383
Probable space group: P 2/M
;
_chemical_formula_sum "Si O2"
_cell_formula_units_Z 28
_cell_length_a 30.000000
_cell_length_b 9.000000
_cell_length_c 30.000000
_cell_angle_alpha 90.000000
_cell_angle_beta 10.000000
_cell_angle_gamma 90.000000
_cell_volume 1406.550239
_symmetry_space_group_name_H-M "P 2/M"
_symmetry_group_IT_number 10
_symmetry_cell_setting 'monoclinic'
loop_
_space_group_symop_operation_xyz
x,y,z
-x,y,-z
-x,-y,-z
x,-y,z
loop_
_atom_site_type_symbol
_atom_site_label
_atom_site_fract_x
_atom_site_fract_y
_atom_site_fract_z
Si Si1 0.076744 0.821671 0.257090
Si Si2 0.262809 0.830765 0.267116
Si Si3 0.345446 0.331443 0.838883
Si Si4 0.966468 0.679888 0.940591
Si Si5 0.496182 0.172913 0.557182
Si Si6 0.863056 0.328396 0.379546
Si Si7 0.605563 0.322316 0.772359
O O1 0.956887 0.774620 0.327408
O O2 0.865015 0.749108 0.497520
O O3 0.093200 0.000000 0.244781
O O4 0.354557 0.750613 0.995819
O O5 0.364158 0.722649 0.205855
O O6 0.000000 0.786633 0.500000
O O7 0.216439 0.000000 0.330538
O O8 0.500000 0.839466 0.000000
O O9 0.419561 0.500000 0.752101
O O10 0.191417 0.266699 0.948207
O O11 0.610103 0.273390 0.600995
O O12 0.117301 0.337026 0.099175
O O13 0.999794 0.500000 0.905585
O O14 0.757407 0.730872 0.182525
O O15 0.244274 0.754376 0.676949
O O16 0.500000 0.170435 0.500000
O O17 0.474012 0.000000 0.594243
O O18 0.803542 0.500000 0.453079
O O19 0.596264 0.500000 0.775501
#
# Coordination Sequence:
#
# PCOD9155383 Si02
#       7
#     4   4   4   4   4   4   4
#     4  12  25  42  63  91 126 161 202 253 306 356
#     4  10  21  38  61  89 123 161 198 243 304 362
#     4   9  19  35  58  86 117 152 191 242 299 354
#     4  11  22  39  64  92 118 152 203 252 295 351
#     4  11  24  41  59  84 122 163 198 241 304 364
#     4  10  19  36  60  85 116 156 198 238 292 359
#     4  12  25  42  65  93 124 162 208 253 300 358
#
# _framework density 19.906860999999999
#
# number of rings (size 3 to 8) (size 9 to 14) (size 15 to 20)
#    0.000    1.286    0.000    6.429    0.000    8.000 
#    0.000    4.286    0.000    0.000    0.000    0.000 
#    0.000    0.000    0.000    0.000    0.000    0.000 
#
# Total GULP energy -156194.356144 kJ/mol
# GULP energy per Si atom -5578.369862 kJ/mol
# Density = 1.986155 g / cm^3
# Si number density = 19.906861 Si / 1000 Ang^3
#
#
#
# Elastic Constant Matrix: (Units=GPa)
#
#
# Indices 1 2 3 4 5 6 
#
# 1 52.1471 15.9664 -15.6412 0.0000 -15.7767 0.0000
# 2 15.9664 110.6490 9.2475 0.0000 -9.6930 0.0000
# 3 -15.6412 9.2475 85.2034 0.0000 -27.0329 0.0000
# 4 0.0000 0.0000 0.0000 29.1582 0.0000 -9.7287
# 5 -15.7767 -9.6930 -27.0329 0.0000 49.2592 0.0000
# 6 0.0000 0.0000 0.0000 -9.7287 0.0000 26.3095
#
#
#
# Elastic Compliance Matrix: (Units=1/GPa)
#
#
# Indices 1 2 3 4 5 6 
#
# 1 0.027144 -0.003556 0.009572 0.000000 0.013247 0.000000
# 2 -0.003556 0.009681 -0.001768 0.000000 -0.000205 0.000000
# 3 0.009572 -0.001768 0.017615 0.000000 0.012385 0.000000
# 4 0.000000 0.000000 0.000000 0.039123 0.000000 0.014467
# 5 0.013247 -0.000205 0.012385 0.000000 0.031300 0.000000
# 6 0.000000 0.000000 0.000000 0.014467 0.000000 0.043359
#
#
# Mechanical properties :
#
#
# Convention : Reuss Voigt Hill
#
# Bulk Modulus (GPa) = 15.88970 29.68277 22.78624
# Shear Modulus (GPa) = 27.66946 36.84049 32.25498
#
# Velocity S-wave (km/s) = 3.73224 4.30658 4.02966
# Velocity P-wave (km/s) = 5.15482 6.29857 5.75518
#
# Compressibility (1/GPa) = 0.06293385
#
# Stress axis : x y z
#
# Youngs Moduli (GPa) = 36.84033 103.29898 56.76970
#
# Poissons Ratio (x) = 0.36737 -0.54339
# Poissons Ratio (y) = 0.13102 0.10040
# Poissons Ratio (z) = -0.35263 0.18268
#
# Static dielectric constant tensor:
#      x y z
#    x 1.829610 0.000000 0.089410 
#    y 0.000000 1.711250 0.000000 
#    z 0.089410 0.000000 1.696070 
# 
# From -- ./inp_files/96006.got.cif
#   From: 2010.05.17/outbox.ucp.g08.bks.cvg/sg10_49_cif.got.tgz:96006.got - 2010.06.11 11:31:16.
