data_PCOD9155956
_publ_section_title
;
Structure prediction by ZEFSAII (Michael W. Deem and Ramdas Pophale) SiO2 
 PCOD9155956
Probable space group: P 21/M
;
_chemical_formula_sum "Si O2"
_cell_formula_units_Z 28
_cell_length_a 6.469183
_cell_length_b 14.066534
_cell_length_c 19.094540
_cell_angle_alpha 90.000000
_cell_angle_beta 70.565562
_cell_angle_gamma 90.000000
_cell_volume 1638.581128
_symmetry_space_group_name_H-M "P 21/M"
_symmetry_group_IT_number 11
_symmetry_cell_setting 'monoclinic'
loop_
_space_group_symop_operation_xyz
x,y,z
-x,1/2+y,-z
-x,-y,-z
x,1/2-y,z
loop_
_atom_site_type_symbol
_atom_site_label
_atom_site_fract_x
_atom_site_fract_y
_atom_site_fract_z
Si Si1 0.421353 0.358782 0.011436
Si Si2 0.724205 0.639878 0.135506
Si Si3 0.460225 0.354713 0.593123
Si Si4 0.046036 0.462076 0.609947
Si Si5 0.072607 0.859057 0.521709
Si Si6 0.133014 0.970824 0.054688
Si Si7 0.327997 0.858966 0.276701
O O1 0.406612 0.250000 0.037646
O O2 0.345074 0.360697 0.938498
O O3 0.670167 0.397725 0.985552
O O4 0.260615 0.435013 0.066694
O O5 0.764942 0.750000 0.150981
O O6 0.512319 0.606244 0.202299
O O7 0.945117 0.579462 0.121750
O O8 0.354555 0.250000 0.594688
O O9 0.291720 0.439495 0.604590
O O10 0.663864 0.362978 0.517411
O O11 0.560107 0.355463 0.659484
O O12 0.004425 0.569402 0.590508
O O13 0.014063 0.399784 0.542479
O O14 0.882725 0.423976 0.687653
O O15 0.006945 0.750000 0.538586
O O16 0.000000 0.000000 0.000000
O O17 0.266174 0.750000 0.264614
#
# Coordination Sequence:
#
# PCOD9155956 Si02
#       7
#     4   4   4   4   4   4   4
#     4   9  17  29  47  70  92 117 149 183 222 265
#     4   9  17  29  45  67  95 121 146 179 220 266
#     4   9  16  27  43  63  86 110 139 176 218 261
#     4  10  17  28  45  61  85 116 143 177 222 264
#     4   9  18  29  42  63  85 107 143 185 221 262
#     4   9  17  29  45  67  94 119 146 181 218 259
#     4   9  18  29  42  66  93 115 143 175 210 260
#
# _framework density 17.087952999999999
#
# number of rings (size 3 to 8) (size 9 to 14) (size 15 to 20)
#    0.000    2.857    0.000    3.000    0.000    1.714 
#    0.000    4.286    0.000    0.857    0.000    6.000 
#    0.000    0.000    0.000    0.000    0.000    0.000 
#
# Total GULP energy -155904.227940 kJ/mol
# GULP energy per Si atom -5568.008141 kJ/mol
# Density = 1.704906 g / cm^3
# Si number density = 17.087953 Si / 1000 Ang^3
#
#
#
# Elastic Constant Matrix: (Units=GPa)
#
#
# Indices 1 2 3 4 5 6 
#
# 1 45.6526 17.6609 -1.9032 0.0000 -10.8173 0.0000
# 2 17.6609 90.0982 7.2738 0.0000 -9.2522 0.0000
# 3 -1.9032 7.2738 30.7340 0.0000 -18.7184 0.0000
# 4 0.0000 0.0000 0.0000 18.7190 0.0000 -6.2597
# 5 -10.8173 -9.2522 -18.7184 0.0000 16.4296 0.0000
# 6 0.0000 0.0000 0.0000 -6.2597 0.0000 23.2010
#
#
#
# Elastic Compliance Matrix: (Units=1/GPa)
#
#
# Indices 1 2 3 4 5 6 
#
# 1 0.060641 -0.004799 0.090038 0.000000 0.139805 0.000000
# 2 -0.004799 0.012320 -0.002979 0.000000 0.000384 0.000000
# 3 0.090038 -0.002979 0.241417 0.000000 0.332652 0.000000
# 4 0.000000 0.000000 0.000000 0.058719 0.000000 0.015843
# 5 0.139805 0.000384 0.332652 0.000000 0.532121 0.000000
# 6 0.000000 0.000000 0.000000 0.015843 0.000000 0.047376
#
#
# Mechanical properties :
#
#
# Convention : Reuss Voigt Hill
#
# Bulk Modulus (GPa) = 2.08813 23.61642 12.85227
# Shear Modulus (GPa) = 5.27589 21.23350 13.25469
#
# Velocity S-wave (km/s) = 1.75903 3.52888 2.78812
# Velocity P-wave (km/s) = 2.31306 5.51856 4.23112
#
# Compressibility (1/GPa) = 0.47889786
#
# Stress axis : x y z
#
# Youngs Moduli (GPa) = 16.49044 81.17114 4.14220
#
# Poissons Ratio (x) = 0.38955 -0.37296
# Poissons Ratio (y) = 0.07914 0.01234
# Poissons Ratio (z) = -1.48477 0.24182
#
# Static dielectric constant tensor:
#      x y z
#    x 1.595900 0.000000 -0.008090 
#    y 0.000000 1.617100 0.000000 
#    z -0.008090 0.000000 1.569240 
# 
# From -- ./inp_files/8625.got.cif
#   From: 2010.05.17/outbox.cif.g08.bks.cpg/sg11_5_cif.got.tgz:8625.got - 2010.06.03 12:22:45.
