data_PCOD9155555
_publ_section_title
;
Structure prediction by ZEFSAII (Michael W. Deem and Ramdas Pophale) SiO2 
 PCOD9155555
Probable space group: P 2/M
;
_chemical_formula_sum "Si O2"
_cell_formula_units_Z 32
_cell_length_a 27.000000
_cell_length_b 9.000000
_cell_length_c 21.000000
_cell_angle_alpha 90.000000
_cell_angle_beta 160.000000
_cell_angle_gamma 90.000000
_cell_volume 1745.328791
_symmetry_space_group_name_H-M "P 2/M"
_symmetry_group_IT_number 10
_symmetry_cell_setting 'monoclinic'
loop_
_space_group_symop_operation_xyz
x,y,z
-x,y,-z
-x,-y,-z
x,-y,z
loop_
_atom_site_type_symbol
_atom_site_label
_atom_site_fract_x
_atom_site_fract_y
_atom_site_fract_z
Si Si1 0.931303 0.678647 0.513607
Si Si2 0.876126 0.327207 0.802914
Si Si3 0.531165 0.178960 0.220685
Si Si4 0.057788 0.672097 0.893340
Si Si5 0.569241 0.177567 0.415096
Si Si6 0.841187 0.177790 0.535594
Si Si7 0.391321 0.320698 0.311543
Si Si8 0.768862 0.321593 0.185381
O O1 0.929698 0.500000 0.519782
O O2 0.866732 0.757718 0.496659
O O3 0.834055 0.712382 0.333972
O O4 0.098782 0.721950 0.701934
O O5 0.843763 0.500000 0.780954
O O6 0.728887 0.236147 0.625703
O O7 0.951497 0.324023 0.825377
O O8 0.000000 0.271213 0.000000
O O9 0.539480 0.217119 0.305597
O O10 0.684067 0.226674 0.373591
O O11 0.522977 0.000000 0.205344
O O12 0.385251 0.247685 0.014993
O O13 0.068913 0.500000 0.885211
O O14 0.975237 0.766118 0.740429
O O15 0.220692 0.719819 0.110193
O O16 0.455049 0.253364 0.323966
O O17 0.563379 0.000000 0.414238
O O18 0.840976 0.000000 0.534883
O O19 0.500000 0.272647 0.500000
O O20 0.397816 0.500000 0.317722
O O21 0.752662 0.500000 0.161482
#
# Coordination Sequence:
#
# PCOD9155555 Si02
#       8
#     4   4   4   4   4   4   4   4
#     4   9  20  40  62  90 120 147 189 239 287 339
#     4  10  20  37  62  87 112 148 195 243 291 343
#     4  10  23  40  56  82 122 158 193 235 281 341
#     4  10  21  37  59  86 114 149 192 241 292 343
#     4  11  23  39  57  84 121 157 193 237 287 345
#     4  11  23  39  58  83 119 159 193 234 285 340
#     4  10  22  41  62  85 115 149 192 247 299 348
#     4   9  20  39  64  89 117 151 189 238 287 336
#
# _framework density 18.334654
#
# number of rings (size 3 to 8) (size 9 to 14) (size 15 to 20)
#    0.000    2.000    1.250    2.250    1.750    6.500 
#    0.000    5.000    0.000    0.000    0.000    0.000 
#    0.000    0.000    0.000    0.000    0.000    0.000 
#
# Total GULP energy -178622.635696 kJ/mol
# GULP energy per Si atom -5581.957365 kJ/mol
# Density = 1.829292 g / cm^3
# Si number density = 18.334654 Si / 1000 Ang^3
#
#
#
# Elastic Constant Matrix: (Units=GPa)
#
#
# Indices 1 2 3 4 5 6 
#
# 1 68.5585 19.2288 12.1900 0.0000 1.3161 0.0000
# 2 19.2288 18.4121 24.1740 0.0000 -2.2505 0.0000
# 3 12.1900 24.1740 108.5501 0.0000 3.9359 0.0000
# 4 0.0000 0.0000 0.0000 -9.2134 0.0000 24.4395
# 5 1.3161 -2.2505 3.9359 0.0000 26.1590 0.0000
# 6 0.0000 0.0000 0.0000 24.4395 0.0000 15.2538
#
#
#
# Elastic Compliance Matrix: (Units=1/GPa)
#
#
# Indices 1 2 3 4 5 6 
#
# 1 0.022060 -0.028975 0.004129 0.000000 -0.004224 0.000000
# 2 -0.028975 0.117093 -0.023368 0.000000 0.015047 0.000000
# 3 0.004129 -0.023368 0.014110 0.000000 -0.004341 0.000000
# 4 0.000000 0.000000 0.000000 -0.020674 0.000000 0.033124
# 5 -0.004224 0.015047 -0.004341 0.000000 0.040388 0.000000
# 6 0.000000 0.000000 0.000000 0.033124 0.000000 0.012487
#
#
# Mechanical properties :
#
#
# Convention : Reuss Voigt Hill
#
# Bulk Modulus (GPa) = 17.59536 34.07849 25.83692
# Shear Modulus (GPa) = 16.62019 15.76841 16.19430
#
# Velocity S-wave (km/s) = 3.01406 2.93581 2.97520
# Velocity P-wave (km/s) = 4.66159 5.48810 5.09164
#
# Compressibility (1/GPa) = 0.05683317
#
# Stress axis : x y z
#
# Youngs Moduli (GPa) = 45.33108 8.54021 70.87067
#
# Poissons Ratio (x) = 0.24746 -0.29260
# Poissons Ratio (y) = 1.31349 1.65613
# Poissons Ratio (z) = -0.18716 0.19957
#
# Static dielectric constant tensor:
#      x y z
#    x 1.636390 0.000000 -0.009670 
#    y 0.000000 1.619600 0.000000 
#    z -0.009670 0.000000 1.608460 
# 
# From -- ./inp_files/87020.got.cif
#   From: 2010.05.17/outbox.ucp.g08.bks.cvg/sg10_44_cif.got.tgz:87020.got - 2010.06.11 11:31:16.
