data_PCOD9155992
_publ_section_title
;
Structure prediction by ZEFSAII (Michael W. Deem and Ramdas Pophale) SiO2 
 PCOD9155992
Probable space group: P 21/M
;
_chemical_formula_sum "Si O2"
_cell_formula_units_Z 32
_cell_length_a 9.176552
_cell_length_b 21.801988
_cell_length_c 11.567701
_cell_angle_alpha 90.000000
_cell_angle_beta 126.175505
_cell_angle_gamma 90.000000
_cell_volume 1868.145442
_symmetry_space_group_name_H-M "P 21/M"
_symmetry_group_IT_number 11
_symmetry_cell_setting 'monoclinic'
loop_
_space_group_symop_operation_xyz
x,y,z
-x,1/2+y,-z
-x,-y,-z
x,1/2-y,z
loop_
_atom_site_type_symbol
_atom_site_label
_atom_site_fract_x
_atom_site_fract_y
_atom_site_fract_z
Si Si1 0.515995 0.424027 0.641886
Si Si2 0.004618 0.604724 0.456355
Si Si3 0.641057 0.821456 0.580039
Si Si4 0.369071 0.915618 0.863217
Si Si5 0.632267 0.559296 0.186774
Si Si6 0.344428 0.821115 0.642505
Si Si7 0.017185 0.400317 0.275122
Si Si8 0.783235 0.484734 0.605009
O O1 0.439667 0.358779 0.565664
O O2 0.510174 0.431796 0.775730
O O3 0.698553 0.438909 0.658800
O O4 0.374040 0.474041 0.525090
O O5 0.141261 0.662038 0.504501
O O6 0.118327 0.549707 0.452671
O O7 0.810373 0.597554 0.305134
O O8 0.976275 0.599714 0.580722
O O9 0.662629 0.750000 0.566516
O O10 0.494888 0.829605 0.613852
O O11 0.835190 0.851796 0.698438
O O12 0.387146 0.869850 0.763630
O O13 0.192339 0.892184 0.849834
O O14 0.329905 0.986095 0.805849
O O15 0.542843 0.918912 0.025981
O O16 0.349381 0.750000 0.682371
O O17 0.084326 0.467524 0.271213
#
# Coordination Sequence:
#
# PCOD9155992 Si02
#       8
#     4   4   4   4   4   4   4   4
#     4  10  19  31  52  80 111 140 178 221 285 319
#     4  11  18  32  57  81 110 134 182 230 268 315
#     4  10  20  34  55  82 107 135 184 235 272 321
#     4  10  23  37  55  79 121 149 181 223 276 334
#     4  11  21  37  54  86 115 147 179 229 280 331
#     4  10  22  38  58  81 107 146 188 226 273 332
#     4  10  19  31  54  83 107 143 181 223 278 322
#     4  10  17  28  52  82 107 140 172 222 275 325
#
# _framework density 17.129287000000001
#
# number of rings (size 3 to 8) (size 9 to 14) (size 15 to 20)
#    0.000    1.750    5.000    1.875    3.500    2.000 
#    0.000    3.125    0.000    0.000    0.000    0.000 
#    0.000    0.000    0.000    0.000    0.000    0.000 
#
# Total GULP energy -178286.360265 kJ/mol
# GULP energy per Si atom -5571.448758 kJ/mol
# Density = 1.709030 g / cm^3
# Si number density = 17.129287 Si / 1000 Ang^3
#
#
#
# Elastic Constant Matrix: (Units=GPa)
#
#
# Indices 1 2 3 4 5 6 
#
# 1 85.7235 37.0005 21.8614 0.0000 10.7808 0.0000
# 2 37.0005 93.7990 28.1174 0.0000 1.7576 0.0000
# 3 21.8614 28.1174 71.7719 0.0000 7.7062 0.0000
# 4 0.0000 0.0000 0.0000 12.3182 0.0000 -3.3542
# 5 10.7808 1.7576 7.7062 0.0000 18.0136 0.0000
# 6 0.0000 0.0000 0.0000 -3.3542 0.0000 26.0437
#
#
#
# Elastic Compliance Matrix: (Units=1/GPa)
#
#
# Indices 1 2 3 4 5 6 
#
# 1 0.015452 -0.005429 -0.001723 0.000000 -0.007981 0.000000
# 2 -0.005429 0.014001 -0.004228 0.000000 0.003692 0.000000
# 3 -0.001723 -0.004228 0.016727 0.000000 -0.005712 0.000000
# 4 0.000000 0.000000 0.000000 0.084131 0.000000 0.010835
# 5 -0.007981 0.003692 -0.005712 0.000000 0.062373 0.000000
# 6 0.000000 0.000000 0.000000 0.010835 0.000000 0.039793
#
#
# Mechanical properties :
#
#
# Convention : Reuss Voigt Hill
#
# Bulk Modulus (GPa) = 42.69703 47.25033 44.97368
# Shear Modulus (GPa) = 19.00826 22.22943 20.61885
#
# Velocity S-wave (km/s) = 3.33482 3.60633 3.47323
# Velocity P-wave (km/s) = 6.30940 6.70710 6.51129
#
# Compressibility (1/GPa) = 0.02342083
#
# Stress axis : x y z
#
# Youngs Moduli (GPa) = 64.71716 71.42414 59.78243
#
# Poissons Ratio (x) = 0.38778 0.10299
# Poissons Ratio (y) = 0.35137 0.25274
# Poissons Ratio (z) = 0.11149 0.30196
#
# Static dielectric constant tensor:
#      x y z
#    x 1.613590 0.000000 0.027700 
#    y 0.000000 1.584090 0.000000 
#    z 0.027700 0.000000 1.581450 
# 
# From -- ./inp_files/33011.got.cif
#   From: 2010.05.17/outbox.cif.g08.bks.cpg/sg11_17_cif.got.tgz:33011.got - 2010.06.03 12:22:45.
