data_PCOD9155683
_publ_section_title
;
Structure prediction by ZEFSAII (Michael W. Deem and Ramdas Pophale) SiO2 
 PCOD9155683
Probable space group: P 2/M
;
_chemical_formula_sum "Si O2"
_cell_formula_units_Z 24
_cell_length_a 12.000000
_cell_length_b 9.000000
_cell_length_c 12.000000
_cell_angle_alpha 90.000000
_cell_angle_beta 70.000000
_cell_angle_gamma 90.000000
_cell_volume 1217.841637
_symmetry_space_group_name_H-M "P 2/M"
_symmetry_group_IT_number 10
_symmetry_cell_setting 'monoclinic'
loop_
_space_group_symop_operation_xyz
x,y,z
-x,y,-z
-x,-y,-z
x,-y,z
loop_
_atom_site_type_symbol
_atom_site_label
_atom_site_fract_x
_atom_site_fract_y
_atom_site_fract_z
Si Si1 0.796540 0.822468 0.317941
Si Si2 0.610466 0.322441 0.222004
Si Si3 0.861416 0.676843 0.525355
Si Si4 0.350149 0.324897 0.232002
Si Si5 0.977117 0.328943 0.875689
Si Si6 0.277616 0.177227 0.037633
O O1 0.679963 0.753338 0.300002
O O2 0.811500 0.770175 0.439545
O O3 0.911736 0.753578 0.217093
O O4 0.795636 0.000000 0.307772
O O5 0.631381 0.500000 0.217517
O O6 0.468720 0.297311 0.263989
O O7 0.667482 0.254426 0.090255
O O8 0.857033 0.500000 0.500723
O O9 0.771654 0.701529 0.658851
O O10 0.000000 0.713730 0.500000
O O11 0.352840 0.500000 0.199319
O O12 0.350897 0.225832 0.121354
O O13 0.968358 0.500000 0.837501
O O14 0.854575 0.242528 0.899189
O O15 0.000000 0.333656 0.000000
O O16 0.274512 0.000000 0.025070
#
# Coordination Sequence:
#
# PCOD9155683 Si02
#       6
#     4   4   4   4   4   4
#     4  12  25  40  63  95 130 163 203 260 320 372
#     4  11  23  41  63  89 125 169 216 259 305 370
#     4  10  22  43  69  93 121 161 210 259 309 372
#     4  10  23  42  65  91 122 168 219 260 303 367
#     4  11  22  38  63  90 121 163 206 250 303 367
#     4  12  24  38  62  95 131 164 203 261 321 373
#
# _framework density 19.706996
#
# number of rings (size 3 to 8) (size 9 to 14) (size 15 to 20)
#    0.000    1.000    1.667    5.500    0.000    7.000 
#    0.000    3.333    0.000    0.000    0.000    0.000 
#    0.000    0.000    0.000    0.000    0.000    0.000 
#
# Total GULP energy -134295.094869 kJ/mol
# GULP energy per Si atom -5595.628953 kJ/mol
# Density = 1.966214 g / cm^3
# Si number density = 19.706996 Si / 1000 Ang^3
#
#
#
# Elastic Constant Matrix: (Units=GPa)
#
#
# Indices 1 2 3 4 5 6 
#
# 1 130.5938 56.5943 24.9493 0.0000 3.2353 0.0000
# 2 56.5943 131.2854 41.3857 0.0000 11.2929 0.0000
# 3 24.9493 41.3857 56.1206 0.0000 11.2681 0.0000
# 4 0.0000 0.0000 0.0000 15.3085 0.0000 -5.4492
# 5 3.2353 11.2929 11.2681 0.0000 30.6517 0.0000
# 6 0.0000 0.0000 0.0000 -5.4492 0.0000 9.4951
#
#
#
# Elastic Compliance Matrix: (Units=1/GPa)
#
#
# Indices 1 2 3 4 5 6 
#
# 1 0.009549 -0.003648 -0.001751 0.000000 0.000980 0.000000
# 2 -0.003648 0.011349 -0.006462 0.000000 -0.001421 0.000000
# 3 -0.001751 -0.006462 0.024668 0.000000 -0.006503 0.000000
# 4 0.000000 0.000000 0.000000 0.082094 0.000000 0.047113
# 5 0.000980 -0.001421 -0.006503 0.000000 0.035435 0.000000
# 6 0.000000 0.000000 0.000000 0.047113 0.000000 0.132355
#
#
# Mechanical properties :
#
#
# Convention : Reuss Voigt Hill
#
# Bulk Modulus (GPa) = 45.78221 62.65093 54.21657
# Shear Modulus (GPa) = 15.31610 24.09575 19.70593
#
# Velocity S-wave (km/s) = 2.79084 3.50051 3.16562
# Velocity P-wave (km/s) = 5.80232 6.94250 6.39786
#
# Compressibility (1/GPa) = 0.02184255
#
# Stress axis : x y z
#
# Youngs Moduli (GPa) = 104.72580 88.11326 40.53773
#
# Poissons Ratio (x) = 0.32148 0.07099
# Poissons Ratio (y) = 0.38209 0.26196
# Poissons Ratio (z) = 0.18341 0.56939
#
# Static dielectric constant tensor:
#      x y z
#    x 1.691000 0.000000 0.008280 
#    y 0.000000 1.655780 0.000000 
#    z 0.008280 0.000000 1.693740 
# 
# From -- ./inp_files/45062.got.cif
#   From: 2010.05.17/outbox.ucp.g08.bks.cvg/sg10_23_cif.got.tgz:45062.got - 2010.06.11 11:31:16.
