data_PCOD9155856
_publ_section_title
;
Structure prediction by ZEFSAII (Michael W. Deem and Ramdas Pophale) SiO2 
 PCOD9155856
Probable space group: P 21/M
;
_chemical_formula_sum "Si O2"
_cell_formula_units_Z 24
_cell_length_a 7.307748
_cell_length_b 8.735946
_cell_length_c 16.792886
_cell_angle_alpha 90.000000
_cell_angle_beta 97.341952
_cell_angle_gamma 90.000000
_cell_volume 1063.269721
_symmetry_space_group_name_H-M "P 21/M"
_symmetry_group_IT_number 11
_symmetry_cell_setting 'monoclinic'
loop_
_space_group_symop_operation_xyz
x,y,z
-x,1/2+y,-z
-x,-y,-z
x,1/2-y,z
loop_
_atom_site_type_symbol
_atom_site_label
_atom_site_fract_x
_atom_site_fract_y
_atom_site_fract_z
Si Si1 0.434621 0.568989 0.753062
Si Si2 0.844556 0.435023 0.742774
Si Si3 0.642267 0.566814 0.407308
Si Si4 0.764713 0.567714 0.579378
Si Si5 0.494658 0.577200 0.084859
Si Si6 0.942863 0.077900 0.914129
O O1 0.422211 0.750000 0.743752
O O2 0.644354 0.511883 0.747509
O O3 0.312874 0.486046 0.679348
O O4 0.402061 0.517277 0.841498
O O5 0.829811 0.250000 0.745250
O O6 0.883176 0.484425 0.654032
O O7 0.970958 0.484664 0.825327
O O8 0.611198 0.750000 0.406807
O O9 0.782907 0.529044 0.486591
O O10 0.449039 0.481199 0.416103
O O11 0.784379 0.750000 0.590234
O O12 0.564501 0.750000 0.086706
O O13 0.278750 0.583908 0.093739
O O14 0.500000 0.500000 0.000000
O O15 0.017153 0.250000 0.920681
O O16 0.000000 0.000000 0.000000
#
# Coordination Sequence:
#
# PCOD9155856 Si02
#       6
#     4   4   4   4   4   4
#     4  10  17  25  39  58  80 111 146 178 218 265
#     4   9  16  26  38  55  81 111 143 181 221 262
#     4   9  15  22  32  49  76 107 139 176 214 257
#     4   9  15  21  32  51  74 105 142 175 213 261
#     4  10  20  34  49  68  92 119 152 189 228 269
#     4   9  19  32  47  67  91 119 152 188 226 268
#
# _framework density 22.571883
#
# number of rings (size 3 to 8) (size 9 to 14) (size 15 to 20)
#    0.000    2.667    0.000    6.500    0.000    6.000 
#    0.000    0.000    0.000    0.000    0.000    0.000 
#    0.000    1.333    0.000    4.333    0.000   16.000 
#
# Total GULP energy -133808.171993 kJ/mol
# GULP energy per Si atom -5575.340500 kJ/mol
# Density = 2.252051 g / cm^3
# Si number density = 22.571883 Si / 1000 Ang^3
#
#
#
# Elastic Constant Matrix: (Units=GPa)
#
#
# Indices 1 2 3 4 5 6 
#
# 1 57.1590 -6.4013 6.7848 0.0000 19.3627 0.0000
# 2 -6.4013 85.1909 66.2068 0.0000 7.9101 0.0000
# 3 6.7848 66.2068 288.2076 0.0000 1.8760 0.0000
# 4 0.0000 0.0000 0.0000 44.4151 0.0000 -0.9947
# 5 19.3627 7.9101 1.8760 0.0000 19.5362 0.0000
# 6 0.0000 0.0000 0.0000 -0.9947 0.0000 -0.9684
#
#
#
# Elastic Compliance Matrix: (Units=1/GPa)
#
#
# Indices 1 2 3 4 5 6 
#
# 1 0.029096 0.006659 -0.002011 0.000000 -0.031341 0.000000
# 2 0.006659 0.016423 -0.003846 0.000000 -0.012880 0.000000
# 3 -0.002011 -0.003846 0.004380 0.000000 0.003129 0.000000
# 4 0.000000 0.000000 0.000000 0.022009 0.000000 -0.022606
# 5 -0.031341 -0.012880 0.003129 0.000000 0.087164 0.000000
# 6 0.000000 0.000000 0.000000 -0.022606 0.000000 -1.009431
#
#
# Mechanical properties :
#
#
# Convention : Reuss Voigt Hill
#
# Bulk Modulus (GPa) = 19.41560 62.63759 41.02659
# Shear Modulus (GPa) = -5.98949 36.86107 15.43579
#
# Velocity S-wave (km/s) = -1.63073 4.04549 2.61789
# Velocity P-wave (km/s) = 2.25270 7.04499 5.23003
#
# Compressibility (1/GPa) = 0.05150498
#
# Stress axis : x y z
#
# Youngs Moduli (GPa) = 34.36863 60.88900 228.30477
#
# Poissons Ratio (x) = -0.40546 0.45904
# Poissons Ratio (y) = -0.22886 0.87799
# Poissons Ratio (z) = 0.06910 0.23416
#
# Static dielectric constant tensor:
#      x y z
#    x 1.901510 0.000000 -0.044540 
#    y 0.000000 1.766690 0.000000 
#    z -0.044540 0.000000 1.935150 
# 
# From -- ./inp_files/58564.got.cif
#   From: 2010.05.17/outbox.cif.g08.bks.cpg/sg11_30_cif.got.tgz:58564.got - 2010.06.03 12:22:45.
