data_PCOD9155007
_publ_section_title
;
Structure prediction by ZEFSAII (Michael W. Deem and Ramdas Pophale) SiO2 
 PCOD9155007
Probable space group: P 2/M
;
_chemical_formula_sum "Si O2"
_cell_formula_units_Z 20
_cell_length_a 12.604205
_cell_length_b 13.490400
_cell_length_c 7.656200
_cell_angle_alpha 90.000000
_cell_angle_beta 127.404029
_cell_angle_gamma 90.000000
_cell_volume 1034.135466
_symmetry_space_group_name_H-M "P 2/M"
_symmetry_group_IT_number 10
_symmetry_cell_setting 'monoclinic'
loop_
_space_group_symop_operation_xyz
x,y,z
-x,y,-z
-x,-y,-z
x,-y,z
loop_
_atom_site_type_symbol
_atom_site_label
_atom_site_fract_x
_atom_site_fract_y
_atom_site_fract_z
Si Si1 0.652397 0.284094 0.944187
Si Si2 0.652397 0.284094 0.360607
Si Si3 0.846597 0.112111 0.133170
Si Si4 0.153404 0.887889 0.439977
Si Si5 0.347638 0.500000 0.555439
Si Si6 0.652362 0.500000 0.860162
O O1 0.500000 0.280991 0.721328
O O2 0.710718 0.394230 0.972573
O O3 0.643355 0.270920 0.143355
O O4 0.746025 0.196563 0.969570
O O5 0.746024 0.196563 0.522479
O O6 0.710717 0.394230 0.448862
O O7 0.845499 0.113655 0.345499
O O8 0.000000 0.130258 0.233397
O O9 0.809299 0.000000 0.043507
O O10 0.190702 0.000000 0.424910
O O11 0.500000 0.500000 0.780444
O O12 0.353781 0.500000 0.353781
#
# Coordination Sequence:
#
# PCOD9155007 Si02
#       6
#     4   4   4   4   2   2
#     4   9  16  26  43  66  87 107 137 176 209 239
#     4   9  16  26  43  66  87 107 137 176 209 239
#     4   8  14  25  41  62  88 114 137 165 206 252
#     4   8  14  25  41  62  88 114 137 165 206 252
#     4   9  17  29  44  61  84 114 142 169 208 254
#     4   9  17  29  44  61  84 114 142 169 208 254
#
# _framework density 19.339825999999999
#
# number of rings (size 3 to 8) (size 9 to 14) (size 15 to 20)
#    0.000    3.400    0.000    1.800    0.000    3.200 
#    0.000    5.000    0.000    8.400    0.000    8.400 
#    0.000    0.000    0.000    0.000    0.000    0.000 
#
# Total GULP energy -111387.488689 kJ/mol
# GULP energy per Si atom -5569.374434 kJ/mol
# Density = 1.929581 g / cm^3
# Si number density = 19.339826 Si / 1000 Ang^3
#
#
#
# Elastic Constant Matrix: (Units=GPa)
#
#
# Indices 1 2 3 4 5 6 
#
# 1 35.6477 65.8015 29.2421 0.0000 15.2305 0.0000
# 2 65.8015 220.5799 42.0234 0.0000 50.8452 0.0000
# 3 29.2421 42.0234 26.7265 0.0000 3.8469 0.0000
# 4 0.0000 0.0000 0.0000 3.8430 0.0000 59.0780
# 5 15.2305 50.8452 3.8469 0.0000 23.9829 0.0000
# 6 0.0000 0.0000 0.0000 59.0780 0.0000 31.4732
#
#
#
# Elastic Compliance Matrix: (Units=1/GPa)
#
#
# Indices 1 2 3 4 5 6 
#
# 1 -0.643369 -0.011684 0.675522 0.000000 0.324993 0.000000
# 2 -0.011684 0.014311 -0.006571 0.000000 -0.021867 0.000000
# 3 0.675522 -0.006571 -0.646543 0.000000 -0.311357 0.000000
# 4 0.000000 0.000000 0.000000 -0.009341 0.000000 0.017534
# 5 0.324993 -0.021867 -0.311357 0.000000 -0.068391 0.000000
# 6 0.000000 0.000000 0.000000 0.017534 0.000000 -0.001141
#
#
# Mechanical properties :
#
#
# Convention : Reuss Voigt Hill
#
# Bulk Modulus (GPa) = 25.68609 61.89869 43.79239
# Shear Modulus (GPa) = -1.88251 21.58562 9.85155
#
# Velocity S-wave (km/s) = -0.98767 3.34447 2.25942
# Velocity P-wave (km/s) = 3.46549 6.85487 5.43134
#
# Compressibility (1/GPa) = 0.03893158
#
# Stress axis : x y z
#
# Youngs Moduli (GPa) = -1.55432 69.87449 -1.54669
#
# Poissons Ratio (x) = 0.81644 1.04482
# Poissons Ratio (y) = -0.01816 -0.01016
# Poissons Ratio (z) = 1.04997 0.45914
#
# Static dielectric constant tensor:
#      x y z
#    x 1.679770 0.000000 -0.015540 
#    y 0.000000 1.690420 0.000000 
#    z -0.015540 0.000000 1.687030 
# 
# From -- ./inp_files/23054.got.cif
#   From: 2010.05.17/outbox.cif.g08.bks.cpg/sg10_12_cif.got.tgz:23054.got - 2010.06.03 11:33:40.
