data_PCOD9155732
_publ_section_title
;
Structure prediction by ZEFSAII (Michael W. Deem and Ramdas Pophale) SiO2 
 PCOD9155732
Probable space group: P 21/M
;
_chemical_formula_sum "Si O2"
_cell_formula_units_Z 28
_cell_length_a 6.720165
_cell_length_b 14.250482
_cell_length_c 12.114289
_cell_angle_alpha 90.000000
_cell_angle_beta 94.139734
_cell_angle_gamma 90.000000
_cell_volume 1157.105208
_symmetry_space_group_name_H-M "P 21/M"
_symmetry_group_IT_number 11
_symmetry_cell_setting 'monoclinic'
loop_
_space_group_symop_operation_xyz
x,y,z
-x,1/2+y,-z
-x,-y,-z
x,1/2-y,z
loop_
_atom_site_type_symbol
_atom_site_label
_atom_site_fract_x
_atom_site_fract_y
_atom_site_fract_z
Si Si1 0.528031 0.007656 0.371577
Si Si2 0.972897 0.353416 0.588278
Si Si3 0.856276 0.143417 0.130028
Si Si4 0.338488 0.353132 0.770133
Si Si5 0.002439 0.559663 0.640108
Si Si6 0.609310 0.856438 0.805224
Si Si7 0.729859 0.531905 0.013999
O O1 0.506423 0.916976 0.291191
O O2 0.500000 0.000000 0.500000
O O3 0.761670 0.034745 0.368077
O O4 0.397381 0.088383 0.309883
O O5 0.865976 0.250000 0.585705
O O6 0.157009 0.342733 0.678234
O O7 0.893778 0.457469 0.623021
O O8 0.043376 0.373583 0.465647
O O9 0.899603 0.250000 0.096492
O O10 0.983074 0.110953 0.241881
O O11 0.623126 0.142982 0.162204
O O12 0.854400 0.063842 0.034780
O O13 0.416033 0.250000 0.803761
O O14 0.257507 0.407032 0.874144
O O15 0.666877 0.750000 0.792048
O O16 0.738692 0.905146 0.905753
O O17 0.500000 0.500000 0.000000
#
# Coordination Sequence:
#
# PCOD9155732 Si02
#       7
#     4   4   4   4   4   4   4
#     4  10  19  32  45  64  94 128 158 187 220 270
#     4   9  16  26  44  64  89 119 147 188 237 279
#     4   9  15  24  40  62  88 116 144 179 225 273
#     4  10  18  30  45  68  96 120 148 189 237 281
#     4   9  16  29  42  64  93 119 152 189 228 279
#     4   9  17  28  43  62  87 119 153 187 224 273
#     4  10  15  28  42  64  91 118 147 189 237 278
#
# _framework density 24.198319000000001
#
# number of rings (size 3 to 8) (size 9 to 14) (size 15 to 20)
#    0.000    2.571    5.714    0.857    0.000    1.714 
#    0.000    0.000    0.000    0.000    0.000    1.000 
#    0.000    0.000    0.000    0.000    0.000    0.000 
#
# Total GULP energy -156365.771621 kJ/mol
# GULP energy per Si atom -5584.491844 kJ/mol
# Density = 2.414324 g / cm^3
# Si number density = 24.198319 Si / 1000 Ang^3
#
#
#
# Elastic Constant Matrix: (Units=GPa)
#
#
# Indices 1 2 3 4 5 6 
#
# 1 51.9812 24.9849 27.4731 0.0000 3.6364 0.0000
# 2 24.9849 236.3907 120.1982 0.0000 -3.4899 0.0000
# 3 27.4731 120.1982 183.9671 0.0000 2.3571 0.0000
# 4 0.0000 0.0000 0.0000 19.7901 0.0000 5.7002
# 5 3.6364 -3.4899 2.3571 0.0000 46.3926 0.0000
# 6 0.0000 0.0000 0.0000 5.7002 0.0000 26.1045
#
#
#
# Elastic Compliance Matrix: (Units=1/GPa)
#
#
# Indices 1 2 3 4 5 6 
#
# 1 0.021142 -0.000993 -0.002488 0.000000 -0.001606 0.000000
# 2 -0.000993 0.006403 -0.004045 0.000000 0.000765 0.000000
# 3 -0.002488 -0.004045 0.008457 0.000000 -0.000539 0.000000
# 4 0.000000 0.000000 0.000000 0.053922 0.000000 -0.011774
# 5 -0.001606 0.000765 -0.000539 0.000000 0.021766 0.000000
# 6 0.000000 0.000000 0.000000 -0.011774 0.000000 0.040879
#
#
# Mechanical properties :
#
#
# Convention : Reuss Voigt Hill
#
# Bulk Modulus (GPa) = 47.73203 90.85013 69.29108
# Shear Modulus (GPa) = 28.63598 38.43632 33.53615
#
# Velocity S-wave (km/s) = 3.44377 3.98978 3.72679
# Velocity P-wave (km/s) = 5.96497 7.67137 6.87135
#
# Compressibility (1/GPa) = 0.02095029
#
# Stress axis : x y z
#
# Youngs Moduli (GPa) = 47.29848 156.16481 118.24195
#
# Poissons Ratio (x) = 0.15513 0.29415
# Poissons Ratio (y) = 0.04698 0.47832
# Poissons Ratio (z) = 0.11767 0.63173
#
# Static dielectric constant tensor:
#      x y z
#    x 1.864010 0.000000 0.139610 
#    y 0.000000 1.978770 0.000000 
#    z 0.139610 0.000000 1.729690 
# 
# From -- ./inp_files/35286.got.cif
#   From: 2010.05.17/outbox.cif.g08.bks.cpg/sg11_18_cif.got.tgz:35286.got - 2010.06.03 12:22:45.
