data_PCOD9155270
_publ_section_title
;
Structure prediction by ZEFSAII (Michael W. Deem and Ramdas Pophale) SiO2 
 PCOD9155270
Probable space group: P 2/M
;
_chemical_formula_sum "Si O2"
_cell_formula_units_Z 32
_cell_length_a 15.000000
_cell_length_b 9.000000
_cell_length_c 15.000000
_cell_angle_alpha 90.000000
_cell_angle_beta 120.000000
_cell_angle_gamma 90.000000
_cell_volume 1753.701443
_symmetry_space_group_name_H-M "P 2/M"
_symmetry_group_IT_number 10
_symmetry_cell_setting 'monoclinic'
loop_
_space_group_symop_operation_xyz
x,y,z
-x,y,-z
-x,-y,-z
x,-y,z
loop_
_atom_site_type_symbol
_atom_site_label
_atom_site_fract_x
_atom_site_fract_y
_atom_site_fract_z
Si Si1 0.914723 0.320530 0.880430
Si Si2 0.607397 0.330365 0.106121
Si Si3 0.259462 0.174428 0.969679
Si Si4 0.329278 0.678529 0.665091
Si Si5 0.308000 0.821328 0.191834
Si Si6 0.098431 0.318839 0.610154
Si Si7 0.499717 0.319613 0.606111
Si Si8 0.938496 0.678110 0.202093
O O1 0.900760 0.500000 0.877779
O O2 0.805319 0.241188 0.840111
O O3 0.960630 0.281439 0.805357
O O4 0.000000 0.282850 0.000000
O O5 0.650615 0.500000 0.121896
O O6 0.676142 0.217574 0.084995
O O7 0.608095 0.292521 0.211294
O O8 0.500000 0.331869 0.000000
O O9 0.154886 0.264655 0.905189
O O10 0.237021 0.000000 0.961206
O O11 0.317735 0.213259 0.090612
O O12 0.321648 0.500000 0.651508
O O13 0.210525 0.729732 0.625969
O O14 0.397911 0.728131 0.613713
O O15 0.399577 0.747702 0.294703
O O16 0.310748 0.000000 0.204178
O O17 0.101327 0.500000 0.612568
O O18 0.078210 0.270777 0.703390
O O19 0.000000 0.275645 0.500000
O O20 0.500000 0.280578 0.500000
O O21 0.504811 0.500000 0.613580
O O22 0.936111 0.500000 0.204014
#
# Coordination Sequence:
#
# PCOD9155270 Si02
#       8
#     4   4   4   4   4   4   4   4
#     4  10  20  34  57  87 115 148 194 245 290 338
#     4  10  19  32  54  81 109 146 188 231 281 340
#     4  11  22  34  52  80 115 151 186 231 286 342
#     4   9  17  32  55  84 114 146 184 229 289 342
#     4  11  24  39  57  83 118 159 195 234 293 360
#     4   9  17  30  53  84 114 143 180 228 281 340
#     4  10  22  40  63  88 114 149 197 252 292 330
#     4  10  19  34  56  81 110 147 189 234 285 336
#
# _framework density 18.247119999999999
#
# number of rings (size 3 to 8) (size 9 to 14) (size 15 to 20)
#    0.000    2.000    2.500    1.500    0.000    4.750 
#    0.000    4.375    0.000    0.375    0.000    0.000 
#    0.000    0.000    0.000    0.000    0.000    0.000 
#
# Total GULP energy -178374.907811 kJ/mol
# GULP energy per Si atom -5574.215869 kJ/mol
# Density = 1.820559 g / cm^3
# Si number density = 18.247120 Si / 1000 Ang^3
#
#
#
# Elastic Constant Matrix: (Units=GPa)
#
#
# Indices 1 2 3 4 5 6 
#
# 1 136.7257 19.2235 66.9499 0.0000 -16.2319 0.0000
# 2 19.2235 5.9192 19.7775 0.0000 -4.1607 0.0000
# 3 66.9499 19.7775 141.5497 0.0000 -11.8625 0.0000
# 4 0.0000 0.0000 0.0000 19.1357 0.0000 -2.2074
# 5 -16.2319 -4.1607 -11.8625 0.0000 37.1103 0.0000
# 6 0.0000 0.0000 0.0000 -2.2074 0.0000 3.8019
#
#
#
# Elastic Compliance Matrix: (Units=1/GPa)
#
#
# Indices 1 2 3 4 5 6 
#
# 1 0.013519 -0.041400 -0.000517 0.000000 0.001106 0.000000
# 2 -0.041400 0.462082 -0.043318 0.000000 0.019853 0.000000
# 3 -0.000517 -0.043318 0.013292 0.000000 -0.000834 0.000000
# 4 0.000000 0.000000 0.000000 0.056010 0.000000 0.032519
# 5 0.001106 0.019853 -0.000834 0.000000 0.029390 0.000000
# 6 0.000000 0.000000 0.000000 0.032519 0.000000 0.281904
#
#
# Mechanical properties :
#
#
# Convention : Reuss Voigt Hill
#
# Bulk Modulus (GPa) = 3.14048 55.12183 29.13115
# Shear Modulus (GPa) = 4.41381 23.89250 14.15316
#
# Velocity S-wave (km/s) = 1.55697 3.62247 2.78805
# Velocity P-wave (km/s) = 2.22644 6.91162 5.13456
#
# Compressibility (1/GPa) = 0.31842309
#
# Stress axis : x y z
#
# Youngs Moduli (GPa) = 73.96846 2.16412 75.23463
#
# Poissons Ratio (x) = 0.08959 0.03891
# Poissons Ratio (y) = 3.06230 3.25899
# Poissons Ratio (z) = 0.03825 0.09374
#
# Static dielectric constant tensor:
#      x y z
#    x 1.670610 0.000000 -0.008800 
#    y 0.000000 1.605120 0.000000 
#    z -0.008800 0.000000 1.626130 
# 
# From -- ./inp_files/66597.got.cif
#   From: 2010.05.17/outbox.ucp.g08.bks.cvg/sg10_34_cif.got.tgz:66597.got - 2010.06.11 11:31:16.
