data_PCOD9155559
_publ_section_title
;
Structure prediction by ZEFSAII (Michael W. Deem and Ramdas Pophale) SiO2 
 PCOD9155559
Probable space group: P 2/M
;
_chemical_formula_sum "Si O2"
_cell_formula_units_Z 28
_cell_length_a 9.000000
_cell_length_b 9.000000
_cell_length_c 27.000000
_cell_angle_alpha 90.000000
_cell_angle_beta 140.000000
_cell_angle_gamma 90.000000
_cell_volume 1405.776502
_symmetry_space_group_name_H-M "P 2/M"
_symmetry_group_IT_number 10
_symmetry_cell_setting 'monoclinic'
loop_
_space_group_symop_operation_xyz
x,y,z
-x,y,-z
-x,-y,-z
x,-y,z
loop_
_atom_site_type_symbol
_atom_site_label
_atom_site_fract_x
_atom_site_fract_y
_atom_site_fract_z
Si Si1 0.568990 0.678680 0.074577
Si Si2 0.995770 0.172398 0.240454
Si Si3 0.468887 0.330996 0.763635
Si Si4 0.732318 0.173107 0.917516
Si Si5 0.785147 0.826093 0.483679
Si Si6 0.414583 0.333160 0.321952
Si Si7 0.016876 0.823047 0.358119
O O1 0.572989 0.500000 0.076760
O O2 0.388046 0.745628 0.067171
O O3 0.805878 0.740026 0.159761
O O4 0.500000 0.721908 0.000000
O O5 0.231507 0.200855 0.272771
O O6 0.067862 0.227309 0.314546
O O7 0.927262 0.000000 0.226446
O O8 0.421364 0.500000 0.769913
O O9 0.660642 0.258693 0.848740
O O10 0.512183 0.343793 0.716397
O O11 0.248181 0.225022 0.708274
O O12 0.658187 0.000000 0.894521
O O13 0.000000 0.175403 0.000000
O O14 0.603609 0.718824 0.410278
O O15 0.000000 0.826924 0.500000
O O16 0.857353 0.775398 0.558172
O O17 0.704612 0.000000 0.466524
O O18 0.327426 0.500000 0.312907
O O19 0.045359 0.000000 0.365804
#
# Coordination Sequence:
#
# PCOD9155559 Si02
#       7
#     4   4   4   4   4   4   4
#     4  11  25  44  66  94 129 166 204 253 312 371
#     4  11  24  42  65  91 124 167 211 257 308 368
#     4  11  23  39  63  91 123 165 207 256 314 370
#     4  11  25  43  65  96 127 161 209 258 305 366
#     4  10  20  37  63  92 123 162 207 259 316 368
#     4  11  25  41  60  92 129 165 210 259 312 372
#     4  10  21  39  64  92 122 160 208 259 310 371
#
# _framework density 19.917818
#
# number of rings (size 3 to 8) (size 9 to 14) (size 15 to 20)
#    0.000    1.286    2.857    2.143    2.000    6.000 
#    0.000    2.857    0.000    0.000    0.000    0.000 
#    0.000    0.000    0.000    0.000    0.000    0.000 
#
# Total GULP energy -155916.188586 kJ/mol
# GULP energy per Si atom -5568.435307 kJ/mol
# Density = 1.987248 g / cm^3
# Si number density = 19.917818 Si / 1000 Ang^3
#
#
#
# Elastic Constant Matrix: (Units=GPa)
#
#
# Indices 1 2 3 4 5 6 
#
# 1 -7.9335 -11.3675 -3.5581 0.0000 5.7090 0.0000
# 2 -11.3675 22.5222 42.5438 0.0000 -9.2008 0.0000
# 3 -3.5581 42.5438 110.2659 0.0000 -12.0199 0.0000
# 4 0.0000 0.0000 0.0000 -2.0146 0.0000 -15.3282
# 5 5.7090 -9.2008 -12.0199 0.0000 25.6794 0.0000
# 6 0.0000 0.0000 0.0000 -15.3282 0.0000 12.9612
#
#
#
# Elastic Compliance Matrix: (Units=1/GPa)
#
#
# Indices 1 2 3 4 5 6 
#
# 1 -0.040611 -0.069565 0.025076 0.000000 -0.004159 0.000000
# 2 -0.069565 0.071203 -0.026608 0.000000 0.028523 0.000000
# 3 0.025076 -0.026608 0.019492 0.000000 -0.005985 0.000000
# 4 0.000000 0.000000 0.000000 -0.049647 0.000000 -0.058714
# 5 -0.004159 0.028523 -0.005985 0.000000 0.047285 0.000000
# 6 0.000000 0.000000 0.000000 -0.058714 0.000000 0.007717
#
#
# Mechanical properties :
#
#
# Convention : Reuss Voigt Hill
#
# Bulk Modulus (GPa) = -10.85683 20.01009 4.57663
# Shear Modulus (GPa) = 29.95292 13.80761 21.88026
#
# Velocity S-wave (km/s) = 3.88213 2.63578 3.31800
# Velocity P-wave (km/s) = 3.82517 4.39673 4.12087
#
# Compressibility (1/GPa) = -0.09210795
#
# Stress axis : x y z
#
# Youngs Moduli (GPa) = -24.62416 14.04431 51.30354
#
# Poissons Ratio (x) = 0.97699 -1.28651
# Poissons Ratio (y) = -1.71298 1.36507
# Poissons Ratio (z) = 0.61749 0.37369
#
# Static dielectric constant tensor:
#      x y z
#    x 1.903900 0.000000 -0.024380 
#    y 0.000000 1.691050 0.000000 
#    z -0.024380 0.000000 1.800680 
# 
# From -- ./inp_files/92110.got.cif
#   From: 2010.05.17/outbox.ucp.g08.bks.cvg/sg10_47_cif.got.tgz:92110.got - 2010.06.11 11:31:16.
