data_PCOD9155914
_publ_section_title
;
Structure prediction by ZEFSAII (Michael W. Deem and Ramdas Pophale) SiO2 
 PCOD9155914
Probable space group: P 21/M
;
_chemical_formula_sum "Si O2"
_cell_formula_units_Z 28
_cell_length_a 16.908589
_cell_length_b 9.003216
_cell_length_c 18.252902
_cell_angle_alpha 90.000000
_cell_angle_beta 41.147378
_cell_angle_gamma 90.000000
_cell_volume 1828.359649
_symmetry_space_group_name_H-M "P 21/M"
_symmetry_group_IT_number 11
_symmetry_cell_setting 'monoclinic'
loop_
_space_group_symop_operation_xyz
x,y,z
-x,1/2+y,-z
-x,-y,-z
x,1/2-y,z
loop_
_atom_site_type_symbol
_atom_site_label
_atom_site_fract_x
_atom_site_fract_y
_atom_site_fract_z
Si Si1 0.884073 0.579687 0.673617
Si Si2 0.051236 0.572047 0.227479
Si Si3 0.629989 0.929335 0.420854
Si Si4 0.210440 0.929581 0.565232
Si Si5 0.825641 0.927775 0.162689
Si Si6 0.089535 0.572115 0.037845
Si Si7 0.168411 0.921003 0.433082
O O1 0.853174 0.750000 0.710076
O O2 0.875507 0.482921 0.752986
O O3 0.815267 0.517651 0.650792
O O4 0.025970 0.575012 0.552708
O O5 0.034460 0.750000 0.241800
O O6 0.109513 0.532748 0.108620
O O7 0.920464 0.494653 0.322652
O O8 0.624465 0.750000 0.430119
O O9 0.716272 0.968196 0.291904
O O10 0.500000 0.000000 0.500000
O O11 0.693134 0.998041 0.448386
O O12 0.208271 0.750000 0.572704
O O13 0.231479 0.967425 0.464755
O O14 0.826729 0.750000 0.154803
O O15 0.951974 0.971346 0.113137
O O16 0.826780 0.998944 0.081621
O O17 0.097540 0.750000 0.025637
O O18 0.198583 0.750000 0.396011
#
# Coordination Sequence:
#
# PCOD9155914 Si02
#       7
#     4   4   4   4   4   4   4
#     4   9  16  24  36  58  84 114 150 181 216 263
#     4  10  17  27  42  62  91 121 149 184 223 267
#     4  11  22  36  50  67  91 119 154 192 232 270
#     4  10  19  30  45  64  85 115 154 189 225 270
#     4   9  18  32  46  64  88 115 149 188 228 268
#     4   9  17  29  45  66  89 117 151 185 224 271
#     4   8  15  26  38  55  81 113 147 181 219 263
#
# _framework density 15.314273999999999
#
# number of rings (size 3 to 8) (size 9 to 14) (size 15 to 20)
#    0.000    2.571    1.429    2.571    0.000    6.286 
#    0.000    0.000    0.000    0.000    0.000    0.000 
#    0.000    1.143    0.000    3.714    0.000    4.857 
#
# Total GULP energy -155968.758088 kJ/mol
# GULP energy per Si atom -5570.312789 kJ/mol
# Density = 1.527942 g / cm^3
# Si number density = 15.314274 Si / 1000 Ang^3
#
#
#
# Elastic Constant Matrix: (Units=GPa)
#
#
# Indices 1 2 3 4 5 6 
#
# 1 118.1056 53.6636 60.0063 0.0000 31.7269 0.0000
# 2 53.6636 59.2897 36.0726 0.0000 16.2697 0.0000
# 3 60.0063 36.0726 64.9533 0.0000 16.4128 0.0000
# 4 0.0000 0.0000 0.0000 20.5160 0.0000 6.8725
# 5 31.7269 16.2697 16.4128 0.0000 25.0621 0.0000
# 6 0.0000 0.0000 0.0000 6.8725 0.0000 26.3415
#
#
#
# Elastic Compliance Matrix: (Units=1/GPa)
#
#
# Indices 1 2 3 4 5 6 
#
# 1 0.022882 -0.009121 -0.012283 0.000000 -0.015002 0.000000
# 2 -0.009121 0.030803 -0.007843 0.000000 -0.003314 0.000000
# 3 -0.012283 -0.007843 0.031016 0.000000 0.000329 0.000000
# 4 0.000000 0.000000 0.000000 0.053410 0.000000 -0.013935
# 5 -0.015002 -0.003314 0.000329 0.000000 0.060828 0.000000
# 6 0.000000 0.000000 0.000000 -0.013935 0.000000 0.041599
#
#
# Mechanical properties :
#
#
# Convention : Reuss Voigt Hill
#
# Bulk Modulus (GPa) = 38.15861 60.20375 49.18118
# Shear Modulus (GPa) = 16.24606 20.55767 18.40187
#
# Velocity S-wave (km/s) = 3.26059 3.66783 3.47019
# Velocity P-wave (km/s) = 6.25671 7.57198 6.94555
#
# Compressibility (1/GPa) = 0.02620641
#
# Stress axis : x y z
#
# Youngs Moduli (GPa) = 43.70275 32.46442 32.24159
#
# Poissons Ratio (x) = 0.29610 0.39602
# Poissons Ratio (y) = 0.39860 0.25288
# Poissons Ratio (z) = 0.53680 0.25463
#
# Static dielectric constant tensor:
#      x y z
#    x 1.522510 0.000000 0.026370 
#    y 0.000000 1.521060 0.000000 
#    z 0.026370 0.000000 1.485400 
# 
# From -- ./inp_files/60093.got.cif
#   From: 2010.05.17/outbox.cif.g08.bks.cpg/sg11_31_cif.got.tgz:60093.got - 2010.06.03 12:22:45.
