data_PCOD9155237
_publ_section_title
;
Structure prediction by ZEFSAII (Michael W. Deem and Ramdas Pophale) SiO2 
 PCOD9155237
Probable space group: P 2/M
;
_chemical_formula_sum "Si O2"
_cell_formula_units_Z 24
_cell_length_a 24.000000
_cell_length_b 9.000000
_cell_length_c 18.000000
_cell_angle_alpha 90.000000
_cell_angle_beta 160.000000
_cell_angle_gamma 90.000000
_cell_volume 1329.774317
_symmetry_space_group_name_H-M "P 2/M"
_symmetry_group_IT_number 10
_symmetry_cell_setting 'monoclinic'
loop_
_space_group_symop_operation_xyz
x,y,z
-x,y,-z
-x,-y,-z
x,-y,z
loop_
_atom_site_type_symbol
_atom_site_label
_atom_site_fract_x
_atom_site_fract_y
_atom_site_fract_z
Si Si1 0.040273 0.681411 0.930660
Si Si2 0.923264 0.319889 0.192434
Si Si3 0.257857 0.319946 0.688285
Si Si4 0.531762 0.179083 0.926301
Si Si5 0.744010 0.680077 0.664858
Si Si6 0.425984 0.680722 0.181394
O O1 0.040399 0.500000 0.928945
O O2 0.187687 0.728698 0.169632
O O3 0.052673 0.734340 0.861885
O O4 0.874644 0.725737 0.765515
O O5 0.921370 0.500000 0.186146
O O6 0.075734 0.281537 0.435128
O O7 0.751136 0.275482 0.010854
O O8 0.275754 0.500000 0.714621
O O9 0.313627 0.244064 0.834637
O O10 0.379223 0.253280 0.778183
O O11 0.525377 0.000000 0.922532
O O12 0.536655 0.239118 0.849034
O O13 0.748042 0.500000 0.671516
O O14 0.564413 0.722058 0.414616
O O15 0.430847 0.500000 0.177159
#
# Coordination Sequence:
#
# PCOD9155237 Si02
#       6
#     4   4   4   4   4   4
#     4   8  13  24  41  70 104 132 162 203 248 291
#     4   9  18  29  47  75 106 133 164 203 249 299
#     4  10  19  35  57  78  98 127 164 208 252 297
#     4  11  22  36  53  75  99 129 167 210 251 296
#     4   8  14  24  44  70 101 134 165 202 247 290
#     4  10  19  32  49  74 104 137 169 202 244 295
#
# _framework density 18.048175000000001
#
# number of rings (size 3 to 8) (size 9 to 14) (size 15 to 20)
#    0.000    2.667    0.000    5.000    0.000    4.000 
#    0.000    8.333    0.000    0.000    0.000   12.833 
#    0.000    0.000    0.000    0.000    0.000    0.000 
#
# Total GULP energy -133794.531246 kJ/mol
# GULP energy per Si atom -5574.772135 kJ/mol
# Density = 1.800710 g / cm^3
# Si number density = 18.048175 Si / 1000 Ang^3
#
#
#
# Elastic Constant Matrix: (Units=GPa)
#
#
# Indices 1 2 3 4 5 6 
#
# 1 -15.0636 -2.4377 9.5813 0.0000 -1.1042 0.0000
# 2 -2.4377 45.6018 16.9261 0.0000 0.6776 0.0000
# 3 9.5813 16.9261 149.7927 0.0000 -0.8713 0.0000
# 4 0.0000 0.0000 0.0000 -0.2967 0.0000 -0.4154
# 5 -1.1042 0.6776 -0.8713 0.0000 12.8100 0.0000
# 6 0.0000 0.0000 0.0000 -0.4154 0.0000 7.2059
#
#
#
# Elastic Compliance Matrix: (Units=1/GPa)
#
#
# Indices 1 2 3 4 5 6 
#
# 1 -0.062359 -0.004939 0.004519 0.000000 -0.004806 0.000000
# 2 -0.004939 0.022522 -0.002239 0.000000 -0.001769 0.000000
# 3 0.004519 -0.002239 0.006645 0.000000 0.000960 0.000000
# 4 0.000000 0.000000 0.000000 -3.118919 0.000000 -0.179784
# 5 -0.004806 -0.001769 0.000960 0.000000 0.077808 0.000000
# 6 0.000000 0.000000 0.000000 -0.179784 0.000000 0.128411
#
#
# Mechanical properties :
#
#
# Convention : Reuss Voigt Hill
#
# Bulk Modulus (GPa) = -25.96672 25.38560 -0.29056
# Shear Modulus (GPa) = -1.69296 14.36127 6.33415
#
# Velocity S-wave (km/s) = -0.96957 2.82391 1.87542
# Velocity P-wave (km/s) = 3.95880 4.97279 2.12797
#
# Compressibility (1/GPa) = -0.03851084
#
# Stress axis : x y z
#
# Youngs Moduli (GPa) = -16.03613 44.40027 150.47854
#
# Poissons Ratio (x) = 0.21931 -0.68000
# Poissons Ratio (y) = -0.07921 0.33697
# Poissons Ratio (z) = 0.07247 0.09943
#
# Static dielectric constant tensor:
#      x y z
#    x 1.602430 0.000000 -0.006770 
#    y 0.000000 1.597110 0.000000 
#    z -0.006770 0.000000 1.641080 
# 
# From -- ./inp_files/80122.got.cif
#   From: 2010.05.17/outbox.ucp.g08.bks.cvg/sg10_41_cif.got.tgz:80122.got - 2010.06.11 11:31:16.
