data_PCOD9155757
_publ_section_title
;
Structure prediction by ZEFSAII (Michael W. Deem and Ramdas Pophale) SiO2 
 PCOD9155757
Probable space group: P 21/M
;
_chemical_formula_sum "Si O2"
_cell_formula_units_Z 28
_cell_length_a 23.124790
_cell_length_b 8.487712
_cell_length_c 18.728708
_cell_angle_alpha 90.000000
_cell_angle_beta 153.607020
_cell_angle_gamma 90.000000
_cell_volume 1634.078301
_symmetry_space_group_name_H-M "P 21/M"
_symmetry_group_IT_number 11
_symmetry_cell_setting 'monoclinic'
loop_
_space_group_symop_operation_xyz
x,y,z
-x,1/2+y,-z
-x,-y,-z
x,1/2-y,z
loop_
_atom_site_type_symbol
_atom_site_label
_atom_site_fract_x
_atom_site_fract_y
_atom_site_fract_z
Si Si1 0.418686 0.941606 0.719464
Si Si2 0.351482 0.063296 0.342743
Si Si3 0.621904 0.437079 0.479681
Si Si4 0.859472 0.060694 0.322058
Si Si5 0.329232 0.936480 0.172670
Si Si6 0.279927 0.061121 0.971010
Si Si7 0.634547 0.440512 0.182116
O O1 0.417394 0.750000 0.716842
O O2 0.349042 0.992647 0.568951
O O3 0.358660 0.994082 0.727945
O O4 0.571448 0.987950 0.885245
O O5 0.352476 0.250000 0.336779
O O6 0.500000 0.000000 0.500000
O O7 0.310212 0.015827 0.377068
O O8 0.278236 0.988101 0.194042
O O9 0.640541 0.250000 0.505318
O O10 0.467630 0.474476 0.316275
O O11 0.858996 0.250000 0.318927
O O12 0.753287 0.008389 0.263613
O O13 0.813918 0.994948 0.195393
O O14 0.000000 0.000000 0.500000
O O15 0.352442 0.750000 0.198281
O O16 0.249744 0.987106 0.014948
O O17 0.277976 0.250000 0.974546
O O18 0.632071 0.250000 0.179575
O O19 0.500000 0.500000 0.000000
#
# Coordination Sequence:
#
# PCOD9155757 Si02
#       7
#     4   4   4   4   4   4   4
#     4   8  15  27  45  67  92 120 154 197 244 289
#     4  10  16  23  34  52  81 118 156 191 232 281
#     4   9  15  24  37  56  84 119 153 190 239 287
#     4  11  23  36  52  73 100 132 168 206 251 299
#     4  10  17  25  38  58  85 117 156 195 233 285
#     4  10  18  31  49  67  92 123 158 201 249 293
#     4  10  19  33  52  75  97 126 165 207 249 297
#
# _framework density 17.135041000000001
#
# number of rings (size 3 to 8) (size 9 to 14) (size 15 to 20)
#    0.000    2.286    1.429    6.429    0.000    0.571 
#    0.000    0.714    0.000    0.000    0.000    0.000 
#    0.000    1.143    0.000    3.143    0.000    6.714 
#
# Total GULP energy -155998.299542 kJ/mol
# GULP energy per Si atom -5571.367841 kJ/mol
# Density = 1.709604 g / cm^3
# Si number density = 17.135041 Si / 1000 Ang^3
#
#
#
# Elastic Constant Matrix: (Units=GPa)
#
#
# Indices 1 2 3 4 5 6 
#
# 1 130.1341 21.5210 67.9758 0.0000 -47.0632 0.0000
# 2 21.5210 50.6861 18.1702 0.0000 -8.8641 0.0000
# 3 67.9758 18.1702 71.5345 0.0000 -22.7398 0.0000
# 4 0.0000 0.0000 0.0000 21.0389 0.0000 -10.1106
# 5 -47.0632 -8.8641 -22.7398 0.0000 36.1128 0.0000
# 6 0.0000 0.0000 0.0000 -10.1106 0.0000 19.5062
#
#
#
# Elastic Compliance Matrix: (Units=1/GPa)
#
#
# Indices 1 2 3 4 5 6 
#
# 1 0.023225 -0.000779 -0.015392 0.000000 0.020385 0.000000
# 2 -0.000779 0.021889 -0.004294 0.000000 0.001654 0.000000
# 3 -0.015392 -0.004294 0.028737 0.000000 -0.003018 0.000000
# 4 0.000000 0.000000 0.000000 0.063298 0.000000 0.032809
# 5 0.020385 0.001654 -0.003018 0.000000 0.052762 0.000000
# 6 0.000000 0.000000 0.000000 0.032809 0.000000 0.068271
#
#
# Mechanical properties :
#
#
# Convention : Reuss Voigt Hill
#
# Bulk Modulus (GPa) = 30.37579 51.96540 41.17059
# Shear Modulus (GPa) = 16.12454 24.97742 20.55098
#
# Velocity S-wave (km/s) = 3.07094 3.82210 3.46693
# Velocity P-wave (km/s) = 5.50818 7.06192 6.33288
#
# Compressibility (1/GPa) = 0.03292096
#
# Stress axis : x y z
#
# Youngs Moduli (GPa) = 43.05619 45.68604 34.79818
#
# Poissons Ratio (x) = 0.03557 0.53562
# Poissons Ratio (y) = 0.03352 0.14943
# Poissons Ratio (z) = 0.66273 0.19619
#
# Static dielectric constant tensor:
#      x y z
#    x 1.644730 0.000000 -0.052210 
#    y 0.000000 1.575940 0.000000 
#    z -0.052210 0.000000 1.562050 
# 
# From -- ./inp_files/61295.got.cif
#   From: 2010.05.17/outbox.cif.g08.bks.cpg/sg11_31_cif.got.tgz:61295.got - 2010.06.03 12:22:45.
