data_PCOD9155744
_publ_section_title
;
Structure prediction by ZEFSAII (Michael W. Deem and Ramdas Pophale) SiO2 
 PCOD9155744
Probable space group: P 21/M
;
_chemical_formula_sum "Si O2"
_cell_formula_units_Z 16
_cell_length_a 9.306526
_cell_length_b 11.112176
_cell_length_c 6.949171
_cell_angle_alpha 90.000000
_cell_angle_beta 65.221917
_cell_angle_gamma 90.000000
_cell_volume 652.492963
_symmetry_space_group_name_H-M "P 21/M"
_symmetry_group_IT_number 11
_symmetry_cell_setting 'monoclinic'
loop_
_space_group_symop_operation_xyz
x,y,z
-x,1/2+y,-z
-x,-y,-z
x,1/2-y,z
loop_
_atom_site_type_symbol
_atom_site_label
_atom_site_fract_x
_atom_site_fract_y
_atom_site_fract_z
Si Si1 0.622542 0.510058 0.150892
Si Si2 0.124052 0.750000 0.617939
Si Si3 0.737710 0.008680 0.530298
Si Si4 0.620918 0.250000 0.181751
Si Si5 0.749500 0.750000 0.487222
Si Si6 0.786936 0.750000 0.008261
O O1 0.435503 0.525877 0.282002
O O2 0.699386 0.503184 0.321926
O O3 0.648391 0.375294 0.057153
O O4 0.694512 0.626993 0.010494
O O5 0.155966 0.624628 0.491866
O O6 0.262011 0.750000 0.702813
O O7 0.958900 0.750000 0.821013
O O8 0.805722 0.876864 0.540432
O O9 0.441779 0.250000 0.369648
O O10 0.791766 0.750000 0.238365
#
# Coordination Sequence:
#
# PCOD9155744 Si02
#       6
#     4   2   4   2   2   2
#     4   8  13  21  28  30  33  41  49  53  56  62
#     4  10  16  18  22  32  40  42  44  50  58  64
#     4   8  13  21  28  30  33  41  49  53  56  62
#     4   8  14  22  28  30  32  40  50  54  56  62
#     4   8  14  22  28  30  32  40  50  54  56  62
#     4  10  16  18  22  32  40  42  44  50  58  64
#
# _framework density 24.521338
#
# number of rings (size 3 to 8) (size 9 to 14) (size 15 to 20)
#    0.000    3.500    0.000    5.250    0.000    9.000 
#    0.000    0.000    0.000    0.000    0.000    0.000 
#    0.000    0.000    0.000    0.000    0.000    0.000 
#
# Total GULP energy -89390.825477 kJ/mol
# GULP energy per Si atom -5586.926592 kJ/mol
# Density = 2.446553 g / cm^3
# Si number density = 24.521338 Si / 1000 Ang^3
#
#
#
# Elastic Constant Matrix: (Units=GPa)
#
#
# Indices 1 2 3 4 5 6 
#
# 1 70.8126 17.9986 19.7010 0.0000 -0.2108 0.0000
# 2 17.9986 311.4562 89.8480 0.0000 -38.8716 0.0000
# 3 19.7010 89.8480 75.4280 0.0000 -10.3342 0.0000
# 4 0.0000 0.0000 0.0000 -11.8741 0.0000 -9.0393
# 5 -0.2108 -38.8716 -10.3342 0.0000 45.0862 0.0000
# 6 0.0000 0.0000 0.0000 -9.0393 0.0000 -21.3645
#
#
#
# Elastic Compliance Matrix: (Units=1/GPa)
#
#
# Indices 1 2 3 4 5 6 
#
# 1 0.015281 0.000321 -0.004466 0.000000 -0.000675 0.000000
# 2 0.000321 0.005318 -0.005978 0.000000 0.003216 0.000000
# 3 -0.004466 -0.005978 0.021512 0.000000 -0.000244 0.000000
# 4 0.000000 0.000000 0.000000 -0.124230 0.000000 0.052562
# 5 -0.000675 0.003216 -0.000244 0.000000 0.024894 0.000000
# 6 0.000000 0.000000 0.000000 0.052562 0.000000 -0.069045
#
#
# Mechanical properties :
#
#
# Convention : Reuss Voigt Hill
#
# Bulk Modulus (GPa) = 45.73678 79.19912 62.46795
# Shear Modulus (GPa) = -50.63940 24.37947 -13.12996
#
# Velocity S-wave (km/s) = -4.54928 3.15654 -2.31649
# Velocity P-wave (km/s) = 2.98368 6.75671 4.28665
#
# Compressibility (1/GPa) = 0.02186424
#
# Stress axis : x y z
#
# Youngs Moduli (GPa) = 65.44204 188.03688 46.48666
#
# Poissons Ratio (x) = -0.06036 0.20761
# Poissons Ratio (y) = -0.02101 0.27790
# Poissons Ratio (z) = 0.29227 1.12408
#
# Static dielectric constant tensor:
#      x y z
#    x 1.913880 0.000000 0.046390 
#    y 0.000000 2.039740 0.000000 
#    z 0.046390 0.000000 1.862680 
# 
# From -- ./inp_files/11678.got.cif
#   From: 2010.05.17/outbox.cif.g08.bks.cpg/sg11_6_cif.got.tgz:11678.got - 2010.06.03 12:22:45.
