data_PCOD9155334
_publ_section_title
;
Structure prediction by ZEFSAII (Michael W. Deem and Ramdas Pophale) SiO2 
 PCOD9155334
Probable space group: P 2/M
;
_chemical_formula_sum "Si O2"
_cell_formula_units_Z 28
_cell_length_a 27.000000
_cell_length_b 9.000000
_cell_length_c 9.000000
_cell_angle_alpha 90.000000
_cell_angle_beta 140.000000
_cell_angle_gamma 90.000000
_cell_volume 1405.776502
_symmetry_space_group_name_H-M "P 2/M"
_symmetry_group_IT_number 10
_symmetry_cell_setting 'monoclinic'
loop_
_space_group_symop_operation_xyz
x,y,z
-x,y,-z
-x,-y,-z
x,-y,z
loop_
_atom_site_type_symbol
_atom_site_label
_atom_site_fract_x
_atom_site_fract_y
_atom_site_fract_z
Si Si1 0.664318 0.176640 0.526897
Si Si2 0.814668 0.177528 0.699827
Si Si3 0.052365 0.679732 0.830646
Si Si4 0.115486 0.320843 0.648038
Si Si5 0.538478 0.321752 0.428527
Si Si6 0.748549 0.679220 0.251195
Si Si7 0.398555 0.822026 0.950592
O O1 0.753477 0.212510 0.692487
O O2 0.621380 0.260051 0.563054
O O3 0.624996 0.208011 0.274936
O O4 0.657891 0.000000 0.539145
O O5 0.790476 0.268684 0.498720
O O6 0.808569 0.000000 0.658689
O O7 0.898749 0.230628 0.938535
O O8 0.058394 0.500000 0.863431
O O9 0.092097 0.718070 0.762796
O O10 0.961999 0.719766 0.620926
O O11 0.119263 0.500000 0.654141
O O12 0.195439 0.270832 0.755791
O O13 0.500000 0.279270 0.500000
O O14 0.541220 0.500000 0.430872
O O15 0.478807 0.254212 0.172960
O O16 0.739477 0.500000 0.224774
O O17 0.665200 0.755064 0.082236
O O18 0.402331 0.000000 0.976734
#
# Coordination Sequence:
#
# PCOD9155334 Si02
#       7
#     4   4   4   4   4   4   4
#     4   9  20  38  57  76 103 139 176 214 260 314
#     4  10  21  36  52  78 111 139 173 217 262 310
#     4   9  17  34  56  76 102 140 180 218 264 313
#     4   8  17  33  54  78 104 136 178 223 264 311
#     4  11  24  38  54  81 111 137 173 217 256 303
#     4  10  19  34  56  81 106 136 176 219 262 309
#     4  10  21  38  58  80 107 139 174 213 262 316
#
# _framework density 19.917818
#
# number of rings (size 3 to 8) (size 9 to 14) (size 15 to 20)
#    0.000    2.429    0.000    3.857    0.000    8.000 
#    0.000   11.429    0.000    0.000    0.000    0.000 
#    0.000    0.000    0.000    0.000    0.000    0.000 
#
# Total GULP energy -156196.256851 kJ/mol
# GULP energy per Si atom -5578.437745 kJ/mol
# Density = 1.987248 g / cm^3
# Si number density = 19.917818 Si / 1000 Ang^3
#
#
#
# Elastic Constant Matrix: (Units=GPa)
#
#
# Indices 1 2 3 4 5 6 
#
# 1 87.4043 10.0551 -28.6285 0.0000 9.1579 0.0000
# 2 10.0551 40.6177 -6.6327 0.0000 -1.7098 0.0000
# 3 -28.6285 -6.6327 26.2968 0.0000 9.3216 0.0000
# 4 0.0000 0.0000 0.0000 11.4020 0.0000 1.9031
# 5 9.1579 -1.7098 9.3216 0.0000 18.7514 0.0000
# 6 0.0000 0.0000 0.0000 1.9031 0.0000 17.1702
#
#
#
# Elastic Compliance Matrix: (Units=1/GPa)
#
#
# Indices 1 2 3 4 5 6 
#
# 1 0.031248 -0.001632 0.047427 0.000000 -0.038986 0.000000
# 2 -0.001632 0.025780 0.004382 0.000000 0.000969 0.000000
# 3 0.047427 0.004382 0.119976 0.000000 -0.082405 0.000000
# 4 0.000000 0.000000 0.000000 0.089357 0.000000 -0.009904
# 5 -0.038986 0.000969 -0.082405 0.000000 0.113423 0.000000
# 6 0.000000 0.000000 0.000000 -0.009904 0.000000 0.059338
#
#
# Mechanical properties :
#
#
# Convention : Reuss Voigt Hill
#
# Bulk Modulus (GPa) = 3.60546 11.54516 7.57531
# Shear Modulus (GPa) = 11.59501 21.43305 16.51403
#
# Velocity S-wave (km/s) = 2.41538 3.28392 2.88255
# Velocity P-wave (km/s) = 3.09723 4.49308 3.85880
#
# Compressibility (1/GPa) = 0.27735722
#
# Stress axis : x y z
#
# Youngs Moduli (GPa) = 32.00213 38.78941 8.33503
#
# Poissons Ratio (x) = 0.06331 -0.39530
# Poissons Ratio (y) = 0.05223 -0.03652
# Poissons Ratio (z) = -1.51776 -0.16998
#
# Static dielectric constant tensor:
#      x y z
#    x 1.712970 0.000000 -0.003530 
#    y 0.000000 1.657360 0.000000 
#    z -0.003530 0.000000 1.752490 
# 
# From -- ./inp_files/36945.got.cif
#   From: 2010.05.17/outbox.ucp.g08.bks.cvg/sg10_19_cif.got.tgz:36945.got - 2010.06.11 11:31:16.
