data_PCOD9155782
_publ_section_title
;
Structure prediction by ZEFSAII (Michael W. Deem and Ramdas Pophale) SiO2 
 PCOD9155782
Probable space group: P 21/M
;
_chemical_formula_sum "Si O2"
_cell_formula_units_Z 16
_cell_length_a 9.633614
_cell_length_b 5.590696
_cell_length_c 21.994211
_cell_angle_alpha 90.000000
_cell_angle_beta 34.157543
_cell_angle_gamma 90.000000
_cell_volume 665.105178
_symmetry_space_group_name_H-M "P 21/M"
_symmetry_group_IT_number 11
_symmetry_cell_setting 'monoclinic'
loop_
_space_group_symop_operation_xyz
x,y,z
-x,1/2+y,-z
-x,-y,-z
x,1/2-y,z
loop_
_atom_site_type_symbol
_atom_site_label
_atom_site_fract_x
_atom_site_fract_y
_atom_site_fract_z
Si Si1 0.127469 0.250000 0.782712
Si Si2 0.890775 0.750000 0.064997
Si Si3 0.707939 0.999317 0.871979
Si Si4 0.215971 0.250000 0.534151
Si Si5 0.790964 0.750000 0.609845
Si Si6 0.661179 0.250000 0.529662
Si Si7 0.336979 0.750000 0.282064
O O1 0.090582 0.250000 0.868172
O O2 0.410134 0.250000 0.659671
O O3 0.972791 0.469576 0.809101
O O4 0.601475 0.750000 0.155637
O O5 0.000000 0.500000 0.000000
O O6 0.692420 0.750000 0.842798
O O7 0.669242 0.250000 0.853372
O O8 0.500000 0.000000 0.000000
O O9 0.232232 0.250000 0.454282
O O10 0.326475 0.503778 0.512049
O O11 0.928430 0.250000 0.654314
O O12 0.674434 0.504294 0.677240
O O13 0.079768 0.750000 0.525767
#
# Coordination Sequence:
#
# PCOD9155782 Si02
#       7
#     2   2   4   2   2   2   2
#     4  10  21  31  51  63 103 128 149 199 237 254
#     4  12  26  36  45  66  91 131 181 202 215 249
#     4   8  16  29  47  68  87 119 155 177 236 299
#     4  10  17  27  42  64  84 108 148 182 223 291
#     4  10  16  28  46  63  80 109 148 183 229 290
#     4  10  19  25  43  70  85 111 150 174 228 292
#     4  10  19  33  45  54  85 121 150 198 228 242
#
# _framework density 24.056345
#
# number of rings (size 3 to 8) (size 9 to 14) (size 15 to 20)
#    0.750    1.500    0.000    6.750    3.500    0.000 
#    0.000    0.000    0.000    0.000    0.000    0.000 
#    0.000    0.000    0.000   90.000    0.000   10.000 
#
# Total GULP energy -89276.354584 kJ/mol
# GULP energy per Si atom -5579.772161 kJ/mol
# Density = 2.400159 g / cm^3
# Si number density = 24.056345 Si / 1000 Ang^3
#
#
#
# Elastic Constant Matrix: (Units=GPa)
#
#
# Indices 1 2 3 4 5 6 
#
# 1 86.3987 27.6982 40.2402 0.0000 -23.0116 0.0000
# 2 27.6982 293.6081 80.6041 0.0000 -13.6032 0.0000
# 3 40.2402 80.6041 166.5209 0.0000 -36.6107 0.0000
# 4 0.0000 0.0000 0.0000 16.1908 0.0000 -26.7028
# 5 -23.0116 -13.6032 -36.6107 0.0000 27.5729 0.0000
# 6 0.0000 0.0000 0.0000 -26.7028 0.0000 -15.3083
#
#
#
# Elastic Compliance Matrix: (Units=1/GPa)
#
#
# Indices 1 2 3 4 5 6 
#
# 1 0.015174 -0.000670 -0.000891 0.000000 0.011150 0.000000
# 2 -0.000670 0.003971 -0.002051 0.000000 -0.001324 0.000000
# 3 -0.000891 -0.002051 0.009642 0.000000 0.011047 0.000000
# 4 0.000000 0.000000 0.000000 0.015931 0.000000 -0.027790
# 5 0.011150 -0.001324 0.011047 0.000000 0.059588 0.000000
# 6 0.000000 0.000000 0.000000 -0.027790 0.000000 -0.016850
#
#
# Mechanical properties :
#
#
# Convention : Reuss Voigt Hill
#
# Bulk Modulus (GPa) = 46.37760 93.73475 70.05617
# Shear Modulus (GPa) = 49.08265 32.22343 40.65304
#
# Velocity S-wave (km/s) = 4.52189 3.66389 4.11531
# Velocity P-wave (km/s) = 6.82524 7.54639 7.19486
#
# Compressibility (1/GPa) = 0.02156213
#
# Stress axis : x y z
#
# Youngs Moduli (GPa) = 65.90308 251.83140 103.71035
#
# Poissons Ratio (x) = 0.16880 0.09240
# Poissons Ratio (y) = 0.04417 0.21273
# Poissons Ratio (z) = 0.05872 0.51656
#
# Static dielectric constant tensor:
#      x y z
#    x 1.925720 0.000000 0.021340 
#    y 0.000000 2.060460 0.000000 
#    z 0.021340 0.000000 1.889310 
# 
# From -- ./inp_files/68216.got.cif
#   From: 2010.05.17/outbox.cif.g08.bks.cpg/sg11_35_cif.got.tgz:68216.got - 2010.06.03 12:22:45.
