data_PCOD9155678
_publ_section_title
;
Structure prediction by ZEFSAII (Michael W. Deem and Ramdas Pophale) SiO2 
 PCOD9155678
Probable space group: P 2/M
;
_chemical_formula_sum "Si O2"
_cell_formula_units_Z 20
_cell_length_a 9.000000
_cell_length_b 12.000000
_cell_length_c 9.000000
_cell_angle_alpha 90.000000
_cell_angle_beta 80.000000
_cell_angle_gamma 90.000000
_cell_volume 957.233136
_symmetry_space_group_name_H-M "P 2/M"
_symmetry_group_IT_number 10
_symmetry_cell_setting 'monoclinic'
loop_
_space_group_symop_operation_xyz
x,y,z
-x,y,-z
-x,-y,-z
x,-y,z
loop_
_atom_site_type_symbol
_atom_site_label
_atom_site_fract_x
_atom_site_fract_y
_atom_site_fract_z
Si Si1 0.972245 0.000000 0.332764
Si Si2 0.169447 0.000000 0.043375
Si Si3 0.336554 0.628735 0.453723
Si Si4 0.844892 0.371447 0.807335
Si Si5 0.662224 0.230936 0.052339
Si Si6 0.156297 0.238005 0.700907
O O1 0.882741 0.890838 0.302068
O O2 0.000000 0.000000 0.500000
O O3 0.132374 0.000000 0.223519
O O4 0.261146 0.889020 0.991871
O O5 0.000000 0.000000 0.000000
O O6 0.500000 0.651457 0.500000
O O7 0.303548 0.500000 0.500824
O O8 0.294142 0.638411 0.287337
O O9 0.211866 0.710644 0.539460
O O10 0.889951 0.500000 0.801053
O O11 0.997944 0.299411 0.764192
O O12 0.766650 0.327393 0.967621
O O13 0.696217 0.249871 0.219587
O O14 0.500000 0.233161 0.000000
#
# Coordination Sequence:
#
# PCOD9155678 Si02
#       6
#     2   2   4   4   4   4
#     4  12  24  40  67  97 122 155 205 262 305 359
#     4  12  21  46  67  89 127 166 209 255 306 377
#     4  10  22  41  63  91 130 168 205 259 320 374
#     4  11  23  40  64  93 124 167 216 260 310 372
#     4  12  25  41  64  93 127 167 208 261 319 372
#     4  12  23  41  65  92 125 164 215 260 307 378
#
# _framework density 20.893552
#
# number of rings (size 3 to 8) (size 9 to 14) (size 15 to 20)
#    0.000    0.600    4.000    4.500    0.000    4.400 
#    0.000    0.500    0.000    0.000    0.000    0.000 
#    0.000    0.000    0.000    0.000    0.000    0.000 
#
# Total GULP energy -111403.586863 kJ/mol
# GULP energy per Si atom -5570.179343 kJ/mol
# Density = 2.084600 g / cm^3
# Si number density = 20.893552 Si / 1000 Ang^3
#
#
#
# Elastic Constant Matrix: (Units=GPa)
#
#
# Indices 1 2 3 4 5 6 
#
# 1 89.5219 77.3508 -22.6051 0.0000 13.1501 0.0000
# 2 77.3508 6.3980 74.9668 0.0000 9.0425 0.0000
# 3 -22.6051 74.9668 43.3571 0.0000 -1.5329 0.0000
# 4 0.0000 0.0000 0.0000 31.8005 0.0000 21.8230
# 5 13.1501 9.0425 -1.5329 0.0000 28.0525 0.0000
# 6 0.0000 0.0000 0.0000 21.8230 0.0000 96.2961
#
#
#
# Elastic Compliance Matrix: (Units=1/GPa)
#
#
# Indices 1 2 3 4 5 6 
#
# 1 0.005919 0.005141 -0.005972 0.000000 -0.004758 0.000000
# 2 0.005141 -0.003340 0.008425 0.000000 -0.000873 0.000000
# 3 -0.005972 0.008425 0.005397 0.000000 0.000379 0.000000
# 4 0.000000 0.000000 0.000000 0.037237 0.000000 -0.008439
# 5 -0.004758 -0.000873 0.000379 0.000000 0.038180 0.000000
# 6 0.000000 0.000000 0.000000 -0.008439 0.000000 0.012297
#
#
# Mechanical properties :
#
#
# Convention : Reuss Voigt Hill
#
# Bulk Modulus (GPa) = 43.16969 44.30022 43.73496
# Shear Modulus (GPa) = 56.67387 31.86746 44.27066
#
# Velocity S-wave (km/s) = 5.21382 3.90966 4.60811
# Velocity P-wave (km/s) = 7.54664 6.45208 7.02073
#
# Compressibility (1/GPa) = 0.02316440
#
# Stress axis : x y z
#
# Youngs Moduli (GPa) = 168.94807 -299.40549 185.27824
#
# Poissons Ratio (x) = 1.53937 1.10649
# Poissons Ratio (y) = -0.86864 -1.56091
# Poissons Ratio (z) = 1.00897 2.52239
#
# Static dielectric constant tensor:
#      x y z
#    x 1.695090 0.000000 0.002040 
#    y 0.000000 1.725890 0.000000 
#    z 0.002040 0.000000 1.841580 
# 
# From -- ./inp_files/17814.got.cif
#   From: 2010.05.17/outbox.ucp.g08.bks.cvg/sg10_9_cif.got.tgz:17814.got - 2010.06.11 11:31:16.
