data_PCOD9155217
_publ_section_title
;
Structure prediction by ZEFSAII (Michael W. Deem and Ramdas Pophale) SiO2 
 PCOD9155217
Probable space group: P 2/M
;
_chemical_formula_sum "Si O2"
_cell_formula_units_Z 32
_cell_length_a 12.000000
_cell_length_b 9.000000
_cell_length_c 21.000000
_cell_angle_alpha 90.000000
_cell_angle_beta 50.000000
_cell_angle_gamma 90.000000
_cell_volume 1737.388797
_symmetry_space_group_name_H-M "P 2/M"
_symmetry_group_IT_number 10
_symmetry_cell_setting 'monoclinic'
loop_
_space_group_symop_operation_xyz
x,y,z
-x,y,-z
-x,-y,-z
x,-y,z
loop_
_atom_site_type_symbol
_atom_site_label
_atom_site_fract_x
_atom_site_fract_y
_atom_site_fract_z
Si Si1 0.368272 0.320748 0.956690
Si Si2 0.302252 0.679832 0.119732
Si Si3 0.363096 0.822162 0.822610
Si Si4 0.300075 0.676681 0.716917
Si Si5 0.403067 0.176898 0.440751
Si Si6 0.695930 0.824030 0.659746
Si Si7 0.891216 0.678494 0.692434
Si Si8 0.790088 0.322581 0.385618
O O1 0.355855 0.500000 0.954567
O O2 0.536992 0.286125 0.911944
O O3 0.327098 0.245694 0.904967
O O4 0.286416 0.272032 0.051890
O O5 0.294381 0.500000 0.120029
O O6 0.188671 0.733666 0.213894
O O7 0.277394 0.755795 0.793150
O O8 0.533049 0.785701 0.744586
O O9 0.348536 0.000000 0.828924
O O10 0.305790 0.500000 0.725415
O O11 0.451764 0.735996 0.631995
O O12 0.195003 0.707465 0.695477
O O13 0.299165 0.205710 0.417632
O O14 0.334278 0.234415 0.531250
O O15 0.431567 0.000000 0.432551
O O16 0.811732 0.740249 0.659866
O O17 0.713689 0.000000 0.662174
O O18 0.878790 0.500000 0.696655
O O19 0.059688 0.716141 0.635374
O O20 0.761846 0.500000 0.401860
#
# Coordination Sequence:
#
# PCOD9155217 Si02
#       8
#     4   4   4   4   4   4   4   4
#     4   9  15  27  49  76 102 130 165 201 245 293
#     4   8  15  27  47  75 103 130 164 202 240 291
#     4  10  19  31  49  76 105 130 163 206 249 296
#     4  10  20  35  54  74  98 127 164 212 254 289
#     4  10  21  36  54  75 100 128 163 208 253 295
#     4   9  19  33  47  70 101 130 161 198 244 296
#     4  10  19  33  52  72 100 135 167 201 242 295
#     4  10  22  36  51  74  99 128 169 209 247 293
#
# _framework density 18.418444999999998
#
# number of rings (size 3 to 8) (size 9 to 14) (size 15 to 20)
#    0.000    2.500    1.250    3.000    0.000    6.000 
#    0.000    4.375    0.000    0.750    0.000    5.250 
#    0.000    0.000    0.000    0.000    0.000    0.000 
#
# Total GULP energy -178371.446111 kJ/mol
# GULP energy per Si atom -5574.107691 kJ/mol
# Density = 1.837652 g / cm^3
# Si number density = 18.418445 Si / 1000 Ang^3
#
#
#
# Elastic Constant Matrix: (Units=GPa)
#
#
# Indices 1 2 3 4 5 6 
#
# 1 63.2978 20.9818 6.8463 0.0000 21.3688 0.0000
# 2 20.9818 23.2042 7.2362 0.0000 8.5335 0.0000
# 3 6.8463 7.2362 38.8918 0.0000 25.4318 0.0000
# 4 0.0000 0.0000 0.0000 17.5670 0.0000 15.0311
# 5 21.3688 8.5335 25.4318 0.0000 31.7899 0.0000
# 6 0.0000 0.0000 0.0000 15.0311 0.0000 -256.7202
#
#
#
# Elastic Compliance Matrix: (Units=1/GPa)
#
#
# Indices 1 2 3 4 5 6 
#
# 1 0.031427 -0.023260 0.017880 0.000000 -0.029185 0.000000
# 2 -0.023260 0.065052 -0.014289 0.000000 0.009604 0.000000
# 3 0.017880 -0.014289 0.064114 0.000000 -0.059474 0.000000
# 4 0.000000 0.000000 0.000000 0.054209 0.000000 0.003174
# 5 -0.029185 0.009604 -0.059474 0.000000 0.096075 0.000000
# 6 0.000000 0.000000 0.000000 0.003174 0.000000 -0.003709
#
#
# Mechanical properties :
#
#
# Convention : Reuss Voigt Hill
#
# Bulk Modulus (GPa) = 8.24712 21.72471 14.98592
# Shear Modulus (GPa) = 12.92246 -35.45069 -11.26412
#
# Velocity S-wave (km/s) = 2.65165 -4.39194 -2.47567
# Velocity P-wave (km/s) = 3.72322 3.72803 0.13381
#
# Compressibility (1/GPa) = 0.12125441
#
# Stress axis : x y z
#
# Youngs Moduli (GPa) = 31.81977 15.37241 15.59722
#
# Poissons Ratio (x) = 0.35756 -0.27887
# Poissons Ratio (y) = 0.74012 0.22287
# Poissons Ratio (z) = -0.56892 0.21966
#
# Static dielectric constant tensor:
#      x y z
#    x 1.664720 0.000000 0.005120 
#    y 0.000000 1.620730 0.000000 
#    z 0.005120 0.000000 1.637200 
# 
# From -- ./inp_files/52790.got.cif
#   From: 2010.05.17/outbox.ucp.g08.bks.cvg/sg10_27_cif.got.tgz:52790.got - 2010.06.11 11:31:16.
