data_PCOD9155085
_publ_section_title
;
Structure prediction by ZEFSAII (Michael W. Deem and Ramdas Pophale) SiO2 
 PCOD9155085
Probable space group: P 2/M
;
_chemical_formula_sum "Si O2"
_cell_formula_units_Z 28
_cell_length_a 7.612819
_cell_length_b 9.977711
_cell_length_c 23.366657
_cell_angle_alpha 90.000000
_cell_angle_beta 47.544779
_cell_angle_gamma 90.000000
_cell_volume 1309.527639
_symmetry_space_group_name_H-M "P 2/M"
_symmetry_group_IT_number 10
_symmetry_cell_setting 'monoclinic'
loop_
_space_group_symop_operation_xyz
x,y,z
-x,y,-z
-x,-y,-z
x,-y,z
loop_
_atom_site_type_symbol
_atom_site_label
_atom_site_fract_x
_atom_site_fract_y
_atom_site_fract_z
Si Si1 0.515764 0.151330 0.639288
Si Si2 0.885304 0.350256 0.590191
Si Si3 0.238140 0.141476 0.532847
Si Si4 0.010313 0.157259 0.123926
Si Si5 0.476495 0.839091 0.836948
Si Si6 0.754410 0.654346 0.017939
Si Si7 0.991806 0.158390 0.739489
O O1 0.642275 0.265991 0.647372
O O2 0.707147 0.136527 0.546478
O O3 0.264562 0.201255 0.668927
O O4 0.484485 0.000000 0.671342
O O5 0.850995 0.500000 0.617791
O O6 0.000000 0.358700 0.500000
O O7 0.079999 0.266711 0.581873
O O8 0.500000 0.147032 0.500000
O O9 0.121959 0.000000 0.574863
O O10 0.736759 0.178461 0.162197
O O11 0.033120 0.178126 0.186537
O O12 0.177388 0.260970 0.053420
O O13 0.067471 0.000000 0.098542
O O14 0.748081 0.797453 0.762810
O O15 0.477584 0.000000 0.850324
O O16 0.409429 0.748183 0.906372
O O17 0.673468 0.500000 0.026162
O O18 0.000000 0.645687 0.000000
O O19 0.002328 0.000000 0.726794
#
# Coordination Sequence:
#
# PCOD9155085 Si02
#       7
#     4   4   4   4   4   4   4
#     4   9  17  32  50  69  98 128 159 201 244 289
#     4   9  17  30  49  70  93 125 160 195 237 285
#     4   9  17  30  49  76 101 125 159 201 247 291
#     4   9  17  31  50  71  94 125 163 199 243 292
#     4   9  17  31  50  70  95 125 160 201 243 288
#     4   9  17  30  49  72  97 125 159 202 247 286
#     4   9  18  32  49  72  98 127 163 202 242 288
#
# _framework density 21.381755999999999
#
# number of rings (size 3 to 8) (size 9 to 14) (size 15 to 20)
#    0.000    3.000    0.000    0.857    0.000    4.286 
#    2.571    5.000    0.000    0.000    0.000    0.000 
#    0.000    0.000    0.000    0.000    0.000    0.000 
#
# Total GULP energy -155979.224547 kJ/mol
# GULP energy per Si atom -5570.686591 kJ/mol
# Density = 2.133309 g / cm^3
# Si number density = 21.381756 Si / 1000 Ang^3
#
#
#
# Elastic Constant Matrix: (Units=GPa)
#
#
# Indices 1 2 3 4 5 6 
#
# 1 61.1205 42.4440 16.7680 0.0000 -19.4193 0.0000
# 2 42.4440 131.9657 26.6546 0.0000 -15.1785 0.0000
# 3 16.7680 26.6546 69.0592 0.0000 -3.9263 0.0000
# 4 0.0000 0.0000 0.0000 -5.3785 0.0000 9.6450
# 5 -19.4193 -15.1785 -3.9263 0.0000 41.8960 0.0000
# 6 0.0000 0.0000 0.0000 9.6450 0.0000 -3.0042
#
#
#
# Elastic Compliance Matrix: (Units=1/GPa)
#
#
# Indices 1 2 3 4 5 6 
#
# 1 0.024255 -0.006192 -0.003004 0.000000 0.008718 0.000000
# 2 -0.006192 0.010113 -0.002367 0.000000 0.000572 0.000000
# 3 -0.003004 -0.002367 0.016081 0.000000 -0.000743 0.000000
# 4 0.000000 0.000000 0.000000 0.039082 0.000000 0.125474
# 5 0.008718 0.000572 -0.000743 0.000000 0.028047 0.000000
# 6 0.000000 0.000000 0.000000 0.125474 0.000000 0.069970
#
#
# Mechanical properties :
#
#
# Convention : Reuss Voigt Hill
#
# Bulk Modulus (GPa) = 36.59883 48.20873 42.40378
# Shear Modulus (GPa) = 22.74991 18.45458 20.60224
#
# Velocity S-wave (km/s) = 3.26542 2.94104 3.10747
# Velocity P-wave (km/s) = 5.60101 5.84197 5.72276
#
# Compressibility (1/GPa) = 0.02732328
#
# Stress axis : x y z
#
# Youngs Moduli (GPa) = 41.22925 98.88150 62.18445
#
# Poissons Ratio (x) = 0.61223 0.18679
# Poissons Ratio (y) = 0.25528 0.14722
# Poissons Ratio (z) = 0.12384 0.23410
#
# Static dielectric constant tensor:
#      x y z
#    x 1.827770 0.000000 0.022530 
#    y 0.000000 1.772940 0.000000 
#    z 0.022530 0.000000 1.819370 
# 
# From -- ./inp_files/86428.got.cif
#   From: 2010.05.17/outbox.cif.g08.bks.cpg/sg10_44_cif.got.tgz:86428.got - 2010.06.03 11:33:40.
