data_PCOD9155253
_publ_section_title
;
Structure prediction by ZEFSAII (Michael W. Deem and Ramdas Pophale) SiO2 
 PCOD9155253
Probable space group: P 2/M
;
_chemical_formula_sum "Si O2"
_cell_formula_units_Z 32
_cell_length_a 27.000000
_cell_length_b 9.000000
_cell_length_c 21.000000
_cell_angle_alpha 90.000000
_cell_angle_beta 20.000000
_cell_angle_gamma 90.000000
_cell_volume 1745.328791
_symmetry_space_group_name_H-M "P 2/M"
_symmetry_group_IT_number 10
_symmetry_cell_setting 'monoclinic'
loop_
_space_group_symop_operation_xyz
x,y,z
-x,y,-z
-x,-y,-z
x,-y,z
loop_
_atom_site_type_symbol
_atom_site_label
_atom_site_fract_x
_atom_site_fract_y
_atom_site_fract_z
Si Si1 0.274920 0.670221 0.315117
Si Si2 0.654773 0.167614 0.574364
Si Si3 0.335976 0.830688 0.669928
Si Si4 0.225758 0.678267 0.923916
Si Si5 0.905795 0.327532 0.336497
Si Si6 0.156155 0.821684 0.334991
Si Si7 0.469658 0.829774 0.926700
Si Si8 0.534274 0.675147 0.602283
O O1 0.099583 0.500000 0.679023
O O2 0.174472 0.676963 0.498987
O O3 0.197620 0.766897 0.354940
O O4 0.431661 0.731353 0.146356
O O5 0.813423 0.223376 0.401993
O O6 0.555614 0.168596 0.756904
O O7 0.583050 0.280385 0.612668
O O8 0.657402 0.000000 0.545386
O O9 0.500000 0.828801 0.500000
O O10 0.238570 0.744384 0.837957
O O11 0.354847 0.750757 0.580338
O O12 0.289356 0.000000 0.719784
O O13 0.286284 0.500000 0.280120
O O14 0.370009 0.728666 0.786813
O O15 0.072676 0.719168 0.139308
O O16 0.232014 0.500000 0.913083
O O17 0.000000 0.763497 0.500000
O O18 0.146577 0.000000 0.345200
O O19 0.303367 0.779738 0.119101
O O20 0.466936 0.000000 0.954437
O O21 0.537255 0.500000 0.588249
#
# Coordination Sequence:
#
# PCOD9155253 Si02
#       8
#     4   4   4   4   4   4   4   4
#     4  10  20  34  54  78 102 132 170 209 250 299
#     4  10  20  34  52  75 102 132 169 211 252 296
#     4   9  17  30  49  74 103 133 167 208 250 294
#     4   9  18  33  53  75 100 133 170 206 249 303
#     4   9  19  36  54  74 103 135 167 206 253 303
#     4  10  21  36  53  75 104 136 169 207 252 300
#     4   9  19  36  55  73  98 135 173 207 248 301
#     4  10  19  32  52  76 102 134 169 205 250 303
#
# _framework density 18.334654
#
# number of rings (size 3 to 8) (size 9 to 14) (size 15 to 20)
#    0.000    2.500    0.000    1.875    0.000    6.750 
#    0.000    0.625    0.000    3.750    0.000    0.000 
#    0.000    0.000    0.000    0.000    0.000    0.000 
#
# Total GULP energy -178282.281831 kJ/mol
# GULP energy per Si atom -5571.321307 kJ/mol
# Density = 1.829292 g / cm^3
# Si number density = 18.334654 Si / 1000 Ang^3
#
#
#
# Elastic Constant Matrix: (Units=GPa)
#
#
# Indices 1 2 3 4 5 6 
#
# 1 54.8896 11.7435 51.5313 0.0000 -16.5986 0.0000
# 2 11.7435 -11.0913 52.1961 0.0000 -7.4883 0.0000
# 3 51.5313 52.1961 192.0257 0.0000 -33.1400 0.0000
# 4 0.0000 0.0000 0.0000 50.0134 0.0000 21.9340
# 5 -16.5986 -7.4883 -33.1400 0.0000 23.9320 0.0000
# 6 0.0000 0.0000 0.0000 21.9340 0.0000 39.0103
#
#
#
# Elastic Compliance Matrix: (Units=1/GPa)
#
#
# Indices 1 2 3 4 5 6 
#
# 1 0.026382 -0.001683 -0.004672 0.000000 0.011302 0.000000
# 2 -0.001683 -0.039253 0.011564 0.000000 0.002563 0.000000
# 3 -0.004672 0.011564 0.004446 0.000000 0.006534 0.000000
# 4 0.000000 0.000000 0.000000 0.026539 0.000000 -0.014922
# 5 0.011302 0.002563 0.006534 0.000000 0.059474 0.000000
# 6 0.000000 0.000000 0.000000 -0.014922 0.000000 0.034024
#
#
# Mechanical properties :
#
#
# Convention : Reuss Voigt Hill
#
# Bulk Modulus (GPa) = 501.85937 51.86288 276.86113
# Shear Modulus (GPa) = 49.08797 30.61469 39.85133
#
# Velocity S-wave (km/s) = 5.17991 4.09072 4.66719
# Velocity P-wave (km/s) = 17.60941 7.11760 13.43040
#
# Compressibility (1/GPa) = 0.00199259
#
# Stress axis : x y z
#
# Youngs Moduli (GPa) = 37.90432 -25.47544 224.93141
#
# Poissons Ratio (x) = -0.04287 1.05085
# Poissons Ratio (y) = 0.06379 -2.60107
# Poissons Ratio (z) = 0.17708 0.29459
#
# Static dielectric constant tensor:
#      x y z
#    x 1.622380 0.000000 0.013000 
#    y 0.000000 1.665140 0.000000 
#    z 0.013000 0.000000 1.637950 
# 
# From -- ./inp_files/86765.got.cif
#   From: 2010.05.17/outbox.ucp.g08.bks.cvg/sg10_44_cif.got.tgz:86765.got - 2010.06.11 11:31:16.
