data_PCOD9155136
_publ_section_title
;
Structure prediction by ZEFSAII (Michael W. Deem and Ramdas Pophale) SiO2 
 PCOD9155136
Probable space group: P 2/M
;
_chemical_formula_sum "Si O2"
_cell_formula_units_Z 32
_cell_length_a 18.000000
_cell_length_b 15.000000
_cell_length_c 12.000000
_cell_angle_alpha 90.000000
_cell_angle_beta 30.000000
_cell_angle_gamma 90.000000
_cell_volume 1620.000000
_symmetry_space_group_name_H-M "P 2/M"
_symmetry_group_IT_number 10
_symmetry_cell_setting 'monoclinic'
loop_
_space_group_symop_operation_xyz
x,y,z
-x,y,-z
-x,-y,-z
x,-y,z
loop_
_atom_site_type_symbol
_atom_site_label
_atom_site_fract_x
_atom_site_fract_y
_atom_site_fract_z
Si Si1 0.786923 0.828952 0.571246
Si Si2 0.317292 0.367759 0.347247
Si Si3 0.651088 0.595689 0.952313
Si Si4 0.101329 0.209560 0.088247
Si Si5 0.458493 0.099010 0.243868
Si Si6 0.001543 0.600400 0.864655
Si Si7 0.344903 0.895100 0.638224
Si Si8 0.245766 0.787910 0.139528
O O1 0.705528 0.736989 0.642985
O O2 0.660468 0.898088 0.701385
O O3 0.826507 0.820908 0.650561
O O4 0.937462 0.833861 0.305048
O O5 0.474611 0.389313 0.199069
O O6 0.172377 0.398795 0.600981
O O7 0.325070 0.405666 0.212091
O O8 0.696272 0.500000 0.940588
O O9 0.739875 0.681032 0.877700
O O10 0.169974 0.190669 0.121197
O O11 0.077388 0.315003 0.092349
O O12 0.212449 0.165239 0.856106
O O13 0.371506 0.116452 0.472252
O O14 0.525022 0.000000 0.165657
O O15 0.590412 0.169528 0.065066
O O16 0.941332 0.500000 0.920256
O O17 0.000000 0.614603 0.000000
O O18 0.500000 0.873395 0.500000
O O19 0.314209 0.000000 0.699829
#
# Coordination Sequence:
#
# PCOD9155136 Si02
#       8
#     4   4   4   4   4   4   4   4
#     4  10  22  38  59  90 124 155 201 249 300 358
#     4   9  17  33  54  83 117 152 197 245 291 342
#     4  10  18  30  56  85 115 154 200 248 288 334
#     4  11  24  39  64  88 124 163 198 249 309 361
#     4  11  23  41  66  90 118 159 204 251 303 365
#     4  10  22  38  58  86 124 166 206 246 299 361
#     4  10  22  42  66  90 117 155 202 249 306 369
#     4  11  22  39  58  90 127 162 197 245 304 372
#
# _framework density 19.753086
#
# number of rings (size 3 to 8) (size 9 to 14) (size 15 to 20)
#    0.000    1.750    2.500    2.250    3.500    2.000 
#    0.000    1.250    0.000    7.125    0.000    0.000 
#    0.000    0.000    0.000    0.000    0.000    0.000 
#
# Total GULP energy -178570.240229 kJ/mol
# GULP energy per Si atom -5580.320007 kJ/mol
# Density = 1.970813 g / cm^3
# Si number density = 19.753086 Si / 1000 Ang^3
#
#
#
# Elastic Constant Matrix: (Units=GPa)
#
#
# Indices 1 2 3 4 5 6 
#
# 1 37.2672 -3.6710 -1.6447 0.0000 1.1950 0.0000
# 2 -3.6710 62.6131 34.6620 0.0000 3.5784 0.0000
# 3 -1.6447 34.6620 101.6620 0.0000 1.9119 0.0000
# 4 0.0000 0.0000 0.0000 74.2226 0.0000 48.8633
# 5 1.1950 3.5784 1.9119 0.0000 20.0181 0.0000
# 6 0.0000 0.0000 0.0000 48.8633 0.0000 46.3969
#
#
#
# Elastic Compliance Matrix: (Units=1/GPa)
#
#
# Indices 1 2 3 4 5 6 
#
# 1 0.027063 0.001768 -0.000129 0.000000 -0.001919 0.000000
# 2 0.001768 0.019970 -0.006723 0.000000 -0.003033 0.000000
# 3 -0.000129 -0.006723 0.012126 0.000000 0.000051 0.000000
# 4 0.000000 0.000000 0.000000 0.043933 0.000000 -0.046269
# 5 -0.001919 -0.003033 0.000051 0.000000 0.050607 0.000000
# 6 0.000000 0.000000 0.000000 -0.046269 0.000000 0.070281
#
#
# Mechanical properties :
#
#
# Convention : Reuss Voigt Hill
#
# Bulk Modulus (GPa) = 20.41215 28.91500 24.66357
# Shear Modulus (GPa) = 19.96176 39.60726 29.78451
#
# Velocity S-wave (km/s) = 3.18239 4.48271 3.88731
# Velocity P-wave (km/s) = 4.88462 6.43917 5.71500
#
# Compressibility (1/GPa) = 0.04899042
#
# Stress axis : x y z
#
# Youngs Moduli (GPa) = 36.95050 50.07519 82.46911
#
# Poissons Ratio (x) = -0.08852 0.01062
# Poissons Ratio (y) = -0.06532 0.55445
# Poissons Ratio (z) = 0.00476 0.33666
#
# Static dielectric constant tensor:
#      x y z
#    x 1.672310 0.000000 0.010540 
#    y 0.000000 1.752520 0.000000 
#    z 0.010540 0.000000 1.681530 
# 
# From -- ./inp_files/53981.got.cif
#   From: 2010.05.17/outbox.ucp.g08.bks.cvg/sg10_27_cif.got.tgz:53981.got - 2010.06.11 11:31:16.
