data_PCOD9155738
_publ_section_title
;
Structure prediction by ZEFSAII (Michael W. Deem and Ramdas Pophale) SiO2 
 PCOD9155738
Probable space group: P 21/M
;
_chemical_formula_sum "Si O2"
_cell_formula_units_Z 32
_cell_length_a 7.275613
_cell_length_b 15.561665
_cell_length_c 17.660588
_cell_angle_alpha 90.000000
_cell_angle_beta 134.653940
_cell_angle_gamma 90.000000
_cell_volume 1422.404518
_symmetry_space_group_name_H-M "P 21/M"
_symmetry_group_IT_number 11
_symmetry_cell_setting 'monoclinic'
loop_
_space_group_symop_operation_xyz
x,y,z
-x,1/2+y,-z
-x,-y,-z
x,1/2-y,z
loop_
_atom_site_type_symbol
_atom_site_label
_atom_site_fract_x
_atom_site_fract_y
_atom_site_fract_z
Si Si1 0.418544 0.969405 0.143513
Si Si2 0.476682 0.151984 0.609093
Si Si3 0.719115 0.428497 0.052011
Si Si4 0.412317 0.841194 0.849996
Si Si5 0.245795 0.496919 0.263848
Si Si6 0.106649 0.414089 0.640339
Si Si7 0.013468 0.882357 0.612939
Si Si8 0.372698 0.845231 0.574320
O O1 0.446603 0.070764 0.132303
O O2 0.315098 0.973499 0.198468
O O3 0.695652 0.920207 0.231443
O O4 0.250142 0.924799 0.029412
O O5 0.558784 0.250000 0.643643
O O6 0.285418 0.122258 0.623063
O O7 0.281885 0.144349 0.482238
O O8 0.702961 0.082107 0.672751
O O9 0.626835 0.346165 0.071366
O O10 0.962765 0.461399 0.169682
O O11 0.500000 0.500000 0.000000
O O12 0.533766 0.750000 0.863172
O O13 0.142895 0.850229 0.727027
O O14 0.428242 0.422550 0.351386
O O15 0.034550 0.514626 0.609215
O O16 0.837036 0.363987 0.552710
O O17 0.193885 0.845883 0.598405
O O18 0.486103 0.750000 0.599358
#
# Coordination Sequence:
#
# PCOD9155738 Si02
#       8
#     4   4   4   4   4   4   4   4
#     4   9  19  35  62  80 109 149 195 232 288 335
#     4  10  17  28  51  84 118 149 182 231 290 345
#     4  10  23  41  56  76 106 156 195 237 298 338
#     4  10  19  34  56  83 110 147 193 232 277 347
#     4  11  20  36  57  85 118 143 193 251 286 344
#     4   9  15  29  51  85 120 146 172 232 286 346
#     4  10  15  29  53  82 119 151 179 225 284 346
#     4  11  18  28  53  89 122 149 178 229 297 347
#
# _framework density 22.497116999999999
#
# number of rings (size 3 to 8) (size 9 to 14) (size 15 to 20)
#    0.000    2.000    5.000    3.375    0.000    0.500 
#    0.000    6.250    0.000    3.000    0.000    0.875 
#    0.000    0.000    0.000    0.000    0.000    0.000 
#
# Total GULP energy -178497.711228 kJ/mol
# GULP energy per Si atom -5578.053476 kJ/mol
# Density = 2.244591 g / cm^3
# Si number density = 22.497117 Si / 1000 Ang^3
#
#
#
# Elastic Constant Matrix: (Units=GPa)
#
#
# Indices 1 2 3 4 5 6 
#
# 1 38.7281 -1.5582 20.2807 0.0000 -12.5689 0.0000
# 2 -1.5582 94.9326 27.5957 0.0000 -10.9136 0.0000
# 3 20.2807 27.5957 90.9132 0.0000 -5.0690 0.0000
# 4 0.0000 0.0000 0.0000 -6.8144 0.0000 1.7699
# 5 -12.5689 -10.9136 -5.0690 0.0000 41.0471 0.0000
# 6 0.0000 0.0000 0.0000 1.7699 0.0000 8.7525
#
#
#
# Elastic Compliance Matrix: (Units=1/GPa)
#
#
# Indices 1 2 3 4 5 6 
#
# 1 0.033640 0.004123 -0.008177 0.000000 0.010387 0.000000
# 2 0.004123 0.012354 -0.004447 0.000000 0.003998 0.000000
# 3 -0.008177 -0.004447 0.014065 0.000000 -0.001949 0.000000
# 4 0.000000 0.000000 0.000000 -0.139426 0.000000 0.028194
# 5 0.010387 0.003998 -0.001949 0.000000 0.028365 0.000000
# 6 0.000000 0.000000 0.000000 0.028194 0.000000 0.108552
#
#
# Mechanical properties :
#
#
# Convention : Reuss Voigt Hill
#
# Bulk Modulus (GPa) = 23.22465 35.24558 29.23512
# Shear Modulus (GPa) = 56.24128 20.48075 38.36102
#
# Velocity S-wave (km/s) = 5.00536 3.02051 4.13383
# Velocity P-wave (km/s) = 6.61442 5.27877 5.98398
#
# Compressibility (1/GPa) = 0.04305770
#
# Stress axis : x y z
#
# Youngs Moduli (GPa) = 29.72663 80.94754 71.10047
#
# Poissons Ratio (x) = -0.33376 0.58137
# Poissons Ratio (y) = -0.12257 0.31616
# Poissons Ratio (z) = 0.24307 0.35995
#
# Static dielectric constant tensor:
#      x y z
#    x 1.986020 0.000000 -0.045200 
#    y 0.000000 1.800400 0.000000 
#    z -0.045200 0.000000 1.889140 
# 
# From -- ./inp_files/63820.got.cif
#   From: 2010.05.17/outbox.cif.g08.bks.cpg/sg11_32_cif.got.tgz:63820.got - 2010.06.03 12:22:45.
