data_PCOD9155707
_publ_section_title
;
Structure prediction by ZEFSAII (Michael W. Deem and Ramdas Pophale) SiO2 
 PCOD9155707
Probable space group: P 2/M
;
_chemical_formula_sum "Si O2"
_cell_formula_units_Z 32
_cell_length_a 27.000000
_cell_length_b 9.000000
_cell_length_c 21.000000
_cell_angle_alpha 90.000000
_cell_angle_beta 20.000000
_cell_angle_gamma 90.000000
_cell_volume 1745.328791
_symmetry_space_group_name_H-M "P 2/M"
_symmetry_group_IT_number 10
_symmetry_cell_setting 'monoclinic'
loop_
_space_group_symop_operation_xyz
x,y,z
-x,y,-z
-x,-y,-z
x,-y,z
loop_
_atom_site_type_symbol
_atom_site_label
_atom_site_fract_x
_atom_site_fract_y
_atom_site_fract_z
Si Si1 0.366727 0.181359 0.581560
Si Si2 0.517213 0.819619 0.790029
Si Si3 0.306852 0.819368 0.798131
Si Si4 0.010714 0.180637 0.780289
Si Si5 0.758803 0.179386 0.395226
Si Si6 0.251515 0.677195 0.399297
Si Si7 0.870630 0.821715 0.571716
Si Si8 0.192341 0.177780 0.203279
O O1 0.534908 0.225242 0.366904
O O2 0.313000 0.226255 0.716369
O O3 0.265823 0.234398 0.646259
O O4 0.366380 0.000000 0.582515
O O5 0.617433 0.781608 0.608166
O O6 0.605671 0.747697 0.741285
O O7 0.518737 0.000000 0.794738
O O8 0.349640 0.769425 0.989591
O O9 0.303870 0.000000 0.803288
O O10 0.157467 0.772868 0.012317
O O11 0.095649 0.220594 0.743146
O O12 0.111140 0.255283 0.605671
O O13 0.016827 0.000000 0.765038
O O14 0.761495 0.000000 0.389382
O O15 0.253908 0.500000 0.401808
O O16 0.232060 0.733112 0.351176
O O17 0.824409 0.798685 0.700711
O O18 0.038637 0.770672 0.360266
O O19 0.863728 0.000000 0.567828
O O20 0.192234 0.000000 0.193039
#
# Coordination Sequence:
#
# PCOD9155707 Si02
#       8
#     4   4   4   4   4   4   4   4
#     4   8  13  22  36  63  97 120 140 180 233 282
#     4   9  17  32  51  72  95 124 161 199 235 279
#     4   8  14  23  38  62  94 122 145 179 231 283
#     4   9  17  30  46  65  87 118 157 196 233 275
#     4   8  14  23  38  60  88 116 146 183 224 266
#     4  11  22  34  47  68  97 130 162 198 241 284
#     4   9  17  33  54  76  99 124 155 195 237 284
#     4   8  16  31  54  78  98 122 157 196 236 279
#
# _framework density 18.334654
#
# number of rings (size 3 to 8) (size 9 to 14) (size 15 to 20)
#    0.000    3.250    0.000    3.375    0.000    2.000 
#    0.000   11.250    0.000    0.000    0.000    8.750 
#    0.000    0.000    0.000    0.000    0.000    0.000 
#
# Total GULP energy -178163.701869 kJ/mol
# GULP energy per Si atom -5567.615683 kJ/mol
# Density = 1.829292 g / cm^3
# Si number density = 18.334654 Si / 1000 Ang^3
#
#
#
# Elastic Constant Matrix: (Units=GPa)
#
#
# Indices 1 2 3 4 5 6 
#
# 1 32.3767 3.1936 -41.6324 0.0000 -4.2458 0.0000
# 2 3.1936 18.0736 -2.6147 0.0000 0.8439 0.0000
# 3 -41.6324 -2.6147 40.8601 0.0000 -4.3817 0.0000
# 4 0.0000 0.0000 0.0000 5.2336 0.0000 -2.3802
# 5 -4.2458 0.8439 -4.3817 0.0000 6.8013 0.0000
# 6 0.0000 0.0000 0.0000 -2.3802 0.0000 -2.0293
#
#
#
# Elastic Compliance Matrix: (Units=1/GPa)
#
#
# Indices 1 2 3 4 5 6 
#
# 1 -0.045206 0.003303 -0.052550 0.000000 -0.062485 0.000000
# 2 0.003303 0.055762 0.006889 0.000000 -0.000419 0.000000
# 3 -0.052550 0.006889 -0.034631 0.000000 -0.055970 0.000000
# 4 0.000000 0.000000 0.000000 0.124606 0.000000 -0.146152
# 5 -0.062485 -0.000419 -0.055970 0.000000 0.072016 0.000000
# 6 0.000000 0.000000 0.000000 -0.146152 0.000000 -0.321364
#
#
# Mechanical properties :
#
#
# Convention : Reuss Voigt Hill
#
# Bulk Modulus (GPa) = -9.19185 1.02259 -4.08463
# Shear Modulus (GPa) = -49.81847 10.82540 -19.49653
#
# Velocity S-wave (km/s) = -5.21831 2.43252 -3.26447
# Velocity P-wave (km/s) = 6.42899 2.90663 4.05484
#
# Compressibility (1/GPa) = -0.10879199
#
# Stress axis : x y z
#
# Youngs Moduli (GPa) = -22.12091 17.93343 -28.87614
#
# Poissons Ratio (x) = -0.05923 -1.51744
# Poissons Ratio (y) = 0.07306 0.19892
# Poissons Ratio (z) = -1.16245 -0.12354
#
# Static dielectric constant tensor:
#      x y z
#    x 1.663270 0.000000 -0.000770 
#    y 0.000000 1.605650 0.000000 
#    z -0.000770 0.000000 1.634030 
# 
# From -- ./inp_files/86831.got.cif
#   From: 2010.05.17/outbox.ucp.g08.bks.cvg/sg10_44_cif.got.tgz:86831.got - 2010.06.11 11:31:16.
