data_PCOD9155527
_publ_section_title
;
Structure prediction by ZEFSAII (Michael W. Deem and Ramdas Pophale) SiO2 
 PCOD9155527
Probable space group: P 2/M
;
_chemical_formula_sum "Si O2"
_cell_formula_units_Z 20
_cell_length_a 12.000000
_cell_length_b 9.000000
_cell_length_c 9.000000
_cell_angle_alpha 90.000000
_cell_angle_beta 80.000000
_cell_angle_gamma 90.000000
_cell_volume 957.233136
_symmetry_space_group_name_H-M "P 2/M"
_symmetry_group_IT_number 10
_symmetry_cell_setting 'monoclinic'
loop_
_space_group_symop_operation_xyz
x,y,z
-x,y,-z
-x,-y,-z
x,-y,z
loop_
_atom_site_type_symbol
_atom_site_label
_atom_site_fract_x
_atom_site_fract_y
_atom_site_fract_z
Si Si1 0.520374 0.168108 0.821868
Si Si2 0.604793 0.676312 0.378117
Si Si3 0.849922 0.679653 0.418630
Si Si4 0.951211 0.328767 0.847440
Si Si5 0.777949 0.824219 0.727614
O O1 0.429266 0.278603 0.777378
O O2 0.647168 0.222302 0.756630
O O3 0.507445 0.000000 0.763818
O O4 0.500000 0.159364 0.000000
O O5 0.500000 0.736276 0.500000
O O6 0.607855 0.500000 0.397842
O O7 0.728164 0.732584 0.388056
O O8 0.852375 0.500000 0.426070
O O9 0.850103 0.745903 0.582242
O O10 0.949321 0.724086 0.285525
O O11 0.922229 0.500000 0.815753
O O12 0.840645 0.228622 0.860504
O O13 0.000000 0.327622 0.000000
O O14 0.780943 0.000000 0.710832
#
# Coordination Sequence:
#
# PCOD9155527 Si02
#       5
#     4   4   4   4   4
#     4  10  23  40  57  83 120 156 188 230 287 343
#     4  10  20  36  60  89 115 144 190 239 282 336
#     4  10  21  39  61  86 117 151 189 236 286 337
#     4  10  23  41  61  85 115 151 190 236 290 341
#     4  11  23  39  60  86 115 151 195 236 280 339
#
# _framework density 20.893552
#
# number of rings (size 3 to 8) (size 9 to 14) (size 15 to 20)
#    0.000    1.800    2.000    1.200    2.800    6.000 
#    0.000    0.000    0.000    0.000    0.000    0.000 
#    0.000    0.000    0.000    0.000    0.000    0.000 
#
# Total GULP energy -111527.752089 kJ/mol
# GULP energy per Si atom -5576.387604 kJ/mol
# Density = 2.084600 g / cm^3
# Si number density = 20.893552 Si / 1000 Ang^3
#
#
#
# Elastic Constant Matrix: (Units=GPa)
#
#
# Indices 1 2 3 4 5 6 
#
# 1 118.4052 19.2333 29.6526 0.0000 11.0316 0.0000
# 2 19.2333 -28.5950 4.0409 0.0000 -3.2289 0.0000
# 3 29.6526 4.0409 48.6824 0.0000 -1.5924 0.0000
# 4 0.0000 0.0000 0.0000 78.0746 0.0000 42.2617
# 5 11.0316 -3.2289 -1.5924 0.0000 21.7021 0.0000
# 6 0.0000 0.0000 0.0000 42.2617 0.0000 43.0837
#
#
#
# Elastic Compliance Matrix: (Units=1/GPa)
#
#
# Indices 1 2 3 4 5 6 
#
# 1 0.009494 0.005976 -0.006423 0.000000 -0.004408 0.000000
# 2 0.005976 -0.030283 -0.001376 0.000000 -0.007644 0.000000
# 3 -0.006423 -0.001376 0.024727 0.000000 0.004875 0.000000
# 4 0.000000 0.000000 0.000000 0.027308 0.000000 -0.026787
# 5 -0.004408 -0.007644 0.004875 0.000000 0.047540 0.000000
# 6 0.000000 0.000000 0.000000 -0.026787 0.000000 0.049487
#
#
# Mechanical properties :
#
#
# Convention : Reuss Voigt Hill
#
# Bulk Modulus (GPa) = 3431.62713 27.14957 1729.38835
# Shear Modulus (GPa) = 37.87384 34.27645 36.07514
#
# Velocity S-wave (km/s) = 4.26221 4.05474 4.15976
# Velocity P-wave (km/s) = 40.86834 5.91131 29.19901
#
# Compressibility (1/GPa) = 0.00029141
#
# Stress axis : x y z
#
# Youngs Moduli (GPa) = 105.32812 -33.02187 40.44101
#
# Poissons Ratio (x) = 0.19734 0.25976
# Poissons Ratio (y) = -0.62944 0.05566
# Poissons Ratio (z) = 0.67654 -0.04545
#
# Static dielectric constant tensor:
#      x y z
#    x 1.770630 0.000000 0.074870 
#    y 0.000000 1.713020 0.000000 
#    z 0.074870 0.000000 1.848140 
# 
# From -- ./inp_files/22097.got.cif
#   From: 2010.05.17/outbox.ucp.g08.bks.cvg/sg10_12_cif.got.tgz:22097.got - 2010.06.11 11:31:16.
