data_PCOD9155746
_publ_section_title
;
Structure prediction by ZEFSAII (Michael W. Deem and Ramdas Pophale) SiO2 
 PCOD9155746
Probable space group: P 21/M
;
_chemical_formula_sum "Si O2"
_cell_formula_units_Z 28
_cell_length_a 21.030441
_cell_length_b 8.448824
_cell_length_c 7.149385
_cell_angle_alpha 90.000000
_cell_angle_beta 67.898676
_cell_angle_gamma 90.000000
_cell_volume 1176.977327
_symmetry_space_group_name_H-M "P 21/M"
_symmetry_group_IT_number 11
_symmetry_cell_setting 'monoclinic'
loop_
_space_group_symop_operation_xyz
x,y,z
-x,1/2+y,-z
-x,-y,-z
x,1/2-y,z
loop_
_atom_site_type_symbol
_atom_site_label
_atom_site_fract_x
_atom_site_fract_y
_atom_site_fract_z
Si Si1 0.288725 0.936477 0.221027
Si Si2 0.868420 0.940180 0.923188
Si Si3 0.148221 0.937210 0.484995
Si Si4 0.576348 0.929252 0.387322
Si Si5 0.426331 0.427186 0.054520
Si Si6 0.992000 0.936535 0.294850
Si Si7 0.724491 0.561778 0.183585
O O1 0.280887 0.750000 0.189880
O O2 0.227614 0.983806 0.428110
O O3 0.364927 0.970927 0.205759
O O4 0.280918 0.031182 0.035368
O O5 0.863712 0.750000 0.905297
O O6 0.859622 0.023212 0.729042
O O7 0.803866 0.993636 0.122993
O O8 0.946784 0.981909 0.888080
O O9 0.139332 0.750000 0.523527
O O10 0.087381 0.025435 0.658339
O O11 0.574050 0.750000 0.463230
O O12 0.581689 0.921948 0.158289
O O13 0.652318 0.003388 0.349387
O O14 0.500000 0.000000 0.500000
O O15 0.422249 0.250000 0.131268
O O16 0.500000 0.500000 0.000000
O O17 0.002791 0.750000 0.278987
O O18 0.000000 0.000000 0.500000
O O19 0.722679 0.750000 0.221768
#
# Coordination Sequence:
#
# PCOD9155746 Si02
#       7
#     4   4   4   4   4   4   4
#     4   9  16  25  39  57  76 101 135 172 210 252
#     4   9  14  21  32  44  63  93 127 164 203 241
#     4   9  15  22  31  45  66  93 127 163 198 242
#     4   9  18  31  46  66  89 114 145 181 219 262
#     4  10  20  33  48  66  89 115 147 183 220 262
#     4  10  16  20  27  41  63  91 125 163 200 240
#     4   8  15  26  38  53  75 103 136 172 209 251
#
# _framework density 23.789753000000001
#
# number of rings (size 3 to 8) (size 9 to 14) (size 15 to 20)
#    0.000    2.857    0.000    5.571    0.000    5.143 
#    0.000    0.000    0.000    0.000    0.000    0.000 
#    0.000    0.000    0.000    1.286    0.000   16.857 
#
# Total GULP energy -156053.665237 kJ/mol
# GULP energy per Si atom -5573.345187 kJ/mol
# Density = 2.373561 g / cm^3
# Si number density = 23.789753 Si / 1000 Ang^3
#
#
#
# Elastic Constant Matrix: (Units=GPa)
#
#
# Indices 1 2 3 4 5 6 
#
# 1 94.2436 1.3873 67.0255 0.0000 -60.5662 0.0000
# 2 1.3873 56.0082 19.3221 0.0000 -22.6609 0.0000
# 3 67.0255 19.3221 168.0211 0.0000 -52.4517 0.0000
# 4 0.0000 0.0000 0.0000 18.7633 0.0000 -22.3482
# 5 -60.5662 -22.6609 -52.4517 0.0000 82.4038 0.0000
# 6 0.0000 0.0000 0.0000 -22.3482 0.0000 18.9500
#
#
#
# Elastic Compliance Matrix: (Units=1/GPa)
#
#
# Indices 1 2 3 4 5 6 
#
# 1 0.026078 0.008572 -0.005827 0.000000 0.017815 0.000000
# 2 0.008572 0.022980 -0.002649 0.000000 0.010934 0.000000
# 3 -0.005827 -0.002649 0.008756 0.000000 0.000562 0.000000
# 4 0.000000 0.000000 0.000000 -0.131711 0.000000 -0.155330
# 5 0.017815 0.010934 0.000562 0.000000 0.028594 0.000000
# 6 0.000000 0.000000 0.000000 -0.155330 0.000000 -0.130413
#
#
# Mechanical properties :
#
#
# Convention : Reuss Voigt Hill
#
# Bulk Modulus (GPa) = 17.23931 54.86030 36.04981
# Shear Modulus (GPa) = -31.93400 39.39262 3.72931
#
# Velocity S-wave (km/s) = -3.66777 4.07365 1.25340
# Velocity P-wave (km/s) = 3.26718 6.72582 4.15705
#
# Compressibility (1/GPa) = 0.05800695
#
# Stress axis : x y z
#
# Youngs Moduli (GPa) = 38.34642 43.51618 114.20396
#
# Poissons Ratio (x) = -0.37304 0.66548
# Poissons Ratio (y) = -0.32872 0.30253
# Poissons Ratio (z) = 0.22345 0.11527
#
# Static dielectric constant tensor:
#      x y z
#    x 2.162940 0.000000 -0.031790 
#    y 0.000000 1.805230 0.000000 
#    z -0.031790 0.000000 1.948460 
# 
# From -- ./inp_files/43642.got.cif
#   From: 2010.05.17/outbox.cif.g08.bks.cpg/sg11_22_cif.got.tgz:43642.got - 2010.06.03 12:22:45.
