data_PCOD9155112
_publ_section_title
;
Structure prediction by ZEFSAII (Michael W. Deem and Ramdas Pophale) SiO2 
 PCOD9155112
Probable space group: P 2/M
;
_chemical_formula_sum "Si O2"
_cell_formula_units_Z 32
_cell_length_a 12.000000
_cell_length_b 9.000000
_cell_length_c 30.000000
_cell_angle_alpha 90.000000
_cell_angle_beta 30.000000
_cell_angle_gamma 90.000000
_cell_volume 1620.000000
_symmetry_space_group_name_H-M "P 2/M"
_symmetry_group_IT_number 10
_symmetry_cell_setting 'monoclinic'
loop_
_space_group_symop_operation_xyz
x,y,z
-x,y,-z
-x,-y,-z
x,-y,z
loop_
_atom_site_type_symbol
_atom_site_label
_atom_site_fract_x
_atom_site_fract_y
_atom_site_fract_z
Si Si1 0.631710 0.830140 0.222417
Si Si2 0.750324 0.172130 0.583591
Si Si3 0.146079 0.327980 0.591346
Si Si4 0.947560 0.679721 0.966047
Si Si5 0.035590 0.325902 0.735359
Si Si6 0.520497 0.831292 0.412785
Si Si7 0.445024 0.677038 0.120859
Si Si8 0.715364 0.167254 0.736851
O O1 0.454009 0.758426 0.317944
O O2 0.480149 0.839467 0.230915
O O3 0.855016 0.743198 0.132919
O O4 0.687485 0.000000 0.217471
O O5 0.652425 0.166912 0.568196
O O6 0.000000 0.236170 0.500000
O O7 0.770170 0.000000 0.593741
O O8 0.125610 0.500000 0.585474
O O9 0.097069 0.316857 0.661222
O O10 0.387453 0.268023 0.494350
O O11 0.949722 0.228827 0.637634
O O12 0.949332 0.500000 0.964929
O O13 0.703853 0.729296 0.031307
O O14 0.000000 0.723873 0.000000
O O15 0.046951 0.500000 0.744221
O O16 0.239850 0.233663 0.685121
O O17 0.776627 0.273173 0.830556
O O18 0.552996 0.000000 0.417703
O O19 0.451502 0.500000 0.112495
O O20 0.367781 0.719659 0.197068
O O21 0.750974 0.000000 0.742564
#
# Coordination Sequence:
#
# PCOD9155112 Si02
#       8
#     4   4   4   4   4   4   4   4
#     4  10  20  33  52  77 106 141 178 216 262 314
#     4   9  19  37  56  74 103 141 176 213 263 312
#     4  10  20  33  50  72 103 140 172 207 261 318
#     4  10  19  32  53  79 110 142 173 213 261 314
#     4   9  19  34  51  71 101 138 171 205 257 320
#     4  11  21  33  53  76  98 129 175 223 262 306
#     4   9  18  33  50  72 105 143 168 196 257 319
#     4  10  18  28  47  75 104 134 171 213 252 301
#
# _framework density 19.753086
#
# number of rings (size 3 to 8) (size 9 to 14) (size 15 to 20)
#    0.000    2.250    1.250    3.000    0.000    7.250 
#    0.000    1.250    0.000    3.375    0.000    5.250 
#    0.000    0.000    0.000    0.000    0.000    0.000 
#
# Total GULP energy -178167.509807 kJ/mol
# GULP energy per Si atom -5567.734681 kJ/mol
# Density = 1.970813 g / cm^3
# Si number density = 19.753086 Si / 1000 Ang^3
#
#
#
# Elastic Constant Matrix: (Units=GPa)
#
#
# Indices 1 2 3 4 5 6 
#
# 1 42.9344 10.2666 33.7952 0.0000 -32.3245 0.0000
# 2 10.2666 5.1109 17.6847 0.0000 -18.7516 0.0000
# 3 33.7952 17.6847 154.2762 0.0000 -42.5728 0.0000
# 4 0.0000 0.0000 0.0000 24.2020 0.0000 -4.3830
# 5 -32.3245 -18.7516 -42.5728 0.0000 40.7413 0.0000
# 6 0.0000 0.0000 0.0000 -4.3830 0.0000 16.6784
#
#
#
# Elastic Compliance Matrix: (Units=1/GPa)
#
#
# Indices 1 2 3 4 5 6 
#
# 1 0.042971 -0.055766 -0.000977 0.000000 0.007406 0.000000
# 2 -0.055766 -0.209090 -0.003628 0.000000 -0.144272 0.000000
# 3 -0.000977 -0.003628 0.009045 0.000000 0.007007 0.000000
# 4 0.000000 0.000000 0.000000 0.043384 0.000000 0.011401
# 5 0.007406 -0.144272 0.007007 0.000000 -0.028660 0.000000
# 6 0.000000 0.000000 0.000000 0.011401 0.000000 0.062954
#
#
# Mechanical properties :
#
#
# Convention : Reuss Voigt Hill
#
# Bulk Modulus (GPa) = -3.59951 36.20161 16.30105
# Shear Modulus (GPa) = -97.54371 25.69600 -35.92385
#
# Velocity S-wave (km/s) = -7.03482 3.61066 -4.26918
# Velocity P-wave (km/s) = 8.23475 5.97907 4.00386
#
# Compressibility (1/GPa) = -0.27781526
#
# Stress axis : x y z
#
# Youngs Moduli (GPa) = 23.27147 -4.78263 110.55376
#
# Poissons Ratio (x) = -0.26671 0.10801
# Poissons Ratio (y) = 1.29775 0.40112
# Poissons Ratio (z) = 0.02274 -0.01735
#
# Static dielectric constant tensor:
#      x y z
#    x 1.763160 0.000000 -0.014010 
#    y 0.000000 1.698210 0.000000 
#    z -0.014010 0.000000 1.728170 
# 
# From -- ./inp_files/94998.got.cif
#   From: 2010.05.17/outbox.ucp.g08.bks.cvg/sg10_48_cif.got.tgz:94998.got - 2010.06.11 11:31:16.
