data_PCOD9155688
_publ_section_title
;
Structure prediction by ZEFSAII (Michael W. Deem and Ramdas Pophale) SiO2 
 PCOD9155688
Probable space group: P 2/M
;
_chemical_formula_sum "Si O2"
_cell_formula_units_Z 32
_cell_length_a 27.000000
_cell_length_b 9.000000
_cell_length_c 21.000000
_cell_angle_alpha 90.000000
_cell_angle_beta 20.000000
_cell_angle_gamma 90.000000
_cell_volume 1745.328791
_symmetry_space_group_name_H-M "P 2/M"
_symmetry_group_IT_number 10
_symmetry_cell_setting 'monoclinic'
loop_
_space_group_symop_operation_xyz
x,y,z
-x,y,-z
-x,-y,-z
x,-y,z
loop_
_atom_site_type_symbol
_atom_site_label
_atom_site_fract_x
_atom_site_fract_y
_atom_site_fract_z
Si Si1 0.312737 0.821023 0.350551
Si Si2 0.083264 0.321464 0.726963
Si Si3 0.204171 0.180183 0.982281
Si Si4 0.801179 0.321219 0.641764
Si Si5 0.468800 0.820766 0.462963
Si Si6 0.862821 0.321156 0.798844
Si Si7 0.656851 0.179005 0.941994
Si Si8 0.163137 0.677917 0.777806
O O1 0.199582 0.750116 0.537603
O O2 0.273177 0.749473 0.330464
O O3 0.293404 0.000000 0.372684
O O4 0.483759 0.791176 0.156600
O O5 0.071628 0.500000 0.730071
O O6 0.146270 0.298113 0.722054
O O7 0.922719 0.249230 0.910080
O O8 0.374441 0.217494 0.760243
O O9 0.193136 0.000000 0.994032
O O10 0.161856 0.244729 0.102782
O O11 0.781710 0.500000 0.667242
O O12 0.727406 0.247521 0.792670
O O13 0.974376 0.292865 0.424850
O O14 0.500000 0.784888 0.500000
O O15 0.314643 0.750282 0.622971
O O16 0.451851 0.000000 0.478098
O O17 0.847082 0.500000 0.823473
O O18 0.745180 0.252987 0.892978
O O19 0.675213 0.000000 0.919763
O O20 0.174213 0.500000 0.776811
O O21 0.000000 0.724805 0.000000
#
# Coordination Sequence:
#
# PCOD9155688 Si02
#       8
#     4   4   4   4   4   4   4   4
#     4  11  24  41  62  89 123 164 209 258 314 373
#     4  11  23  40  63  92 124 163 210 258 310 371
#     4  11  23  40  64  92 124 165 210 257 310 370
#     4  11  23  41  64  91 121 160 209 260 315 376
#     4  10  23  42  65  96 131 166 209 255 305 366
#     4  11  24  41  62  90 124 163 209 259 313 373
#     4  11  25  41  61  90 124 162 208 261 316 375
#     4  10  23  42  65  96 131 167 209 255 306 366
#
# _framework density 18.334654
#
# number of rings (size 3 to 8) (size 9 to 14) (size 15 to 20)
#    0.000    1.250    1.250    3.750    1.750    9.000 
#    0.000    0.000    0.000    0.000    0.000    0.000 
#    0.000    0.000    0.000    0.000    0.000    0.000 
#
# Total GULP energy -178683.894030 kJ/mol
# GULP energy per Si atom -5583.871688 kJ/mol
# Density = 1.829292 g / cm^3
# Si number density = 18.334654 Si / 1000 Ang^3
#
#
#
# Elastic Constant Matrix: (Units=GPa)
#
#
# Indices 1 2 3 4 5 6 
#
# 1 129.6368 47.4603 61.9731 0.0000 -22.7603 0.0000
# 2 47.4603 104.9910 62.0434 0.0000 -15.7733 0.0000
# 3 61.9731 62.0434 165.0126 0.0000 -22.4195 0.0000
# 4 0.0000 0.0000 0.0000 41.0596 0.0000 -8.3898
# 5 -22.7603 -15.7733 -22.4195 0.0000 47.0984 0.0000
# 6 0.0000 0.0000 0.0000 -8.3898 0.0000 35.4360
#
#
#
# Elastic Compliance Matrix: (Units=1/GPa)
#
#
# Indices 1 2 3 4 5 6 
#
# 1 0.010438 -0.002825 -0.002460 0.000000 0.002927 0.000000
# 2 -0.002825 0.013196 -0.003727 0.000000 0.001280 0.000000
# 3 -0.002460 -0.003727 0.008611 0.000000 0.001662 0.000000
# 4 0.000000 0.000000 0.000000 0.025593 0.000000 0.006059
# 5 0.002927 0.001280 0.001662 0.000000 0.023867 0.000000
# 6 0.000000 0.000000 0.000000 0.006059 0.000000 0.029654
#
#
# Mechanical properties :
#
#
# Convention : Reuss Voigt Hill
#
# Bulk Modulus (GPa) = 70.31584 82.51043 76.41313
# Shear Modulus (GPa) = 37.27890 39.92971 38.60431
#
# Velocity S-wave (km/s) = 4.51405 4.67178 4.59359
# Velocity P-wave (km/s) = 8.09959 8.61399 8.36075
#
# Compressibility (1/GPa) = 0.01422155
#
# Stress axis : x y z
#
# Youngs Moduli (GPa) = 95.80276 75.77929 116.12704
#
# Poissons Ratio (x) = 0.21406 0.28572
# Poissons Ratio (y) = 0.27062 0.43279
# Poissons Ratio (z) = 0.23572 0.28242
#
# Static dielectric constant tensor:
#      x y z
#    x 1.635870 0.000000 0.010230 
#    y 0.000000 1.620500 0.000000 
#    z 0.010230 0.000000 1.632060 
# 
# From -- ./inp_files/86756.got.cif
#   From: 2010.05.17/outbox.ucp.g08.bks.cvg/sg10_44_cif.got.tgz:86756.got - 2010.06.11 11:31:16.
