data_PCOD9155228
_publ_section_title
;
Structure prediction by ZEFSAII (Michael W. Deem and Ramdas Pophale) SiO2 
 PCOD9155228
Probable space group: P 2/M
;
_chemical_formula_sum "Si O2"
_cell_formula_units_Z 26
_cell_length_a 12.000000
_cell_length_b 9.000000
_cell_length_c 21.000000
_cell_angle_alpha 90.000000
_cell_angle_beta 40.000000
_cell_angle_gamma 90.000000
_cell_volume 1457.842299
_symmetry_space_group_name_H-M "P 2/M"
_symmetry_group_IT_number 10
_symmetry_cell_setting 'monoclinic'
loop_
_space_group_symop_operation_xyz
x,y,z
-x,y,-z
-x,-y,-z
x,-y,z
loop_
_atom_site_type_symbol
_atom_site_label
_atom_site_fract_x
_atom_site_fract_y
_atom_site_fract_z
Si Si1 0.021815 0.677965 0.820771
Si Si2 0.476780 0.177866 0.239548
Si Si3 0.921497 0.820207 0.603734
Si Si4 0.168633 0.320054 0.970115
Si Si5 0.500000 0.248793 0.500000
Si Si6 0.896334 0.327927 0.354945
Si Si7 0.374462 0.166703 0.691806
O O1 0.014132 0.500000 0.821208
O O2 0.017787 0.731558 0.748956
O O3 0.211134 0.724420 0.763336
O O4 0.882359 0.725316 0.935013
O O5 0.282964 0.225671 0.303060
O O6 0.648197 0.251733 0.133110
O O7 0.496027 0.203966 0.307404
O O8 0.487248 0.000000 0.224531
O O9 0.000000 0.776748 0.500000
O O10 0.034959 0.757905 0.612970
O O11 0.926510 0.000000 0.604165
O O12 0.182562 0.500000 0.961241
O O13 0.000000 0.279597 0.000000
O O14 0.687168 0.323864 0.434061
O O15 0.459417 0.169325 0.584778
O O16 0.944981 0.500000 0.341592
O O17 0.308504 0.000000 0.732796
#
# Coordination Sequence:
#
# PCOD9155228 Si02
#       7
#     4   4   4   4   2   4   4
#     4   9  19  35  53  78 113 143 174 224 281 327
#     4  10  21  35  54  82 112 144 184 231 278 321
#     4  10  22  41  60  79 112 152 187 228 274 325
#     4  10  19  34  57  83 111 148 186 225 278 334
#     4  10  20  34  54  80 112 142 176 224 282 334
#     4  10  21  37  57  81 109 143 183 229 277 327
#     4  10  19  31  51  79 108 141 182 222 269 329
#
# _framework density 17.834575999999998
#
# number of rings (size 3 to 8) (size 9 to 14) (size 15 to 20)
#    0.000    2.154    1.538    1.385    0.000    6.769 
#    0.000    2.308    0.000    4.615    0.000    0.000 
#    0.000    0.000    0.000    0.000    0.000    0.000 
#
# Total GULP energy -144810.962223 kJ/mol
# GULP energy per Si atom -5569.652393 kJ/mol
# Density = 1.779398 g / cm^3
# Si number density = 17.834576 Si / 1000 Ang^3
#
#
#
# Elastic Constant Matrix: (Units=GPa)
#
#
# Indices 1 2 3 4 5 6 
#
# 1 135.9901 28.9598 61.5849 0.0000 6.0353 0.0000
# 2 28.9598 20.6473 26.7145 0.0000 1.3796 0.0000
# 3 61.5849 26.7145 137.3204 0.0000 3.1809 0.0000
# 4 0.0000 0.0000 0.0000 24.1266 0.0000 0.2443
# 5 6.0353 1.3796 3.1809 0.0000 34.2552 0.0000
# 6 0.0000 0.0000 0.0000 0.2443 0.0000 19.1779
#
#
#
# Elastic Compliance Matrix: (Units=1/GPa)
#
#
# Indices 1 2 3 4 5 6 
#
# 1 0.011199 -0.012246 -0.002611 0.000000 -0.001237 0.000000
# 2 -0.012246 0.078186 -0.009716 0.000000 -0.000089 0.000000
# 3 -0.002611 -0.009716 0.010346 0.000000 -0.000109 0.000000
# 4 0.000000 0.000000 0.000000 0.041453 0.000000 -0.000528
# 5 -0.001237 -0.000089 -0.000109 0.000000 0.029424 0.000000
# 6 0.000000 0.000000 0.000000 -0.000528 0.000000 0.052150
#
#
# Mechanical properties :
#
#
# Convention : Reuss Voigt Hill
#
# Bulk Modulus (GPa) = 19.76919 58.71957 39.24438
# Shear Modulus (GPa) = 17.31494 27.29184 22.30339
#
# Velocity S-wave (km/s) = 3.11925 3.91612 3.54018
# Velocity P-wave (km/s) = 4.90732 7.31054 6.22599
#
# Compressibility (1/GPa) = 0.05058375
#
# Stress axis : x y z
#
# Youngs Moduli (GPa) = 89.29474 12.78996 96.65432
#
# Poissons Ratio (x) = 0.15663 0.25240
# Poissons Ratio (y) = 1.09351 0.93912
# Poissons Ratio (z) = 0.23318 0.12427
#
# Static dielectric constant tensor:
#      x y z
#    x 1.604370 0.000000 0.025280 
#    y 0.000000 1.619210 0.000000 
#    z 0.025280 0.000000 1.628500 
# 
# From -- ./inp_files/55103.got.cif
#   From: 2010.05.17/outbox.ucp.g08.bks.cvg/sg10_28_cif.got.tgz:55103.got - 2010.06.11 11:31:16.
