data_PCOD9155303
_publ_section_title
;
Structure prediction by ZEFSAII (Michael W. Deem and Ramdas Pophale) SiO2 
 PCOD9155303
Probable space group: P 2/M
;
_chemical_formula_sum "Si O2"
_cell_formula_units_Z 28
_cell_length_a 15.000000
_cell_length_b 9.000000
_cell_length_c 18.000000
_cell_angle_alpha 90.000000
_cell_angle_beta 140.000000
_cell_angle_gamma 90.000000
_cell_volume 1561.973892
_symmetry_space_group_name_H-M "P 2/M"
_symmetry_group_IT_number 10
_symmetry_cell_setting 'monoclinic'
loop_
_space_group_symop_operation_xyz
x,y,z
-x,y,-z
-x,-y,-z
x,-y,z
loop_
_atom_site_type_symbol
_atom_site_label
_atom_site_fract_x
_atom_site_fract_y
_atom_site_fract_z
Si Si1 0.765537 0.679295 0.728837
Si Si2 0.146839 0.821235 0.632900
Si Si3 0.251736 0.321239 0.446251
Si Si4 0.314041 0.679167 0.159497
Si Si5 0.950701 0.822371 0.268789
Si Si6 0.615149 0.320577 0.314864
Si Si7 0.068953 0.177115 0.911762
O O1 0.779558 0.500000 0.737430
O O2 0.704137 0.723565 0.609100
O O3 0.682945 0.718287 0.750806
O O4 0.918520 0.750655 0.829485
O O5 0.134712 0.779660 0.712284
O O6 0.275714 0.748651 0.672629
O O7 0.000000 0.780095 0.500000
O O8 0.159348 0.000000 0.635504
O O9 0.247234 0.500000 0.444020
O O10 0.342706 0.275251 0.574369
O O11 0.098636 0.258296 0.363293
O O12 0.301802 0.500000 0.147446
O O13 0.454229 0.722686 0.205982
O O14 0.181202 0.753664 0.037929
O O15 0.889629 0.792448 0.148027
O O16 0.974468 0.000000 0.289055
O O17 0.624184 0.500000 0.315580
O O18 0.059317 0.000000 0.915278
#
# Coordination Sequence:
#
# PCOD9155303 Si02
#       7
#     4   4   4   4   4   4   4
#     4   9  18  33  54  76 100 134 171 207 249 298
#     4  10  19  33  55  78 100 131 167 203 251 308
#     4   9  17  30  50  77 103 129 165 206 250 296
#     4  10  21  36  51  71 104 141 172 204 247 298
#     4   9  18  33  52  76 102 128 163 208 254 298
#     4  10  21  34  50  76 107 135 166 207 251 297
#     4  10  20  34  54  77 101 130 170 215 251 290
#
# _framework density 17.926036
#
# number of rings (size 3 to 8) (size 9 to 14) (size 15 to 20)
#    0.000    2.429    1.429    0.857    0.000    4.857 
#    0.000    3.571    0.000    4.286    0.000    6.000 
#    0.000    0.000    0.000    0.000    0.000    0.000 
#
# Total GULP energy -156095.737720 kJ/mol
# GULP energy per Si atom -5574.847776 kJ/mol
# Density = 1.788524 g / cm^3
# Si number density = 17.926036 Si / 1000 Ang^3
#
#
#
# Elastic Constant Matrix: (Units=GPa)
#
#
# Indices 1 2 3 4 5 6 
#
# 1 110.0560 14.7623 5.1100 0.0000 -6.8862 0.0000
# 2 14.7623 1.6221 -1.0856 0.0000 -3.7185 0.0000
# 3 5.1100 -1.0856 10.0669 0.0000 -7.1769 0.0000
# 4 0.0000 0.0000 0.0000 -3.6623 0.0000 -16.9866
# 5 -6.8862 -3.7185 -7.1769 0.0000 21.7181 0.0000
# 6 0.0000 0.0000 0.0000 -16.9866 0.0000 17.5755
#
#
#
# Elastic Compliance Matrix: (Units=1/GPa)
#
#
# Indices 1 2 3 4 5 6 
#
# 1 -0.001630 0.081336 0.025063 0.000000 0.021692 0.000000
# 2 0.081336 -0.601906 -0.210990 0.000000 -0.146992 0.000000
# 3 0.025063 -0.210990 0.057261 0.000000 -0.009256 0.000000
# 4 0.000000 0.000000 0.000000 -0.049801 0.000000 -0.048133
# 5 0.021692 -0.146992 -0.009256 0.000000 0.024696 0.000000
# 6 0.000000 0.000000 0.000000 -0.048133 0.000000 0.010377
#
#
# Mechanical properties :
#
#
# Convention : Reuss Voigt Hill
#
# Bulk Modulus (GPa) = -1.32370 17.70206 8.18918
# Shear Modulus (GPa) = -8.28307 13.99013 2.85353
#
# Velocity S-wave (km/s) = -2.15191 2.79666 1.26305
# Velocity P-wave (km/s) = 2.62951 4.50831 2.58946
#
# Compressibility (1/GPa) = -0.75545757
#
# Stress axis : x y z
#
# Youngs Moduli (GPa) = -613.44358 -1.66139 17.46401
#
# Poissons Ratio (x) = 0.13513 -0.43770
# Poissons Ratio (y) = 49.89491 3.68473
# Poissons Ratio (z) = 15.37489 -0.35054
#
# Static dielectric constant tensor:
#      x y z
#    x 1.610740 0.000000 -0.034640 
#    y 0.000000 1.600620 0.000000 
#    z -0.034640 0.000000 1.618180 
# 
# From -- ./inp_files/54724.got.cif
#   From: 2010.05.17/outbox.ucp.g08.bks.cvg/sg10_28_cif.got.tgz:54724.got - 2010.06.11 11:31:16.
