data_PCOD9155989
_publ_section_title
;
Structure prediction by ZEFSAII (Michael W. Deem and Ramdas Pophale) SiO2 
 PCOD9155989
Probable space group: P 21/M
;
_chemical_formula_sum "Si O2"
_cell_formula_units_Z 32
_cell_length_a 15.155553
_cell_length_b 14.426161
_cell_length_c 7.552453
_cell_angle_alpha 90.000000
_cell_angle_beta 53.887026
_cell_angle_gamma 90.000000
_cell_volume 1333.966086
_symmetry_space_group_name_H-M "P 21/M"
_symmetry_group_IT_number 11
_symmetry_cell_setting 'monoclinic'
loop_
_space_group_symop_operation_xyz
x,y,z
-x,1/2+y,-z
-x,-y,-z
x,1/2-y,z
loop_
_atom_site_type_symbol
_atom_site_label
_atom_site_fract_x
_atom_site_fract_y
_atom_site_fract_z
Si Si1 0.727905 0.856435 0.371064
Si Si2 0.610252 0.147223 0.174639
Si Si3 0.737979 0.933554 0.722678
Si Si4 0.420452 0.440339 0.750536
Si Si5 0.030288 0.136925 0.427213
Si Si6 0.970168 0.636560 0.980077
Si Si7 0.583274 0.419313 0.830470
Si Si8 0.134152 0.861000 0.081063
O O1 0.728150 0.750000 0.318188
O O2 0.699666 0.865773 0.610885
O O3 0.642410 0.904430 0.345126
O O4 0.851393 0.891650 0.194020
O O5 0.581281 0.250000 0.278754
O O6 0.329251 0.073923 0.015475
O O7 0.591499 0.149715 0.984499
O O8 0.737276 0.125097 0.064300
O O9 0.861580 0.908438 0.619196
O O10 0.701981 0.032532 0.681598
O O11 0.556719 0.050501 0.296719
O O12 0.528279 0.392455 0.709861
O O13 0.042997 0.250000 0.420440
O O14 0.927342 0.109046 0.668159
O O15 0.017680 0.109992 0.238176
O O16 0.972219 0.750000 0.981790
O O17 0.066976 0.602407 0.992522
O O18 0.500000 0.500000 0.000000
O O19 0.121879 0.750000 0.090910
#
# Coordination Sequence:
#
# PCOD9155989 Si02
#       8
#     4   4   4   4   4   4   4   4
#     4  11  21  33  58  90 119 153 192 235 294 356
#     4   9  18  37  63  84 110 158 203 235 283 350
#     4  10  18  33  56  79 112 151 186 231 292 344
#     4  10  22  41  60  85 121 153 190 250 299 334
#     4  10  17  28  51  80 112 149 186 232 288 342
#     4   9  17  29  48  79 115 149 184 228 282 340
#     4   8  19  38  58  80 111 147 186 244 298 334
#     4   9  17  31  52  79 114 150 187 231 282 340
#
# _framework density 23.988614999999999
#
# number of rings (size 3 to 8) (size 9 to 14) (size 15 to 20)
#    0.000    2.750    2.500    0.375    0.000    1.500 
#    0.000   15.625    0.000    6.000    0.000    0.000 
#    0.000    0.000    0.000    0.000    0.000    0.000 
#
# Total GULP energy -178768.347950 kJ/mol
# GULP energy per Si atom -5586.510873 kJ/mol
# Density = 2.393402 g / cm^3
# Si number density = 23.988615 Si / 1000 Ang^3
#
#
#
# Elastic Constant Matrix: (Units=GPa)
#
#
# Indices 1 2 3 4 5 6 
#
# 1 157.3702 45.0409 57.6768 0.0000 36.5964 0.0000
# 2 45.0409 99.3949 20.6476 0.0000 5.5266 0.0000
# 3 57.6768 20.6476 79.9685 0.0000 20.0460 0.0000
# 4 0.0000 0.0000 0.0000 21.4214 0.0000 10.0047
# 5 36.5964 5.5266 20.0460 0.0000 34.8197 0.0000
# 6 0.0000 0.0000 0.0000 10.0047 0.0000 20.1133
#
#
#
# Elastic Compliance Matrix: (Units=1/GPa)
#
#
# Indices 1 2 3 4 5 6 
#
# 1 0.011133 -0.003538 -0.005053 0.000000 -0.008230 0.000000
# 2 -0.003538 0.011756 -0.001108 0.000000 0.002490 0.000000
# 3 -0.005053 -0.001108 0.017600 0.000000 -0.004646 0.000000
# 4 0.000000 0.000000 0.000000 0.060809 0.000000 -0.030247
# 5 -0.008230 0.002490 -0.004646 0.000000 0.039649 0.000000
# 6 0.000000 0.000000 0.000000 -0.030247 0.000000 0.064764
#
#
# Mechanical properties :
#
#
# Convention : Reuss Voigt Hill
#
# Bulk Modulus (GPa) = 47.41275 64.82939 56.12107
# Shear Modulus (GPa) = 21.53891 29.49544 25.51718
#
# Velocity S-wave (km/s) = 2.99972 3.51031 3.26501
# Velocity P-wave (km/s) = 5.63962 6.59647 6.13672
#
# Compressibility (1/GPa) = 0.02109137
#
# Stress axis : x y z
#
# Youngs Moduli (GPa) = 89.82433 85.06552 56.81818
#
# Poissons Ratio (x) = 0.30092 0.28710
# Poissons Ratio (y) = 0.31776 0.06296
# Poissons Ratio (z) = 0.45388 0.09426
#
# Static dielectric constant tensor:
#      x y z
#    x 1.922730 0.000000 -0.011260 
#    y 0.000000 1.959160 0.000000 
#    z -0.011260 0.000000 2.005470 
# 
# From -- ./inp_files/18961.got.cif
#   From: 2010.05.17/outbox.cif.g08.bks.cpg/sg11_10_cif.got.tgz:18961.got - 2010.06.03 12:22:45.
