data_PCOD9155089
_publ_section_title
;
Structure prediction by ZEFSAII (Michael W. Deem and Ramdas Pophale) SiO2 
 PCOD9155089
Probable space group: P 2/M
;
_chemical_formula_sum "Si O2"
_cell_formula_units_Z 20
_cell_length_a 5.249711
_cell_length_b 11.276451
_cell_length_c 16.041499
_cell_angle_alpha 90.000000
_cell_angle_beta 65.813955
_cell_angle_gamma 90.000000
_cell_volume 866.268132
_symmetry_space_group_name_H-M "P 2/M"
_symmetry_group_IT_number 10
_symmetry_cell_setting 'monoclinic'
loop_
_space_group_symop_operation_xyz
x,y,z
-x,y,-z
-x,-y,-z
x,-y,z
loop_
_atom_site_type_symbol
_atom_site_label
_atom_site_fract_x
_atom_site_fract_y
_atom_site_fract_z
Si Si1 0.181296 0.141930 0.051854
Si Si2 0.091007 0.871849 0.583644
Si Si3 0.462648 0.372364 0.235075
Si Si4 0.332506 0.132129 0.208141
Si Si5 0.800290 0.627914 0.360689
O O1 0.122502 0.155389 0.158718
O O2 0.185112 0.000000 0.040584
O O3 0.500000 0.184642 0.000000
O O4 0.000000 0.190518 0.000000
O O5 0.243615 0.749546 0.584231
O O6 0.000000 0.868969 0.500000
O O7 0.828507 0.872099 0.682536
O O8 0.232568 0.000000 0.581531
O O9 0.543180 0.500000 0.185254
O O10 0.529718 0.246559 0.184277
O O11 0.601762 0.370187 0.307232
O O12 0.125568 0.372256 0.288712
O O13 0.459741 0.000000 0.178153
O O14 0.761274 0.500000 0.409771
#
# Coordination Sequence:
#
# PCOD9155089 Si02
#       5
#     4   4   4   4   4
#     4   9  18  32  51  77 105 132 170 220 266 309
#     4   9  18  33  53  80 113 145 178 218 264 316
#     4   9  18  33  53  77 105 137 174 218 265 311
#     4   9  18  33  55  80 107 142 179 217 266 319
#     4   9  18  33  52  74 102 139 181 220 258 305
#
# _framework density 23.087541999999999
#
# number of rings (size 3 to 8) (size 9 to 14) (size 15 to 20)
#    0.000    3.000    0.000    0.000    0.000    4.400 
#    0.000   10.000    0.000   22.800    0.000    0.000 
#    0.000    0.000    0.000    0.000    0.000    0.000 
#
# Total GULP energy -111413.704697 kJ/mol
# GULP energy per Si atom -5570.685235 kJ/mol
# Density = 2.303499 g / cm^3
# Si number density = 23.087542 Si / 1000 Ang^3
#
#
#
# Elastic Constant Matrix: (Units=GPa)
#
#
# Indices 1 2 3 4 5 6 
#
# 1 79.3542 13.7436 35.0118 0.0000 19.5246 0.0000
# 2 13.7436 270.0823 26.5007 0.0000 26.2016 0.0000
# 3 35.0118 26.5007 132.8072 0.0000 13.5170 0.0000
# 4 0.0000 0.0000 0.0000 12.4723 0.0000 11.7915
# 5 19.5246 26.2016 13.5170 0.0000 34.5263 0.0000
# 6 0.0000 0.0000 0.0000 11.7915 0.0000 -41.1109
#
#
#
# Elastic Compliance Matrix: (Units=1/GPa)
#
#
# Indices 1 2 3 4 5 6 
#
# 1 0.016037 0.000295 -0.003479 0.000000 -0.007930 0.000000
# 2 0.000295 0.004036 -0.000577 0.000000 -0.003003 0.000000
# 3 -0.003479 -0.000577 0.008663 0.000000 -0.000986 0.000000
# 4 0.000000 0.000000 0.000000 0.063074 0.000000 0.018091
# 5 -0.007930 -0.003003 -0.000986 0.000000 0.036113 0.000000
# 6 0.000000 0.000000 0.000000 0.018091 0.000000 -0.019136
#
#
# Mechanical properties :
#
#
# Convention : Reuss Voigt Hill
#
# Bulk Modulus (GPa) = 47.14541 70.30621 58.72581
# Shear Modulus (GPa) = 40.52486 28.31005 34.41745
#
# Velocity S-wave (km/s) = 4.19414 3.50552 3.86520
# Velocity P-wave (km/s) = 6.62714 6.84858 6.73877
#
# Compressibility (1/GPa) = 0.02121097
#
# Stress axis : x y z
#
# Youngs Moduli (GPa) = 62.35548 247.79619 115.43984
#
# Poissons Ratio (x) = -0.07302 0.40167
# Poissons Ratio (y) = -0.01838 0.06664
# Poissons Ratio (z) = 0.21697 0.14305
#
# Static dielectric constant tensor:
#      x y z
#    x 1.906960 0.000000 -0.044020 
#    y 0.000000 1.958720 0.000000 
#    z -0.044020 0.000000 1.866610 
# 
# From -- ./inp_files/8870.got.cif
#   From: 2010.05.17/outbox.cif.g08.bks.cpg/sg10_5_cif.got.tgz:8870.got - 2010.06.03 11:33:40.
