data_PCOD9155735
_publ_section_title
;
Structure prediction by ZEFSAII (Michael W. Deem and Ramdas Pophale) SiO2 
 PCOD9155735
Probable space group: P 21/M
;
_chemical_formula_sum "Si O2"
_cell_formula_units_Z 24
_cell_length_a 10.825724
_cell_length_b 13.938990
_cell_length_c 8.070354
_cell_angle_alpha 90.000000
_cell_angle_beta 47.937704
_cell_angle_gamma 90.000000
_cell_volume 904.125397
_symmetry_space_group_name_H-M "P 21/M"
_symmetry_group_IT_number 11
_symmetry_cell_setting 'monoclinic'
loop_
_space_group_symop_operation_xyz
x,y,z
-x,1/2+y,-z
-x,-y,-z
x,1/2-y,z
loop_
_atom_site_type_symbol
_atom_site_label
_atom_site_fract_x
_atom_site_fract_y
_atom_site_fract_z
Si Si1 0.401296 0.401635 0.281868
Si Si2 0.214248 0.923536 0.163383
Si Si3 0.151835 0.571140 0.878297
Si Si4 0.625873 0.888402 0.314002
Si Si5 0.173299 0.353626 0.185193
Si Si6 0.719744 0.113238 0.553175
O O1 0.587093 0.428351 0.054038
O O2 0.392774 0.357708 0.476418
O O3 0.315862 0.351434 0.202119
O O4 0.299024 0.499463 0.397802
O O5 0.130203 0.030747 0.242072
O O6 0.208691 0.860825 0.333166
O O7 0.142081 0.876868 0.061775
O O8 0.318402 0.501932 0.726980
O O9 0.160190 0.633181 0.706735
O O10 0.000000 0.500000 0.000000
O O11 0.460747 0.862112 0.357517
O O12 0.763549 0.851318 0.062128
O O13 0.088239 0.250000 0.287830
#
# Coordination Sequence:
#
# PCOD9155735 Si02
#       6
#     4   4   4   4   4   4
#     4  10  15  28  50  69  88 126 155 186 239 289
#     4  10  17  30  51  68  96 127 157 192 250 277
#     4  10  19  27  42  74 104 112 153 201 234 280
#     4  10  17  30  51  69  95 126 156 188 250 284
#     4  10  19  27  42  74 102 117 155 203 238 277
#     4  10  15  28  50  70  87 129 152 188 242 292
#
# _framework density 26.544989999999999
#
# number of rings (size 3 to 8) (size 9 to 14) (size 15 to 20)
#    0.000    2.000    6.667    2.000    0.000    1.333 
#    0.000    0.000    0.000    0.000    0.000    9.333 
#    0.000    0.000    0.000    0.000    0.000    0.000 
#
# Total GULP energy -133603.001783 kJ/mol
# GULP energy per Si atom -5566.791741 kJ/mol
# Density = 2.648457 g / cm^3
# Si number density = 26.544990 Si / 1000 Ang^3
#
#
#
# Elastic Constant Matrix: (Units=GPa)
#
#
# Indices 1 2 3 4 5 6 
#
# 1 128.0682 21.7351 88.4108 0.0000 48.4937 0.0000
# 2 21.7351 119.9514 34.5989 0.0000 8.7514 0.0000
# 3 88.4108 34.5989 141.2865 0.0000 40.4465 0.0000
# 4 0.0000 0.0000 0.0000 -9.2704 0.0000 -12.2595
# 5 48.4937 8.7514 40.4465 0.0000 70.7578 0.0000
# 6 0.0000 0.0000 0.0000 -12.2595 0.0000 -23.0088
#
#
#
# Elastic Compliance Matrix: (Units=1/GPa)
#
#
# Indices 1 2 3 4 5 6 
#
# 1 0.015709 -0.000076 -0.008049 0.000000 -0.006155 0.000000
# 2 -0.000076 0.008973 -0.002208 0.000000 0.000204 0.000000
# 3 -0.008049 -0.002208 0.013150 0.000000 -0.001727 0.000000
# 4 0.000000 0.000000 0.000000 -0.365190 0.000000 0.194580
# 5 -0.006155 0.000204 -0.001727 0.000000 0.019313 0.000000
# 6 0.000000 0.000000 0.000000 0.194580 0.000000 -0.147138
#
#
# Mechanical properties :
#
#
# Convention : Reuss Voigt Hill
#
# Bulk Modulus (GPa) = 58.25932 75.42174 66.84053
# Shear Modulus (GPa) = -11.66056 23.99980 6.16962
#
# Velocity S-wave (km/s) = -2.09816 3.01012 1.52619
# Velocity P-wave (km/s) = 4.01563 6.36832 5.32357
#
# Compressibility (1/GPa) = 0.01716463
#
# Stress axis : x y z
#
# Youngs Moduli (GPa) = 63.65942 111.45160 76.04669
#
# Poissons Ratio (x) = 0.00843 0.61211
# Poissons Ratio (y) = 0.00481 0.16795
# Poissons Ratio (z) = 0.51240 0.24614
#
# Static dielectric constant tensor:
#      x y z
#    x 2.183980 0.000000 0.021620 
#    y 0.000000 2.123660 0.000000 
#    z 0.021620 0.000000 2.200780 
# 
# From -- ./inp_files/18549.got.cif
#   From: 2010.05.17/outbox.cif.g08.bks.cpg/sg11_10_cif.got.tgz:18549.got - 2010.06.03 12:22:45.
