data_PCOD9155118
_publ_section_title
;
Structure prediction by ZEFSAII (Michael W. Deem and Ramdas Pophale) SiO2 
 PCOD9155118
Probable space group: P 2/M
;
_chemical_formula_sum "Si O2"
_cell_formula_units_Z 28
_cell_length_a 12.000000
_cell_length_b 18.000000
_cell_length_c 21.000000
_cell_angle_alpha 90.000000
_cell_angle_beta 160.000000
_cell_angle_gamma 90.000000
_cell_volume 1551.403370
_symmetry_space_group_name_H-M "P 2/M"
_symmetry_group_IT_number 10
_symmetry_cell_setting 'monoclinic'
loop_
_space_group_symop_operation_xyz
x,y,z
-x,y,-z
-x,-y,-z
x,-y,z
loop_
_atom_site_type_symbol
_atom_site_label
_atom_site_fract_x
_atom_site_fract_y
_atom_site_fract_z
Si Si1 0.633474 0.311012 0.290017
Si Si2 0.672611 0.085027 0.366034
Si Si3 0.331774 0.721661 0.266886
Si Si4 0.931783 0.416149 0.039631
Si Si5 0.329624 0.850592 0.497037
Si Si6 0.312721 0.823411 0.072796
Si Si7 0.997623 0.911877 0.796502
O O1 0.483109 0.287108 0.277804
O O2 0.418154 0.376413 0.144586
O O3 0.596995 0.238376 0.226129
O O4 0.000000 0.332925 0.500000
O O5 0.735887 0.124435 0.466610
O O6 0.391416 0.123449 0.173988
O O7 0.000000 0.087967 0.500000
O O8 0.587096 0.000000 0.332638
O O9 0.571264 0.763912 0.443924
O O10 0.193681 0.640569 0.210081
O O11 0.015940 0.775468 0.093525
O O12 0.941580 0.500000 0.068967
O O13 0.000000 0.418169 0.000000
O O14 0.652152 0.895292 0.646490
O O15 0.050811 0.872533 0.297710
O O16 0.265304 0.872240 0.984344
O O17 0.047765 0.000000 0.817245
#
# Coordination Sequence:
#
# PCOD9155118 Si02
#       7
#     4   4   4   4   4   4   4
#     4  10  18  29  48  73 101 132 167 208 251 301
#     4  11  22  33  49  72  99 132 170 216 271 315
#     4   9  18  30  50  72  96 131 170 203 252 301
#     4   8  15  28  46  73 106 132 157 198 251 303
#     4  10  19  33  50  71  98 130 168 218 262 307
#     4  10  19  32  49  71  94 130 172 216 250 300
#     4  10  20  33  50  71  96 130 174 225 268 300
#
# _framework density 18.048175000000001
#
# number of rings (size 3 to 8) (size 9 to 14) (size 15 to 20)
#    0.000    2.286    1.429    3.857    2.000    0.286 
#    0.000    2.857    0.000    2.571    0.000   18.000 
#    0.000    0.000    0.000   39.286    0.000    0.000 
#
# Total GULP energy -156140.261146 kJ/mol
# GULP energy per Si atom -5576.437898 kJ/mol
# Density = 1.800710 g / cm^3
# Si number density = 18.048175 Si / 1000 Ang^3
#
#
#
# Elastic Constant Matrix: (Units=GPa)
#
#
# Indices 1 2 3 4 5 6 
#
# 1 49.8821 32.0073 29.3986 0.0000 -27.6052 0.0000
# 2 32.0073 165.4526 57.3159 0.0000 -17.2739 0.0000
# 3 29.3986 57.3159 54.8792 0.0000 -20.4154 0.0000
# 4 0.0000 0.0000 0.0000 16.9907 0.0000 -5.5177
# 5 -27.6052 -17.2739 -20.4154 0.0000 22.8780 0.0000
# 6 0.0000 0.0000 0.0000 -5.5177 0.0000 13.1512
#
#
#
# Elastic Compliance Matrix: (Units=1/GPa)
#
#
# Indices 1 2 3 4 5 6 
#
# 1 0.063935 -0.003498 -0.004312 0.000000 0.070657 0.000000
# 2 -0.003498 0.009759 -0.010699 0.000000 -0.006400 0.000000
# 3 -0.004312 -0.010699 0.040066 0.000000 0.022472 0.000000
# 4 0.000000 0.000000 0.000000 0.068139 0.000000 0.028588
# 5 0.070657 -0.006400 0.022472 0.000000 0.144188 0.000000
# 6 0.000000 0.000000 0.000000 0.028588 0.000000 0.088033
#
#
# Mechanical properties :
#
#
# Convention : Reuss Voigt Hill
#
# Bulk Modulus (GPa) = 13.03065 56.40637 34.71851
# Shear Modulus (GPa) = 10.48838 20.70347 15.59592
#
# Velocity S-wave (km/s) = 2.41328 3.39059 2.94279
# Velocity P-wave (km/s) = 3.87309 6.83003 5.55203
#
# Compressibility (1/GPa) = 0.07674212
#
# Stress axis : x y z
#
# Youngs Moduli (GPa) = 15.64084 102.47006 24.95909
#
# Poissons Ratio (x) = 0.35843 0.10762
# Poissons Ratio (y) = 0.05471 0.26704
# Poissons Ratio (z) = 0.06744 1.09635
#
# Static dielectric constant tensor:
#      x y z
#    x 1.620820 0.000000 0.017490 
#    y 0.000000 1.639950 0.000000 
#    z 0.017490 0.000000 1.652640 
# 
# From -- ./inp_files/84230.got.cif
#   From: 2010.05.17/outbox.ucp.g08.bks.cvg/sg10_43_cif.got.tgz:84230.got - 2010.06.11 11:31:16.
