data_PCOD9155175
_publ_section_title
;
Structure prediction by ZEFSAII (Michael W. Deem and Ramdas Pophale) SiO2 
 PCOD9155175
Probable space group: P 2/M
;
_chemical_formula_sum "Si O2"
_cell_formula_units_Z 32
_cell_length_a 24.000000
_cell_length_b 9.000000
_cell_length_c 15.000000
_cell_angle_alpha 90.000000
_cell_angle_beta 150.000000
_cell_angle_gamma 90.000000
_cell_volume 1620.000000
_symmetry_space_group_name_H-M "P 2/M"
_symmetry_group_IT_number 10
_symmetry_cell_setting 'monoclinic'
loop_
_space_group_symop_operation_xyz
x,y,z
-x,y,-z
-x,-y,-z
x,-y,z
loop_
_atom_site_type_symbol
_atom_site_label
_atom_site_fract_x
_atom_site_fract_y
_atom_site_fract_z
Si Si1 0.023576 0.323647 0.179658
Si Si2 0.383317 0.181241 0.295480
Si Si3 0.020701 0.176708 0.693414
Si Si4 0.264599 0.820060 0.956846
Si Si5 0.385976 0.322324 0.791030
Si Si6 0.738346 0.175094 0.533490
Si Si7 0.198093 0.824490 0.181808
Si Si8 0.224753 0.177353 0.706700
O O1 0.033373 0.500000 0.184136
O O2 0.141716 0.247084 0.322782
O O3 0.994077 0.273328 0.238943
O O4 0.918156 0.263204 0.977151
O O5 0.500000 0.232143 0.500000
O O6 0.277576 0.221353 0.210566
O O7 0.387205 0.000000 0.300138
O O8 0.352722 0.231508 0.153054
O O9 0.138062 0.214774 0.811116
O O10 0.909062 0.197153 0.480269
O O11 0.025022 0.000000 0.722751
O O12 0.277042 0.770725 0.872533
O O13 0.270814 0.000000 0.963650
O O14 0.385158 0.500000 0.782278
O O15 0.360235 0.249885 0.659499
O O16 0.283293 0.265269 0.708784
O O17 0.500000 0.277549 0.000000
O O18 0.731078 0.192086 0.629790
O O19 0.742077 0.000000 0.517043
O O20 0.171122 0.000000 0.134664
O O21 0.244290 0.000000 0.722183
#
# Coordination Sequence:
#
# PCOD9155175 Si02
#       8
#     4   4   4   4   4   4   4   4
#     4  12  23  35  57  87 120 156 191 232 289 355
#     4   9  17  31  54  84 115 146 184 233 284 333
#     4  10  18  33  57  84 116 150 186 234 290 343
#     4   9  17  31  55  86 118 148 184 233 289 343
#     4  11  25  43  60  81 116 160 198 238 291 346
#     4  11  23  39  62  89 115 149 194 246 293 339
#     4  10  21  38  60  87 118 152 192 240 291 343
#     4  10  20  34  59  89 113 146 192 241 288 339
#
# _framework density 19.753086
#
# number of rings (size 3 to 8) (size 9 to 14) (size 15 to 20)
#    0.000    1.750    2.500    2.625    0.000    6.000 
#    0.000    3.125    0.000    1.875    0.000    0.000 
#    0.000    0.000    0.000    0.000    0.000    0.000 
#
# Total GULP energy -178691.114047 kJ/mol
# GULP energy per Si atom -5584.097314 kJ/mol
# Density = 1.970813 g / cm^3
# Si number density = 19.753086 Si / 1000 Ang^3
#
#
#
# Elastic Constant Matrix: (Units=GPa)
#
#
# Indices 1 2 3 4 5 6 
#
# 1 26.8338 4.8534 5.0299 0.0000 -22.0970 0.0000
# 2 4.8534 52.4133 31.7277 0.0000 -9.9789 0.0000
# 3 5.0299 31.7277 136.7366 0.0000 -22.0067 0.0000
# 4 0.0000 0.0000 0.0000 22.0206 0.0000 -8.3024
# 5 -22.0970 -9.9789 -22.0067 0.0000 32.6532 0.0000
# 6 0.0000 0.0000 0.0000 -8.3024 0.0000 -19.3709
#
#
#
# Elastic Compliance Matrix: (Units=1/GPa)
#
#
# Indices 1 2 3 4 5 6 
#
# 1 0.090236 -0.000251 0.007352 0.000000 0.065942 0.000000
# 2 -0.000251 0.022607 -0.004657 0.000000 0.003600 0.000000
# 3 0.007352 -0.004657 0.009753 0.000000 0.010125 0.000000
# 4 0.000000 0.000000 0.000000 0.039095 0.000000 -0.016756
# 5 0.065942 0.003600 0.010125 0.000000 0.083173 0.000000
# 6 0.000000 0.000000 0.000000 -0.016756 0.000000 -0.044442
#
#
# Mechanical properties :
#
#
# Convention : Reuss Voigt Hill
#
# Bulk Modulus (GPa) = 7.84421 33.24509 20.54465
# Shear Modulus (GPa) = 21.00593 18.68542 19.84568
#
# Velocity S-wave (km/s) = 3.26456 3.07897 3.17312
# Velocity P-wave (km/s) = 4.26492 5.43203 4.88346
#
# Compressibility (1/GPa) = 0.12748260
#
# Stress axis : x y z
#
# Youngs Moduli (GPa) = 11.08209 44.23445 102.53260
#
# Poissons Ratio (x) = 0.01112 -0.75380
# Poissons Ratio (y) = 0.00279 0.47749
# Poissons Ratio (z) = -0.08147 0.20600
#
# Static dielectric constant tensor:
#      x y z
#    x 1.711380 0.000000 -0.038430 
#    y 0.000000 1.658860 0.000000 
#    z -0.038430 0.000000 1.710730 
# 
# From -- ./inp_files/71640.got.cif
#   From: 2010.05.17/outbox.ucp.g08.bks.cvg/sg10_36_cif.got.tgz:71640.got - 2010.06.11 11:31:16.
