data_PCOD9155875
_publ_section_title
;
Structure prediction by ZEFSAII (Michael W. Deem and Ramdas Pophale) SiO2 
 PCOD9155875
Probable space group: P 21/M
;
_chemical_formula_sum "Si O2"
_cell_formula_units_Z 32
_cell_length_a 18.060422
_cell_length_b 7.957863
_cell_length_c 20.305504
_cell_angle_alpha 90.000000
_cell_angle_beta 138.445763
_cell_angle_gamma 90.000000
_cell_volume 1935.828721
_symmetry_space_group_name_H-M "P 21/M"
_symmetry_group_IT_number 11
_symmetry_cell_setting 'monoclinic'
loop_
_space_group_symop_operation_xyz
x,y,z
-x,1/2+y,-z
-x,-y,-z
x,1/2-y,z
loop_
_atom_site_type_symbol
_atom_site_label
_atom_site_fract_x
_atom_site_fract_y
_atom_site_fract_z
Si Si1 0.918345 0.049282 0.887112
Si Si2 0.903409 0.558009 0.734181
Si Si3 0.889384 0.547840 0.385565
Si Si4 0.762218 0.954474 0.423720
Si Si5 0.446452 0.055354 0.636114
Si Si6 0.337136 0.544055 0.282196
Si Si7 0.343260 0.943169 0.434201
Si Si8 0.015503 0.549287 0.346678
O O1 0.915781 0.250000 0.879858
O O2 0.790347 0.991504 0.814497
O O3 0.953097 0.978160 0.839026
O O4 0.000000 0.000000 0.000000
O O5 0.865372 0.750000 0.706349
O O6 0.791531 0.448291 0.652219
O O7 0.982313 0.524357 0.724794
O O8 0.881945 0.750000 0.377217
O O9 0.790068 0.489837 0.367510
O O10 0.000000 0.500000 0.500000
O O11 0.917479 0.487139 0.330641
O O12 0.760555 0.750000 0.424061
O O13 0.645910 0.018913 0.376239
O O14 0.866045 0.006810 0.539263
O O15 0.460236 0.250000 0.664368
O O16 0.570240 0.983241 0.707715
O O17 0.391851 0.045755 0.527117
O O18 0.338954 0.750000 0.283676
O O19 0.370299 0.493079 0.378790
O O20 0.379925 0.750000 0.465300
O O21 0.008159 0.750000 0.336980
#
# Coordination Sequence:
#
# PCOD9155875 Si02
#       8
#     4   4   4   4   4   4   4   4
#     4  10  20  36  53  68  87 110 139 176 219 264
#     4  11  20  30  45  65  86 112 147 182 218 259
#     4   8  15  25  36  53  78 112 147 180 213 247
#     4   9  16  25  38  57  83 115 151 181 209 248
#     4  10  17  26  41  60  85 116 147 177 208 246
#     4   8  17  30  43  61  84 111 141 174 211 253
#     4  10  18  28  40  57  85 116 147 181 214 247
#     4  10  17  26  40  57  83 114 147 183 218 251
#
# _framework density 16.530387999999999
#
# number of rings (size 3 to 8) (size 9 to 14) (size 15 to 20)
#    0.000    2.500    1.250    3.375    0.000    0.500 
#    0.000    3.125    0.000    0.000    0.000    0.000 
#    0.000    1.000    0.000    1.750    0.000    2.500 
#
# Total GULP energy -178262.936721 kJ/mol
# GULP energy per Si atom -5570.716773 kJ/mol
# Density = 1.649276 g / cm^3
# Si number density = 16.530388 Si / 1000 Ang^3
#
#
#
# Elastic Constant Matrix: (Units=GPa)
#
#
# Indices 1 2 3 4 5 6 
#
# 1 169.2602 8.3977 46.4665 0.0000 -19.7885 0.0000
# 2 8.3977 32.8682 1.8754 0.0000 -1.9436 0.0000
# 3 46.4665 1.8754 56.9975 0.0000 -10.3217 0.0000
# 4 0.0000 0.0000 0.0000 15.5589 0.0000 -3.8058
# 5 -19.7885 -1.9436 -10.3217 0.0000 15.2615 0.0000
# 6 0.0000 0.0000 0.0000 -3.8058 0.0000 11.2605
#
#
#
# Elastic Compliance Matrix: (Units=1/GPa)
#
#
# Indices 1 2 3 4 5 6 
#
# 1 0.008279 -0.001398 -0.005460 0.000000 0.006864 0.000000
# 2 -0.001398 0.030897 0.000578 0.000000 0.002513 0.000000
# 3 -0.005460 0.000578 0.023598 0.000000 0.008954 0.000000
# 4 0.000000 0.000000 0.000000 0.070064 0.000000 0.023680
# 5 0.006864 0.002513 0.008954 0.000000 0.080800 0.000000
# 6 0.000000 0.000000 0.000000 0.023680 0.000000 0.096809
#
#
# Mechanical properties :
#
#
# Convention : Reuss Voigt Hill
#
# Bulk Modulus (GPa) = 19.91451 41.40059 30.65755
# Shear Modulus (GPa) = 14.71685 21.90860 18.31273
#
# Velocity S-wave (km/s) = 2.98701 3.64449 3.33201
# Velocity P-wave (km/s) = 4.89588 6.54288 5.77836
#
# Compressibility (1/GPa) = 0.05021464
#
# Stress axis : x y z
#
# Youngs Moduli (GPa) = 120.78957 32.36527 42.37562
#
# Poissons Ratio (x) = 0.04524 0.23138
# Poissons Ratio (y) = 0.16884 -0.02450
# Poissons Ratio (z) = 0.65955 -0.01871
#
# Static dielectric constant tensor:
#      x y z
#    x 1.640460 0.000000 -0.010360 
#    y 0.000000 1.625790 0.000000 
#    z -0.010360 0.000000 1.514060 
# 
# From -- ./inp_files/43750.got.cif
#   From: 2010.05.17/outbox.cif.g08.bks.cpg/sg11_22_cif.got.tgz:43750.got - 2010.06.03 12:22:45.
