data_PCOD9155382
_publ_section_title
;
Structure prediction by ZEFSAII (Michael W. Deem and Ramdas Pophale) SiO2 
 PCOD9155382
Probable space group: P 2/M
;
_chemical_formula_sum "Si O2"
_cell_formula_units_Z 28
_cell_length_a 30.000000
_cell_length_b 9.000000
_cell_length_c 30.000000
_cell_angle_alpha 90.000000
_cell_angle_beta 10.000000
_cell_angle_gamma 90.000000
_cell_volume 1406.550239
_symmetry_space_group_name_H-M "P 2/M"
_symmetry_group_IT_number 10
_symmetry_cell_setting 'monoclinic'
loop_
_space_group_symop_operation_xyz
x,y,z
-x,y,-z
-x,-y,-z
x,-y,z
loop_
_atom_site_type_symbol
_atom_site_label
_atom_site_fract_x
_atom_site_fract_y
_atom_site_fract_z
Si Si1 0.677696 0.331961 0.199409
Si Si2 0.878590 0.179299 0.382606
Si Si3 0.593445 0.819935 0.091441
Si Si4 0.029227 0.833476 0.523672
Si Si5 0.546657 0.323965 0.042039
Si Si6 0.740963 0.330226 0.241800
Si Si7 0.162532 0.821958 0.678264
O O1 0.645704 0.500000 0.213375
O O2 0.711276 0.341677 0.219025
O O3 0.431221 0.233748 0.432156
O O4 0.928848 0.255144 0.933072
O O5 0.641631 0.224149 0.645960
O O6 0.851863 0.229050 0.358672
O O7 0.875788 0.000000 0.384163
O O8 0.144563 0.222536 0.142519
O O9 0.571075 0.733239 0.068015
O O10 0.589499 0.000000 0.088238
O O11 0.000000 0.847782 0.500000
O O12 0.283435 0.742836 0.283234
O O13 0.045310 0.000000 0.527877
O O14 0.783896 0.748248 0.783003
O O15 0.550323 0.500000 0.034993
O O16 0.500000 0.251718 0.500000
O O17 0.751143 0.500000 0.251577
O O18 0.000000 0.252607 0.000000
O O19 0.141691 0.000000 0.701247
#
# Coordination Sequence:
#
# PCOD9155382 Si02
#       7
#     4   4   4   4   4   4   4
#     4  11  22  37  59  88 117 148 193 244 293 344
#     4   9  19  35  58  83 108 149 200 239 275 338
#     4  10  19  36  60  83 110 150 200 242 277 332
#     4  11  24  43  66  90 118 159 208 247 283 341
#     4  12  25  40  61  93 128 157 190 241 306 357
#     4   9  17  31  53  79 107 144 191 238 280 333
#     4  11  22  39  61  86 118 155 194 236 292 355
#
# _framework density 19.906860999999999
#
# number of rings (size 3 to 8) (size 9 to 14) (size 15 to 20)
#    0.000    1.571    0.000    5.571    0.000    8.571 
#    0.000    4.286    0.000    8.571    0.000    0.000 
#    0.000    0.000    0.000    0.000    0.000    0.000 
#
# Total GULP energy -156286.825018 kJ/mol
# GULP energy per Si atom -5581.672322 kJ/mol
# Density = 1.986155 g / cm^3
# Si number density = 19.906861 Si / 1000 Ang^3
#
#
#
# Elastic Constant Matrix: (Units=GPa)
#
#
# Indices 1 2 3 4 5 6 
#
# 1 98.9829 33.3999 69.2284 0.0000 4.5341 0.0000
# 2 33.3999 81.0025 38.5581 0.0000 20.6861 0.0000
# 3 69.2284 38.5581 189.3863 0.0000 20.4667 0.0000
# 4 0.0000 0.0000 0.0000 -68.2020 0.0000 12.8400
# 5 4.5341 20.6861 20.4667 0.0000 25.7809 0.0000
# 6 0.0000 0.0000 0.0000 12.8400 0.0000 19.4154
#
#
#
# Elastic Compliance Matrix: (Units=1/GPa)
#
#
# Indices 1 2 3 4 5 6 
#
# 1 0.015177 -0.005267 -0.005079 0.000000 0.005590 0.000000
# 2 -0.005267 0.018069 -0.000313 0.000000 -0.013323 0.000000
# 3 -0.005079 -0.000313 0.007741 0.000000 -0.005001 0.000000
# 4 0.000000 0.000000 0.000000 -0.013039 0.000000 0.008623
# 5 0.005590 -0.013323 -0.005001 0.000000 0.052465 0.000000
# 6 0.000000 0.000000 0.000000 0.008623 0.000000 0.045803
#
#
# Mechanical properties :
#
#
# Convention : Reuss Voigt Hill
#
# Bulk Modulus (GPa) = 50.84904 72.41604 61.63254
# Shear Modulus (GPa) = 32.44828 10.61120 21.52974
#
# Velocity S-wave (km/s) = 4.04171 2.31128 3.29222
# Velocity P-wave (km/s) = 6.88328 6.60144 6.74383
#
# Compressibility (1/GPa) = 0.01966605
#
# Stress axis : x y z
#
# Youngs Moduli (GPa) = 65.89108 55.34410 129.18001
#
# Poissons Ratio (x) = 0.29152 0.65614
# Poissons Ratio (y) = 0.34708 0.04049
# Poissons Ratio (z) = 0.33468 0.01735
#
# Static dielectric constant tensor:
#      x y z
#    x 1.689290 0.000000 -0.002210 
#    y 0.000000 1.696800 0.000000 
#    z -0.002210 0.000000 1.713810 
# 
# From -- ./inp_files/95986.got.cif
#   From: 2010.05.17/outbox.ucp.g08.bks.cvg/sg10_48_cif.got.tgz:95986.got - 2010.06.11 11:31:16.
