data_PCOD9155073
_publ_section_title
;
Structure prediction by ZEFSAII (Michael W. Deem and Ramdas Pophale) SiO2 
 PCOD9155073
Probable space group: P 2/M
;
_chemical_formula_sum "Si O2"
_cell_formula_units_Z 20
_cell_length_a 7.921079
_cell_length_b 15.022293
_cell_length_c 15.631030
_cell_angle_alpha 90.000000
_cell_angle_beta 154.652999
_cell_angle_gamma 90.000000
_cell_volume 796.256053
_symmetry_space_group_name_H-M "P 2/M"
_symmetry_group_IT_number 10
_symmetry_cell_setting 'monoclinic'
loop_
_space_group_symop_operation_xyz
x,y,z
-x,y,-z
-x,-y,-z
x,-y,z
loop_
_atom_site_type_symbol
_atom_site_label
_atom_site_fract_x
_atom_site_fract_y
_atom_site_fract_z
Si Si1 0.530057 0.095881 0.117479
Si Si2 0.423164 0.726798 0.293491
Si Si3 0.054610 0.399638 0.256216
Si Si4 0.672466 0.706850 0.226257
Si Si5 0.561049 0.100263 0.432057
O O1 0.465596 0.200150 0.106489
O O2 0.972073 0.091243 0.359124
O O3 0.354291 0.000000 0.067120
O O4 0.500000 0.092214 0.000000
O O5 0.118676 0.671885 0.210766
O O6 0.459230 0.683828 0.217035
O O7 0.368617 0.834070 0.275283
O O8 0.866465 0.722560 0.536022
O O9 0.500000 0.402828 0.500000
O O10 0.966477 0.500000 0.187816
O O11 0.744783 0.364295 0.184841
O O12 0.500000 0.139118 0.500000
O O13 0.398260 0.000000 0.357607
#
# Coordination Sequence:
#
# PCOD9155073 Si02
#       5
#     4   4   4   4   4
#     4   9  17  29  46  69  97 128 159 191 232 282
#     4   9  16  27  44  69  96 120 154 196 235 277
#     4   9  17  29  45  67  95 122 151 194 243 283
#     4   9  17  28  45  68  93 123 157 192 233 281
#     4   9  16  27  46  70  96 127 160 194 232 277
#
# _framework density 25.117549
#
# number of rings (size 3 to 8) (size 9 to 14) (size 15 to 20)
#    0.000    3.000    0.000    3.000    0.000    1.600 
#    0.000    8.000    0.000    5.400    0.000   15.400 
#    0.000    0.000    0.000    0.000    0.000    0.000 
#
# Total GULP energy -111547.381456 kJ/mol
# GULP energy per Si atom -5577.369073 kJ/mol
# Density = 2.506038 g / cm^3
# Si number density = 25.117549 Si / 1000 Ang^3
#
#
#
# Elastic Constant Matrix: (Units=GPa)
#
#
# Indices 1 2 3 4 5 6 
#
# 1 117.6109 83.4052 15.1068 0.0000 -4.2522 0.0000
# 2 83.4052 178.3429 36.9481 0.0000 -6.4314 0.0000
# 3 15.1068 36.9481 109.9096 0.0000 17.1528 0.0000
# 4 0.0000 0.0000 0.0000 28.4310 0.0000 2.3837
# 5 -4.2522 -6.4314 17.1528 0.0000 28.9493 0.0000
# 6 0.0000 0.0000 0.0000 2.3837 0.0000 2.8807
#
#
#
# Elastic Compliance Matrix: (Units=1/GPa)
#
#
# Indices 1 2 3 4 5 6 
#
# 1 0.012734 -0.005980 0.000193 0.000000 0.000427 0.000000
# 2 -0.005980 0.009048 -0.002641 0.000000 0.002696 0.000000
# 3 0.000193 -0.002641 0.011070 0.000000 -0.007118 0.000000
# 4 0.000000 0.000000 0.000000 0.037795 0.000000 -0.031274
# 5 0.000427 0.002696 -0.007118 0.000000 0.039422 0.000000
# 6 0.000000 0.000000 0.000000 -0.031274 0.000000 0.373015
#
#
# Mechanical properties :
#
#
# Convention : Reuss Voigt Hill
#
# Bulk Modulus (GPa) = 62.50778 75.19817 68.85297
# Shear Modulus (GPa) = 9.89568 30.07909 19.98738
#
# Velocity S-wave (km/s) = 1.98703 3.46429 2.82397
# Velocity P-wave (km/s) = 5.49586 6.78272 6.17292
#
# Compressibility (1/GPa) = 0.01599801
#
# Stress axis : x y z
#
# Youngs Moduli (GPa) = 78.53029 110.52091 90.33202
#
# Poissons Ratio (x) = 0.66090 -0.01746
# Poissons Ratio (y) = 0.46960 0.23853
# Poissons Ratio (z) = -0.01518 0.29184
#
# Static dielectric constant tensor:
#      x y z
#    x 1.981290 0.000000 -0.001940 
#    y 0.000000 1.982910 0.000000 
#    z -0.001940 0.000000 2.067070 
# 
# From -- ./inp_files/75210.got.cif
#   From: 2010.05.17/outbox.cif.g08.bks.cpg/sg10_38_cif.got.tgz:75210.got - 2010.06.03 11:33:40.
