data_PCOD9155594
_publ_section_title
;
Structure prediction by ZEFSAII (Michael W. Deem and Ramdas Pophale) SiO2 
 PCOD9155594
Probable space group: P 2/M
;
_chemical_formula_sum "Si O2"
_cell_formula_units_Z 32
_cell_length_a 21.000000
_cell_length_b 9.000000
_cell_length_c 27.000000
_cell_angle_alpha 90.000000
_cell_angle_beta 160.000000
_cell_angle_gamma 90.000000
_cell_volume 1745.328791
_symmetry_space_group_name_H-M "P 2/M"
_symmetry_group_IT_number 10
_symmetry_cell_setting 'monoclinic'
loop_
_space_group_symop_operation_xyz
x,y,z
-x,y,-z
-x,-y,-z
x,-y,z
loop_
_atom_site_type_symbol
_atom_site_label
_atom_site_fract_x
_atom_site_fract_y
_atom_site_fract_z
Si Si1 0.914530 0.178307 0.344801
Si Si2 0.675577 0.321739 0.734609
Si Si3 0.344265 0.167814 0.929566
Si Si4 0.062442 0.678857 0.165200
Si Si5 0.347819 0.177606 0.670511
Si Si6 0.609871 0.324630 0.193457
Si Si7 0.334531 0.320887 0.159508
Si Si8 0.637383 0.830399 0.552558
O O1 0.838322 0.211621 0.234129
O O2 0.785749 0.259921 0.290997
O O3 0.130239 0.215676 0.505485
O O4 0.890927 0.000000 0.335256
O O5 0.667393 0.500000 0.726319
O O6 0.832968 0.276503 0.809746
O O7 0.710495 0.279565 0.816674
O O8 0.479137 0.255766 0.573718
O O9 0.327050 0.000000 0.937304
O O10 0.500000 0.161040 0.000000
O O11 0.425297 0.281010 0.028064
O O12 0.075201 0.500000 0.177763
O O13 0.176326 0.751250 0.292970
O O14 0.847009 0.720883 0.005007
O O15 0.403199 0.245543 0.763593
O O16 0.481037 0.245299 0.726251
O O17 0.364316 0.000000 0.682927
O O18 0.629220 0.500000 0.212813
O O19 0.354625 0.500000 0.172138
O O20 0.500000 0.829272 0.500000
O O21 0.671299 0.000000 0.563018
#
# Coordination Sequence:
#
# PCOD9155594 Si02
#       8
#     4   4   4   4   4   4   4   4
#     4   9  19  36  57  79 103 135 174 212 253 306
#     4   9  17  32  55  79 103 135 171 209 259 313
#     4   8  15  31  54  78 104 133 167 209 255 303
#     4   9  17  32  55  79 103 134 171 210 257 312
#     4  11  23  38  54  73 103 142 178 211 254 308
#     4  11  21  33  54  83 109 134 169 213 258 303
#     4  10  21  36  53  76 105 134 171 218 260 303
#     4   9  17  29  48  77 108 134 167 213 256 298
#
# _framework density 18.334654
#
# number of rings (size 3 to 8) (size 9 to 14) (size 15 to 20)
#    0.000    2.500    0.000    3.375    0.000    8.750 
#    0.000    1.250    0.000    6.750    0.000    0.000 
#    0.000    0.000    0.000    0.000    0.000    0.000 
#
# Total GULP energy -178441.548510 kJ/mol
# GULP energy per Si atom -5576.298391 kJ/mol
# Density = 1.829292 g / cm^3
# Si number density = 18.334654 Si / 1000 Ang^3
#
#
#
# Elastic Constant Matrix: (Units=GPa)
#
#
# Indices 1 2 3 4 5 6 
#
# 1 17.1783 8.9589 8.7855 0.0000 2.7118 0.0000
# 2 8.9589 10.9010 -3.3515 0.0000 -1.0548 0.0000
# 3 8.7855 -3.3515 -35.9557 0.0000 -33.3149 0.0000
# 4 0.0000 0.0000 0.0000 8.2759 0.0000 3.1087
# 5 2.7118 -1.0548 -33.3149 0.0000 10.3690 0.0000
# 6 0.0000 0.0000 0.0000 3.1087 0.0000 21.5109
#
#
#
# Elastic Compliance Matrix: (Units=1/GPa)
#
#
# Indices 1 2 3 4 5 6 
#
# 1 0.081665 -0.061809 0.012907 0.000000 0.013824 0.000000
# 2 -0.061809 0.136778 -0.014011 0.000000 -0.014938 0.000000
# 3 0.012907 -0.014011 -0.004753 0.000000 -0.020073 0.000000
# 4 0.000000 0.000000 0.000000 0.127768 0.000000 -0.018464
# 5 0.013824 -0.014938 -0.020073 0.000000 0.026813 0.000000
# 6 0.000000 0.000000 0.000000 -0.018464 0.000000 0.049157
#
#
# Mechanical properties :
#
#
# Convention : Reuss Voigt Hill
#
# Bulk Modulus (GPa) = 11.38134 2.32327 6.85231
# Shear Modulus (GPa) = 8.73300 6.54653 7.63976
#
# Velocity S-wave (km/s) = 2.18482 1.89165 2.04350
# Velocity P-wave (km/s) = 3.54762 2.45785 3.05177
#
# Compressibility (1/GPa) = 0.08786311
#
# Stress axis : x y z
#
# Youngs Moduli (GPa) = 12.24520 7.31110 -210.37760
#
# Poissons Ratio (x) = 0.45189 2.71534
# Poissons Ratio (y) = 0.75687 -2.94763
# Poissons Ratio (z) = -0.15805 0.10244
#
# Static dielectric constant tensor:
#      x y z
#    x 1.613960 0.000000 -0.017160 
#    y 0.000000 1.612900 0.000000 
#    z -0.017160 0.000000 1.649390 
# 
# From -- ./inp_files/93743.got.cif
#   From: 2010.05.17/outbox.ucp.g08.bks.cvg/sg10_47_cif.got.tgz:93743.got - 2010.06.11 11:31:16.
