data_PCOD9155696
_publ_section_title
;
Structure prediction by ZEFSAII (Michael W. Deem and Ramdas Pophale) SiO2 
 PCOD9155696
Probable space group: P 2/M
;
_chemical_formula_sum "Si O2"
_cell_formula_units_Z 32
_cell_length_a 30.000000
_cell_length_b 9.000000
_cell_length_c 12.000000
_cell_angle_alpha 90.000000
_cell_angle_beta 150.000000
_cell_angle_gamma 90.000000
_cell_volume 1620.000000
_symmetry_space_group_name_H-M "P 2/M"
_symmetry_group_IT_number 10
_symmetry_cell_setting 'monoclinic'
loop_
_space_group_symop_operation_xyz
x,y,z
-x,y,-z
-x,-y,-z
x,-y,z
loop_
_atom_site_type_symbol
_atom_site_label
_atom_site_fract_x
_atom_site_fract_y
_atom_site_fract_z
Si Si1 0.342482 0.177038 0.457451
Si Si2 0.401829 0.827551 0.233490
Si Si3 0.535709 0.677383 0.849827
Si Si4 0.068482 0.321772 0.552177
Si Si5 0.745656 0.678081 0.935679
Si Si6 0.852611 0.824506 0.692171
Si Si7 0.001196 0.174259 0.821717
Si Si8 0.324615 0.324657 0.655687
O O1 0.438962 0.247455 0.638502
O O2 0.268966 0.245327 0.215448
O O3 0.325840 0.227278 0.547298
O O4 0.345499 0.000000 0.451641
O O5 0.500000 0.824666 0.500000
O O6 0.408232 0.752209 0.127184
O O7 0.337065 0.733168 0.170400
O O8 0.373523 0.000000 0.165770
O O9 0.527094 0.500000 0.814679
O O10 0.589255 0.701877 0.080635
O O11 0.069833 0.500000 0.545680
O O12 0.032861 0.257305 0.360107
O O13 0.000000 0.278751 0.500000
O O14 0.165892 0.275409 0.806005
O O15 0.746043 0.500000 0.923170
O O16 0.924461 0.812826 0.749137
O O17 0.766399 0.726005 0.481944
O O18 0.829243 0.000000 0.652334
O O19 0.906227 0.776149 0.919879
O O20 0.012037 0.000000 0.819977
O O21 0.322915 0.500000 0.625187
#
# Coordination Sequence:
#
# PCOD9155696 Si02
#       8
#     4   4   4   4   4   4   4   4
#     4  12  25  42  64  91 124 163 209 255 308 370
#     4  11  23  40  64  95 127 165 213 259 310 372
#     4  11  24  42  64  91 126 165 207 254 308 368
#     4  10  24  43  63  92 128 164 207 258 312 371
#     4  11  24  42  65  92 127 168 210 259 315 373
#     4   9  20  40  63  91 123 158 202 254 311 366
#     4   9  20  40  64  90 123 160 201 252 310 368
#     4  11  25  41  62  92 124 161 208 255 308 368
#
# _framework density 19.753086
#
# number of rings (size 3 to 8) (size 9 to 14) (size 15 to 20)
#    0.000    1.500    1.250    3.750    3.500    6.250 
#    0.000    1.250    0.000    0.000    0.000    0.000 
#    0.000    0.000    0.000    0.000    0.000    0.000 
#
# Total GULP energy -178826.401479 kJ/mol
# GULP energy per Si atom -5588.325046 kJ/mol
# Density = 1.970813 g / cm^3
# Si number density = 19.753086 Si / 1000 Ang^3
#
#
#
# Elastic Constant Matrix: (Units=GPa)
#
#
# Indices 1 2 3 4 5 6 
#
# 1 44.2668 15.8750 19.1481 0.0000 -20.6987 0.0000
# 2 15.8750 73.9297 40.9807 0.0000 -14.9070 0.0000
# 3 19.1481 40.9807 94.8010 0.0000 -12.5474 0.0000
# 4 0.0000 0.0000 0.0000 26.1047 0.0000 3.5675
# 5 -20.6987 -14.9070 -12.5474 0.0000 31.1502 0.0000
# 6 0.0000 0.0000 0.0000 3.5675 0.0000 6.3725
#
#
#
# Elastic Compliance Matrix: (Units=1/GPa)
#
#
# Indices 1 2 3 4 5 6 
#
# 1 0.034302 -0.001133 -0.003690 0.000000 0.020764 0.000000
# 2 -0.001133 0.018847 -0.007208 0.000000 0.005362 0.000000
# 3 -0.003690 -0.007208 0.014396 0.000000 -0.000103 0.000000
# 4 0.000000 0.000000 0.000000 0.041481 0.000000 -0.023222
# 5 0.020764 0.005362 -0.000103 0.000000 0.048425 0.000000
# 6 0.000000 0.000000 0.000000 -0.023222 0.000000 0.169925
#
#
# Mechanical properties :
#
#
# Convention : Reuss Voigt Hill
#
# Bulk Modulus (GPa) = 22.99840 40.55611 31.77725
# Shear Modulus (GPa) = 13.66368 21.85838 17.76103
#
# Velocity S-wave (km/s) = 2.63292 3.33014 3.00184
# Velocity P-wave (km/s) = 4.57288 5.94664 5.30442
#
# Compressibility (1/GPa) = 0.04348129
#
# Stress axis : x y z
#
# Youngs Moduli (GPa) = 29.15262 53.05941 69.46256
#
# Poissons Ratio (x) = 0.06013 0.25633
# Poissons Ratio (y) = 0.03304 0.50072
# Poissons Ratio (z) = 0.10758 0.38248
#
# Static dielectric constant tensor:
#      x y z
#    x 1.710860 0.000000 0.070160 
#    y 0.000000 1.657470 0.000000 
#    z 0.070160 0.000000 1.525330 
# 
# From -- ./inp_files/58010.got.cif
#   From: 2010.05.17/outbox.ucp.g08.bks.cvg/sg10_30_cif.got.tgz:58010.got - 2010.06.11 11:31:16.
