data_PCOD9155263
_publ_section_title
;
Structure prediction by ZEFSAII (Michael W. Deem and Ramdas Pophale) SiO2 
 PCOD9155263
Probable space group: P 2/M
;
_chemical_formula_sum "Si O2"
_cell_formula_units_Z 32
_cell_length_a 12.000000
_cell_length_b 9.000000
_cell_length_c 30.000000
_cell_angle_alpha 90.000000
_cell_angle_beta 150.000000
_cell_angle_gamma 90.000000
_cell_volume 1620.000000
_symmetry_space_group_name_H-M "P 2/M"
_symmetry_group_IT_number 10
_symmetry_cell_setting 'monoclinic'
loop_
_space_group_symop_operation_xyz
x,y,z
-x,y,-z
-x,-y,-z
x,-y,z
loop_
_atom_site_type_symbol
_atom_site_label
_atom_site_fract_x
_atom_site_fract_y
_atom_site_fract_z
Si Si1 0.671834 0.165767 0.519262
Si Si2 0.342288 0.669323 0.240846
Si Si3 0.114503 0.177207 0.930358
Si Si4 0.860199 0.823175 0.166823
Si Si5 0.111375 0.325476 0.681925
Si Si6 0.526475 0.322390 0.120181
Si Si7 0.169848 0.677550 0.596910
Si Si8 0.316759 0.331512 0.338867
O O1 0.500000 0.156187 0.500000
O O2 0.543912 0.266782 0.438469
O O3 0.893663 0.232453 0.618133
O O4 0.714727 0.000000 0.516007
O O5 0.337753 0.500000 0.221058
O O6 0.582247 0.742828 0.317344
O O7 0.330417 0.658928 0.290179
O O8 0.133401 0.758096 0.149545
O O9 0.164794 0.210031 0.894944
O O10 0.118366 0.000000 0.936278
O O11 0.290528 0.248274 0.025657
O O12 0.684570 0.731225 0.134638
O O13 0.102331 0.774530 0.269466
O O14 0.828306 0.000000 0.161336
O O15 0.079651 0.500000 0.680976
O O16 0.335789 0.281120 0.786683
O O17 0.104758 0.309334 0.625908
O O18 0.499651 0.500000 0.111092
O O19 0.194556 0.500000 0.595824
O O20 0.000000 0.734204 0.500000
O O21 0.278316 0.500000 0.342685
#
# Coordination Sequence:
#
# PCOD9155263 Si02
#       8
#     4   4   4   4   4   4   4   4
#     4  11  23  36  51  74 107 147 183 215 260 320
#     4   9  18  34  58  84 107 135 175 222 270 319
#     4  10  21  36  55  79 109 145 183 224 269 318
#     4  10  20  34  53  79 111 146 183 222 267 320
#     4  10  22  38  56  81 109 139 180 226 271 321
#     4  11  22  35  53  78 109 144 183 227 271 319
#     4   9  17  34  61  87 109 136 173 220 272 322
#     4  10  19  32  53  80 107 137 176 222 269 318
#
# _framework density 19.753086
#
# number of rings (size 3 to 8) (size 9 to 14) (size 15 to 20)
#    0.000    2.000    0.000    3.750    0.000    9.500 
#    0.000    1.250    0.000    5.250    0.000    0.000 
#    0.000    0.000    0.000    0.000    0.000    0.000 
#
# Total GULP energy -178420.387761 kJ/mol
# GULP energy per Si atom -5575.637118 kJ/mol
# Density = 1.970813 g / cm^3
# Si number density = 19.753086 Si / 1000 Ang^3
#
#
#
# Elastic Constant Matrix: (Units=GPa)
#
#
# Indices 1 2 3 4 5 6 
#
# 1 11.1431 20.9377 35.6381 0.0000 13.5871 0.0000
# 2 20.9377 64.1005 60.1999 0.0000 -9.6256 0.0000
# 3 35.6381 60.1999 200.4133 0.0000 -8.3984 0.0000
# 4 0.0000 0.0000 0.0000 88.3306 0.0000 24.4598
# 5 13.5871 -9.6256 -8.3984 0.0000 25.1965 0.0000
# 6 0.0000 0.0000 0.0000 24.4598 0.0000 23.8930
#
#
#
# Elastic Compliance Matrix: (Units=1/GPa)
#
#
# Indices 1 2 3 4 5 6 
#
# 1 -0.109207 0.036109 0.011784 0.000000 0.076611 0.000000
# 2 0.036109 0.010795 -0.010453 0.000000 -0.018832 0.000000
# 3 0.011784 -0.010453 0.005680 0.000000 -0.008454 0.000000
# 4 0.000000 0.000000 0.000000 0.015800 0.000000 -0.016175
# 5 0.076611 -0.018832 -0.008454 0.000000 -0.011636 0.000000
# 6 0.000000 0.000000 0.000000 -0.016175 0.000000 0.058412
#
#
# Mechanical properties :
#
#
# Convention : Reuss Voigt Hill
#
# Bulk Modulus (GPa) = -56.01383 56.57871 0.28244
# Shear Modulus (GPa) = -45.05014 38.07608 -3.48703
#
# Velocity S-wave (km/s) = -4.78081 4.39521 -1.33009
# Velocity P-wave (km/s) = 7.67421 7.37986 1.48848
#
# Compressibility (1/GPa) = -0.01785273
#
# Stress axis : x y z
#
# Youngs Moduli (GPa) = -9.15692 92.63865 176.06361
#
# Poissons Ratio (x) = -3.34509 -2.07466
# Poissons Ratio (y) = 0.33065 1.84033
# Poissons Ratio (z) = 0.10790 0.96832
#
# Static dielectric constant tensor:
#      x y z
#    x 1.804410 0.000000 0.048530 
#    y 0.000000 1.684220 0.000000 
#    z 0.048530 0.000000 1.701180 
# 
# From -- ./inp_files/95031.got.cif
#   From: 2010.05.17/outbox.ucp.g08.bks.cvg/sg10_48_cif.got.tgz:95031.got - 2010.06.11 11:31:16.
