data_PCOD9155032
_publ_section_title
;
Structure prediction by ZEFSAII (Michael W. Deem and Ramdas Pophale) SiO2 
 PCOD9155032
Probable space group: P 2/M
;
_chemical_formula_sum "Si O2"
_cell_formula_units_Z 32
_cell_length_a 25.073018
_cell_length_b 7.318493
_cell_length_c 18.634632
_cell_angle_alpha 90.000000
_cell_angle_beta 26.646878
_cell_angle_gamma 90.000000
_cell_volume 1533.565591
_symmetry_space_group_name_H-M "P 2/M"
_symmetry_group_IT_number 10
_symmetry_cell_setting 'monoclinic'
loop_
_space_group_symop_operation_xyz
x,y,z
-x,y,-z
-x,-y,-z
x,-y,z
loop_
_atom_site_type_symbol
_atom_site_label
_atom_site_fract_x
_atom_site_fract_y
_atom_site_fract_z
Si Si1 0.227029 0.220446 0.565729
Si Si2 0.312058 0.776969 0.038743
Si Si3 0.480212 0.779554 0.312545
Si Si4 0.395060 0.289728 0.574068
Si Si5 0.371668 0.222737 0.128333
Si Si6 0.162857 0.776969 0.486343
Si Si7 0.956163 0.777301 0.631510
Si Si8 0.864187 0.710272 0.166685
O O1 0.366139 0.269043 0.401582
O O2 0.172322 0.283951 0.556846
O O3 0.169391 0.286687 0.708782
O O4 0.219111 0.000000 0.577551
O O5 0.349181 0.719623 0.073965
O O6 0.176838 0.719618 0.191924
O O7 0.315345 0.000000 0.034317
O O8 0.401490 0.716049 0.869344
O O9 0.452436 0.713314 0.425737
O O10 0.484228 0.000000 0.312433
O O11 0.500000 0.211546 0.500000
O O12 0.378552 0.500000 0.617243
O O13 0.257584 0.216047 0.727248
O O14 0.272328 0.280376 0.304527
O O15 0.368640 0.000000 0.131360
O O16 0.500000 0.280634 0.000000
O O17 0.045601 0.719618 0.585637
O O18 0.165006 0.000000 0.485333
O O19 0.000000 0.718735 0.500000
O O20 0.957267 0.000000 0.628199
O O21 0.874348 0.500000 0.129856
O O22 0.000000 0.788454 0.000000
#
# Coordination Sequence:
#
# PCOD9155032 Si02
#       8
#     4   4   4   4   4   4   4   4
#     4   9  17  29  45  67  95 121 146 183 229 270
#     4   9  15  23  35  54  83 117 150 181 218 261
#     4   9  17  29  45  67  95 121 146 183 229 270
#     4   9  18  34  54  72  91 118 151 185 223 271
#     4   9  14  19  31  51  76 109 147 182 214 253
#     4   9  15  23  35  54  83 117 150 181 218 261
#     4   9  14  22  34  50  81 123 155 181 217 261
#     4   9  18  34  54  72  91 118 151 185 223 271
#
# _framework density 20.866403999999999
#
# number of rings (size 3 to 8) (size 9 to 14) (size 15 to 20)
#    0.000    3.000    1.250    0.750    0.000    3.500 
#    2.250    0.000    0.000    0.000    0.000    0.875 
#    0.000    6.000    0.000    0.000    0.000    0.000 
#
# Total GULP energy -178408.597505 kJ/mol
# GULP energy per Si atom -5575.268672 kJ/mol
# Density = 2.081891 g / cm^3
# Si number density = 20.866404 Si / 1000 Ang^3
#
#
#
# Elastic Constant Matrix: (Units=GPa)
#
#
# Indices 1 2 3 4 5 6 
#
# 1 170.6246 4.5496 73.2579 0.0000 -32.5130 0.0000
# 2 4.5496 79.4623 4.0905 0.0000 -4.6974 0.0000
# 3 73.2579 4.0905 164.1413 0.0000 -33.8082 0.0000
# 4 0.0000 0.0000 0.0000 7.1523 0.0000 19.1124
# 5 -32.5130 -4.6974 -33.8082 0.0000 33.8442 0.0000
# 6 0.0000 0.0000 0.0000 19.1124 0.0000 5.2838
#
#
#
# Elastic Compliance Matrix: (Units=1/GPa)
#
#
# Indices 1 2 3 4 5 6 
#
# 1 0.007897 -0.000023 -0.002470 0.000000 0.005115 0.000000
# 2 -0.000023 0.012689 0.000066 0.000000 0.001805 0.000000
# 3 -0.002470 0.000066 0.008444 0.000000 0.006071 0.000000
# 4 0.000000 0.000000 0.000000 -0.016134 0.000000 0.058360
# 5 0.005115 0.001805 0.006071 0.000000 0.040776 0.000000
# 6 0.000000 0.000000 0.000000 0.058360 0.000000 -0.021840
#
#
# Mechanical properties :
#
#
# Convention : Reuss Voigt Hill
#
# Bulk Modulus (GPa) = 41.36463 64.22490 52.79477
# Shear Modulus (GPa) = 111.74548 31.41140 71.57844
#
# Velocity S-wave (km/s) = 7.32592 3.88410 5.86325
# Velocity P-wave (km/s) = 9.56166 7.13869 8.43760
#
# Compressibility (1/GPa) = 0.02417524
#
# Stress axis : x y z
#
# Youngs Moduli (GPa) = 126.63392 78.80711 118.43398
#
# Poissons Ratio (x) = 0.00178 0.29256
# Poissons Ratio (y) = 0.00286 -0.00777
# Poissons Ratio (z) = 0.31281 -0.00517
#
# Static dielectric constant tensor:
#      x y z
#    x 1.703990 0.000000 -0.026460 
#    y 0.000000 1.824990 0.000000 
#    z -0.026460 0.000000 1.701410 
# 
# From -- ./inp_files/79927.got.cif
#   From: 2010.05.17/outbox.cif.g08.bks.cpg/sg10_40_cif.got.tgz:79927.got - 2010.06.03 11:33:40.
