data_PCOD9155697
_publ_section_title
;
Structure prediction by ZEFSAII (Michael W. Deem and Ramdas Pophale) SiO2 
 PCOD9155697
Probable space group: P 2/M
;
_chemical_formula_sum "Si O2"
_cell_formula_units_Z 28
_cell_length_a 27.000000
_cell_length_b 9.000000
_cell_length_c 9.000000
_cell_angle_alpha 90.000000
_cell_angle_beta 40.000000
_cell_angle_gamma 90.000000
_cell_volume 1405.776502
_symmetry_space_group_name_H-M "P 2/M"
_symmetry_group_IT_number 10
_symmetry_cell_setting 'monoclinic'
loop_
_space_group_symop_operation_xyz
x,y,z
-x,y,-z
-x,-y,-z
x,-y,z
loop_
_atom_site_type_symbol
_atom_site_label
_atom_site_fract_x
_atom_site_fract_y
_atom_site_fract_z
Si Si1 0.640787 0.821302 0.497324
Si Si2 0.489378 0.676911 0.702007
Si Si3 0.900735 0.325581 0.481268
Si Si4 0.162610 0.176022 0.643591
Si Si5 0.200539 0.175724 0.050057
Si Si6 0.082290 0.324327 0.108409
Si Si7 0.668886 0.320548 0.755219
O O1 0.560044 0.767306 0.612564
O O2 0.717041 0.789793 0.218957
O O3 0.648330 0.735836 0.636472
O O4 0.640182 0.000000 0.521714
O O5 0.500000 0.698357 0.500000
O O6 0.499529 0.500000 0.708914
O O7 0.404166 0.715577 0.966567
O O8 0.894068 0.500000 0.452362
O O9 0.890964 0.206346 0.374081
O O10 0.989361 0.309122 0.334482
O O11 0.827686 0.283438 0.753097
O O12 0.248476 0.239504 0.408555
O O13 0.167623 0.000000 0.670888
O O14 0.120173 0.277346 0.864657
O O15 0.201856 0.000000 0.087198
O O16 0.129723 0.212171 0.102992
O O17 0.098972 0.500000 0.101761
O O18 0.678940 0.500000 0.735893
#
# Coordination Sequence:
#
# PCOD9155697 Si02
#       7
#     4   4   4   4   4   4   4
#     4  11  24  42  65  96 130 169 212 258 316 377
#     4  10  24  44  67  98 130 164 208 259 315 377
#     4  11  25  42  63  92 128 170 217 268 321 378
#     4  12  25  41  64  95 130 168 213 265 323 382
#     4  11  24  41  63  95 131 170 214 263 320 379
#     4  11  23  42  66  93 125 168 219 266 317 380
#     4  11  23  42  68  95 126 169 216 261 313 376
#
# _framework density 19.917818
#
# number of rings (size 3 to 8) (size 9 to 14) (size 15 to 20)
#    0.000    1.000    1.429    4.714    2.000   10.571 
#    0.000    0.000    0.000    0.000    0.000    0.000 
#    0.000    0.000    0.000    0.000    0.000    0.000 
#
# Total GULP energy -156238.961613 kJ/mol
# GULP energy per Si atom -5579.962915 kJ/mol
# Density = 1.987248 g / cm^3
# Si number density = 19.917818 Si / 1000 Ang^3
#
#
#
# Elastic Constant Matrix: (Units=GPa)
#
#
# Indices 1 2 3 4 5 6 
#
# 1 46.9147 10.1134 0.0345 0.0000 -12.0628 0.0000
# 2 10.1134 92.9992 30.6663 0.0000 -17.8638 0.0000
# 3 0.0345 30.6663 121.7850 0.0000 -18.8890 0.0000
# 4 0.0000 0.0000 0.0000 40.5544 0.0000 -7.9832
# 5 -12.0628 -17.8638 -18.8890 0.0000 31.4473 0.0000
# 6 0.0000 0.0000 0.0000 -7.9832 0.0000 34.7501
#
#
#
# Elastic Compliance Matrix: (Units=1/GPa)
#
#
# Indices 1 2 3 4 5 6 
#
# 1 0.024065 -0.001385 0.001821 0.000000 0.009538 0.000000
# 2 -0.001385 0.012698 -0.002383 0.000000 0.005250 0.000000
# 3 0.001821 -0.002383 0.009604 0.000000 0.005114 0.000000
# 4 0.000000 0.000000 0.000000 0.025826 0.000000 0.005933
# 5 0.009538 0.005250 0.005114 0.000000 0.041512 0.000000
# 6 0.000000 0.000000 0.000000 0.005933 0.000000 0.030140
#
#
# Mechanical properties :
#
#
# Convention : Reuss Voigt Hill
#
# Bulk Modulus (GPa) = 23.54428 38.14746 30.84587
# Shear Modulus (GPa) = 30.88407 36.07599 33.48003
#
# Velocity S-wave (km/s) = 3.94201 4.26049 4.10434
# Velocity P-wave (km/s) = 5.70663 6.58759 6.16287
#
# Compressibility (1/GPa) = 0.04247316
#
# Stress axis : x y z
#
# Youngs Moduli (GPa) = 41.55397 78.75484 104.12553
#
# Poissons Ratio (x) = 0.10911 -0.18966
# Poissons Ratio (y) = 0.05757 0.24809
# Poissons Ratio (z) = -0.07569 0.18764
#
# Static dielectric constant tensor:
#      x y z
#    x 1.793030 0.000000 0.090900 
#    y 0.000000 1.653750 0.000000 
#    z 0.090900 0.000000 1.743690 
# 
# From -- ./inp_files/36970.got.cif
#   From: 2010.05.17/outbox.ucp.g08.bks.cvg/sg10_19_cif.got.tgz:36970.got - 2010.06.11 11:31:16.
