data_PCOD9155344
_publ_section_title
;
Structure prediction by ZEFSAII (Michael W. Deem and Ramdas Pophale) SiO2 
 PCOD9155344
Probable space group: P 2/M
;
_chemical_formula_sum "Si O2"
_cell_formula_units_Z 32
_cell_length_a 12.000000
_cell_length_b 9.000000
_cell_length_c 30.000000
_cell_angle_alpha 90.000000
_cell_angle_beta 30.000000
_cell_angle_gamma 90.000000
_cell_volume 1620.000000
_symmetry_space_group_name_H-M "P 2/M"
_symmetry_group_IT_number 10
_symmetry_cell_setting 'monoclinic'
loop_
_space_group_symop_operation_xyz
x,y,z
-x,y,-z
-x,-y,-z
x,-y,z
loop_
_atom_site_type_symbol
_atom_site_label
_atom_site_fract_x
_atom_site_fract_y
_atom_site_fract_z
Si Si1 0.995149 0.820727 0.892036
Si Si2 0.903993 0.177212 0.601653
Si Si3 0.800939 0.676943 0.726259
Si Si4 0.412046 0.822347 0.437723
Si Si5 0.475084 0.820246 0.700198
Si Si6 0.536324 0.822329 0.088303
Si Si7 0.802495 0.324653 0.347218
Si Si8 0.860959 0.825237 0.837703
O O1 0.252537 0.765939 0.803067
O O2 0.901077 0.790966 0.875164
O O3 0.006200 0.000000 0.893282
O O4 0.793098 0.772224 0.994208
O O5 0.786393 0.222053 0.688072
O O6 0.721682 0.232950 0.629183
O O7 0.158580 0.232828 0.517645
O O8 0.924027 0.000000 0.588088
O O9 0.785171 0.500000 0.723393
O O10 0.607791 0.730128 0.826514
O O11 0.046574 0.707866 0.661843
O O12 0.542161 0.791791 0.346368
O O13 0.564274 0.752229 0.423278
O O14 0.402620 0.000000 0.447569
O O15 0.478100 0.000000 0.704505
O O16 0.390618 0.806005 0.093290
O O17 0.532896 0.000000 0.099978
O O18 0.769533 0.500000 0.355999
O O19 0.970869 0.269824 0.250277
O O20 0.916891 0.000000 0.811590
#
# Coordination Sequence:
#
# PCOD9155344 Si02
#       8
#     4   4   4   4   4   4   4   4
#     4   9  15  26  50  82 109 134 166 210 264 311
#     4  10  21  36  57  80 101 135 181 221 257 307
#     4  10  22  39  54  71 105 146 180 216 260 306
#     4  10  19  34  57  83 108 133 166 214 270 318
#     4   9  17  32  55  83 111 134 165 213 266 313
#     4   9  17  29  51  80 106 135 175 215 253 307
#     4  10  20  33  51  77 107 140 175 212 259 312
#     4   9  15  27  48  76 109 139 168 207 259 312
#
# _framework density 19.753086
#
# number of rings (size 3 to 8) (size 9 to 14) (size 15 to 20)
#    0.000    2.500    1.250    1.500    0.000    5.500 
#    0.000    4.375    0.000    8.250    0.000    0.000 
#    0.000    0.000    0.000    0.000    0.000    0.000 
#
# Total GULP energy -178262.654371 kJ/mol
# GULP energy per Si atom -5570.707949 kJ/mol
# Density = 1.970813 g / cm^3
# Si number density = 19.753086 Si / 1000 Ang^3
#
#
#
# Elastic Constant Matrix: (Units=GPa)
#
#
# Indices 1 2 3 4 5 6 
#
# 1 28.7010 8.9933 12.3374 0.0000 -4.0913 0.0000
# 2 8.9933 -1.1605 -5.3375 0.0000 -5.4727 0.0000
# 3 12.3374 -5.3375 80.3257 0.0000 -20.2663 0.0000
# 4 0.0000 0.0000 0.0000 -1.0671 0.0000 -14.4940
# 5 -4.0913 -5.4727 -20.2663 0.0000 21.4965 0.0000
# 6 0.0000 0.0000 0.0000 -14.4940 0.0000 -5.2739
#
#
#
# Elastic Compliance Matrix: (Units=1/GPa)
#
#
# Indices 1 2 3 4 5 6 
#
# 1 0.021246 0.045900 0.004927 0.000000 0.020374 0.000000
# 2 0.045900 -0.130529 -0.028739 0.000000 -0.051590 0.000000
# 3 0.004927 -0.028739 0.010724 0.000000 0.003732 0.000000
# 4 0.000000 0.000000 0.000000 0.025796 0.000000 -0.070893
# 5 0.020374 -0.051590 0.003732 0.000000 0.040781 0.000000
# 6 0.000000 0.000000 0.000000 -0.070893 0.000000 0.005219
#
#
# Mechanical properties :
#
#
# Convention : Reuss Voigt Hill
#
# Bulk Modulus (GPa) = -18.38832 15.53919 -1.42457
# Shear Modulus (GPa) = -56.13823 9.15596 -23.49113
#
# Velocity S-wave (km/s) = -5.33682 2.15529 -3.45227
# Velocity P-wave (km/s) = 6.87785 3.75200 4.07599
#
# Compressibility (1/GPa) = -0.05438234
#
# Stress axis : x y z
#
# Youngs Moduli (GPa) = 47.06842 -7.66116 93.24554
#
# Poissons Ratio (x) = 0.35165 -0.45945
# Poissons Ratio (y) = -2.16045 2.67983
# Poissons Ratio (z) = -0.23192 -0.22018
#
# Static dielectric constant tensor:
#      x y z
#    x 1.767580 0.000000 0.003460 
#    y 0.000000 1.656700 0.000000 
#    z 0.003460 0.000000 1.721710 
# 
# From -- ./inp_files/94928.got.cif
#   From: 2010.05.17/outbox.ucp.g08.bks.cvg/sg10_48_cif.got.tgz:94928.got - 2010.06.11 11:31:16.
