data_PCOD9155305
_publ_section_title
;
Structure prediction by ZEFSAII (Michael W. Deem and Ramdas Pophale) SiO2 
 PCOD9155305
Probable space group: P 2/M
;
_chemical_formula_sum "Si O2"
_cell_formula_units_Z 32
_cell_length_a 12.000000
_cell_length_b 9.000000
_cell_length_c 30.000000
_cell_angle_alpha 90.000000
_cell_angle_beta 30.000000
_cell_angle_gamma 90.000000
_cell_volume 1620.000000
_symmetry_space_group_name_H-M "P 2/M"
_symmetry_group_IT_number 10
_symmetry_cell_setting 'monoclinic'
loop_
_space_group_symop_operation_xyz
x,y,z
-x,y,-z
-x,-y,-z
x,-y,z
loop_
_atom_site_type_symbol
_atom_site_label
_atom_site_fract_x
_atom_site_fract_y
_atom_site_fract_z
Si Si1 0.428653 0.820430 0.142866
Si Si2 0.054953 0.170861 0.033543
Si Si3 0.244717 0.323242 0.296005
Si Si4 0.266710 0.175378 0.103558
Si Si5 0.813727 0.828710 0.433982
Si Si6 0.839806 0.325866 0.236772
Si Si7 0.294194 0.828742 0.630047
Si Si8 0.634249 0.678532 0.223488
O O1 0.319511 0.748660 0.223668
O O2 0.294639 0.777233 0.145072
O O3 0.422742 0.000000 0.148672
O O4 0.689865 0.778625 0.048523
O O5 0.863061 0.267770 0.122119
O O6 0.040054 0.000000 0.055071
O O7 0.000000 0.170021 0.000000
O O8 0.258635 0.500000 0.287751
O O9 0.421020 0.265764 0.271061
O O10 0.994639 0.275016 0.393402
O O11 0.073705 0.253924 0.143638
O O12 0.225156 0.000000 0.117388
O O13 0.500000 0.204006 0.000000
O O14 0.561254 0.817981 0.537676
O O15 0.795764 0.793792 0.387658
O O16 0.885626 0.000000 0.413224
O O17 0.857702 0.500000 0.226956
O O18 0.795881 0.277593 0.301704
O O19 0.648577 0.272664 0.269675
O O20 0.233063 0.000000 0.660918
O O21 0.626720 0.500000 0.224211
#
# Coordination Sequence:
#
# PCOD9155305 Si02
#       8
#     4   4   4   4   4   4   4   4
#     4  10  20  34  53  79 109 138 175 226 278 322
#     4  10  19  33  55  80 103 136 186 232 267 312
#     4  11  22  35  53  79 109 142 180 219 267 322
#     4  10  21  37  56  78 108 145 181 221 273 325
#     4   9  19  37  61  86 112 137 169 218 273 325
#     4  11  23  38  56  79 110 147 187 225 264 316
#     4   9  19  38  62  86 110 140 174 214 270 329
#     4  10  23  39  52  73 110 152 185 220 269 321
#
# _framework density 19.753086
#
# number of rings (size 3 to 8) (size 9 to 14) (size 15 to 20)
#    0.000    2.000    1.250    3.000    0.000    8.000 
#    0.000    1.875    0.000    3.750    0.000    0.000 
#    0.000    0.000    0.000    0.000    0.000    0.000 
#
# Total GULP energy -178532.570687 kJ/mol
# GULP energy per Si atom -5579.142834 kJ/mol
# Density = 1.970813 g / cm^3
# Si number density = 19.753086 Si / 1000 Ang^3
#
#
#
# Elastic Constant Matrix: (Units=GPa)
#
#
# Indices 1 2 3 4 5 6 
#
# 1 95.5092 42.3645 34.2941 0.0000 -25.5820 0.0000
# 2 42.3645 0.4959 20.8347 0.0000 -7.4144 0.0000
# 3 34.2941 20.8347 41.8682 0.0000 -19.5816 0.0000
# 4 0.0000 0.0000 0.0000 -87.6508 0.0000 -85.5628
# 5 -25.5820 -7.4144 -19.5816 0.0000 19.3790 0.0000
# 6 0.0000 0.0000 0.0000 -85.5628 0.0000 -40.2280
#
#
#
# Elastic Compliance Matrix: (Units=1/GPa)
#
#
# Indices 1 2 3 4 5 6 
#
# 1 0.007630 0.020150 -0.015093 0.000000 0.002530 0.000000
# 2 0.020150 -0.042911 0.018223 0.000000 0.028595 0.000000
# 3 -0.015093 0.018223 0.040047 0.000000 0.027514 0.000000
# 4 0.000000 0.000000 0.000000 0.010600 0.000000 -0.022546
# 5 0.002530 0.028595 0.027514 0.000000 0.093684 0.000000
# 6 0.000000 0.000000 0.000000 -0.022546 0.000000 0.023097
#
#
# Mechanical properties :
#
#
# Convention : Reuss Voigt Hill
#
# Bulk Modulus (GPa) = 19.48372 36.98446 28.23409
# Shear Modulus (GPa) = 48.68708 -19.00797 14.83955
#
# Velocity S-wave (km/s) = 4.97004 -3.10543 2.74387
# Velocity P-wave (km/s) = 6.54371 2.43018 4.93589
#
# Compressibility (1/GPa) = 0.05132491
#
# Stress axis : x y z
#
# Youngs Moduli (GPa) = 131.06781 -23.30429 24.97065
#
# Poissons Ratio (x) = 0.46957 0.37688
# Poissons Ratio (y) = -2.64096 -0.45504
# Poissons Ratio (z) = 1.97821 0.42467
#
# Static dielectric constant tensor:
#      x y z
#    x 1.776270 0.000000 -0.051950 
#    y 0.000000 1.671760 0.000000 
#    z -0.051950 0.000000 1.766110 
# 
# From -- ./inp_files/94932.got.cif
#   From: 2010.05.17/outbox.ucp.g08.bks.cvg/sg10_48_cif.got.tgz:94932.got - 2010.06.11 11:31:16.
