data_PCOD9155358
_publ_section_title
;
Structure prediction by ZEFSAII (Michael W. Deem and Ramdas Pophale) SiO2 
 PCOD9155358
Probable space group: P 2/M
;
_chemical_formula_sum "Si O2"
_cell_formula_units_Z 28
_cell_length_a 18.000000
_cell_length_b 9.000000
_cell_length_c 15.000000
_cell_angle_alpha 90.000000
_cell_angle_beta 140.000000
_cell_angle_gamma 90.000000
_cell_volume 1561.973892
_symmetry_space_group_name_H-M "P 2/M"
_symmetry_group_IT_number 10
_symmetry_cell_setting 'monoclinic'
loop_
_space_group_symop_operation_xyz
x,y,z
-x,y,-z
-x,-y,-z
x,-y,z
loop_
_atom_site_type_symbol
_atom_site_label
_atom_site_fract_x
_atom_site_fract_y
_atom_site_fract_z
Si Si1 0.579676 0.818837 0.185390
Si Si2 0.329748 0.680772 0.905145
Si Si3 0.986471 0.670136 0.089230
Si Si4 0.179583 0.827957 0.920227
Si Si5 0.416117 0.176894 0.605995
Si Si6 0.341460 0.171504 0.236691
Si Si7 0.251537 0.667484 0.323346
O O1 0.666778 0.745960 0.193035
O O2 0.605862 0.779672 0.312052
O O3 0.576762 0.000000 0.171944
O O4 0.451803 0.749894 0.051825
O O5 0.331999 0.500000 0.907472
O O6 0.227788 0.741421 0.877010
O O7 0.939548 0.500000 0.036730
O O8 0.918367 0.753408 0.105828
O O9 0.120587 0.661207 0.235553
O O10 0.000000 0.734947 0.000000
O O11 0.150132 0.000000 0.870974
O O12 0.284725 0.831630 0.087287
O O13 0.532071 0.235914 0.665036
O O14 0.315678 0.225480 0.449504
O O15 0.431518 0.000000 0.622258
O O16 0.268789 0.266935 0.239969
O O17 0.346672 0.000000 0.274387
O O18 0.298759 0.500000 0.368353
#
# Coordination Sequence:
#
# PCOD9155358 Si02
#       7
#     4   4   4   4   4   4   4
#     4  10  19  35  56  79 110 145 182 222 266 321
#     4  11  21  33  53  83 114 143 175 221 277 325
#     4  10  21  38  55  76 109 144 181 227 276 319
#     4  11  21  35  57  82 108 142 185 226 268 319
#     4  10  21  37  55  77 110 148 181 222 268 317
#     4  10  20  35  53  77 109 145 182 220 267 318
#     4  11  23  36  53  78 109 146 184 224 270 323
#
# _framework density 17.926036
#
# number of rings (size 3 to 8) (size 9 to 14) (size 15 to 20)
#    0.000    1.571    2.857    3.857    0.000    5.429 
#    0.000    0.000    0.000    0.857    0.000    6.000 
#    0.000    0.000    0.000    0.000    0.000    0.000 
#
# Total GULP energy -155956.873158 kJ/mol
# GULP energy per Si atom -5569.888327 kJ/mol
# Density = 1.788524 g / cm^3
# Si number density = 17.926036 Si / 1000 Ang^3
#
#
#
# Elastic Constant Matrix: (Units=GPa)
#
#
# Indices 1 2 3 4 5 6 
#
# 1 160.9100 62.8041 10.9334 0.0000 3.6334 0.0000
# 2 62.8041 79.1059 -2.6929 0.0000 -5.5495 0.0000
# 3 10.9334 -2.6929 19.1434 0.0000 9.3278 0.0000
# 4 0.0000 0.0000 0.0000 8.3886 0.0000 -0.5586
# 5 3.6334 -5.5495 9.3278 0.0000 16.2263 0.0000
# 6 0.0000 0.0000 0.0000 -0.5586 0.0000 33.9661
#
#
#
# Elastic Compliance Matrix: (Units=1/GPa)
#
#
# Indices 1 2 3 4 5 6 
#
# 1 0.009823 -0.008109 -0.006011 0.000000 -0.001517 0.000000
# 2 -0.008109 0.019650 0.004496 0.000000 0.005952 0.000000
# 3 -0.006011 0.004496 0.076258 0.000000 -0.040954 0.000000
# 4 0.000000 0.000000 0.000000 0.119341 0.000000 0.001963
# 5 -0.001517 0.005952 -0.040954 0.000000 0.087546 0.000000
# 6 0.000000 0.000000 0.000000 0.001963 0.000000 0.029473
#
#
# Mechanical properties :
#
#
# Convention : Reuss Voigt Hill
#
# Bulk Modulus (GPa) = 11.56329 44.58315 28.07322
# Shear Modulus (GPa) = 12.81496 24.25719 18.53607
#
# Velocity S-wave (km/s) = 2.67662 3.68255 3.21912
# Velocity P-wave (km/s) = 4.00212 6.55791 5.43246
#
# Compressibility (1/GPa) = 0.08648054
#
# Stress axis : x y z
#
# Youngs Moduli (GPa) = 101.80686 50.89029 13.11330
#
# Poissons Ratio (x) = 0.41269 0.07883
# Poissons Ratio (y) = 0.82559 -0.05895
# Poissons Ratio (z) = 0.61201 -0.22878
#
# Static dielectric constant tensor:
#      x y z
#    x 1.650980 0.000000 0.009290 
#    y 0.000000 1.639950 0.000000 
#    z 0.009290 0.000000 1.638560 
# 
# From -- ./inp_files/68673.got.cif
#   From: 2010.05.17/outbox.ucp.g08.bks.cvg/sg10_35_cif.got.tgz:68673.got - 2010.06.11 11:31:16.
