data_PCOD9155669
_publ_section_title
;
Structure prediction by ZEFSAII (Michael W. Deem and Ramdas Pophale) SiO2 
 PCOD9155669
Probable space group: P 2/M
;
_chemical_formula_sum "Si O2"
_cell_formula_units_Z 32
_cell_length_a 27.000000
_cell_length_b 9.000000
_cell_length_c 21.000000
_cell_angle_alpha 90.000000
_cell_angle_beta 160.000000
_cell_angle_gamma 90.000000
_cell_volume 1745.328791
_symmetry_space_group_name_H-M "P 2/M"
_symmetry_group_IT_number 10
_symmetry_cell_setting 'monoclinic'
loop_
_space_group_symop_operation_xyz
x,y,z
-x,y,-z
-x,-y,-z
x,-y,z
loop_
_atom_site_type_symbol
_atom_site_label
_atom_site_fract_x
_atom_site_fract_y
_atom_site_fract_z
Si Si1 0.144011 0.823956 0.335816
Si Si2 0.664271 0.821806 0.683111
Si Si3 0.840578 0.178465 0.024592
Si Si4 0.164162 0.330172 0.223733
Si Si5 0.554119 0.827733 0.994274
Si Si6 0.426161 0.326211 0.720808
Si Si7 0.719133 0.322949 0.005613
Si Si8 0.146559 0.174902 0.708118
O O1 0.156368 0.753159 0.281134
O O2 0.288652 0.775805 0.545214
O O3 0.004614 0.773345 0.207679
O O4 0.130989 0.000000 0.312848
O O5 0.500000 0.777799 0.500000
O O6 0.733314 0.745361 0.704871
O O7 0.668495 0.000000 0.678297
O O8 0.755259 0.787408 0.856435
O O9 0.771189 0.253496 0.002404
O O10 0.836651 0.000000 0.029091
O O11 0.211144 0.500000 0.290412
O O12 0.000000 0.329425 0.000000
O O13 0.487591 0.713036 0.864187
O O14 0.515731 0.000000 0.931249
O O15 0.500000 0.801133 0.000000
O O16 0.725581 0.815011 0.189402
O O17 0.390819 0.500000 0.672351
O O18 0.551662 0.289672 0.821084
O O19 0.734704 0.500000 0.022449
O O20 0.808014 0.257755 0.172734
O O21 0.000000 0.232233 0.500000
O O22 0.128524 0.000000 0.702046
#
# Coordination Sequence:
#
# PCOD9155669 Si02
#       8
#     4   4   4   4   4   4   4   4
#     4  11  23  39  61  84 111 150 193 237 283 335
#     4  10  22  40  61  87 114 147 193 238 282 335
#     4  10  22  39  58  83 114 147 190 238 281 332
#     4  11  23  39  60  86 117 151 185 231 289 342
#     4   9  18  34  56  82 112 147 189 232 275 328
#     4  10  22  39  57  84 118 151 190 232 283 341
#     4  10  22  38  57  82 116 153 187 230 281 337
#     4   9  18  34  56  81 110 146 187 231 275 325
#
# _framework density 18.334654
#
# number of rings (size 3 to 8) (size 9 to 14) (size 15 to 20)
#    0.000    2.000    1.250    1.500    1.750    5.250 
#    0.000    2.500    0.000    0.000    0.000    0.000 
#    0.000    0.000    0.000    0.000    0.000    0.000 
#
# Total GULP energy -178578.584892 kJ/mol
# GULP energy per Si atom -5580.580778 kJ/mol
# Density = 1.829292 g / cm^3
# Si number density = 18.334654 Si / 1000 Ang^3
#
#
#
# Elastic Constant Matrix: (Units=GPa)
#
#
# Indices 1 2 3 4 5 6 
#
# 1 122.3536 42.4650 17.2590 0.0000 25.9947 0.0000
# 2 42.4650 41.8933 22.0293 0.0000 15.0187 0.0000
# 3 17.2590 22.0293 59.7923 0.0000 15.2768 0.0000
# 4 0.0000 0.0000 0.0000 32.7667 0.0000 -4.1125
# 5 25.9947 15.0187 15.2768 0.0000 13.9771 0.0000
# 6 0.0000 0.0000 0.0000 -4.1125 0.0000 21.4555
#
#
#
# Elastic Compliance Matrix: (Units=1/GPa)
#
#
# Indices 1 2 3 4 5 6 
#
# 1 0.016418 -0.010488 0.005615 0.000000 -0.025402 0.000000
# 2 -0.010488 0.046662 -0.008793 0.000000 -0.021023 0.000000
# 3 0.005615 -0.008793 0.025803 0.000000 -0.029198 0.000000
# 4 0.000000 0.000000 0.000000 0.031271 0.000000 0.005994
# 5 -0.025402 -0.021023 -0.029198 0.000000 0.173289 0.000000
# 6 0.000000 0.000000 0.000000 0.005994 0.000000 0.047757
#
#
# Mechanical properties :
#
#
# Convention : Reuss Voigt Hill
#
# Bulk Modulus (GPa) = 16.24670 43.06062 29.65366
# Shear Modulus (GPa) = 12.85186 23.12559 17.98872
#
# Velocity S-wave (km/s) = 2.65044 3.55534 3.13570
# Velocity P-wave (km/s) = 4.27163 6.35538 5.41469
#
# Compressibility (1/GPa) = 0.06155096
#
# Stress axis : x y z
#
# Youngs Moduli (GPa) = 60.90970 21.43084 38.75475
#
# Poissons Ratio (x) = 0.22477 -0.21762
# Poissons Ratio (y) = 0.63883 0.34077
# Poissons Ratio (z) = -0.34202 0.18844
#
# Static dielectric constant tensor:
#      x y z
#    x 1.574270 0.000000 0.002690 
#    y 0.000000 1.620910 0.000000 
#    z 0.002690 0.000000 1.668340 
# 
# From -- ./inp_files/87061.got.cif
#   From: 2010.05.17/outbox.ucp.g08.bks.cvg/sg10_44_cif.got.tgz:87061.got - 2010.06.11 11:31:16.
