data_PCOD9155621
_publ_section_title
;
Structure prediction by ZEFSAII (Michael W. Deem and Ramdas Pophale) SiO2 
 PCOD9155621
Probable space group: P 2/M
;
_chemical_formula_sum "Si O2"
_cell_formula_units_Z 32
_cell_length_a 21.000000
_cell_length_b 9.000000
_cell_length_c 27.000000
_cell_angle_alpha 90.000000
_cell_angle_beta 20.000000
_cell_angle_gamma 90.000000
_cell_volume 1745.328791
_symmetry_space_group_name_H-M "P 2/M"
_symmetry_group_IT_number 10
_symmetry_cell_setting 'monoclinic'
loop_
_space_group_symop_operation_xyz
x,y,z
-x,y,-z
-x,-y,-z
x,-y,z
loop_
_atom_site_type_symbol
_atom_site_label
_atom_site_fract_x
_atom_site_fract_y
_atom_site_fract_z
Si Si1 0.873034 0.821962 0.340172
Si Si2 0.502863 0.180410 0.442341
Si Si3 0.837519 0.322750 0.473692
Si Si4 0.230157 0.676836 0.031506
Si Si5 0.197116 0.823387 0.239489
Si Si6 0.412018 0.678139 0.794715
Si Si7 0.786734 0.179648 0.153914
Si Si8 0.558358 0.177428 0.036765
O O1 0.682513 0.780746 0.451892
O O2 0.870929 0.749126 0.395550
O O3 0.044882 0.761863 0.183096
O O4 0.884620 0.000000 0.336543
O O5 0.500000 0.238159 0.500000
O O6 0.680506 0.227883 0.281115
O O7 0.507383 0.000000 0.441248
O O8 0.848359 0.500000 0.462261
O O9 0.629026 0.280935 0.642343
O O10 0.004869 0.262408 0.384825
O O11 0.202503 0.500000 0.055019
O O12 0.296387 0.715622 0.928158
O O13 0.385430 0.729176 0.956999
O O14 0.352649 0.790383 0.166844
O O15 0.162698 0.000000 0.264937
O O16 0.297700 0.789353 0.113333
O O17 0.404639 0.500000 0.793067
O O18 0.323641 0.756776 0.812018
O O19 0.781837 0.000000 0.154748
O O20 0.000000 0.227726 0.000000
O O21 0.572340 0.000000 0.036034
#
# Coordination Sequence:
#
# PCOD9155621 Si02
#       8
#     4   4   4   4   4   4   4   4
#     4  11  21  35  59  85 113 147 185 236 289 332
#     4   9  19  35  55  84 116 142 176 231 287 330
#     4  11  21  36  58  83 111 150 193 232 275 333
#     4  11  23  38  56  82 115 152 192 234 276 331
#     4   9  18  33  56  84 115 146 182 231 285 335
#     4  10  24  42  57  78 118 158 189 229 280 335
#     4  10  21  37  60  86 111 145 192 235 276 334
#     4   9  18  34  55  83 116 147 182 231 284 334
#
# _framework density 18.334654
#
# number of rings (size 3 to 8) (size 9 to 14) (size 15 to 20)
#    0.000    2.000    2.500    1.875    1.750    2.250 
#    0.000    1.875    0.000    5.625    0.000    0.000 
#    0.000    0.000    0.000    0.000    0.000    0.000 
#
# Total GULP energy -178617.406990 kJ/mol
# GULP energy per Si atom -5581.793968 kJ/mol
# Density = 1.829292 g / cm^3
# Si number density = 18.334654 Si / 1000 Ang^3
#
#
#
# Elastic Constant Matrix: (Units=GPa)
#
#
# Indices 1 2 3 4 5 6 
#
# 1 49.9589 7.7591 29.8931 0.0000 1.5954 0.0000
# 2 7.7591 10.6321 20.4692 0.0000 -0.1403 0.0000
# 3 29.8931 20.4692 87.8761 0.0000 4.3542 0.0000
# 4 0.0000 0.0000 0.0000 41.5148 0.0000 -20.3250
# 5 1.5954 -0.1403 4.3542 0.0000 23.8296 0.0000
# 6 0.0000 0.0000 0.0000 -20.3250 0.0000 26.7000
#
#
#
# Elastic Compliance Matrix: (Units=1/GPa)
#
#
# Indices 1 2 3 4 5 6 
#
# 1 0.025202 -0.003479 -0.007748 0.000000 -0.000292 0.000000
# 2 -0.003479 0.172664 -0.039455 0.000000 0.008459 0.000000
# 3 -0.007748 -0.039455 0.023404 0.000000 -0.003990 0.000000
# 4 0.000000 0.000000 0.000000 0.038399 0.000000 0.029230
# 5 -0.000292 0.008459 -0.003990 0.000000 0.042763 0.000000
# 6 0.000000 0.000000 0.000000 0.029230 0.000000 0.059704
#
#
# Mechanical properties :
#
#
# Convention : Reuss Voigt Hill
#
# Bulk Modulus (GPa) = 8.33986 29.41223 18.87604
# Shear Modulus (GPa) = 9.93111 24.43192 17.18151
#
# Velocity S-wave (km/s) = 2.32988 3.65438 3.06454
# Velocity P-wave (km/s) = 3.43458 5.82088 4.77907
#
# Compressibility (1/GPa) = 0.11990611
#
# Stress axis : x y z
#
# Youngs Moduli (GPa) = 39.67882 5.79159 42.72865
#
# Poissons Ratio (x) = 0.02015 0.33108
# Poissons Ratio (y) = 0.13803 1.68585
# Poissons Ratio (z) = 0.30745 0.22851
#
# Static dielectric constant tensor:
#      x y z
#    x 1.621050 0.000000 -0.009440 
#    y 0.000000 1.607160 0.000000 
#    z -0.009440 0.000000 1.633010 
# 
# From -- ./inp_files/93562.got.cif
#   From: 2010.05.17/outbox.ucp.g08.bks.cvg/sg10_47_cif.got.tgz:93562.got - 2010.06.11 11:31:16.
