data_PCOD9155039
_publ_section_title
;
Structure prediction by ZEFSAII (Michael W. Deem and Ramdas Pophale) SiO2 
 PCOD9155039
Probable space group: P 2/M
;
_chemical_formula_sum "Si O2"
_cell_formula_units_Z 24
_cell_length_a 18.548729
_cell_length_b 16.567756
_cell_length_c 9.880982
_cell_angle_alpha 90.000000
_cell_angle_beta 158.524773
_cell_angle_gamma 90.000000
_cell_volume 1111.671283
_symmetry_space_group_name_H-M "P 2/M"
_symmetry_group_IT_number 10
_symmetry_cell_setting 'monoclinic'
loop_
_space_group_symop_operation_xyz
x,y,z
-x,y,-z
-x,-y,-z
x,-y,z
loop_
_atom_site_type_symbol
_atom_site_label
_atom_site_fract_x
_atom_site_fract_y
_atom_site_fract_z
Si Si1 0.543891 0.411800 0.739150
Si Si2 0.446924 0.088809 0.064892
Si Si3 0.113357 0.912543 0.056012
Si Si4 0.361944 0.245578 0.063062
Si Si5 0.818259 0.753639 0.965398
Si Si6 0.094312 0.590462 0.017006
O O1 0.500000 0.396863 0.500000
O O2 0.638475 0.500000 0.911021
O O3 0.664642 0.339813 0.018206
O O4 0.331882 0.415275 0.440205
O O5 0.654606 0.086963 0.506022
O O6 0.340690 0.170125 0.927142
O O7 0.354063 0.000000 0.925798
O O8 0.500000 0.094694 0.000000
O O9 0.075175 0.832052 0.906688
O O10 0.066362 0.000000 0.911326
O O11 0.000000 0.908118 0.000000
O O12 0.223476 0.234427 0.950220
O O13 0.595080 0.247073 0.512977
O O14 0.925063 0.670415 0.109937
O O15 0.029634 0.500000 0.856564
O O16 0.000000 0.604341 0.000000
#
# Coordination Sequence:
#
# PCOD9155039 Si02
#       6
#     4   4   4   4   4   4
#     4   9  14  23  38  57  85 116 141 174 223 267
#     4   9  18  31  46  63  85 116 151 184 221 266
#     4   9  17  28  43  63  86 112 141 175 222 269
#     4   9  15  25  41  61  83 110 147 181 220 263
#     4   9  15  24  38  60  86 109 137 180 223 260
#     4   9  15  21  32  54  85 116 142 170 210 261
#
# _framework density 21.589117000000002
#
# number of rings (size 3 to 8) (size 9 to 14) (size 15 to 20)
#    0.000    3.000    3.333    0.500    0.000    0.667 
#    0.000    3.333    0.000    1.500    0.000    4.667 
#    0.000    0.000    0.000   41.833    0.000    1.167 
#
# Total GULP energy -133631.584496 kJ/mol
# GULP energy per Si atom -5567.982687 kJ/mol
# Density = 2.153998 g / cm^3
# Si number density = 21.589117 Si / 1000 Ang^3
#
#
#
# Elastic Constant Matrix: (Units=GPa)
#
#
# Indices 1 2 3 4 5 6 
#
# 1 85.4761 85.2303 15.6009 0.0000 31.2938 0.0000
# 2 85.2303 285.1434 18.6895 0.0000 14.2685 0.0000
# 3 15.6009 18.6895 75.6697 0.0000 -5.6477 0.0000
# 4 0.0000 0.0000 0.0000 21.1560 0.0000 8.8167
# 5 31.2938 14.2685 -5.6477 0.0000 16.9388 0.0000
# 6 0.0000 0.0000 0.0000 8.8167 0.0000 38.0993
#
#
#
# Elastic Compliance Matrix: (Units=1/GPa)
#
#
# Indices 1 2 3 4 5 6 
#
# 1 0.113120 -0.021543 -0.033067 0.000000 -0.201863 0.000000
# 2 -0.021543 0.007867 0.005102 0.000000 0.034875 0.000000
# 3 -0.033067 0.005102 0.023599 0.000000 0.064662 0.000000
# 4 0.000000 0.000000 0.000000 0.052313 0.000000 -0.012106
# 5 -0.201863 0.034875 0.064662 0.000000 0.424151 0.000000
# 6 0.000000 0.000000 0.000000 -0.012106 0.000000 0.029049
#
#
# Mechanical properties :
#
#
# Convention : Reuss Voigt Hill
#
# Bulk Modulus (GPa) = 21.94546 76.14785 49.04666
# Shear Modulus (GPa) = 6.54187 37.02340 21.78264
#
# Velocity S-wave (km/s) = 1.74263 4.14564 3.17986
# Velocity P-wave (km/s) = 3.77308 7.63303 6.02076
#
# Compressibility (1/GPa) = 0.04556750
#
# Stress axis : x y z
#
# Youngs Moduli (GPa) = 8.84014 127.11464 42.37478
#
# Poissons Ratio (x) = 2.73849 1.40122
# Poissons Ratio (y) = 0.19045 -0.21618
# Poissons Ratio (z) = 0.29232 -0.64848
#
# Static dielectric constant tensor:
#      x y z
#    x 1.701760 0.000000 0.007780 
#    y 0.000000 1.890210 0.000000 
#    z 0.007780 0.000000 1.776660 
# 
# From -- ./inp_files/54087.got.cif
#   From: 2010.05.17/outbox.cif.g08.bks.cpg/sg10_28_cif.got.tgz:54087.got - 2010.06.03 11:33:40.
