data_PCOD9155299
_publ_section_title
;
Structure prediction by ZEFSAII (Michael W. Deem and Ramdas Pophale) SiO2 
 PCOD9155299
Probable space group: P 2/M
;
_chemical_formula_sum "Si O2"
_cell_formula_units_Z 28
_cell_length_a 9.000000
_cell_length_b 9.000000
_cell_length_c 27.000000
_cell_angle_alpha 90.000000
_cell_angle_beta 40.000000
_cell_angle_gamma 90.000000
_cell_volume 1405.776502
_symmetry_space_group_name_H-M "P 2/M"
_symmetry_group_IT_number 10
_symmetry_cell_setting 'monoclinic'
loop_
_space_group_symop_operation_xyz
x,y,z
-x,y,-z
-x,-y,-z
x,-y,z
loop_
_atom_site_type_symbol
_atom_site_label
_atom_site_fract_x
_atom_site_fract_y
_atom_site_fract_z
Si Si1 0.625038 0.672392 0.044993
Si Si2 0.753618 0.177192 0.667788
Si Si3 0.132840 0.674082 0.112342
Si Si4 0.615324 0.821989 0.807881
Si Si5 0.280366 0.823413 0.522620
Si Si6 0.580278 0.676371 0.611205
Si Si7 0.092180 0.176393 0.742045
O O1 0.669896 0.500000 0.044088
O O2 0.380457 0.679736 0.077652
O O3 0.582082 0.758892 0.106294
O O4 0.816131 0.724072 0.956726
O O5 0.611843 0.228321 0.752077
O O6 0.678001 0.258259 0.637368
O O7 0.026153 0.197795 0.610404
O O8 0.719506 0.000000 0.669393
O O9 0.061878 0.500000 0.130813
O O10 0.964960 0.775909 0.187058
O O11 0.865819 0.782197 0.767741
O O12 0.605463 0.000000 0.811049
O O13 0.500000 0.777142 0.500000
O O14 0.278506 0.737479 0.471463
O O15 0.308707 0.000000 0.505968
O O16 0.582394 0.500000 0.612233
O O17 0.321504 0.737626 0.668630
O O18 0.128018 0.000000 0.728507
#
# Coordination Sequence:
#
# PCOD9155299 Si02
#       7
#     4   4   4   4   4   4   4
#     4   8  14  25  44  71 106 143 174 211 264 320
#     4  10  21  38  58  79 107 143 178 215 261 312
#     4   8  14  26  44  71 106 141 176 215 263 316
#     4   9  18  32  53  80 106 135 178 226 266 311
#     4  10  21  40  65  87 108 137 174 215 261 313
#     4  12  25  38  54  79 111 144 178 217 262 314
#     4  10  19  33  54  79 106 139 181 225 269 316
#
# _framework density 19.917818
#
# number of rings (size 3 to 8) (size 9 to 14) (size 15 to 20)
#    0.000    2.429    0.000    3.857    0.000    6.571 
#    0.000    4.286    0.000    0.857    0.000    6.000 
#    0.000    0.000    0.000    0.000    0.000    0.000 
#
# Total GULP energy -156261.693913 kJ/mol
# GULP energy per Si atom -5580.774783 kJ/mol
# Density = 1.987248 g / cm^3
# Si number density = 19.917818 Si / 1000 Ang^3
#
#
#
# Elastic Constant Matrix: (Units=GPa)
#
#
# Indices 1 2 3 4 5 6 
#
# 1 44.3503 15.3362 3.3966 0.0000 32.1557 0.0000
# 2 15.3362 31.2924 22.7460 0.0000 20.0198 0.0000
# 3 3.3966 22.7460 69.9857 0.0000 40.2690 0.0000
# 4 0.0000 0.0000 0.0000 35.8819 0.0000 9.1638
# 5 32.1557 20.0198 40.2690 0.0000 31.0790 0.0000
# 6 0.0000 0.0000 0.0000 9.1638 0.0000 22.4499
#
#
#
# Elastic Compliance Matrix: (Units=1/GPa)
#
#
# Indices 1 2 3 4 5 6 
#
# 1 -0.012570 -0.008632 -0.028559 0.000000 0.055570 0.000000
# 2 -0.008632 0.050177 -0.009550 0.000000 -0.011017 0.000000
# 3 -0.028559 -0.009550 -0.006927 0.000000 0.044676 0.000000
# 4 0.000000 0.000000 0.000000 0.031113 0.000000 -0.012700
# 5 0.055570 -0.011017 0.044676 0.000000 -0.076109 0.000000
# 6 0.000000 0.000000 0.000000 -0.012700 0.000000 0.049728
#
#
# Mechanical properties :
#
#
# Convention : Reuss Voigt Hill
#
# Bulk Modulus (GPa) = -15.92280 25.39845 4.73783
# Shear Modulus (GPa) = 46.31417 24.82548 35.56983
#
# Velocity S-wave (km/s) = 4.82733 3.53426 4.23049
# Velocity P-wave (km/s) = 4.80200 5.42531 5.12314
#
# Compressibility (1/GPa) = -0.06280302
#
# Stress axis : x y z
#
# Youngs Moduli (GPa) = -79.55161 19.92939 -144.35426
#
# Poissons Ratio (x) = 0.17203 -4.12258
# Poissons Ratio (y) = -0.68670 -1.37862
# Poissons Ratio (z) = -2.27189 0.19033
#
# Static dielectric constant tensor:
#      x y z
#    x 1.697760 0.000000 0.014140 
#    y 0.000000 1.658830 0.000000 
#    z 0.014140 0.000000 1.743500 
# 
# From -- ./inp_files/85597.got.cif
#   From: 2010.05.17/outbox.ucp.g08.bks.cvg/sg10_43_cif.got.tgz:85597.got - 2010.06.11 11:31:16.
