data_PCOD9155257
_publ_section_title
;
Structure prediction by ZEFSAII (Michael W. Deem and Ramdas Pophale) SiO2 
 PCOD9155257
Probable space group: P 2/M
;
_chemical_formula_sum "Si O2"
_cell_formula_units_Z 30
_cell_length_a 15.000000
_cell_length_b 21.000000
_cell_length_c 15.000000
_cell_angle_alpha 90.000000
_cell_angle_beta 160.000000
_cell_angle_gamma 90.000000
_cell_volume 1616.045177
_symmetry_space_group_name_H-M "P 2/M"
_symmetry_group_IT_number 10
_symmetry_cell_setting 'monoclinic'
loop_
_space_group_symop_operation_xyz
x,y,z
-x,y,-z
-x,-y,-z
x,-y,z
loop_
_atom_site_type_symbol
_atom_site_label
_atom_site_fract_x
_atom_site_fract_y
_atom_site_fract_z
Si Si1 0.517157 0.670032 0.251300
Si Si2 0.217074 0.000000 0.777530
Si Si3 0.214716 0.190914 0.132859
Si Si4 0.708282 0.337160 0.765441
Si Si5 0.026816 0.102062 0.735574
Si Si6 0.531452 0.926741 0.704816
Si Si7 0.280971 0.575864 0.717316
Si Si8 0.972932 0.242963 0.233406
O O1 0.381171 0.644826 0.216711
O O2 0.629569 0.618611 0.284758
O O3 0.763056 0.715749 0.508685
O O4 0.281542 0.712968 0.988800
O O5 0.155477 0.938420 0.778609
O O6 0.000000 0.000000 0.500000
O O7 0.500000 0.000000 0.000000
O O8 0.314852 0.260041 0.257120
O O9 0.430641 0.135853 0.322041
O O10 0.068271 0.213280 0.904253
O O11 0.000000 0.166484 0.000000
O O12 0.500000 0.364100 0.500000
O O13 0.000000 0.351149 0.000000
O O14 0.022352 0.177074 0.707608
O O15 0.733958 0.081858 0.488022
O O16 0.215349 0.083490 0.995097
O O17 0.534258 0.000000 0.671854
O O18 0.268814 0.500000 0.681774
O O19 0.000000 0.592366 0.500000
O O20 0.500000 0.583340 0.000000
#
# Coordination Sequence:
#
# PCOD9155257 Si02
#       8
#     4   2   4   4   4   4   4   4
#     4  11  20  37  60  90 117 154 196 233 285 342
#     4  12  24  38  58  76  91 124 173 226 278 338
#     4   9  19  32  51  78 111 142 187 237 279 333
#     4  10  19  32  52  80 115 154 194 237 281 333
#     4  11  21  40  54  73 103 134 181 224 282 348
#     4  11  20  34  54  72  97 146 179 223 286 338
#     4  10  22  41  65  93 124 159 195 232 281 344
#     4  10  21  35  59  81 111 152 185 229 289 338
#
# _framework density 18.563836999999999
#
# number of rings (size 3 to 8) (size 9 to 14) (size 15 to 20)
#    0.000    1.600    1.333    6.400    0.000    2.400 
#    0.000    4.000    0.000    5.200    0.000    0.000 
#    0.000    0.533    0.000    0.000    0.000    0.000 
#
# Total GULP energy -167196.983873 kJ/mol
# GULP energy per Si atom -5573.232796 kJ/mol
# Density = 1.852159 g / cm^3
# Si number density = 18.563837 Si / 1000 Ang^3
#
#
#
# Elastic Constant Matrix: (Units=GPa)
#
#
# Indices 1 2 3 4 5 6 
#
# 1 126.2217 57.3122 35.2959 0.0000 32.0015 0.0000
# 2 57.3122 85.8900 32.2871 0.0000 17.5423 0.0000
# 3 35.2959 32.2871 107.5465 0.0000 25.4934 0.0000
# 4 0.0000 0.0000 0.0000 23.1408 0.0000 7.6341
# 5 32.0015 17.5423 25.4934 0.0000 37.6690 0.0000
# 6 0.0000 0.0000 0.0000 7.6341 0.0000 33.7570
#
#
#
# Elastic Compliance Matrix: (Units=1/GPa)
#
#
# Indices 1 2 3 4 5 6 
#
# 1 0.013189 -0.007095 -0.000388 0.000000 -0.007638 0.000000
# 2 -0.007095 0.017496 -0.002884 0.000000 -0.000168 0.000000
# 3 -0.000388 -0.002884 0.011786 0.000000 -0.006304 0.000000
# 4 0.000000 0.000000 0.000000 0.046698 0.000000 -0.010561
# 5 -0.007638 -0.000168 -0.006304 0.000000 0.037380 0.000000
# 6 0.000000 0.000000 0.000000 -0.010561 0.000000 0.032012
#
#
# Mechanical properties :
#
#
# Convention : Reuss Voigt Hill
#
# Bulk Modulus (GPa) = 46.00552 63.27206 54.63879
# Shear Modulus (GPa) = 26.80397 31.89755 29.35076
#
# Velocity S-wave (km/s) = 3.80397 4.14969 3.98058
# Velocity P-wave (km/s) = 6.64302 7.55761 7.11502
#
# Compressibility (1/GPa) = 0.02173652
#
# Stress axis : x y z
#
# Youngs Moduli (GPa) = 75.82039 57.15738 84.84856
#
# Poissons Ratio (x) = 0.40552 0.03292
# Poissons Ratio (y) = 0.53794 0.24471
# Poissons Ratio (z) = 0.02942 0.16484
#
# Static dielectric constant tensor:
#      x y z
#    x 1.703460 0.000000 -0.066240 
#    y 0.000000 1.636110 0.000000 
#    z -0.066240 0.000000 1.692430 
# 
# From -- ./inp_files/67905.got.cif
#   From: 2010.05.17/outbox.ucp.g08.bks.cvg/sg10_34_cif.got.tgz:67905.got - 2010.06.11 11:31:16.
