data_PCOD9155479
_publ_section_title
;
Structure prediction by ZEFSAII (Michael W. Deem and Ramdas Pophale) SiO2 
 PCOD9155479
Probable space group: P 2/M
;
_chemical_formula_sum "Si O2"
_cell_formula_units_Z 28
_cell_length_a 9.000000
_cell_length_b 9.000000
_cell_length_c 27.000000
_cell_angle_alpha 90.000000
_cell_angle_beta 40.000000
_cell_angle_gamma 90.000000
_cell_volume 1405.776502
_symmetry_space_group_name_H-M "P 2/M"
_symmetry_group_IT_number 10
_symmetry_cell_setting 'monoclinic'
loop_
_space_group_symop_operation_xyz
x,y,z
-x,y,-z
-x,-y,-z
x,-y,z
loop_
_atom_site_type_symbol
_atom_site_label
_atom_site_fract_x
_atom_site_fract_y
_atom_site_fract_z
Si Si1 0.674679 0.677169 0.732586
Si Si2 0.782317 0.825771 0.176081
Si Si3 0.455978 0.832103 0.069920
Si Si4 0.309716 0.332053 0.698283
Si Si5 0.878808 0.665006 0.978275
Si Si6 0.842171 0.671381 0.582771
Si Si7 0.925428 0.169355 0.754930
O O1 0.623631 0.500000 0.741149
O O2 0.443286 0.774784 0.796633
O O3 0.807257 0.726444 0.648095
O O4 0.820261 0.715557 0.743367
O O5 0.760182 0.720343 0.229110
O O6 0.004914 0.784103 0.087414
O O7 0.778203 0.000000 0.189618
O O8 0.204176 0.817977 0.158591
O O9 0.532778 0.000000 0.063250
O O10 0.500000 0.815989 0.000000
O O11 0.615131 0.708308 0.053432
O O12 0.228579 0.500000 0.709577
O O13 0.584388 0.330068 0.626840
O O14 0.189878 0.213558 0.693902
O O15 0.903771 0.500000 0.950379
O O16 0.000000 0.668580 0.000000
O O17 0.923571 0.500000 0.568118
O O18 0.000000 0.743725 0.500000
O O19 0.893655 0.000000 0.746349
#
# Coordination Sequence:
#
# PCOD9155479 Si02
#       7
#     4   4   4   4   4   4   4
#     4  10  20  35  57  83 111 144 184 229 273 323
#     4  11  21  35  55  77 106 143 183 226 274 332
#     4  10  22  38  54  74 102 141 186 229 277 329
#     4  10  20  35  58  84 109 140 180 224 268 320
#     4  11  23  36  52  76 104 136 180 233 281 323
#     4   8  16  34  60  87 111 138 178 225 270 320
#     4  11  22  36  55  80 113 149 184 225 276 333
#
# _framework density 19.917818
#
# number of rings (size 3 to 8) (size 9 to 14) (size 15 to 20)
#    0.000    1.857    0.000    5.571    0.000    6.000 
#    0.000    0.714    0.000   19.714    0.000    0.000 
#    0.000    0.000    0.000    0.000    0.000    0.000 
#
# Total GULP energy -156061.695657 kJ/mol
# GULP energy per Si atom -5573.631988 kJ/mol
# Density = 1.987248 g / cm^3
# Si number density = 19.917818 Si / 1000 Ang^3
#
#
#
# Elastic Constant Matrix: (Units=GPa)
#
#
# Indices 1 2 3 4 5 6 
#
# 1 40.2768 11.5215 10.3487 0.0000 -5.4125 0.0000
# 2 11.5215 66.1456 27.7235 0.0000 -3.0161 0.0000
# 3 10.3487 27.7235 81.1989 0.0000 2.3184 0.0000
# 4 0.0000 0.0000 0.0000 14.4279 0.0000 1.2859
# 5 -5.4125 -3.0161 2.3184 0.0000 8.0057 0.0000
# 6 0.0000 0.0000 0.0000 1.2859 0.0000 20.6262
#
#
#
# Elastic Compliance Matrix: (Units=1/GPa)
#
#
# Indices 1 2 3 4 5 6 
#
# 1 0.029111 -0.002786 -0.003318 0.000000 0.019592 0.000000
# 2 -0.002786 0.018497 -0.006156 0.000000 0.006868 0.000000
# 3 -0.003318 -0.006156 0.015095 0.000000 -0.008934 0.000000
# 4 0.000000 0.000000 0.000000 0.069697 0.000000 -0.004345
# 5 0.019592 0.006868 -0.008934 0.000000 0.143332 0.000000
# 6 0.000000 0.000000 0.000000 -0.004345 0.000000 0.048753
#
#
# Mechanical properties :
#
#
# Convention : Reuss Voigt Hill
#
# Bulk Modulus (GPa) = 26.19094 31.86763 29.02928
# Shear Modulus (GPa) = 13.82230 17.81381 15.81805
#
# Velocity S-wave (km/s) = 2.63718 2.99384 2.82115
# Velocity P-wave (km/s) = 4.73825 5.29009 5.02176
#
# Compressibility (1/GPa) = 0.03818114
#
# Stress axis : x y z
#
# Youngs Moduli (GPa) = 34.35157 54.06302 66.24557
#
# Poissons Ratio (x) = 0.15065 0.21981
# Poissons Ratio (y) = 0.09572 0.40783
# Poissons Ratio (z) = 0.11398 0.33283
#
# Static dielectric constant tensor:
#      x y z
#    x 1.782210 0.000000 -0.032280 
#    y 0.000000 1.669330 0.000000 
#    z -0.032280 0.000000 1.704060 
# 
# From -- ./inp_files/36911.got.cif
#   From: 2010.05.17/outbox.ucp.g08.bks.cvg/sg10_19_cif.got.tgz:36911.got - 2010.06.11 11:31:16.
