data_PCOD9155592
_publ_section_title
;
Structure prediction by ZEFSAII (Michael W. Deem and Ramdas Pophale) SiO2 
 PCOD9155592
Probable space group: P 2/M
;
_chemical_formula_sum "Si O2"
_cell_formula_units_Z 28
_cell_length_a 15.000000
_cell_length_b 9.000000
_cell_length_c 21.000000
_cell_angle_alpha 90.000000
_cell_angle_beta 150.000000
_cell_angle_gamma 90.000000
_cell_volume 1417.500000
_symmetry_space_group_name_H-M "P 2/M"
_symmetry_group_IT_number 10
_symmetry_cell_setting 'monoclinic'
loop_
_space_group_symop_operation_xyz
x,y,z
-x,y,-z
-x,-y,-z
x,-y,z
loop_
_atom_site_type_symbol
_atom_site_label
_atom_site_fract_x
_atom_site_fract_y
_atom_site_fract_z
Si Si1 0.606784 0.679968 0.503096
Si Si2 0.106377 0.326556 0.007810
Si Si3 0.943572 0.178400 0.395093
Si Si4 0.605477 0.323280 0.224665
Si Si5 0.484256 0.327480 0.694441
Si Si6 0.036725 0.822197 0.314112
Si Si7 0.199254 0.323336 0.928774
O O1 0.500000 0.728265 0.500000
O O2 0.606690 0.500000 0.503606
O O3 0.533406 0.731957 0.388200
O O4 0.805010 0.743282 0.625999
O O5 0.047713 0.500000 0.966282
O O6 0.310101 0.326964 0.156973
O O7 0.098315 0.268668 0.930821
O O8 0.000000 0.254131 0.000000
O O9 0.741961 0.234779 0.265912
O O10 0.042871 0.226888 0.392096
O O11 0.000000 0.235470 0.500000
O O12 0.953018 0.000000 0.402256
O O13 0.646718 0.500000 0.251197
O O14 0.611507 0.263232 0.301770
O O15 0.406609 0.308799 0.074665
O O16 0.426860 0.500000 0.655393
O O17 0.859825 0.766708 0.169253
O O18 0.051786 0.000000 0.321172
O O19 0.163265 0.500000 0.897917
#
# Coordination Sequence:
#
# PCOD9155592 Si02
#       7
#     4   4   4   4   4   4   4
#     4  10  21  35  56  83 109 141 182 225 271 326
#     4   8  14  25  49  79 105 136 173 218 264 310
#     4  10  22  39  58  80 107 145 190 228 269 328
#     4   9  18  34  57  84 111 141 178 227 280 323
#     4   8  15  29  48  78 111 134 169 219 270 321
#     4  11  24  39  55  78 111 147 183 226 276 327
#     4   9  19  35  55  82 113 143 181 225 273 327
#
# _framework density 19.753086
#
# number of rings (size 3 to 8) (size 9 to 14) (size 15 to 20)
#    0.000    2.714    0.000    3.000    2.000    2.857 
#    0.000    2.857    0.000    1.286    0.000    0.000 
#    0.000    0.000    0.000    0.000    0.000    0.000 
#
# Total GULP energy -155920.204934 kJ/mol
# GULP energy per Si atom -5568.578748 kJ/mol
# Density = 1.970813 g / cm^3
# Si number density = 19.753086 Si / 1000 Ang^3
#
#
#
# Elastic Constant Matrix: (Units=GPa)
#
#
# Indices 1 2 3 4 5 6 
#
# 1 116.5942 14.1886 29.1817 0.0000 3.7651 0.0000
# 2 14.1886 -7.1157 7.9196 0.0000 -4.7060 0.0000
# 3 29.1817 7.9196 53.7068 0.0000 -21.7787 0.0000
# 4 0.0000 0.0000 0.0000 219.5661 0.0000 150.6656
# 5 3.7651 -4.7060 -21.7787 0.0000 28.6166 0.0000
# 6 0.0000 0.0000 0.0000 150.6656 0.0000 136.5220
#
#
#
# Elastic Compliance Matrix: (Units=1/GPa)
#
#
# Indices 1 2 3 4 5 6 
#
# 1 0.009707 0.012791 -0.009872 0.000000 -0.006687 0.000000
# 2 0.012791 -0.102245 0.000906 0.000000 -0.017807 0.000000
# 3 -0.009872 0.000906 0.035345 0.000000 0.028347 0.000000
# 4 0.000000 0.000000 0.000000 0.018765 0.000000 -0.020709
# 5 -0.006687 -0.017807 0.028347 0.000000 0.054470 0.000000
# 6 0.000000 0.000000 0.000000 -0.020709 0.000000 0.030179
#
#
# Mechanical properties :
#
#
# Convention : Reuss Voigt Hill
#
# Bulk Modulus (GPa) = -20.18444 29.52943 4.67250
# Shear Modulus (GPa) = 226.68508 84.40063 155.54285
#
# Velocity S-wave (km/s) = 10.72420 6.54374 8.88338
# Velocity P-wave (km/s) = 11.96261 8.48975 10.37256
#
# Compressibility (1/GPa) = -0.04954311
#
# Stress axis : x y z
#
# Youngs Moduli (GPa) = 103.01874 -9.78046 28.29245
#
# Poissons Ratio (x) = 0.12510 0.27930
# Poissons Ratio (y) = -1.31768 -0.02563
# Poissons Ratio (z) = 1.01700 0.00886
#
# Static dielectric constant tensor:
#      x y z
#    x 1.747690 0.000000 0.005420 
#    y 0.000000 1.666540 0.000000 
#    z 0.005420 0.000000 1.746200 
# 
# From -- ./inp_files/84967.got.cif
#   From: 2010.05.17/outbox.ucp.g08.bks.cvg/sg10_43_cif.got.tgz:84967.got - 2010.06.11 11:31:16.
