data_PCOD9155364
_publ_section_title
;
Structure prediction by ZEFSAII (Michael W. Deem and Ramdas Pophale) SiO2 
 PCOD9155364
Probable space group: P 2/M
;
_chemical_formula_sum "Si O2"
_cell_formula_units_Z 28
_cell_length_a 15.000000
_cell_length_b 9.000000
_cell_length_c 18.000000
_cell_angle_alpha 90.000000
_cell_angle_beta 40.000000
_cell_angle_gamma 90.000000
_cell_volume 1561.973892
_symmetry_space_group_name_H-M "P 2/M"
_symmetry_group_IT_number 10
_symmetry_cell_setting 'monoclinic'
loop_
_space_group_symop_operation_xyz
x,y,z
-x,y,-z
-x,-y,-z
x,-y,z
loop_
_atom_site_type_symbol
_atom_site_label
_atom_site_fract_x
_atom_site_fract_y
_atom_site_fract_z
Si Si1 0.394347 0.675037 0.317901
Si Si2 0.683533 0.822822 0.164245
Si Si3 0.909123 0.679119 0.913525
Si Si4 0.213715 0.178694 0.736263
Si Si5 0.926720 0.820917 0.745760
Si Si6 0.773102 0.323869 0.423370
Si Si7 0.143945 0.679043 0.364547
O O1 0.426994 0.500000 0.285574
O O2 0.534365 0.769754 0.229688
O O3 0.327785 0.689985 0.442313
O O4 0.276058 0.715560 0.332633
O O5 0.705640 0.792048 0.238314
O O6 0.700579 0.000000 0.143154
O O7 0.800754 0.735565 0.043712
O O8 0.915495 0.500000 0.906305
O O9 0.868407 0.747162 0.858790
O O10 0.060347 0.747517 0.836787
O O11 0.278781 0.250838 0.620339
O O12 0.200766 0.000000 0.735612
O O13 0.858106 0.761362 0.713481
O O14 0.085289 0.761003 0.645239
O O15 0.922451 0.000000 0.752441
O O16 0.801950 0.500000 0.393698
O O17 0.144018 0.500000 0.352523
O O18 0.000000 0.714188 0.500000
#
# Coordination Sequence:
#
# PCOD9155364 Si02
#       7
#     4   4   4   4   4   4   4
#     4  10  22  38  58  83 115 153 192 233 280 336
#     4  11  24  40  57  80 117 155 188 234 288 339
#     4  11  22  38  62  86 111 147 194 239 280 332
#     4  10  21  37  58  85 115 150 189 234 288 337
#     4  11  21  34  57  89 119 146 185 235 286 337
#     4  10  19  35  57  84 115 150 191 236 282 331
#     4  10  19  37  61  85 116 150 188 233 281 334
#
# _framework density 17.926036
#
# number of rings (size 3 to 8) (size 9 to 14) (size 15 to 20)
#    0.000    1.571    1.429    6.000    0.000    6.571 
#    0.000    3.571    0.000    4.286    0.000    0.000 
#    0.000    0.000    0.000    0.000    0.000    0.000 
#
# Total GULP energy -156387.226154 kJ/mol
# GULP energy per Si atom -5585.258077 kJ/mol
# Density = 1.788524 g / cm^3
# Si number density = 17.926036 Si / 1000 Ang^3
#
#
#
# Elastic Constant Matrix: (Units=GPa)
#
#
# Indices 1 2 3 4 5 6 
#
# 1 122.7122 45.8330 18.4966 0.0000 11.5618 0.0000
# 2 45.8330 113.5612 18.1768 0.0000 7.9600 0.0000
# 3 18.4966 18.1768 20.2495 0.0000 7.8647 0.0000
# 4 0.0000 0.0000 0.0000 16.0642 0.0000 10.9356
# 5 11.5618 7.9600 7.8647 0.0000 26.5390 0.0000
# 6 0.0000 0.0000 0.0000 10.9356 0.0000 34.4903
#
#
#
# Elastic Compliance Matrix: (Units=1/GPa)
#
#
# Indices 1 2 3 4 5 6 
#
# 1 0.010383 -0.003104 -0.005992 0.000000 -0.001817 0.000000
# 2 -0.003104 0.011215 -0.007289 0.000000 0.000149 0.000000
# 3 -0.005992 -0.007289 0.067282 0.000000 -0.015142 0.000000
# 4 0.000000 0.000000 0.000000 0.079385 0.000000 -0.025170
# 5 -0.001817 0.000149 -0.015142 0.000000 0.042914 0.000000
# 6 0.000000 0.000000 0.000000 -0.025170 0.000000 0.036974
#
#
# Mechanical properties :
#
#
# Convention : Reuss Voigt Hill
#
# Bulk Modulus (GPa) = 17.82277 46.83731 32.33004
# Shear Modulus (GPa) = 16.68743 27.01977 21.85360
#
# Velocity S-wave (km/s) = 3.05438 3.88660 3.49535
# Velocity P-wave (km/s) = 4.73318 6.80630 5.86211
#
# Compressibility (1/GPa) = 0.05610800
#
# Stress axis : x y z
#
# Youngs Moduli (GPa) = 96.31232 89.16665 14.86291
#
# Poissons Ratio (x) = 0.27678 0.08906
# Poissons Ratio (y) = 0.29896 0.10834
# Poissons Ratio (z) = 0.57712 0.64997
#
# Static dielectric constant tensor:
#      x y z
#    x 1.604800 0.000000 0.012090 
#    y 0.000000 1.598670 0.000000 
#    z 0.012090 0.000000 1.620730 
# 
# From -- ./inp_files/77696.got.cif
#   From: 2010.05.17/outbox.ucp.g08.bks.cvg/sg10_39_cif.got.tgz:77696.got - 2010.06.11 11:31:16.
