data_PCOD9155150
_publ_section_title
;
Structure prediction by ZEFSAII (Michael W. Deem and Ramdas Pophale) SiO2 
 PCOD9155150
Probable space group: P 2/M
;
_chemical_formula_sum "Si O2"
_cell_formula_units_Z 28
_cell_length_a 9.000000
_cell_length_b 9.000000
_cell_length_c 27.000000
_cell_angle_alpha 90.000000
_cell_angle_beta 140.000000
_cell_angle_gamma 90.000000
_cell_volume 1405.776502
_symmetry_space_group_name_H-M "P 2/M"
_symmetry_group_IT_number 10
_symmetry_cell_setting 'monoclinic'
loop_
_space_group_symop_operation_xyz
x,y,z
-x,y,-z
-x,-y,-z
x,-y,z
loop_
_atom_site_type_symbol
_atom_site_label
_atom_site_fract_x
_atom_site_fract_y
_atom_site_fract_z
Si Si1 0.835475 0.169864 0.643462
Si Si2 0.449652 0.178685 0.710193
Si Si3 0.977549 0.672853 0.590226
Si Si4 0.615741 0.326573 0.974587
Si Si5 0.067529 0.320496 0.144407
Si Si6 0.821894 0.822662 0.177409
Si Si7 0.658707 0.170625 0.429975
O O1 0.584719 0.169104 0.604259
O O2 0.817289 0.290430 0.595832
O O3 0.033686 0.202603 0.735207
O O4 0.875146 0.000000 0.634515
O O5 0.207154 0.240580 0.667373
O O6 0.675819 0.252104 0.792189
O O7 0.414611 0.222840 0.643452
O O8 0.467652 0.000000 0.718112
O O9 0.024623 0.500000 0.595142
O O10 0.851529 0.739949 0.509732
O O11 0.614696 0.500000 0.959473
O O12 0.442569 0.236548 0.894523
O O13 0.500000 0.317915 0.000000
O O14 0.881799 0.279838 0.053553
O O15 0.076223 0.500000 0.148275
O O16 0.959747 0.258048 0.168122
O O17 0.823172 0.000000 0.169074
O O18 0.739318 0.000000 0.446403
#
# Coordination Sequence:
#
# PCOD9155150 Si02
#       7
#     4   4   4   4   4   4   4
#     4  10  21  39  59  81 111 148 188 229 275 328
#     4  11  22  39  61  83 109 147 189 228 276 330
#     4  12  26  39  54  83 114 146 186 228 281 333
#     4   8  16  29  46  75 113 148 176 216 277 328
#     4  10  19  32  52  80 115 147 179 224 277 328
#     4  10  18  31  53  82 110 143 188 229 269 321
#     4  10  21  40  62  82 107 143 187 232 279 329
#
# _framework density 19.917818
#
# number of rings (size 3 to 8) (size 9 to 14) (size 15 to 20)
#    0.000    1.857    1.429    4.286    0.000    9.429 
#    0.000    0.000    0.000    0.857    0.000    6.000 
#    0.000    0.000    0.000    0.000    0.000    0.000 
#
# Total GULP energy -156199.465423 kJ/mol
# GULP energy per Si atom -5578.552337 kJ/mol
# Density = 1.987248 g / cm^3
# Si number density = 19.917818 Si / 1000 Ang^3
#
#
#
# Elastic Constant Matrix: (Units=GPa)
#
#
# Indices 1 2 3 4 5 6 
#
# 1 32.0071 1.4801 9.4056 0.0000 8.5436 0.0000
# 2 1.4801 65.7794 46.3055 0.0000 5.5226 0.0000
# 3 9.4056 46.3055 140.5438 0.0000 32.2067 0.0000
# 4 0.0000 0.0000 0.0000 41.3821 0.0000 7.8809
# 5 8.5436 5.5226 32.2067 0.0000 23.7676 0.0000
# 6 0.0000 0.0000 0.0000 7.8809 0.0000 4.7652
#
#
#
# Elastic Compliance Matrix: (Units=1/GPa)
#
#
# Indices 1 2 3 4 5 6 
#
# 1 0.034620 -0.000258 0.000879 0.000000 -0.013576 0.000000
# 2 -0.000258 0.020434 -0.008192 0.000000 0.006446 0.000000
# 3 0.000879 -0.008192 0.013622 0.000000 -0.016871 0.000000
# 4 0.000000 0.000000 0.000000 0.035276 0.000000 -0.058340
# 5 -0.013576 0.006446 -0.016871 0.000000 0.068318 0.000000
# 6 0.000000 0.000000 0.000000 -0.058340 0.000000 0.306340
#
#
# Mechanical properties :
#
#
# Convention : Reuss Voigt Hill
#
# Bulk Modulus (GPa) = 18.67986 39.19029 28.93508
# Shear Modulus (GPa) = 9.77333 26.05891 17.91612
#
# Velocity S-wave (km/s) = 2.21754 3.62100 3.00242
# Velocity P-wave (km/s) = 3.99443 6.09925 5.15540
#
# Compressibility (1/GPa) = 0.05353359
#
# Stress axis : x y z
#
# Youngs Moduli (GPa) = 28.88467 48.93810 73.41277
#
# Poissons Ratio (x) = 0.01263 -0.06455
# Poissons Ratio (y) = 0.00746 0.60142
# Poissons Ratio (z) = -0.02540 0.40092
#
# Static dielectric constant tensor:
#      x y z
#    x 1.777720 0.000000 0.020790 
#    y 0.000000 1.684250 0.000000 
#    z 0.020790 0.000000 1.686250 
# 
# From -- ./inp_files/37256.got.cif
#   From: 2010.05.17/outbox.ucp.g08.bks.cvg/sg10_19_cif.got.tgz:37256.got - 2010.06.11 11:31:16.
