data_PCOD9155244
_publ_section_title
;
Structure prediction by ZEFSAII (Michael W. Deem and Ramdas Pophale) SiO2 
 PCOD9155244
Probable space group: P 2/M
;
_chemical_formula_sum "Si O2"
_cell_formula_units_Z 32
_cell_length_a 12.000000
_cell_length_b 9.000000
_cell_length_c 30.000000
_cell_angle_alpha 90.000000
_cell_angle_beta 150.000000
_cell_angle_gamma 90.000000
_cell_volume 1620.000000
_symmetry_space_group_name_H-M "P 2/M"
_symmetry_group_IT_number 10
_symmetry_cell_setting 'monoclinic'
loop_
_space_group_symop_operation_xyz
x,y,z
-x,y,-z
-x,-y,-z
x,-y,z
loop_
_atom_site_type_symbol
_atom_site_label
_atom_site_fract_x
_atom_site_fract_y
_atom_site_fract_z
Si Si1 0.236030 0.321652 0.104305
Si Si2 0.285462 0.178016 0.955016
Si Si3 0.983187 0.320929 0.717931
Si Si4 0.268806 0.179537 0.449399
Si Si5 0.809180 0.178914 0.745663
Si Si6 0.523339 0.820962 0.730982
Si Si7 0.504410 0.677458 0.111445
Si Si8 0.990170 0.180006 0.443406
O O1 0.228271 0.500000 0.108251
O O2 0.301669 0.244176 0.173039
O O3 0.430961 0.286476 0.136161
O O4 0.000000 0.278210 0.000000
O O5 0.046222 0.215743 0.851323
O O6 0.293493 0.000000 0.961083
O O7 0.500000 0.226241 0.000000
O O8 0.327341 0.249039 0.017261
O O9 0.967463 0.500000 0.711500
O O10 0.910897 0.250342 0.646147
O O11 0.829256 0.257053 0.704559
O O12 0.243846 0.278018 0.814331
O O13 0.500000 0.218205 0.500000
O O14 0.175304 0.223507 0.468271
O O15 0.267655 0.000000 0.449745
O O16 0.609757 0.220524 0.710804
O O17 0.797408 0.000000 0.734608
O O18 0.269568 0.777793 0.656668
O O19 0.532330 0.000000 0.735286
O O20 0.490811 0.500000 0.101923
O O21 0.000000 0.225768 0.500000
O O22 0.004808 0.000000 0.449084
#
# Coordination Sequence:
#
# PCOD9155244 Si02
#       8
#     4   4   4   4   4   4   4   4
#     4  10  21  37  56  79 112 153 193 236 285 341
#     4  10  19  32  50  77 111 147 187 239 288 327
#     4  11  23  37  56  83 116 152 189 234 286 337
#     4  10  22  39  64  92 115 147 188 231 285 346
#     4  10  21  36  55  82 115 151 195 239 285 339
#     4  10  21  36  59  86 114 150 192 242 290 339
#     4  10  21  35  53  78 109 150 193 230 279 342
#     4   9  19  37  62  92 121 149 187 236 291 348
#
# _framework density 19.753086
#
# number of rings (size 3 to 8) (size 9 to 14) (size 15 to 20)
#    0.000    2.000    1.250    1.875    1.750    2.750 
#    0.000    0.000    0.000    0.750    0.000    0.000 
#    0.000    0.000    0.000    0.000    0.000    0.000 
#
# Total GULP energy -178314.303691 kJ/mol
# GULP energy per Si atom -5572.321990 kJ/mol
# Density = 1.970813 g / cm^3
# Si number density = 19.753086 Si / 1000 Ang^3
#
#
#
# Elastic Constant Matrix: (Units=GPa)
#
#
# Indices 1 2 3 4 5 6 
#
# 1 157.8733 15.6319 30.7735 0.0000 -0.8633 0.0000
# 2 15.6319 -4.7550 8.7738 0.0000 -1.2778 0.0000
# 3 30.7735 8.7738 65.6081 0.0000 -6.0588 0.0000
# 4 0.0000 0.0000 0.0000 -16.8792 0.0000 30.4748
# 5 -0.8633 -1.2778 -6.0588 0.0000 41.2137 0.0000
# 6 0.0000 0.0000 0.0000 30.4748 0.0000 -6.7828
#
#
#
# Elastic Compliance Matrix: (Units=1/GPa)
#
#
# Indices 1 2 3 4 5 6 
#
# 1 0.006032 0.011730 -0.004413 0.000000 -0.000159 0.000000
# 2 0.011730 -0.145718 0.013777 0.000000 -0.002247 0.000000
# 3 -0.004413 0.013777 0.015714 0.000000 0.002645 0.000000
# 4 0.000000 0.000000 0.000000 0.008330 0.000000 0.037428
# 5 -0.000159 -0.002247 0.002645 0.000000 0.024580 0.000000
# 6 0.000000 0.000000 0.000000 0.037428 0.000000 0.020730
#
#
# Mechanical properties :
#
#
# Convention : Reuss Voigt Hill
#
# Bulk Modulus (GPa) = -12.22762 36.56496 12.16867
# Shear Modulus (GPa) = -35.76987 14.41349 -10.67819
#
# Velocity S-wave (km/s) = -4.26002 2.70419 -2.32757
# Velocity P-wave (km/s) = 5.51369 5.31991 1.02453
#
# Compressibility (1/GPa) = -0.08178206
#
# Stress axis : x y z
#
# Youngs Moduli (GPa) = 165.78329 -6.86259 63.63910
#
# Poissons Ratio (x) = 0.08050 0.28082
# Poissons Ratio (y) = -1.94472 -0.87677
# Poissons Ratio (z) = 0.73155 0.09455
#
# Static dielectric constant tensor:
#      x y z
#    x 1.741900 0.000000 0.008240 
#    y 0.000000 1.650220 0.000000 
#    z 0.008240 0.000000 1.728000 
# 
# From -- ./inp_files/95016.got.cif
#   From: 2010.05.17/outbox.ucp.g08.bks.cvg/sg10_48_cif.got.tgz:95016.got - 2010.06.11 11:31:16.
