data_PCOD9155249
_publ_section_title
;
Structure prediction by ZEFSAII (Michael W. Deem and Ramdas Pophale) SiO2 
 PCOD9155249
Probable space group: P 2/M
;
_chemical_formula_sum "Si O2"
_cell_formula_units_Z 24
_cell_length_a 24.000000
_cell_length_b 9.000000
_cell_length_c 18.000000
_cell_angle_alpha 90.000000
_cell_angle_beta 160.000000
_cell_angle_gamma 90.000000
_cell_volume 1329.774317
_symmetry_space_group_name_H-M "P 2/M"
_symmetry_group_IT_number 10
_symmetry_cell_setting 'monoclinic'
loop_
_space_group_symop_operation_xyz
x,y,z
-x,y,-z
-x,-y,-z
x,-y,z
loop_
_atom_site_type_symbol
_atom_site_label
_atom_site_fract_x
_atom_site_fract_y
_atom_site_fract_z
Si Si1 0.319555 0.176008 0.565150
Si Si2 0.641702 0.676411 0.921903
Si Si3 0.805486 0.828560 0.266848
Si Si4 0.799944 0.178249 0.429436
Si Si5 0.886440 0.322194 0.098806
Si Si6 0.990439 0.320994 0.901561
O O1 0.327751 0.211892 0.664229
O O2 0.173083 0.261065 0.341497
O O3 0.293089 0.000000 0.526453
O O4 0.479506 0.229200 0.724957
O O5 0.610992 0.500000 0.887102
O O6 0.741874 0.727526 0.120213
O O7 0.732517 0.708675 0.958196
O O8 0.768457 0.774132 0.304877
O O9 0.000000 0.834176 0.500000
O O10 0.743433 0.000000 0.181354
O O11 0.964888 0.244504 0.671159
O O12 0.817117 0.000000 0.446117
O O13 0.914611 0.500000 0.136417
O O14 0.881206 0.280018 0.004388
O O15 0.989260 0.500000 0.903772
O O16 0.000000 0.268488 0.000000
#
# Coordination Sequence:
#
# PCOD9155249 Si02
#       6
#     4   4   4   4   4   4
#     4  10  21  36  54  76 106 138 171 211 257 304
#     4  11  22  34  50  75 108 141 173 211 256 301
#     4  10  19  32  52  75 102 136 178 218 254 298
#     4   9  18  33  52  74  99 135 177 216 254 297
#     4   9  18  32  52  77 103 133 169 209 254 305
#     4   9  18  36  61  83 102 128 165 209 258 313
#
# _framework density 18.048175000000001
#
# number of rings (size 3 to 8) (size 9 to 14) (size 15 to 20)
#    0.000    2.333    1.667    1.000    0.000    3.333 
#    0.000    4.167    0.000    5.000    0.000    0.000 
#    0.000    0.000    0.000    0.000    0.000    0.000 
#
# Total GULP energy -133627.204878 kJ/mol
# GULP energy per Si atom -5567.800203 kJ/mol
# Density = 1.800710 g / cm^3
# Si number density = 18.048175 Si / 1000 Ang^3
#
#
#
# Elastic Constant Matrix: (Units=GPa)
#
#
# Indices 1 2 3 4 5 6 
#
# 1 179.0534 14.9044 26.5892 0.0000 -19.8356 0.0000
# 2 14.9044 -12.5137 -10.1018 0.0000 -2.9516 0.0000
# 3 26.5892 -10.1018 16.7725 0.0000 -5.4573 0.0000
# 4 0.0000 0.0000 0.0000 22.2851 0.0000 -1.7533
# 5 -19.8356 -2.9516 -5.4573 0.0000 27.4458 0.0000
# 6 0.0000 0.0000 0.0000 -1.7533 0.0000 25.5451
#
#
#
# Elastic Compliance Matrix: (Units=1/GPa)
#
#
# Indices 1 2 3 4 5 6 
#
# 1 0.005829 0.008172 -0.002846 0.000000 0.004525 0.000000
# 2 0.008172 -0.038259 -0.037865 0.000000 -0.005737 0.000000
# 3 -0.002846 -0.037865 0.042054 0.000000 0.002233 0.000000
# 4 0.000000 0.000000 0.000000 0.045117 0.000000 0.003097
# 5 0.004525 -0.005737 0.002233 0.000000 0.039533 0.000000
# 6 0.000000 0.000000 0.000000 0.003097 0.000000 0.039359
#
#
# Mechanical properties :
#
#
# Convention : Reuss Voigt Hill
#
# Bulk Modulus (GPa) = -18.03305 27.34398 4.65547
# Shear Modulus (GPa) = 27.74318 25.18324 26.46321
#
# Velocity S-wave (km/s) = 3.92493 3.73947 3.83332
# Velocity P-wave (km/s) = 3.24451 5.81621 4.70931
#
# Compressibility (1/GPa) = -0.05545374
#
# Stress axis : x y z
#
# Youngs Moduli (GPa) = 171.56756 -26.13743 23.77892
#
# Poissons Ratio (x) = 0.21359 0.06767
# Poissons Ratio (y) = -1.40205 0.90038
# Poissons Ratio (z) = 0.48824 -0.98969
#
# Static dielectric constant tensor:
#      x y z
#    x 1.668550 0.000000 0.034970 
#    y 0.000000 1.609110 0.000000 
#    z 0.034970 0.000000 1.634220 
# 
# From -- ./inp_files/26996.got.cif
#   From: 2010.05.17/outbox.ucp.g08.bks.cvg/sg10_14_cif.got.tgz:26996.got - 2010.06.11 11:31:16.
