data_PCOD9155348
_publ_section_title
;
Structure prediction by ZEFSAII (Michael W. Deem and Ramdas Pophale) SiO2 
 PCOD9155348
Probable space group: P 2/M
;
_chemical_formula_sum "Si O2"
_cell_formula_units_Z 28
_cell_length_a 27.000000
_cell_length_b 9.000000
_cell_length_c 9.000000
_cell_angle_alpha 90.000000
_cell_angle_beta 40.000000
_cell_angle_gamma 90.000000
_cell_volume 1405.776502
_symmetry_space_group_name_H-M "P 2/M"
_symmetry_group_IT_number 10
_symmetry_cell_setting 'monoclinic'
loop_
_space_group_symop_operation_xyz
x,y,z
-x,y,-z
-x,-y,-z
x,-y,z
loop_
_atom_site_type_symbol
_atom_site_label
_atom_site_fract_x
_atom_site_fract_y
_atom_site_fract_z
Si Si1 0.024075 0.833165 0.614187
Si Si2 0.310595 0.332636 0.124257
Si Si3 0.429963 0.826582 0.267005
Si Si4 0.151359 0.675930 0.465499
Si Si5 0.273046 0.333592 0.559792
Si Si6 0.877535 0.824258 0.153869
Si Si7 0.479390 0.668293 0.716042
O O1 0.090387 0.715416 0.482929
O O2 0.000000 0.837364 0.500000
O O3 0.050998 0.000000 0.594785
O O4 0.953454 0.795472 0.884382
O O5 0.322107 0.500000 0.036884
O O6 0.235315 0.262473 0.225914
O O7 0.284760 0.342030 0.354766
O O8 0.394187 0.264344 0.928046
O O9 0.350491 0.743012 0.432603
O O10 0.461263 0.783351 0.354142
O O11 0.419318 0.000000 0.264363
O O12 0.500000 0.772621 0.000000
O O13 0.158902 0.500000 0.469589
O O14 0.121698 0.747792 0.686867
O O15 0.265275 0.500000 0.636431
O O16 0.196635 0.239660 0.760558
O O17 0.869529 0.000000 0.192164
O O18 0.500000 0.649530 0.500000
O O19 0.481958 0.500000 0.780285
#
# Coordination Sequence:
#
# PCOD9155348 Si02
#       7
#     4   4   4   4   4   4   4
#     4  10  22  40  58  79 113 152 184 219 275 337
#     4   8  16  32  53  79 109 139 177 227 275 318
#     4  11  22  35  55  83 114 148 188 229 275 327
#     4  10  20  35  58  85 111 143 186 232 274 325
#     4  10  19  34  58  84 111 144 184 232 281 324
#     4  10  20  36  59  84 113 144 182 230 276 327
#     4  10  20  36  57  79 109 150 191 230 277 327
#
# _framework density 19.917818
#
# number of rings (size 3 to 8) (size 9 to 14) (size 15 to 20)
#    0.000    2.143    1.429    3.000    0.000    4.000 
#    2.571    0.714    0.000    0.000    0.000    0.000 
#    0.000    0.000    0.000    0.000    0.000    0.000 
#
# Total GULP energy -155904.044955 kJ/mol
# GULP energy per Si atom -5568.001606 kJ/mol
# Density = 1.987248 g / cm^3
# Si number density = 19.917818 Si / 1000 Ang^3
#
#
#
# Elastic Constant Matrix: (Units=GPa)
#
#
# Indices 1 2 3 4 5 6 
#
# 1 79.6486 38.8663 23.1481 0.0000 -28.7211 0.0000
# 2 38.8663 9.7743 2.3571 0.0000 -22.8632 0.0000
# 3 23.1481 2.3571 -15.1025 0.0000 -20.0087 0.0000
# 4 0.0000 0.0000 0.0000 31.0121 0.0000 -25.8212
# 5 -28.7211 -22.8632 -20.0087 0.0000 25.1614 0.0000
# 6 0.0000 0.0000 0.0000 -25.8212 0.0000 52.4357
#
#
#
# Elastic Compliance Matrix: (Units=1/GPa)
#
#
# Indices 1 2 3 4 5 6 
#
# 1 0.009881 0.042575 -0.021624 0.000000 0.032769 0.000000
# 2 0.042575 -0.158223 0.081153 0.000000 -0.030639 0.000000
# 3 -0.021624 0.081153 -0.073866 0.000000 -0.009682 0.000000
# 4 0.000000 0.000000 0.000000 0.054654 0.000000 0.026914
# 5 0.032769 -0.030639 -0.009682 0.000000 0.041608 0.000000
# 6 0.000000 0.000000 0.000000 0.026914 0.000000 0.032324
#
#
# Mechanical properties :
#
#
# Convention : Reuss Voigt Hill
#
# Bulk Modulus (GPa) = -55.55367 22.56261 -16.49553
# Shear Modulus (GPa) = -16.45664 22.38510 2.96423
#
# Velocity S-wave (km/s) = -2.87754 3.35606 1.22125
# Velocity P-wave (km/s) = 6.24438 5.13517 2.51220
#
# Compressibility (1/GPa) = -0.01800061
#
# Stress axis : x y z
#
# Youngs Moduli (GPa) = 101.20593 -6.32019 -13.53808
#
# Poissons Ratio (x) = 0.26908 -0.29275
# Poissons Ratio (y) = -4.30881 1.09866
# Poissons Ratio (z) = 2.18852 0.51290
#
# Static dielectric constant tensor:
#      x y z
#    x 1.860460 0.000000 -0.053990 
#    y 0.000000 1.703350 0.000000 
#    z -0.053990 0.000000 1.695770 
# 
# From -- ./inp_files/36942.got.cif
#   From: 2010.05.17/outbox.ucp.g08.bks.cvg/sg10_19_cif.got.tgz:36942.got - 2010.06.11 11:31:16.
