data_PCOD9155103
_publ_section_title
;
Structure prediction by ZEFSAII (Michael W. Deem and Ramdas Pophale) SiO2 
 PCOD9155103
Probable space group: P 2/M
;
_chemical_formula_sum "Si O2"
_cell_formula_units_Z 32
_cell_length_a 12.000000
_cell_length_b 9.000000
_cell_length_c 21.000000
_cell_angle_alpha 90.000000
_cell_angle_beta 60.000000
_cell_angle_gamma 90.000000
_cell_volume 1964.145616
_symmetry_space_group_name_H-M "P 2/M"
_symmetry_group_IT_number 10
_symmetry_cell_setting 'monoclinic'
loop_
_space_group_symop_operation_xyz
x,y,z
-x,y,-z
-x,-y,-z
x,-y,z
loop_
_atom_site_type_symbol
_atom_site_label
_atom_site_fract_x
_atom_site_fract_y
_atom_site_fract_z
Si Si1 0.802967 0.679290 0.452862
Si Si2 0.945682 0.178387 0.783878
Si Si3 0.084148 0.180096 0.351173
Si Si4 0.917722 0.181651 0.935884
Si Si5 0.242449 0.821298 0.668348
Si Si6 0.304037 0.321349 0.375874
Si Si7 0.398515 0.321337 0.739046
Si Si8 0.187076 0.319410 0.907978
O O1 0.811721 0.500000 0.445049
O O2 0.740733 0.746551 0.405985
O O3 0.725852 0.713410 0.540631
O O4 0.947231 0.749528 0.412109
O O5 0.890480 0.225398 0.730471
O O6 0.893008 0.225427 0.868568
O O7 0.097312 0.214346 0.733898
O O8 0.935133 0.000000 0.787877
O O9 0.197356 0.238704 0.363873
O O10 0.073781 0.000000 0.356564
O O11 0.060094 0.246729 0.911436
O O12 0.918663 0.000000 0.940866
O O13 0.822941 0.251004 0.017148
O O14 0.334901 0.758376 0.696376
O O15 0.252902 0.000000 0.659563
O O16 0.287676 0.500000 0.374253
O O17 0.448502 0.285441 0.309210
O O18 0.387675 0.500000 0.734725
O O19 0.312980 0.285181 0.827449
O O20 0.174739 0.500000 0.914666
#
# Coordination Sequence:
#
# PCOD9155103 Si02
#       8
#     4   4   4   4   4   4   4   4
#     4  10  20  35  55  76 101 132 170 213 259 308
#     4   8  16  30  49  74 102 129 159 203 251 300
#     4  10  20  35  55  79 103 128 167 219 263 297
#     4  10  17  29  50  74 102 134 164 197 250 308
#     4  10  19  33  52  76 105 133 169 211 256 304
#     4  10  22  38  53  72  99 138 179 211 251 308
#     4  10  21  36  52  70 103 143 174 207 251 307
#     4  10  19  30  46  74 105 131 165 208 247 293
#
# _framework density 16.292071
#
# number of rings (size 3 to 8) (size 9 to 14) (size 15 to 20)
#    0.000    2.250    1.250    3.750    0.000    4.000 
#    0.000    4.375    0.000    0.750    0.000    5.250 
#    0.000    0.000    0.000    0.000    0.000    0.000 
#
# Total GULP energy -178283.168133 kJ/mol
# GULP energy per Si atom -5571.349004 kJ/mol
# Density = 1.625499 g / cm^3
# Si number density = 16.292071 Si / 1000 Ang^3
#
#
#
# Elastic Constant Matrix: (Units=GPa)
#
#
# Indices 1 2 3 4 5 6 
#
# 1 64.5457 27.1997 54.8538 0.0000 1.4840 0.0000
# 2 27.1997 64.8388 43.3697 0.0000 0.0437 0.0000
# 3 54.8538 43.3697 174.4428 0.0000 7.4051 0.0000
# 4 0.0000 0.0000 0.0000 29.9302 0.0000 5.5230
# 5 1.4840 0.0437 7.4051 0.0000 27.1080 0.0000
# 6 0.0000 0.0000 0.0000 5.5230 0.0000 23.0400
#
#
#
# Elastic Compliance Matrix: (Units=1/GPa)
#
#
# Indices 1 2 3 4 5 6 
#
# 1 0.022785 -0.005705 -0.005761 0.000000 0.000335 0.000000
# 2 -0.005705 0.019969 -0.003220 0.000000 0.001160 0.000000
# 3 -0.005761 -0.003220 0.008429 0.000000 -0.001982 0.000000
# 4 0.000000 0.000000 0.000000 0.034957 0.000000 -0.008380
# 5 0.000335 0.001160 -0.001982 0.000000 0.037411 0.000000
# 6 0.000000 0.000000 0.000000 -0.008380 0.000000 0.045412
#
#
# Mechanical properties :
#
#
# Convention : Reuss Voigt Hill
#
# Bulk Modulus (GPa) = 45.84790 61.63041 53.73916
# Shear Modulus (GPa) = 24.31856 27.90925 26.11390
#
# Velocity S-wave (km/s) = 3.86769 4.14340 4.00792
# Velocity P-wave (km/s) = 6.93885 7.79750 7.38067
#
# Compressibility (1/GPa) = 0.02181125
#
# Stress axis : x y z
#
# Youngs Moduli (GPa) = 43.88853 50.07718 118.64347
#
# Poissons Ratio (x) = 0.28571 0.68345
# Poissons Ratio (y) = 0.25040 0.38202
# Poissons Ratio (z) = 0.25282 0.16124
#
# Static dielectric constant tensor:
#      x y z
#    x 1.541890 0.000000 0.016190 
#    y 0.000000 1.545930 0.000000 
#    z 0.016190 0.000000 1.569950 
# 
# From -- ./inp_files/83340.got.cif
#   From: 2010.05.17/outbox.ucp.g08.bks.cvg/sg10_42_cif.got.tgz:83340.got - 2010.06.11 11:31:16.
