data_PCOD9155388
_publ_section_title
;
Structure prediction by ZEFSAII (Michael W. Deem and Ramdas Pophale) SiO2 
 PCOD9155388
Probable space group: P 2/M
;
_chemical_formula_sum "Si O2"
_cell_formula_units_Z 20
_cell_length_a 12.000000
_cell_length_b 9.000000
_cell_length_c 27.000000
_cell_angle_alpha 90.000000
_cell_angle_beta 160.000000
_cell_angle_gamma 90.000000
_cell_volume 997.330738
_symmetry_space_group_name_H-M "P 2/M"
_symmetry_group_IT_number 10
_symmetry_cell_setting 'monoclinic'
loop_
_space_group_symop_operation_xyz
x,y,z
-x,y,-z
-x,-y,-z
x,-y,z
loop_
_atom_site_type_symbol
_atom_site_label
_atom_site_fract_x
_atom_site_fract_y
_atom_site_fract_z
Si Si1 0.658484 0.325824 0.205971
Si Si2 0.662525 0.829600 0.015501
Si Si3 0.679312 0.822133 0.525159
Si Si4 0.583788 0.169531 0.686988
Si Si5 0.636970 0.175319 0.824504
O O1 0.728756 0.500000 0.233437
O O2 0.564569 0.275944 0.221984
O O3 0.953002 0.221936 0.312737
O O4 0.397970 0.280763 0.055363
O O5 0.050288 0.836554 0.181074
O O6 0.552960 0.000000 0.958300
O O7 0.500000 0.786353 0.000000
O O8 0.500000 0.767269 0.500000
O O9 0.599559 0.759100 0.436645
O O10 0.626206 0.000000 0.500563
O O11 0.601418 0.222902 0.751800
O O12 0.457028 0.000000 0.639116
O O13 0.543465 0.000000 0.788576
O O14 0.000000 0.182868 0.000000
#
# Coordination Sequence:
#
# PCOD9155388 Si02
#       5
#     4   4   4   4   4
#     4  12  25  38  56  86 126 163 194 233 296 366
#     4  10  19  36  63  90 114 147 200 254 295 343
#     4  10  21  40  64  88 116 152 199 249 295 348
#     4   9  18  34  60  90 112 144 196 253 303 338
#     4  10  19  37  63  86 115 151 199 257 298 339
#
# _framework density 20.053528
#
# number of rings (size 3 to 8) (size 9 to 14) (size 15 to 20)
#    0.000    1.800    2.000    3.000    0.000    5.200 
#    0.000    6.000    0.000    0.000    0.000    0.000 
#    0.000    0.000    0.000    0.000    0.000    0.000 
#
# Total GULP energy -111334.294117 kJ/mol
# GULP energy per Si atom -5566.714706 kJ/mol
# Density = 2.000789 g / cm^3
# Si number density = 20.053528 Si / 1000 Ang^3
#
#
#
# Elastic Constant Matrix: (Units=GPa)
#
#
# Indices 1 2 3 4 5 6 
#
# 1 64.0712 44.5711 -22.4944 0.0000 10.0540 0.0000
# 2 44.5711 -25.2148 2.5673 0.0000 -23.3296 0.0000
# 3 -22.4944 2.5673 31.3302 0.0000 -6.0431 0.0000
# 4 0.0000 0.0000 0.0000 14.1263 0.0000 11.3974
# 5 10.0540 -23.3296 -6.0431 0.0000 19.7610 0.0000
# 6 0.0000 0.0000 0.0000 11.3974 0.0000 38.0134
#
#
#
# Elastic Compliance Matrix: (Units=1/GPa)
#
#
# Indices 1 2 3 4 5 6 
#
# 1 0.010044 0.010038 0.008171 0.000000 0.009239 0.000000
# 2 0.010038 -0.008672 0.005268 0.000000 -0.013734 0.000000
# 3 0.008171 0.005268 0.040117 0.000000 0.014331 0.000000
# 4 0.000000 0.000000 0.000000 0.093379 0.000000 -0.027997
# 5 0.009239 -0.013734 0.014331 0.000000 0.034072 0.000000
# 6 0.000000 0.000000 0.000000 -0.027997 0.000000 0.034701
#
#
# Mechanical properties :
#
#
# Convention : Reuss Voigt Hill
#
# Bulk Modulus (GPa) = 11.30685 13.27497 12.29091
# Shear Modulus (GPa) = 26.85755 17.41631 22.13693
#
# Velocity S-wave (km/s) = 3.66361 2.95021 3.32609
# Velocity P-wave (km/s) = 4.85248 4.27073 4.57087
#
# Compressibility (1/GPa) = 0.08844198
#
# Stress axis : x y z
#
# Youngs Moduli (GPa) = 99.56414 -115.30966 24.92708
#
# Poissons Ratio (x) = 1.15744 -0.20367
# Poissons Ratio (y) = -0.99939 -0.13132
# Poissons Ratio (z) = -0.81351 0.60749
#
# Static dielectric constant tensor:
#      x y z
#    x 1.731790 0.000000 0.003810 
#    y 0.000000 1.669530 0.000000 
#    z 0.003810 0.000000 1.740850 
# 
# From -- ./inp_files/22265.got.cif
#   From: 2010.05.17/outbox.ucp.g08.bks.cvg/sg10_12_cif.got.tgz:22265.got - 2010.06.11 11:31:16.
