data_PCOD9155824
_publ_section_title
;
Structure prediction by ZEFSAII (Michael W. Deem and Ramdas Pophale) SiO2 
 PCOD9155824
Probable space group: P 21/M
;
_chemical_formula_sum "Si O2"
_cell_formula_units_Z 20
_cell_length_a 5.260841
_cell_length_b 14.342899
_cell_length_c 13.597776
_cell_angle_alpha 90.000000
_cell_angle_beta 73.667736
_cell_angle_gamma 90.000000
_cell_volume 984.626570
_symmetry_space_group_name_H-M "P 21/M"
_symmetry_group_IT_number 11
_symmetry_cell_setting 'monoclinic'
loop_
_space_group_symop_operation_xyz
x,y,z
-x,1/2+y,-z
-x,-y,-z
x,1/2-y,z
loop_
_atom_site_type_symbol
_atom_site_label
_atom_site_fract_x
_atom_site_fract_y
_atom_site_fract_z
Si Si1 0.855291 0.612073 0.303570
Si Si2 0.262329 0.062365 0.482265
Si Si3 0.605493 0.069255 0.260923
Si Si4 0.561985 0.750000 0.000257
Si Si5 0.450344 0.887722 0.183495
Si Si6 0.840773 0.250000 0.134210
O O1 0.802105 0.633999 0.423060
O O2 0.814461 0.499780 0.292762
O O3 0.633311 0.648031 0.253237
O O4 0.147354 0.636408 0.237991
O O5 0.376119 0.094056 0.364760
O O6 0.500000 0.000000 0.500000
O O7 0.000000 0.000000 0.500000
O O8 0.745403 0.158672 0.202550
O O9 0.489414 0.999703 0.189409
O O10 0.318297 0.750000 0.951466
O O11 0.844860 0.750000 0.916256
O O12 0.540606 0.839944 0.073728
#
# Coordination Sequence:
#
# PCOD9155824 Si02
#       6
#     4   4   4   2   4   2
#     4   9  18  36  65  89 119 155 190 239 302 372
#     4  10  16  32  63  91 119 154 184 233 298 368
#     4   9  23  38  65  88 127 156 200 242 309 362
#     4  12  28  44  58  86 120 158 218 268 302 344
#     4  10  21  40  63  85 117 160 201 253 300 356
#     4  12  28  42  60  88 122 158 208 266 298 358
#
# _framework density 20.312268
#
# number of rings (size 3 to 8) (size 9 to 14) (size 15 to 20)
#    1.200    0.800    2.000    1.200    2.800    1.600 
#    0.000    2.000    0.000    0.000    0.000    0.000 
#    0.000    0.000    0.000    0.000    0.000    0.000 
#
# Total GULP energy -111433.033236 kJ/mol
# GULP energy per Si atom -5571.651662 kJ/mol
# Density = 2.026604 g / cm^3
# Si number density = 20.312268 Si / 1000 Ang^3
#
#
#
# Elastic Constant Matrix: (Units=GPa)
#
#
# Indices 1 2 3 4 5 6 
#
# 1 112.3212 -5.5567 2.3868 0.0000 -16.2110 0.0000
# 2 -5.5567 89.0646 32.3524 0.0000 -6.9733 0.0000
# 3 2.3868 32.3524 82.2754 0.0000 -20.9303 0.0000
# 4 0.0000 0.0000 0.0000 68.6333 0.0000 8.1819
# 5 -16.2110 -6.9733 -20.9303 0.0000 40.5306 0.0000
# 6 0.0000 0.0000 0.0000 8.1819 0.0000 45.9581
#
#
#
# Elastic Compliance Matrix: (Units=1/GPa)
#
#
# Indices 1 2 3 4 5 6 
#
# 1 0.009535 0.000742 0.000500 0.000000 0.004200 0.000000
# 2 0.000742 0.013164 -0.005234 0.000000 -0.000141 0.000000
# 3 0.000500 -0.005234 0.016140 0.000000 0.007634 0.000000
# 4 0.000000 0.000000 0.000000 0.014886 0.000000 -0.002650
# 5 0.004200 -0.000141 0.007634 0.000000 0.030271 0.000000
# 6 0.000000 0.000000 0.000000 -0.002650 0.000000 0.022231
#
#
# Mechanical properties :
#
#
# Convention : Reuss Voigt Hill
#
# Bulk Modulus (GPa) = 32.40881 38.00291 35.20586
# Shear Modulus (GPa) = 40.16202 47.98966 44.07584
#
# Velocity S-wave (km/s) = 4.45143 4.86593 4.66329
# Velocity P-wave (km/s) = 6.51231 7.09363 6.80918
#
# Compressibility (1/GPa) = 0.03085581
#
# Stress axis : x y z
#
# Youngs Moduli (GPa) = 104.87402 75.96335 61.95805
#
# Poissons Ratio (x) = -0.05637 -0.03097
# Poissons Ratio (y) = -0.07783 0.32428
# Poissons Ratio (z) = -0.05243 0.39758
#
# Static dielectric constant tensor:
#      x y z
#    x 1.690520 0.000000 0.030830 
#    y 0.000000 1.769740 0.000000 
#    z 0.030830 0.000000 1.741320 
# 
# From -- ./inp_files/29711.got.cif
#   From: 2010.05.17/outbox.cif.g08.bks.cpg/sg11_15_cif.got.tgz:29711.got - 2010.06.03 12:22:45.
