data_PCOD9155610
_publ_section_title
;
Structure prediction by ZEFSAII (Michael W. Deem and Ramdas Pophale) SiO2 
 PCOD9155610
Probable space group: P 2/M
;
_chemical_formula_sum "Si O2"
_cell_formula_units_Z 24
_cell_length_a 18.000000
_cell_length_b 9.000000
_cell_length_c 24.000000
_cell_angle_alpha 90.000000
_cell_angle_beta 160.000000
_cell_angle_gamma 90.000000
_cell_volume 1329.774317
_symmetry_space_group_name_H-M "P 2/M"
_symmetry_group_IT_number 10
_symmetry_cell_setting 'monoclinic'
loop_
_space_group_symop_operation_xyz
x,y,z
-x,y,-z
-x,-y,-z
x,-y,z
loop_
_atom_site_type_symbol
_atom_site_label
_atom_site_fract_x
_atom_site_fract_y
_atom_site_fract_z
Si Si1 0.347348 0.676237 0.840047
Si Si2 0.848137 0.321318 0.504619
Si Si3 0.190169 0.332358 0.014655
Si Si4 0.156627 0.168545 0.165357
Si Si5 0.496656 0.330258 0.655227
Si Si6 0.455191 0.825199 0.801140
O O1 0.355815 0.500000 0.832515
O O2 0.420065 0.767475 0.838118
O O3 0.099917 0.713706 0.680445
O O4 0.500000 0.703428 0.000000
O O5 0.820354 0.500000 0.481137
O O6 0.728486 0.275537 0.477318
O O7 0.723640 0.249766 0.365063
O O8 0.180888 0.500000 0.986919
O O9 0.342450 0.332912 0.177454
O O10 0.312100 0.227328 0.057665
O O11 0.959271 0.272842 0.871704
O O12 0.387507 0.228971 0.308206
O O13 0.166279 0.000000 0.191726
O O14 0.000000 0.170791 0.000000
O O15 0.477358 0.500000 0.621778
O O16 0.434097 0.000000 0.782261
#
# Coordination Sequence:
#
# PCOD9155610 Si02
#       6
#     4   4   4   4   4   4
#     4  10  21  37  55  73  95 127 166 205 246 293
#     4   9  18  33  52  73  98 129 166 205 242 286
#     4   9  16  27  43  63  91 127 163 197 235 282
#     4   9  15  22  35  60  94 126 155 191 235 282
#     4   8  14  24  39  61  90 124 158 192 233 280
#     4  11  21  32  49  74 102 130 162 202 247 293
#
# _framework density 18.048175000000001
#
# number of rings (size 3 to 8) (size 9 to 14) (size 15 to 20)
#    0.000    2.667    0.000    4.000    0.000    9.000 
#    0.000    0.000    0.000    0.000    0.000    1.167 
#    0.000    9.333    0.000    0.000    0.000    0.000 
#
# Total GULP energy -133773.056385 kJ/mol
# GULP energy per Si atom -5573.877349 kJ/mol
# Density = 1.800710 g / cm^3
# Si number density = 18.048175 Si / 1000 Ang^3
#
#
#
# Elastic Constant Matrix: (Units=GPa)
#
#
# Indices 1 2 3 4 5 6 
#
# 1 66.9800 39.4504 40.8167 0.0000 34.2268 0.0000
# 2 39.4504 22.2621 42.6180 0.0000 9.2913 0.0000
# 3 40.8167 42.6180 -30.6087 0.0000 6.2825 0.0000
# 4 0.0000 0.0000 0.0000 9.6095 0.0000 29.5173
# 5 34.2268 9.2913 6.2825 0.0000 9.3208 0.0000
# 6 0.0000 0.0000 0.0000 29.5173 0.0000 75.5830
#
#
#
# Elastic Compliance Matrix: (Units=1/GPa)
#
#
# Indices 1 2 3 4 5 6 
#
# 1 -0.016439 0.007697 -0.000341 0.000000 0.052922 0.000000
# 2 0.007697 0.016029 0.020645 0.000000 -0.058159 0.000000
# 3 -0.000341 0.020645 -0.007332 0.000000 -0.014384 0.000000
# 4 0.000000 0.000000 0.000000 -0.521414 0.000000 0.203627
# 5 0.052922 -0.058159 -0.014384 0.000000 -0.019377 0.000000
# 6 0.000000 0.000000 0.000000 0.203627 0.000000 -0.066292
#
#
# Mechanical properties :
#
#
# Convention : Reuss Voigt Hill
#
# Bulk Modulus (GPa) = 20.72096 33.82261 27.27179
# Shear Modulus (GPa) = -7.63661 14.61921 3.49130
#
# Velocity S-wave (km/s) = -2.05923 2.84916 1.39235
# Velocity P-wave (km/s) = 2.41908 5.44100 4.21049
#
# Compressibility (1/GPa) = 0.04826031
#
# Stress axis : x y z
#
# Youngs Moduli (GPa) = -60.83160 62.38640 -136.37915
#
# Poissons Ratio (x) = -0.48021 -0.04657
# Poissons Ratio (y) = 0.46824 2.81560
# Poissons Ratio (z) = -0.02077 -1.28799
#
# Static dielectric constant tensor:
#      x y z
#    x 1.616850 0.000000 0.026590 
#    y 0.000000 1.603730 0.000000 
#    z 0.026590 0.000000 1.606890 
# 
# From -- ./inp_files/27221.got.cif
#   From: 2010.05.17/outbox.ucp.g08.bks.cvg/sg10_14_cif.got.tgz:27221.got - 2010.06.11 11:31:16.
