data_PCOD9155458
_publ_section_title
;
Structure prediction by ZEFSAII (Michael W. Deem and Ramdas Pophale) SiO2 
 PCOD9155458
Probable space group: P 2/M
;
_chemical_formula_sum "Si O2"
_cell_formula_units_Z 32
_cell_length_a 12.000000
_cell_length_b 9.000000
_cell_length_c 30.000000
_cell_angle_alpha 90.000000
_cell_angle_beta 30.000000
_cell_angle_gamma 90.000000
_cell_volume 1620.000000
_symmetry_space_group_name_H-M "P 2/M"
_symmetry_group_IT_number 10
_symmetry_cell_setting 'monoclinic'
loop_
_space_group_symop_operation_xyz
x,y,z
-x,y,-z
-x,-y,-z
x,-y,z
loop_
_atom_site_type_symbol
_atom_site_label
_atom_site_fract_x
_atom_site_fract_y
_atom_site_fract_z
Si Si1 0.569458 0.177184 0.119294
Si Si2 0.479587 0.178169 0.768164
Si Si3 0.843960 0.822548 0.360424
Si Si4 0.763816 0.675916 0.829165
Si Si5 0.495138 0.819849 0.665008
Si Si6 0.634574 0.176009 0.522582
Si Si7 0.003126 0.326270 0.062777
Si Si8 0.988554 0.326307 0.169265
O O1 0.439109 0.219854 0.210352
O O2 0.433520 0.231187 0.123925
O O3 0.600603 0.000000 0.108384
O O4 0.806737 0.258394 0.033912
O O5 0.572512 0.230001 0.687864
O O6 0.225266 0.234557 0.857802
O O7 0.487363 0.000000 0.763746
O O8 0.612220 0.810399 0.413337
O O9 0.799362 0.770830 0.426658
O O10 0.022995 0.722563 0.273980
O O11 0.904151 0.000000 0.339342
O O12 0.717307 0.500000 0.842534
O O13 0.831694 0.715437 0.855987
O O14 0.628622 0.764834 0.575127
O O15 0.239100 0.767123 0.748315
O O16 0.498740 0.000000 0.662766
O O17 0.680603 0.000000 0.509959
O O18 0.962008 0.500000 0.067312
O O19 0.080638 0.315584 0.087483
O O20 0.929187 0.500000 0.197635
#
# Coordination Sequence:
#
# PCOD9155458 Si02
#       8
#     4   4   4   4   4   4   4   4
#     4  11  23  37  51  70  97 131 168 207 247 286
#     4   9  19  34  53  76 100 125 162 209 247 281
#     4   9  16  29  48  74 104 132 159 194 240 289
#     4  11  22  35  50  70 100 135 168 201 239 292
#     4   9  15  28  52  77  99 127 161 198 240 290
#     4   8  14  25  48  78 104 127 157 195 239 289
#     4  10  20  35  55  76  98 125 159 203 251 297
#     4   9  19  33  48  71 102 130 157 197 248 291
#
# _framework density 19.753086
#
# number of rings (size 3 to 8) (size 9 to 14) (size 15 to 20)
#    0.000    2.500    1.250    2.250    0.000    4.000 
#    0.000    4.375    0.000    0.750    0.000    5.250 
#    0.000    0.000    0.000    0.000    0.000    0.000 
#
# Total GULP energy -178307.369148 kJ/mol
# GULP energy per Si atom -5572.105286 kJ/mol
# Density = 1.970813 g / cm^3
# Si number density = 19.753086 Si / 1000 Ang^3
#
#
#
# Elastic Constant Matrix: (Units=GPa)
#
#
# Indices 1 2 3 4 5 6 
#
# 1 57.7655 -15.0160 2.0159 0.0000 27.5473 0.0000
# 2 -15.0160 -23.8804 -18.1658 0.0000 0.4257 0.0000
# 3 2.0159 -18.1658 20.3931 0.0000 26.6936 0.0000
# 4 0.0000 0.0000 0.0000 41.1493 0.0000 11.2393
# 5 27.5473 0.4257 26.6936 0.0000 34.9066 0.0000
# 6 0.0000 0.0000 0.0000 11.2393 0.0000 23.6196
#
#
#
# Elastic Compliance Matrix: (Units=1/GPa)
#
#
# Indices 1 2 3 4 5 6 
#
# 1 0.023640 -0.024366 0.011848 0.000000 -0.027419 0.000000
# 2 -0.024366 0.025173 -0.066367 0.000000 0.069673 0.000000
# 3 0.011848 -0.066367 0.075890 0.000000 -0.066575 0.000000
# 4 0.000000 0.000000 0.000000 0.027932 0.000000 -0.013291
# 5 -0.027419 0.069673 -0.066575 0.000000 0.100347 0.000000
# 6 0.000000 0.000000 0.000000 -0.013291 0.000000 0.048662
#
#
# Mechanical properties :
#
#
# Convention : Reuss Voigt Hill
#
# Bulk Modulus (GPa) = -30.24229 -0.89484 -15.56857
# Shear Modulus (GPa) = 11.15097 25.63137 18.39117
#
# Velocity S-wave (km/s) = 2.37854 3.60611 3.05463
# Velocity P-wave (km/s) = 2.79288 4.10910 2.13127
#
# Compressibility (1/GPa) = -0.03306627
#
# Stress axis : x y z
#
# Youngs Moduli (GPa) = 42.30200 39.72479 13.17694
#
# Poissons Ratio (x) = 0.96794 -0.15612
# Poissons Ratio (y) = 1.03074 0.87451
# Poissons Ratio (z) = -0.50120 2.63640
#
# Static dielectric constant tensor:
#      x y z
#    x 1.781970 0.000000 0.032580 
#    y 0.000000 1.654910 0.000000 
#    z 0.032580 0.000000 1.701830 
# 
# From -- ./inp_files/54850.got.cif
#   From: 2010.05.17/outbox.ucp.g08.bks.cvg/sg10_28_cif.got.tgz:54850.got - 2010.06.11 11:31:16.
