data_PCOD9155897
_publ_section_title
;
Structure prediction by ZEFSAII (Michael W. Deem and Ramdas Pophale) SiO2 
 PCOD9155897
Probable space group: P 21/M
;
_chemical_formula_sum "Si O2"
_cell_formula_units_Z 28
_cell_length_a 14.027690
_cell_length_b 8.734393
_cell_length_c 19.135270
_cell_angle_alpha 90.000000
_cell_angle_beta 150.175927
_cell_angle_gamma 90.000000
_cell_volume 1166.018856
_symmetry_space_group_name_H-M "P 21/M"
_symmetry_group_IT_number 11
_symmetry_cell_setting 'monoclinic'
loop_
_space_group_symop_operation_xyz
x,y,z
-x,1/2+y,-z
-x,-y,-z
x,1/2-y,z
loop_
_atom_site_type_symbol
_atom_site_label
_atom_site_fract_x
_atom_site_fract_y
_atom_site_fract_z
Si Si1 0.560225 0.432484 0.935491
Si Si2 0.268199 0.574836 0.391828
Si Si3 0.238744 0.428242 0.515836
Si Si4 0.888361 0.574912 0.229469
Si Si5 0.211653 0.930836 0.641685
Si Si6 0.223850 0.932430 0.071971
Si Si7 0.227662 0.431804 0.220341
O O1 0.565148 0.250000 0.949912
O O2 0.345425 0.489760 0.784663
O O3 0.668364 0.468764 0.931104
O O4 0.684550 0.516635 0.073652
O O5 0.333637 0.750000 0.436876
O O6 0.309674 0.500822 0.344002
O O7 0.328216 0.482171 0.499329
O O8 0.036163 0.577458 0.257173
O O9 0.271132 0.250000 0.550079
O O10 0.011229 0.462845 0.357302
O O11 0.296961 0.527619 0.619293
O O12 0.882902 0.750000 0.252829
O O13 0.206213 0.750000 0.648535
O O14 0.000000 0.000000 0.500000
O O15 0.238068 0.750000 0.090507
O O16 0.297335 0.008173 0.189871
O O17 0.999491 0.972219 0.922333
O O18 0.244613 0.250000 0.233385
#
# Coordination Sequence:
#
# PCOD9155897 Si02
#       7
#     4   4   4   4   4   4   4
#     4  11  21  37  60  87 119 155 196 242 293 344
#     4   9  17  29  50  78 112 149 190 231 276 331
#     4  10  19  36  61  87 115 151 193 234 285 347
#     4   9  18  32  55  86 116 152 192 235 283 337
#     4  12  26  45  65  88 116 149 190 236 292 353
#     4   9  18  29  44  72 113 154 190 234 285 336
#     4  10  17  26  45  76 113 153 195 238 282 331
#
# _framework density 24.013335000000001
#
# number of rings (size 3 to 8) (size 9 to 14) (size 15 to 20)
#    0.857    1.143    1.429    3.857    0.000    1.714 
#    0.000    0.714    0.000    0.857    0.000    0.000 
#    0.000    0.000    0.000    0.000    0.000    0.000 
#
# Total GULP energy -156629.695350 kJ/mol
# GULP energy per Si atom -5593.917691 kJ/mol
# Density = 2.395868 g / cm^3
# Si number density = 24.013335 Si / 1000 Ang^3
#
#
#
# Elastic Constant Matrix: (Units=GPa)
#
#
# Indices 1 2 3 4 5 6 
#
# 1 91.6980 6.0450 13.9820 0.0000 -0.9212 0.0000
# 2 6.0450 68.4470 14.7983 0.0000 -15.5810 0.0000
# 3 13.9820 14.7983 143.3495 0.0000 -7.0799 0.0000
# 4 0.0000 0.0000 0.0000 17.0433 0.0000 -12.2193
# 5 -0.9212 -15.5810 -7.0799 0.0000 40.5885 0.0000
# 6 0.0000 0.0000 0.0000 -12.2193 0.0000 29.7154
#
#
#
# Elastic Compliance Matrix: (Units=1/GPa)
#
#
# Indices 1 2 3 4 5 6 
#
# 1 0.011111 -0.000817 -0.001011 0.000000 -0.000238 0.000000
# 2 -0.000817 0.016336 -0.001309 0.000000 0.006024 0.000000
# 3 -0.001011 -0.001309 0.007246 0.000000 0.000738 0.000000
# 4 0.000000 0.000000 0.000000 0.083204 0.000000 0.034214
# 5 -0.000238 0.006024 0.000738 0.000000 0.027074 0.000000
# 6 0.000000 0.000000 0.000000 0.034214 0.000000 0.047722
#
#
# Mechanical properties :
#
#
# Convention : Reuss Voigt Hill
#
# Bulk Modulus (GPa) = 35.18747 41.46056 38.32401
# Shear Modulus (GPa) = 23.98767 35.38072 29.68420
#
# Velocity S-wave (km/s) = 3.16402 3.84262 3.51971
# Velocity P-wave (km/s) = 5.29463 6.08201 5.70193
#
# Compressibility (1/GPa) = 0.02841921
#
# Stress axis : x y z
#
# Youngs Moduli (GPa) = 90.00094 61.21306 138.00311
#
# Poissons Ratio (x) = 0.05000 0.13954
# Poissons Ratio (y) = 0.07351 0.18068
# Poissons Ratio (z) = 0.09101 0.08014
#
# Static dielectric constant tensor:
#      x y z
#    x 2.018870 0.000000 0.068660 
#    y 0.000000 1.794600 0.000000 
#    z 0.068660 0.000000 1.965900 
# 
# From -- ./inp_files/65470.got.cif
#   From: 2010.05.17/outbox.cif.g08.bks.cpg/sg11_33_cif.got.tgz:65470.got - 2010.06.03 12:22:45.
