data_PCOD9155471
_publ_section_title
;
Structure prediction by ZEFSAII (Michael W. Deem and Ramdas Pophale) SiO2 
 PCOD9155471
Probable space group: P 2/M
;
_chemical_formula_sum "Si O2"
_cell_formula_units_Z 28
_cell_length_a 24.000000
_cell_length_b 9.000000
_cell_length_c 21.000000
_cell_angle_alpha 90.000000
_cell_angle_beta 20.000000
_cell_angle_gamma 90.000000
_cell_volume 1551.403370
_symmetry_space_group_name_H-M "P 2/M"
_symmetry_group_IT_number 10
_symmetry_cell_setting 'monoclinic'
loop_
_space_group_symop_operation_xyz
x,y,z
-x,y,-z
-x,-y,-z
x,-y,z
loop_
_atom_site_type_symbol
_atom_site_label
_atom_site_fract_x
_atom_site_fract_y
_atom_site_fract_z
Si Si1 0.460012 0.668476 0.244079
Si Si2 0.404105 0.317208 0.445720
Si Si3 0.769457 0.180082 0.071462
Si Si4 0.038052 0.821857 0.533408
Si Si5 0.843806 0.329394 0.857953
Si Si6 0.386632 0.319390 0.181420
Si Si7 0.058669 0.820936 0.864434
O O1 0.393977 0.500000 0.311958
O O2 0.392468 0.731269 0.383252
O O3 0.435037 0.733667 0.200606
O O4 0.652832 0.662087 0.047231
O O5 0.412153 0.500000 0.440398
O O6 0.583652 0.252457 0.276557
O O7 0.234517 0.258083 0.659887
O O8 0.750636 0.000000 0.089468
O O9 0.846793 0.241746 0.921996
O O10 0.905554 0.214738 0.980590
O O11 0.927004 0.749983 0.708205
O O12 0.000000 0.788664 0.500000
O O13 0.212834 0.750424 0.356269
O O14 0.036043 0.000000 0.543011
O O15 0.905125 0.500000 0.799303
O O16 0.383626 0.500000 0.184817
O O17 0.500000 0.275344 0.000000
O O18 0.084530 0.000000 0.832036
O O19 0.000000 0.787521 0.000000
#
# Coordination Sequence:
#
# PCOD9155471 Si02
#       7
#     4   4   4   4   4   4   4
#     4   8  17  34  55  82 110 141 184 236 290 342
#     4  10  21  38  61  90 125 162 204 252 306 365
#     4  10  21  39  63  91 124 161 203 250 307 367
#     4  11  24  38  52  77 114 152 191 237 291 350
#     4  10  20  37  61  85 112 148 192 242 294 351
#     4  10  20  35  56  80 107 144 191 240 289 344
#     4  10  23  42  63  89 123 164 208 254 306 368
#
# _framework density 18.048175000000001
#
# number of rings (size 3 to 8) (size 9 to 14) (size 15 to 20)
#    0.000    2.143    0.000    3.429    2.000    4.571 
#    0.000    6.429    0.000    0.000    0.000    0.000 
#    0.000    0.000    0.000    0.000    0.000    0.000 
#
# Total GULP energy -155916.440151 kJ/mol
# GULP energy per Si atom -5568.444291 kJ/mol
# Density = 1.800710 g / cm^3
# Si number density = 18.048175 Si / 1000 Ang^3
#
#
#
# Elastic Constant Matrix: (Units=GPa)
#
#
# Indices 1 2 3 4 5 6 
#
# 1 274.2512 147.7307 91.0181 0.0000 -2.7173 0.0000
# 2 147.7307 172.5880 62.8808 0.0000 -6.1886 0.0000
# 3 91.0181 62.8808 152.2055 0.0000 23.4586 0.0000
# 4 0.0000 0.0000 0.0000 34.8958 0.0000 -0.4349
# 5 -2.7173 -6.1886 23.4586 0.0000 35.1211 0.0000
# 6 0.0000 0.0000 0.0000 -0.4349 0.0000 21.9518
#
#
#
# Elastic Compliance Matrix: (Units=1/GPa)
#
#
# Indices 1 2 3 4 5 6 
#
# 1 0.007336 -0.005382 -0.002346 0.000000 0.001186 0.000000
# 2 -0.005382 0.011163 -0.001820 0.000000 0.002766 0.000000
# 3 -0.002346 -0.001820 0.009812 0.000000 -0.007056 0.000000
# 4 0.000000 0.000000 0.000000 0.028664 0.000000 0.000568
# 5 0.001186 0.002766 -0.007056 0.000000 0.033765 0.000000
# 6 0.000000 0.000000 0.000000 0.000568 0.000000 0.045566
#
#
# Mechanical properties :
#
#
# Convention : Reuss Voigt Hill
#
# Bulk Modulus (GPa) = 108.51213 133.58932 121.05073
# Shear Modulus (GPa) = 31.55102 38.22139 34.88620
#
# Velocity S-wave (km/s) = 4.18563 4.60689 4.40130
# Velocity P-wave (km/s) = 9.14404 10.12308 9.64599
#
# Compressibility (1/GPa) = 0.00921556
#
# Stress axis : x y z
#
# Youngs Moduli (GPa) = 136.31930 89.58093 101.91160
#
# Poissons Ratio (x) = 0.48211 0.23910
# Poissons Ratio (y) = 0.73365 0.18546
# Poissons Ratio (z) = 0.31983 0.16302
#
# Static dielectric constant tensor:
#      x y z
#    x 1.676910 0.000000 0.016540 
#    y 0.000000 1.626030 0.000000 
#    z 0.016540 0.000000 1.622060 
# 
# From -- ./inp_files/86464.got.cif
#   From: 2010.05.17/outbox.ucp.g08.bks.cvg/sg10_44_cif.got.tgz:86464.got - 2010.06.11 11:31:16.
