data_PCOD9155816
_publ_section_title
;
Structure prediction by ZEFSAII (Michael W. Deem and Ramdas Pophale) SiO2 
 PCOD9155816
Probable space group: P 21/M
;
_chemical_formula_sum "Si O2"
_cell_formula_units_Z 24
_cell_length_a 5.293970
_cell_length_b 12.124275
_cell_length_c 18.683993
_cell_angle_alpha 90.000000
_cell_angle_beta 74.099136
_cell_angle_gamma 90.000000
_cell_volume 1153.355936
_symmetry_space_group_name_H-M "P 21/M"
_symmetry_group_IT_number 11
_symmetry_cell_setting 'monoclinic'
loop_
_space_group_symop_operation_xyz
x,y,z
-x,1/2+y,-z
-x,-y,-z
x,1/2-y,z
loop_
_atom_site_type_symbol
_atom_site_label
_atom_site_fract_x
_atom_site_fract_y
_atom_site_fract_z
Si Si1 0.335428 0.013806 0.401993
Si Si2 0.572413 0.074980 0.241161
Si Si3 0.748374 0.926593 0.002522
Si Si4 0.191472 0.119079 0.563774
Si Si5 0.155367 0.409967 0.160138
Si Si6 0.438748 0.626137 0.164131
O O1 0.390037 0.126802 0.193657
O O2 0.253213 0.088086 0.476171
O O3 0.442808 0.085406 0.328122
O O4 0.081878 0.942882 0.397922
O O5 0.570111 0.933552 0.409645
O O6 0.559832 0.944382 0.220016
O O7 0.869952 0.113179 0.213004
O O8 0.817369 0.868120 0.922682
O O9 0.649138 0.870129 0.082754
O O10 0.500000 0.000000 0.000000
O O11 0.000000 0.000000 0.000000
O O12 0.172697 0.250000 0.574768
O O13 0.204673 0.543999 0.156602
O O14 0.357782 0.750000 0.188078
#
# Coordination Sequence:
#
# PCOD9155816 Si02
#       6
#     4   4   4   4   4   4
#     4  10  21  37  57  85 111 143 184 223 274 333
#     4  10  19  33  50  73 104 135 162 211 263 320
#     4  10  16  32  48  65  91 135 172 195 235 304
#     4  10  21  38  59  81 111 146 184 222 268 330
#     4   9  18  32  49  68  98 139 169 200 259 313
#     4   9  20  30  47  74 100 128 168 214 259 303
#
# _framework density 20.80884
#
# number of rings (size 3 to 8) (size 9 to 14) (size 15 to 20)
#    1.000    1.333    1.667    1.500    0.000    2.000 
#    0.000    0.000    0.000    2.000    0.000    0.000 
#    0.000    0.000    0.000    0.000    0.000    0.000 
#
# Total GULP energy -133746.043868 kJ/mol
# GULP energy per Si atom -5572.751828 kJ/mol
# Density = 2.076148 g / cm^3
# Si number density = 20.808840 Si / 1000 Ang^3
#
#
#
# Elastic Constant Matrix: (Units=GPa)
#
#
# Indices 1 2 3 4 5 6 
#
# 1 107.2230 11.7140 12.5950 0.0000 -37.0185 0.0000
# 2 11.7140 83.6724 -16.9235 0.0000 -6.2570 0.0000
# 3 12.5950 -16.9235 89.8584 0.0000 -18.3632 0.0000
# 4 0.0000 0.0000 0.0000 -1.7489 0.0000 -8.6562
# 5 -37.0185 -6.2570 -18.3632 0.0000 31.9898 0.0000
# 6 0.0000 0.0000 0.0000 -8.6562 0.0000 -37.1615
#
#
#
# Elastic Compliance Matrix: (Units=1/GPa)
#
#
# Indices 1 2 3 4 5 6 
#
# 1 0.015779 -0.000457 0.001603 0.000000 0.019090 0.000000
# 2 -0.000457 0.012976 0.003306 0.000000 0.003907 0.000000
# 3 0.001603 0.003306 0.013638 0.000000 0.010331 0.000000
# 4 0.000000 0.000000 0.000000 3.739169 0.000000 -0.870986
# 5 0.019090 0.003907 0.010331 0.000000 0.060045 0.000000
# 6 0.000000 0.000000 0.000000 -0.870986 0.000000 0.175974
#
#
# Mechanical properties :
#
#
# Convention : Reuss Voigt Hill
#
# Bulk Modulus (GPa) = 19.49383 32.83610 26.16497
# Shear Modulus (GPa) = 1.24200 16.84043 9.04122
#
# Velocity S-wave (km/s) = 0.77341 2.84789 2.08670
# Velocity P-wave (km/s) = 3.19154 5.16025 4.29034
#
# Compressibility (1/GPa) = 0.05129827
#
# Stress axis : x y z
#
# Youngs Moduli (GPa) = 63.37632 77.06366 73.32591
#
# Poissons Ratio (x) = 0.03523 -0.11758
# Poissons Ratio (y) = 0.02897 -0.24244
# Poissons Ratio (z) = -0.10162 -0.25480
#
# Static dielectric constant tensor:
#      x y z
#    x 1.709440 0.000000 0.012560 
#    y 0.000000 1.773400 0.000000 
#    z 0.012560 0.000000 1.757140 
# 
# From -- ./inp_files/62799.got.cif
#   From: 2010.05.17/outbox.cif.g08.bks.cpg/sg11_32_cif.got.tgz:62799.got - 2010.06.03 12:22:45.
