data_PCOD9155203
_publ_section_title
;
Structure prediction by ZEFSAII (Michael W. Deem and Ramdas Pophale) SiO2 
 PCOD9155203
Probable space group: P 2/M
;
_chemical_formula_sum "Si O2"
_cell_formula_units_Z 28
_cell_length_a 15.000000
_cell_length_b 9.000000
_cell_length_c 12.000000
_cell_angle_alpha 90.000000
_cell_angle_beta 120.000000
_cell_angle_gamma 90.000000
_cell_volume 1402.961154
_symmetry_space_group_name_H-M "P 2/M"
_symmetry_group_IT_number 10
_symmetry_cell_setting 'monoclinic'
loop_
_space_group_symop_operation_xyz
x,y,z
-x,y,-z
-x,-y,-z
x,-y,z
loop_
_atom_site_type_symbol
_atom_site_label
_atom_site_fract_x
_atom_site_fract_y
_atom_site_fract_z
Si Si1 0.786930 0.322502 0.367221
Si Si2 0.815654 0.322759 0.637238
Si Si3 0.994207 0.171051 0.128713
Si Si4 0.420475 0.325491 0.051582
Si Si5 0.581580 0.837030 0.265652
Si Si6 0.182543 0.678246 0.852979
Si Si7 0.389613 0.832972 0.454461
O O1 0.791401 0.500000 0.370640
O O2 0.821459 0.271108 0.510886
O O3 0.668630 0.274385 0.277110
O O4 0.844093 0.273878 0.290707
O O5 0.807965 0.500000 0.631871
O O6 0.713985 0.256274 0.632269
O O7 0.915927 0.268123 0.761928
O O8 0.887120 0.234772 0.105115
O O9 0.007327 0.000000 0.171119
O O10 0.000000 0.179411 0.000000
O O11 0.428458 0.500000 0.083023
O O12 0.468200 0.226774 0.178651
O O13 0.500000 0.295733 0.000000
O O14 0.302853 0.293264 0.950622
O O15 0.606960 0.849110 0.410670
O O16 0.591252 0.000000 0.219167
O O17 0.166211 0.500000 0.851844
O O18 0.500000 0.760062 0.500000
O O19 0.387248 0.000000 0.402810
#
# Coordination Sequence:
#
# PCOD9155203 Si02
#       7
#     4   4   4   4   4   4   4
#     4   9  18  36  59  86 119 150 183 230 295 354
#     4  10  21  38  64  90 115 150 193 244 292 344
#     4  11  26  46  63  81 114 157 197 243 297 350
#     4  10  19  34  55  80 116 157 188 226 287 347
#     4  10  19  30  50  81 116 153 191 235 279 334
#     4  10  21  38  62  88 116 154 199 243 288 348
#     4   9  19  36  56  81 117 157 193 233 288 345
#
# _framework density 19.957787
#
# number of rings (size 3 to 8) (size 9 to 14) (size 15 to 20)
#    0.000    2.143    1.429    1.286    0.000    5.714 
#    0.000    7.143    0.000    0.000    0.000    0.000 
#    0.000    0.000    0.000    0.000    0.000    0.000 
#
# Total GULP energy -156025.010228 kJ/mol
# GULP energy per Si atom -5572.321794 kJ/mol
# Density = 1.991236 g / cm^3
# Si number density = 19.957787 Si / 1000 Ang^3
#
#
#
# Elastic Constant Matrix: (Units=GPa)
#
#
# Indices 1 2 3 4 5 6 
#
# 1 77.9163 23.6423 3.8566 0.0000 -2.3614 0.0000
# 2 23.6423 -5.6849 22.5353 0.0000 9.3497 0.0000
# 3 3.8566 22.5353 39.5749 0.0000 14.3793 0.0000
# 4 0.0000 0.0000 0.0000 10.9682 0.0000 5.1055
# 5 -2.3614 9.3497 14.3793 0.0000 16.6020 0.0000
# 6 0.0000 0.0000 0.0000 5.1055 0.0000 19.0206
#
#
#
# Elastic Compliance Matrix: (Units=1/GPa)
#
#
# Indices 1 2 3 4 5 6 
#
# 1 0.009817 0.011499 -0.008258 0.000000 0.002073 0.000000
# 2 0.011499 -0.040189 0.018892 0.000000 0.007906 0.000000
# 3 -0.008258 0.018892 0.028612 0.000000 -0.036596 0.000000
# 4 0.000000 0.000000 0.000000 0.104190 0.000000 -0.027966
# 5 0.002073 0.007906 -0.036596 0.000000 0.087772 0.000000
# 6 0.000000 0.000000 0.000000 -0.027966 0.000000 0.060081
#
#
# Mechanical properties :
#
#
# Convention : Reuss Voigt Hill
#
# Bulk Modulus (GPa) = 23.52580 23.54164 23.53372
# Shear Modulus (GPa) = 22.70817 13.43630 18.07223
#
# Velocity S-wave (km/s) = 3.37680 2.59749 3.01246
# Velocity P-wave (km/s) = 5.19780 4.56260 4.89052
#
# Compressibility (1/GPa) = 0.04250652
#
# Stress axis : x y z
#
# Youngs Moduli (GPa) = 101.86841 -24.88214 34.94983
#
# Poissons Ratio (x) = 0.28613 0.28861
# Poissons Ratio (y) = -1.17141 -0.66027
# Poissons Ratio (z) = 0.84121 0.47007
#
# Static dielectric constant tensor:
#      x y z
#    x 1.709200 0.000000 -0.031170 
#    y 0.000000 1.705330 0.000000 
#    z -0.031170 0.000000 1.743330 
# 
# From -- ./inp_files/50069.got.cif
#   From: 2010.05.17/outbox.ucp.g08.bks.cvg/sg10_26_cif.got.tgz:50069.got - 2010.06.11 11:31:16.
