data_PCOD9155501
_publ_section_title
;
Structure prediction by ZEFSAII (Michael W. Deem and Ramdas Pophale) SiO2 
 PCOD9155501
Probable space group: P 2/M
;
_chemical_formula_sum "Si O2"
_cell_formula_units_Z 32
_cell_length_a 12.000000
_cell_length_b 9.000000
_cell_length_c 15.000000
_cell_angle_alpha 90.000000
_cell_angle_beta 90.000000
_cell_angle_gamma 90.000000
_cell_volume 1620.000000
_symmetry_space_group_name_H-M "P 2/M"
_symmetry_group_IT_number 10
_symmetry_cell_setting 'monoclinic'
loop_
_space_group_symop_operation_xyz
x,y,z
-x,y,-z
-x,-y,-z
x,-y,z
loop_
_atom_site_type_symbol
_atom_site_label
_atom_site_fract_x
_atom_site_fract_y
_atom_site_fract_z
Si Si1 0.620867 0.172121 0.498328
Si Si2 0.009486 0.322072 0.102823
Si Si3 0.768934 0.173713 0.830831
Si Si4 0.023200 0.670789 0.605853
Si Si5 0.758219 0.168660 0.323118
Si Si6 0.764747 0.675834 0.149554
Si Si7 0.625663 0.820896 0.993340
Si Si8 0.796740 0.174661 0.635846
O O1 0.500000 0.243514 0.500000
O O2 0.666236 0.167030 0.399309
O O3 0.718089 0.238138 0.559153
O O4 0.608931 0.000000 0.531299
O O5 0.017751 0.500000 0.102994
O O6 0.117660 0.257105 0.147875
O O7 0.894886 0.279469 0.150174
O O8 0.000000 0.272877 0.000000
O O9 0.734041 0.187103 0.729087
O O10 0.791170 0.000000 0.847396
O O11 0.675608 0.223976 0.898773
O O12 0.040017 0.500000 0.633614
O O13 0.911690 0.739485 0.645935
O O14 0.000000 0.675613 0.500000
O O15 0.129545 0.765896 0.633634
O O16 0.718213 0.270014 0.242797
O O17 0.778031 0.000000 0.292269
O O18 0.758866 0.500000 0.138111
O O19 0.702967 0.754388 0.069171
O O20 0.626509 0.000000 0.000687
O O21 0.500000 0.768137 0.000000
O O22 0.822353 0.000000 0.617467
#
# Coordination Sequence:
#
# PCOD9155501 Si02
#       8
#     4   4   4   4   4   4   4   4
#     4   9  19  36  59  85 112 148 193 237 282 334
#     4  10  20  36  57  81 111 149 187 228 282 345
#     4  10  21  35  57  87 115 146 186 238 288 335
#     4  11  22  36  57  85 119 155 189 232 286 344
#     4  11  22  37  61  89 117 151 191 238 287 340
#     4  11  23  39  60  86 118 154 191 235 287 347
#     4  10  22  40  60  85 116 152 195 242 287 334
#     4  10  20  36  58  85 115 148 190 237 285 341
#
# _framework density 19.753086
#
# number of rings (size 3 to 8) (size 9 to 14) (size 15 to 20)
#    0.000    1.750    2.500    1.875    0.000    5.500 
#    0.000    3.750    0.000    4.875    0.000    0.000 
#    0.000    0.000    0.000    0.000    0.000    0.000 
#
# Total GULP energy -178540.874126 kJ/mol
# GULP energy per Si atom -5579.402316 kJ/mol
# Density = 1.970813 g / cm^3
# Si number density = 19.753086 Si / 1000 Ang^3
#
#
#
# Elastic Constant Matrix: (Units=GPa)
#
#
# Indices 1 2 3 4 5 6 
#
# 1 49.5166 19.9569 -0.3319 0.0000 -54.7798 0.0000
# 2 19.9569 -8.5797 13.2917 0.0000 -11.2972 0.0000
# 3 -0.3319 13.2917 49.8367 0.0000 -36.6127 0.0000
# 4 0.0000 0.0000 0.0000 33.4256 0.0000 13.9660
# 5 -54.7798 -11.2972 -36.6127 0.0000 -25.1573 0.0000
# 6 0.0000 0.0000 0.0000 13.9660 0.0000 -18.4543
#
#
#
# Elastic Compliance Matrix: (Units=1/GPa)
#
#
# Indices 1 2 3 4 5 6 
#
# 1 0.006824 0.012240 -0.008783 0.000000 -0.007574 0.000000
# 2 0.012240 -0.060832 0.008116 0.000000 -0.011147 0.000000
# 3 -0.008783 0.008116 0.014119 0.000000 -0.005068 0.000000
# 4 0.000000 0.000000 0.000000 0.022730 0.000000 0.017202
# 5 -0.007574 -0.011147 -0.005068 0.000000 -0.010877 0.000000
# 6 0.000000 0.000000 0.000000 0.017202 0.000000 -0.041170
#
#
# Mechanical properties :
#
#
# Convention : Reuss Voigt Hill
#
# Bulk Modulus (GPa) = -59.72944 17.40080 -21.16432
# Shear Modulus (GPa) = -51.05586 1.81993 -24.61796
#
# Velocity S-wave (km/s) = -5.08951 0.96091 -3.53411
# Velocity P-wave (km/s) = 8.05240 3.17166 5.23363
#
# Compressibility (1/GPa) = -0.01674216
#
# Stress axis : x y z
#
# Youngs Moduli (GPa) = 146.53388 -16.43872 70.82556
#
# Poissons Ratio (x) = 0.20121 0.62207
# Poissons Ratio (y) = -1.79355 -0.57485
# Poissons Ratio (z) = 1.28703 0.13342
#
# Static dielectric constant tensor:
#      x y z
#    x 1.678150 0.000000 -0.041820 
#    y 0.000000 1.685110 0.000000 
#    z -0.041820 0.000000 1.743090 
# 
# From -- ./inp_files/63797.got.cif
#   From: 2010.05.17/outbox.ucp.g08.bks.cvg/sg10_32_cif.got.tgz:63797.got - 2010.06.11 11:31:16.
