data_PCOD9155403
_publ_section_title
;
Structure prediction by ZEFSAII (Michael W. Deem and Ramdas Pophale) SiO2 
 PCOD9155403
Probable space group: P 2/M
;
_chemical_formula_sum "Si O2"
_cell_formula_units_Z 32
_cell_length_a 24.000000
_cell_length_b 9.000000
_cell_length_c 18.000000
_cell_angle_alpha 90.000000
_cell_angle_beta 150.000000
_cell_angle_gamma 90.000000
_cell_volume 1944.000000
_symmetry_space_group_name_H-M "P 2/M"
_symmetry_group_IT_number 10
_symmetry_cell_setting 'monoclinic'
loop_
_space_group_symop_operation_xyz
x,y,z
-x,y,-z
-x,-y,-z
x,-y,z
loop_
_atom_site_type_symbol
_atom_site_label
_atom_site_fract_x
_atom_site_fract_y
_atom_site_fract_z
Si Si1 0.963939 0.320232 0.135584
Si Si2 0.444457 0.669494 0.353679
Si Si3 0.767446 0.679690 0.806121
Si Si4 0.201531 0.177989 0.442540
Si Si5 0.865737 0.171525 0.331337
Si Si6 0.904183 0.329247 0.227128
Si Si7 0.172536 0.671066 0.563025
Si Si8 0.653721 0.177438 0.531950
O O1 0.978512 0.500000 0.155985
O O2 0.896814 0.277187 0.133415
O O3 0.083786 0.243715 0.277680
O O4 0.889899 0.284773 0.978174
O O5 0.500000 0.665778 0.500000
O O6 0.438745 0.500000 0.319311
O O7 0.320953 0.724097 0.231346
O O8 0.528556 0.762971 0.400669
O O9 0.758282 0.500000 0.787992
O O10 0.729649 0.752616 0.685435
O O11 0.220674 0.243861 0.547017
O O12 0.294413 0.216419 0.488225
O O13 0.193182 0.000000 0.438039
O O14 0.848380 0.239176 0.229454
O O15 0.809820 0.256589 0.335821
O O16 0.000000 0.179590 0.500000
O O17 0.833552 0.000000 0.295961
O O18 0.866916 0.500000 0.188466
O O19 0.037971 0.326647 0.395935
O O20 0.208046 0.500000 0.603504
O O21 0.655110 0.000000 0.541373
#
# Coordination Sequence:
#
# PCOD9155403 Si02
#       8
#     4   4   4   4   4   4   4   4
#     4   9  18  31  45  61  84 115 146 175 209 249
#     4   8  15  29  48  66  82 102 133 176 219 255
#     4   9  18  32  48  65  84 108 141 179 216 252
#     4  10  20  31  41  58  87 117 144 175 210 249
#     4   9  15  22  35  55  78 105 136 169 205 243
#     4   8  14  24  37  54  77 105 137 170 202 240
#     4   9  16  26  40  56  76 106 142 175 207 244
#     4  10  20  31  44  63  86 112 141 176 216 254
#
# _framework density 16.460905
#
# number of rings (size 3 to 8) (size 9 to 14) (size 15 to 20)
#    0.000    3.000    0.000    3.000    0.000    9.750 
#    0.000    2.500    0.000    0.000    0.000    0.000 
#    0.000    1.000    0.000   11.500    0.000    5.250 
#
# Total GULP energy -178149.716358 kJ/mol
# GULP energy per Si atom -5567.178636 kJ/mol
# Density = 1.642344 g / cm^3
# Si number density = 16.460905 Si / 1000 Ang^3
#
#
#
# Elastic Constant Matrix: (Units=GPa)
#
#
# Indices 1 2 3 4 5 6 
#
# 1 122.1880 53.7049 3.7732 0.0000 -1.3495 0.0000
# 2 53.7049 61.0638 2.5326 0.0000 -1.1980 0.0000
# 3 3.7732 2.5326 1.6097 0.0000 2.3484 0.0000
# 4 0.0000 0.0000 0.0000 10.0274 0.0000 -3.6033
# 5 -1.3495 -1.1980 2.3484 0.0000 13.8841 0.0000
# 6 0.0000 0.0000 0.0000 -3.6033 0.0000 27.3321
#
#
#
# Elastic Compliance Matrix: (Units=1/GPa)
#
#
# Indices 1 2 3 4 5 6 
#
# 1 0.013772 -0.011201 -0.020183 0.000000 0.003786 0.000000
# 2 -0.011201 0.027362 -0.024760 0.000000 0.005460 0.000000
# 3 -0.020183 -0.024760 0.947236 0.000000 -0.164314 0.000000
# 4 0.000000 0.000000 0.000000 0.104686 0.000000 0.013801
# 5 0.003786 0.005460 -0.164314 0.000000 0.100656 0.000000
# 6 0.000000 0.000000 0.000000 0.013801 0.000000 0.038406
#
#
# Mechanical properties :
#
#
# Convention : Reuss Voigt Hill
#
# Bulk Modulus (GPa) = 1.14145 33.87587 17.50866
# Shear Modulus (GPa) = 3.05542 18.57213 10.81378
#
# Velocity S-wave (km/s) = 1.36389 3.36260 2.56586
# Velocity P-wave (km/s) = 1.78191 5.97498 4.40883
#
# Compressibility (1/GPa) = 0.87608218
#
# Stress axis : x y z
#
# Youngs Moduli (GPa) = 72.60865 36.54728 1.05570
#
# Poissons Ratio (x) = 0.40938 0.02131
# Poissons Ratio (y) = 0.81332 0.02614
# Poissons Ratio (z) = 1.46546 0.90490
#
# Static dielectric constant tensor:
#      x y z
#    x 1.565450 0.000000 -0.002310 
#    y 0.000000 1.558170 0.000000 
#    z -0.002310 0.000000 1.546430 
# 
# From -- ./inp_files/79984.got.cif
#   From: 2010.05.17/outbox.ucp.g08.bks.cvg/sg10_40_cif.got.tgz:79984.got - 2010.06.11 11:31:16.
