data_PCOD9155760
_publ_section_title
;
Structure prediction by ZEFSAII (Michael W. Deem and Ramdas Pophale) SiO2 
 PCOD9155760
Probable space group: P 21/M
;
_chemical_formula_sum "Si O2"
_cell_formula_units_Z 20
_cell_length_a 7.402136
_cell_length_b 8.731253
_cell_length_c 23.787291
_cell_angle_alpha 90.000000
_cell_angle_beta 144.386548
_cell_angle_gamma 90.000000
_cell_volume 895.232298
_symmetry_space_group_name_H-M "P 21/M"
_symmetry_group_IT_number 11
_symmetry_cell_setting 'monoclinic'
loop_
_space_group_symop_operation_xyz
x,y,z
-x,1/2+y,-z
-x,-y,-z
x,1/2-y,z
loop_
_atom_site_type_symbol
_atom_site_label
_atom_site_fract_x
_atom_site_fract_y
_atom_site_fract_z
Si Si1 0.766471 0.936143 0.691363
Si Si2 0.699958 0.576727 0.897614
Si Si3 0.266960 0.578068 0.897700
Si Si4 0.718924 0.933266 0.505107
Si Si5 0.201109 0.431864 0.701134
O O1 0.776077 0.750000 0.690426
O O2 0.933113 0.984196 0.791945
O O3 0.427007 0.995822 0.588335
O O4 0.981535 0.009747 0.696844
O O5 0.762241 0.750000 0.895259
O O6 0.459499 0.583520 0.888441
O O7 0.540252 0.483586 0.807085
O O8 0.000000 0.500000 0.000000
O O9 0.215586 0.750000 0.905366
O O10 0.500000 0.500000 0.000000
O O11 0.699978 0.750000 0.499376
O O12 0.500000 0.000000 0.500000
O O13 0.059185 0.987229 0.610391
O O14 0.179154 0.250000 0.690166
#
# Coordination Sequence:
#
# PCOD9155760 Si02
#       5
#     4   4   4   4   4
#     4   9  16  27  40  60  89 119 151 191 231 275
#     4  10  20  34  49  70  96 125 159 197 234 277
#     4   9  19  32  48  69  96 125 158 195 233 275
#     4  10  16  23  37  59  86 117 149 186 230 279
#     4  10  17  26  41  62  88 120 151 187 232 278
#
# _framework density 22.340572000000002
#
# number of rings (size 3 to 8) (size 9 to 14) (size 15 to 20)
#    0.000    2.400    0.000    8.400    0.000    4.800 
#    0.000    0.000    0.000    0.000    0.000    1.400 
#    0.000    0.000    0.000    0.000    0.000    0.000 
#
# Total GULP energy -111557.769692 kJ/mol
# GULP energy per Si atom -5577.888485 kJ/mol
# Density = 2.228972 g / cm^3
# Si number density = 22.340572 Si / 1000 Ang^3
#
#
#
# Elastic Constant Matrix: (Units=GPa)
#
#
# Indices 1 2 3 4 5 6 
#
# 1 62.4661 6.0284 8.6048 0.0000 -12.3801 0.0000
# 2 6.0284 162.6425 96.4297 0.0000 -14.6085 0.0000
# 3 8.6048 96.4297 290.8760 0.0000 -26.4423 0.0000
# 4 0.0000 0.0000 0.0000 49.0223 0.0000 -2.8014
# 5 -12.3801 -14.6085 -26.4423 0.0000 18.7987 0.0000
# 6 0.0000 0.0000 0.0000 -2.8014 0.0000 3.3809
#
#
#
# Elastic Compliance Matrix: (Units=1/GPa)
#
#
# Indices 1 2 3 4 5 6 
#
# 1 0.018519 0.000138 0.000602 0.000000 0.013149 0.000000
# 2 0.000138 0.007778 -0.002322 0.000000 0.002869 0.000000
# 3 0.000602 -0.002322 0.004657 0.000000 0.005143 0.000000
# 4 0.000000 0.000000 0.000000 0.021413 0.000000 0.017743
# 5 0.013149 0.002869 0.005143 0.000000 0.071319 0.000000
# 6 0.000000 0.000000 0.000000 0.017743 0.000000 0.310482
#
#
# Mechanical properties :
#
#
# Convention : Reuss Voigt Hill
#
# Bulk Modulus (GPa) = 35.98494 82.01226 58.99860
# Shear Modulus (GPa) = 11.19586 41.23516 26.21551
#
# Velocity S-wave (km/s) = 2.24105 4.30088 3.42928
# Velocity P-wave (km/s) = 4.77900 7.83921 6.49199
#
# Compressibility (1/GPa) = 0.02778940
#
# Stress axis : x y z
#
# Youngs Moduli (GPa) = 54.00003 128.57569 214.71743
#
# Poissons Ratio (x) = -0.01772 -0.12922
# Poissons Ratio (y) = -0.00744 0.49849
# Poissons Ratio (z) = -0.03250 0.29850
#
# Static dielectric constant tensor:
#      x y z
#    x 1.127410 0.000000 -0.449180 
#    y 0.000000 1.765060 0.000000 
#    z -0.449180 0.000000 1.611770 
# 
# From -- ./inp_files/23906.got.cif
#   From: 2010.05.17/outbox.cif.g08.bks.cpg/sg11_12_cif.got.tgz:23906.got - 2010.06.03 12:22:45.
