data_PCOD9155435
_publ_section_title
;
Structure prediction by ZEFSAII (Michael W. Deem and Ramdas Pophale) SiO2 
 PCOD9155435
Probable space group: P 2/M
;
_chemical_formula_sum "Si O2"
_cell_formula_units_Z 32
_cell_length_a 21.000000
_cell_length_b 9.000000
_cell_length_c 27.000000
_cell_angle_alpha 90.000000
_cell_angle_beta 160.000000
_cell_angle_gamma 90.000000
_cell_volume 1745.328791
_symmetry_space_group_name_H-M "P 2/M"
_symmetry_group_IT_number 10
_symmetry_cell_setting 'monoclinic'
loop_
_space_group_symop_operation_xyz
x,y,z
-x,y,-z
-x,-y,-z
x,-y,z
loop_
_atom_site_type_symbol
_atom_site_label
_atom_site_fract_x
_atom_site_fract_y
_atom_site_fract_z
Si Si1 0.152713 0.675871 0.757756
Si Si2 0.599068 0.325045 0.728523
Si Si3 0.920901 0.822042 0.032602
Si Si4 0.667558 0.325313 0.661073
Si Si5 0.153374 0.179335 0.652727
Si Si6 0.580883 0.821728 0.972237
Si Si7 0.088221 0.177044 0.860866
Si Si8 0.815326 0.323198 0.587794
O O1 0.178171 0.500000 0.770275
O O2 0.112106 0.752775 0.676086
O O3 0.976306 0.701230 0.664866
O O4 0.334333 0.744901 0.917063
O O5 0.611490 0.500000 0.750990
O O6 0.608634 0.315157 0.675632
O O7 0.385131 0.269876 0.579787
O O8 0.771434 0.246173 0.883767
O O9 0.860863 0.789088 0.045262
O O10 0.133789 0.760078 0.191068
O O11 0.926622 0.000000 0.028645
O O12 0.500000 0.277360 0.500000
O O13 0.702274 0.500000 0.674716
O O14 0.371283 0.220363 0.803400
O O15 0.000000 0.227324 0.500000
O O16 0.145395 0.000000 0.649142
O O17 0.583069 0.000000 0.981424
O O18 0.732596 0.783898 0.041207
O O19 0.903614 0.252892 0.702441
O O20 0.057673 0.000000 0.835055
O O21 0.794899 0.500000 0.581562
#
# Coordination Sequence:
#
# PCOD9155435 Si02
#       8
#     4   4   4   4   4   4   4   4
#     4  10  20  34  54  80 107 134 169 216 268 315
#     4  10  21  37  56  78 106 140 177 214 255 309
#     4  11  23  36  53  81 114 142 170 212 266 315
#     4  10  21  38  60  81 102 137 183 223 258 304
#     4  10  21  35  52  75 103 139 180 217 256 308
#     4   9  18  35  56  75 100 136 178 218 254 303
#     4   9  19  35  54  77 104 136 174 215 259 308
#     4   9  19  36  57  80 104 134 175 219 260 307
#
# _framework density 18.334654
#
# number of rings (size 3 to 8) (size 9 to 14) (size 15 to 20)
#    0.000    2.250    0.000    2.250    0.000    8.500 
#    0.000    1.250    0.000    0.000    0.000    0.000 
#    0.000    0.000    0.000    0.000    0.000    0.000 
#
# Total GULP energy -178295.581686 kJ/mol
# GULP energy per Si atom -5571.736928 kJ/mol
# Density = 1.829292 g / cm^3
# Si number density = 18.334654 Si / 1000 Ang^3
#
#
#
# Elastic Constant Matrix: (Units=GPa)
#
#
# Indices 1 2 3 4 5 6 
#
# 1 72.7639 28.6360 58.6705 0.0000 -16.5192 0.0000
# 2 28.6360 35.5869 57.4418 0.0000 -4.6112 0.0000
# 3 58.6705 57.4418 208.4799 0.0000 -26.6732 0.0000
# 4 0.0000 0.0000 0.0000 29.9822 0.0000 -3.8260
# 5 -16.5192 -4.6112 -26.6732 0.0000 33.4835 0.0000
# 6 0.0000 0.0000 0.0000 -3.8260 0.0000 22.4387
#
#
#
# Elastic Compliance Matrix: (Units=1/GPa)
#
#
# Indices 1 2 3 4 5 6 
#
# 1 0.022473 -0.015309 -0.001066 0.000000 0.008130 0.000000
# 2 -0.015309 0.061683 -0.013992 0.000000 -0.010205 0.000000
# 3 -0.001066 -0.013992 0.009618 0.000000 0.005209 0.000000
# 4 0.000000 0.000000 0.000000 0.034095 0.000000 0.005814
# 5 0.008130 -0.010205 0.005209 0.000000 0.036620 0.000000
# 6 0.000000 0.000000 0.000000 0.005814 0.000000 0.045557
#
#
# Mechanical properties :
#
#
# Convention : Reuss Voigt Hill
#
# Bulk Modulus (GPa) = 30.26792 67.36970 48.81881
# Shear Modulus (GPa) = 17.74333 28.65306 23.19819
#
# Velocity S-wave (km/s) = 3.11424 3.95749 3.56092
# Velocity P-wave (km/s) = 5.42916 7.59648 6.60236
#
# Compressibility (1/GPa) = 0.03303828
#
# Stress axis : x y z
#
# Youngs Moduli (GPa) = 44.49707 16.21201 103.96709
#
# Poissons Ratio (x) = 0.24820 0.11085
# Poissons Ratio (y) = 0.68123 1.45475
# Poissons Ratio (z) = 0.04744 0.22685
#
# Static dielectric constant tensor:
#      x y z
#    x 1.683780 0.000000 0.042210 
#    y 0.000000 1.627450 0.000000 
#    z 0.042210 0.000000 1.623730 
# 
# From -- ./inp_files/93726.got.cif
#   From: 2010.05.17/outbox.ucp.g08.bks.cvg/sg10_47_cif.got.tgz:93726.got - 2010.06.11 11:31:16.
