data_PCOD9155233
_publ_section_title
;
Structure prediction by ZEFSAII (Michael W. Deem and Ramdas Pophale) SiO2 
 PCOD9155233
Probable space group: P 2/M
;
_chemical_formula_sum "Si O2"
_cell_formula_units_Z 32
_cell_length_a 21.000000
_cell_length_b 9.000000
_cell_length_c 30.000000
_cell_angle_alpha 90.000000
_cell_angle_beta 160.000000
_cell_angle_gamma 90.000000
_cell_volume 1939.254213
_symmetry_space_group_name_H-M "P 2/M"
_symmetry_group_IT_number 10
_symmetry_cell_setting 'monoclinic'
loop_
_space_group_symop_operation_xyz
x,y,z
-x,y,-z
-x,-y,-z
x,-y,z
loop_
_atom_site_type_symbol
_atom_site_label
_atom_site_fract_x
_atom_site_fract_y
_atom_site_fract_z
Si Si1 0.265356 0.176177 0.195295
Si Si2 0.951929 0.322257 0.292034
Si Si3 0.320525 0.324076 0.410050
Si Si4 0.687302 0.824184 0.498933
Si Si5 0.075731 0.325092 0.988038
Si Si6 0.607302 0.329877 0.118367
Si Si7 0.910369 0.671922 0.104913
Si Si8 0.726508 0.826950 0.063517
O O1 0.480374 0.205639 0.345534
O O2 0.132889 0.263755 0.142281
O O3 0.231587 0.000000 0.176959
O O4 0.201028 0.234602 0.104936
O O5 0.956557 0.500000 0.292334
O O6 0.815739 0.281986 0.243281
O O7 0.853706 0.260779 0.182783
O O8 0.156097 0.255425 0.427294
O O9 0.500000 0.275129 0.500000
O O10 0.342757 0.500000 0.434538
O O11 0.300837 0.237487 0.443148
O O12 0.130637 0.306274 0.257633
O O13 0.720694 0.000000 0.521002
O O14 0.080244 0.500000 0.001781
O O15 0.134479 0.306269 0.976011
O O16 0.605889 0.500000 0.133667
O O17 0.500000 0.330366 0.000000
O O18 0.484962 0.225607 0.068666
O O19 0.869680 0.500000 0.090776
O O20 0.799604 0.781486 0.063580
O O21 0.745330 0.000000 0.084783
#
# Coordination Sequence:
#
# PCOD9155233 Si02
#       8
#     4   4   4   4   4   4   4   4
#     4  10  21  36  52  72 101 131 161 208 261 297
#     4  10  19  32  49  69  97 133 167 203 243 288
#     4  10  20  33  49  68  95 133 167 198 243 294
#     4  11  22  33  48  73 101 132 166 202 247 297
#     4  10  20  35  56  76  93 124 173 216 247 290
#     4   8  16  30  47  66  93 130 166 198 240 287
#     4  10  20  33  49  71 100 131 164 206 249 288
#     4  11  20  29  46  72 101 132 164 199 241 295
#
# _framework density 16.501189
#
# number of rings (size 3 to 8) (size 9 to 14) (size 15 to 20)
#    0.000    2.000    1.250    4.875    0.000    7.000 
#    0.000    0.000    0.000    0.000    0.000    0.875 
#    0.000    7.000    0.000    0.000    0.000    0.000 
#
# Total GULP energy -178502.853862 kJ/mol
# GULP energy per Si atom -5578.214183 kJ/mol
# Density = 1.646363 g / cm^3
# Si number density = 16.501189 Si / 1000 Ang^3
#
#
#
# Elastic Constant Matrix: (Units=GPa)
#
#
# Indices 1 2 3 4 5 6 
#
# 1 29.3536 -2.6957 -5.5016 0.0000 -5.8040 0.0000
# 2 -2.6957 -13.0735 -25.1662 0.0000 -24.6975 0.0000
# 3 -5.5016 -25.1662 -10.9891 0.0000 -21.8393 0.0000
# 4 0.0000 0.0000 0.0000 22.3087 0.0000 9.5811
# 5 -5.8040 -24.6975 -21.8393 0.0000 -7.1780 0.0000
# 6 0.0000 0.0000 0.0000 9.5811 0.0000 34.3682
#
#
#
# Elastic Compliance Matrix: (Units=1/GPa)
#
#
# Indices 1 2 3 4 5 6 
#
# 1 0.033450 -0.007867 -0.000243 0.000000 0.000761 0.000000
# 2 -0.007867 0.039072 -0.033485 0.000000 -0.026193 0.000000
# 3 -0.000243 -0.033485 0.048261 0.000000 -0.031425 0.000000
# 4 0.000000 0.000000 0.000000 0.050922 0.000000 -0.014196
# 5 0.000761 -0.026193 -0.031425 0.000000 0.045803 0.000000
# 6 0.000000 0.000000 0.000000 -0.014196 0.000000 0.033054
#
#
# Mechanical properties :
#
#
# Convention : Reuss Voigt Hill
#
# Bulk Modulus (GPa) = 26.60212 -6.82623 9.88795
# Shear Modulus (GPa) = 14.43900 12.47675 13.45788
#
# Velocity S-wave (km/s) = 2.96130 2.75273 2.85892
# Velocity P-wave (km/s) = 5.27719 2.44082 4.11134
#
# Compressibility (1/GPa) = 0.03759098
#
# Stress axis : x y z
#
# Youngs Moduli (GPa) = 29.89552 25.59404 20.72063
#
# Poissons Ratio (x) = 0.20134 0.00504
# Poissons Ratio (y) = 0.23518 0.69384
# Poissons Ratio (z) = 0.00728 0.85703
#
# Static dielectric constant tensor:
#      x y z
#    x 1.556600 0.000000 0.026270 
#    y 0.000000 1.556160 0.000000 
#    z 0.026270 0.000000 1.554660 
# 
# From -- ./inp_files/83375.got.cif
#   From: 2010.05.17/outbox.ucp.g08.bks.cvg/sg10_42_cif.got.tgz:83375.got - 2010.06.11 11:31:16.
