data_PCOD9155015
_publ_section_title
;
Structure prediction by ZEFSAII (Michael W. Deem and Ramdas Pophale) SiO2 
 PCOD9155015
Probable space group: P 2/M
;
_chemical_formula_sum "Si O2"
_cell_formula_units_Z 32
_cell_length_a 14.527551
_cell_length_b 19.592781
_cell_length_c 7.251514
_cell_angle_alpha 90.000000
_cell_angle_beta 47.003014
_cell_angle_gamma 90.000000
_cell_volume 1509.614120
_symmetry_space_group_name_H-M "P 2/M"
_symmetry_group_IT_number 10
_symmetry_cell_setting 'monoclinic'
loop_
_space_group_symop_operation_xyz
x,y,z
-x,y,-z
-x,-y,-z
x,-y,z
loop_
_atom_site_type_symbol
_atom_site_label
_atom_site_fract_x
_atom_site_fract_y
_atom_site_fract_z
Si Si1 0.645610 0.577495 0.253445
Si Si2 0.865563 0.675835 0.903543
Si Si3 0.394023 0.079559 0.371008
Si Si4 0.333063 0.078960 0.895795
Si Si5 0.891032 0.163501 0.902464
Si Si6 0.166426 0.167391 0.593736
Si Si7 0.362789 0.422553 0.174763
Si Si8 0.147620 0.674172 0.523729
O O1 0.500000 0.595855 0.500000
O O2 0.667664 0.500000 0.293431
O O3 0.753508 0.632989 0.149299
O O4 0.658110 0.573015 0.015002
O O5 0.861165 0.756369 0.941012
O O6 0.857154 0.672000 0.692992
O O7 0.005851 0.654429 0.774700
O O8 0.363933 0.081996 0.633024
O O9 0.540912 0.100068 0.167682
O O10 0.296070 0.126380 0.394021
O O11 0.382596 0.000000 0.331793
O O12 0.307536 0.000000 0.974298
O O13 0.209718 0.124557 0.083991
O O14 0.037734 0.150926 0.659609
O O15 0.868481 0.147257 0.148289
O O16 0.179196 0.249298 0.549136
O O17 0.369037 0.500000 0.238652
O O18 0.256340 0.379401 0.419643
O O19 0.500000 0.389476 0.000000
#
# Coordination Sequence:
#
# PCOD9155015 Si02
#       8
#     4   4   4   4   4   4   4   4
#     4   9  18  33  51  73  99 125 159 204 246 286
#     4   9  18  33  50  70  97 131 164 199 243 292
#     4   8  14  26  43  66  95 124 158 199 244 289
#     4   8  14  26  43  65  95 125 156 199 244 289
#     4   9  17  29  45  69  97 123 162 203 243 289
#     4   9  17  29  46  69  96 126 159 204 245 283
#     4   9  18  33  51  71  97 128 162 200 243 290
#     4   9  18  33  50  69  98 130 164 202 241 287
#
# _framework density 21.197471
#
# number of rings (size 3 to 8) (size 9 to 14) (size 15 to 20)
#    0.000    3.250    0.000    0.750    0.000    2.000 
#    9.000    5.000    0.000    0.750    0.000   12.250 
#    0.000    0.000    0.000    0.000    0.000    0.250 
#
# Total GULP energy -178363.597042 kJ/mol
# GULP energy per Si atom -5573.862408 kJ/mol
# Density = 2.114922 g / cm^3
# Si number density = 21.197471 Si / 1000 Ang^3
#
#
#
# Elastic Constant Matrix: (Units=GPa)
#
#
# Indices 1 2 3 4 5 6 
#
# 1 109.8145 67.8585 68.4520 0.0000 -39.0955 0.0000
# 2 67.8585 87.6083 76.8045 0.0000 -60.8999 0.0000
# 3 68.4520 76.8045 130.8391 0.0000 -41.9869 0.0000
# 4 0.0000 0.0000 0.0000 41.4672 0.0000 -30.0037
# 5 -39.0955 -60.8999 -41.9869 0.0000 67.5277 0.0000
# 6 0.0000 0.0000 0.0000 -30.0037 0.0000 34.7694
#
#
#
# Elastic Compliance Matrix: (Units=1/GPa)
#
#
# Indices 1 2 3 4 5 6 
#
# 1 0.018456 -0.016408 -0.001679 0.000000 -0.005156 0.000000
# 2 -0.016408 0.069506 -0.018926 0.000000 0.041417 0.000000
# 3 -0.001679 -0.018926 0.017292 0.000000 -0.007288 0.000000
# 4 0.000000 0.000000 0.000000 0.064201 0.000000 0.055401
# 5 -0.005156 0.041417 -0.007288 0.000000 0.044644 0.000000
# 6 0.000000 0.000000 0.000000 0.055401 0.000000 0.076568
#
#
# Mechanical properties :
#
#
# Convention : Reuss Voigt Hill
#
# Bulk Modulus (GPa) = 32.02138 83.83245 57.92691
# Shear Modulus (GPa) = 13.32966 36.42933 24.87949
#
# Velocity S-wave (km/s) = 2.51037 4.15006 3.42965
# Velocity P-wave (km/s) = 4.85197 7.91190 6.56277
#
# Compressibility (1/GPa) = 0.03122914
#
# Stress axis : x y z
#
# Youngs Moduli (GPa) = 54.18227 14.38715 57.82988
#
# Poissons Ratio (x) = 0.23607 0.09708
# Poissons Ratio (y) = 0.88904 1.09449
# Poissons Ratio (z) = 0.09095 0.27229
#
# Static dielectric constant tensor:
#      x y z
#    x 1.862420 0.000000 0.046230 
#    y 0.000000 1.725280 0.000000 
#    z 0.046230 0.000000 1.814770 
# 
# From -- ./inp_files/30292.got.cif
#   From: 2010.05.17/outbox.cif.g08.bks.cpg/sg10_16_cif.got.tgz:30292.got - 2010.06.03 11:33:40.
