data_PCOD9155733
_publ_section_title
;
Structure prediction by ZEFSAII (Michael W. Deem and Ramdas Pophale) SiO2 
 PCOD9155733
Probable space group: P 21/M
;
_chemical_formula_sum "Si O2"
_cell_formula_units_Z 20
_cell_length_a 5.450829
_cell_length_b 14.602102
_cell_length_c 17.082709
_cell_angle_alpha 90.000000
_cell_angle_beta 128.247678
_cell_angle_gamma 90.000000
_cell_volume 1067.808844
_symmetry_space_group_name_H-M "P 21/M"
_symmetry_group_IT_number 11
_symmetry_cell_setting 'monoclinic'
loop_
_space_group_symop_operation_xyz
x,y,z
-x,1/2+y,-z
-x,-y,-z
x,1/2-y,z
loop_
_atom_site_type_symbol
_atom_site_label
_atom_site_fract_x
_atom_site_fract_y
_atom_site_fract_z
Si Si1 0.262600 0.499252 0.881529
Si Si2 0.452081 0.391505 0.472968
Si Si3 0.888260 0.599579 0.444825
Si Si4 0.434562 0.528987 0.223836
Si Si5 0.799115 0.643474 0.747245
O O1 0.133387 0.601405 0.837271
O O2 0.935049 0.448803 0.839204
O O3 0.428140 0.462437 0.835822
O O4 0.500000 0.500000 0.000000
O O5 0.500000 0.500000 0.500000
O O6 0.276263 0.354360 0.513805
O O7 0.259684 0.377269 0.355737
O O8 0.798390 0.355088 0.525333
O O9 0.643402 0.583082 0.327168
O O10 0.000000 0.500000 0.500000
O O11 0.440197 0.421959 0.252542
O O12 0.764630 0.750000 0.756124
#
# Coordination Sequence:
#
# PCOD9155733 Si02
#       5
#     4   4   4   4   4
#     4  10  20  35  52  75 107 134 181 226 268 308
#     4  10  17  29  48  73 106 140 169 199 246 305
#     4  10  15  28  48  71 101 133 170 201 243 298
#     4  10  19  32  52  77 102 133 175 221 261 307
#     4  10  22  33  51  82 113 136 169 219 273 316
#
# _framework density 18.729942999999999
#
# number of rings (size 3 to 8) (size 9 to 14) (size 15 to 20)
#    1.200    0.800    4.000    4.200    0.000    0.800 
#    0.000    0.000    0.000    0.000    0.000   15.400 
#    0.000    0.000    0.000    0.000    0.000    0.000 
#
# Total GULP energy -111362.383362 kJ/mol
# GULP energy per Si atom -5568.119168 kJ/mol
# Density = 1.868731 g / cm^3
# Si number density = 18.729943 Si / 1000 Ang^3
#
#
#
# Elastic Constant Matrix: (Units=GPa)
#
#
# Indices 1 2 3 4 5 6 
#
# 1 186.3209 12.7383 73.7064 0.0000 -10.9183 0.0000
# 2 12.7383 49.6332 18.4014 0.0000 5.7690 0.0000
# 3 73.7064 18.4014 180.9454 0.0000 8.5948 0.0000
# 4 0.0000 0.0000 0.0000 -1.3541 0.0000 -2.6179
# 5 -10.9183 5.7690 8.5948 0.0000 31.2413 0.0000
# 6 0.0000 0.0000 0.0000 -2.6179 0.0000 -2.8774
#
#
#
# Elastic Compliance Matrix: (Units=1/GPa)
#
#
# Indices 1 2 3 4 5 6 
#
# 1 0.006741 -0.001081 -0.002794 0.000000 0.003324 0.000000
# 2 -0.001081 0.021457 -0.001556 0.000000 -0.003912 0.000000
# 3 -0.002794 -0.001556 0.006946 0.000000 -0.002600 0.000000
# 4 0.000000 0.000000 0.000000 0.973119 0.000000 -0.885339
# 5 0.003324 -0.003912 -0.002600 0.000000 0.034608 0.000000
# 6 0.000000 0.000000 0.000000 -0.885339 0.000000 0.457944
#
#
# Mechanical properties :
#
#
# Convention : Reuss Voigt Hill
#
# Bulk Modulus (GPa) = 41.18117 69.62130 55.40123
# Shear Modulus (GPa) = 3.28997 26.20551 14.74774
#
# Velocity S-wave (km/s) = 1.32678 3.74454 2.80909
# Velocity P-wave (km/s) = 4.93778 7.47979 6.33755
#
# Compressibility (1/GPa) = 0.02428295
#
# Stress axis : x y z
#
# Youngs Moduli (GPa) = 148.34663 46.60539 143.96078
#
# Poissons Ratio (x) = 0.05036 0.40221
# Poissons Ratio (y) = 0.16030 0.22402
# Poissons Ratio (z) = 0.41446 0.07252
#
# Static dielectric constant tensor:
#      x y z
#    x 1.724590 0.000000 -0.010850 
#    y 0.000000 1.626830 0.000000 
#    z -0.010850 0.000000 1.608250 
# 
# From -- ./inp_files/45857.got.cif
#   From: 2010.05.17/outbox.cif.g08.bks.cpg/sg11_23_cif.got.tgz:45857.got - 2010.06.03 12:22:45.
