data_PCOD9155624
_publ_section_title
;
Structure prediction by ZEFSAII (Michael W. Deem and Ramdas Pophale) SiO2 
 PCOD9155624
Probable space group: P 2/M
;
_chemical_formula_sum "Si O2"
_cell_formula_units_Z 32
_cell_length_a 15.000000
_cell_length_b 9.000000
_cell_length_c 24.000000
_cell_angle_alpha 90.000000
_cell_angle_beta 30.000000
_cell_angle_gamma 90.000000
_cell_volume 1620.000000
_symmetry_space_group_name_H-M "P 2/M"
_symmetry_group_IT_number 10
_symmetry_cell_setting 'monoclinic'
loop_
_space_group_symop_operation_xyz
x,y,z
-x,y,-z
-x,-y,-z
x,-y,z
loop_
_atom_site_type_symbol
_atom_site_label
_atom_site_fract_x
_atom_site_fract_y
_atom_site_fract_z
Si Si1 0.843053 0.821912 0.929820
Si Si2 0.576534 0.323764 0.519177
Si Si3 0.478445 0.179332 0.332405
Si Si4 0.919591 0.170488 0.296165
Si Si5 0.849764 0.169714 0.723901
Si Si6 0.184743 0.819800 0.925272
Si Si7 0.893214 0.323247 0.500965
Si Si8 0.503157 0.669445 0.064946
O O1 0.024800 0.791807 0.797038
O O2 0.814629 0.000000 0.939088
O O3 0.826446 0.783819 0.003517
O O4 0.691316 0.728773 0.982485
O O5 0.500000 0.277883 0.500000
O O6 0.551512 0.500000 0.539436
O O7 0.506631 0.242054 0.612480
O O8 0.782086 0.280139 0.399449
O O9 0.643516 0.227071 0.203567
O O10 0.294579 0.240133 0.405573
O O11 0.472732 0.000000 0.338116
O O12 0.091823 0.173433 0.242985
O O13 0.850339 0.000000 0.335314
O O14 0.649982 0.226570 0.827621
O O15 0.979744 0.272064 0.617918
O O16 0.869095 0.000000 0.694193
O O17 0.185348 0.000000 0.921606
O O18 0.000000 0.764087 0.000000
O O19 0.862129 0.500000 0.516138
O O20 0.000000 0.287410 0.500000
O O21 0.471625 0.500000 0.099774
O O22 0.500000 0.674362 0.000000
#
# Coordination Sequence:
#
# PCOD9155624 Si02
#       8
#     4   4   4   4   4   4   4   4
#     4  10  21  39  63  90 122 161 206 254 307 365
#     4  11  25  42  63  91 125 163 203 254 320 380
#     4  11  23  41  67  97 127 163 212 263 313 371
#     4  10  21  37  62  94 122 155 204 259 313 370
#     4  11  22  38  61  89 122 158 207 260 309 366
#     4   9  21  41  65  93 123 159 205 259 312 364
#     4  11  25  43  63  89 126 170 210 255 315 378
#     4  11  23  37  56  86 125 165 202 245 304 369
#
# _framework density 19.753086
#
# number of rings (size 3 to 8) (size 9 to 14) (size 15 to 20)
#    0.000    1.500    2.500    1.875    3.500    3.500 
#    0.000    0.625    0.000    1.875    0.000    0.000 
#    0.000    0.000    0.000    0.000    0.000    0.000 
#
# Total GULP energy -178616.698716 kJ/mol
# GULP energy per Si atom -5581.771835 kJ/mol
# Density = 1.970813 g / cm^3
# Si number density = 19.753086 Si / 1000 Ang^3
#
#
#
# Elastic Constant Matrix: (Units=GPa)
#
#
# Indices 1 2 3 4 5 6 
#
# 1 93.4466 36.8671 24.0821 0.0000 24.7805 0.0000
# 2 36.8671 34.6877 13.3607 0.0000 12.3884 0.0000
# 3 24.0821 13.3607 90.2225 0.0000 27.5839 0.0000
# 4 0.0000 0.0000 0.0000 -16.6868 0.0000 -3.8629
# 5 24.7805 12.3884 27.5839 0.0000 28.9063 0.0000
# 6 0.0000 0.0000 0.0000 -3.8629 0.0000 7.1196
#
#
#
# Elastic Compliance Matrix: (Units=1/GPa)
#
#
# Indices 1 2 3 4 5 6 
#
# 1 0.020517 -0.018346 0.000302 0.000000 -0.010014 0.000000
# 2 -0.018346 0.050486 -0.001091 0.000000 -0.004868 0.000000
# 3 0.000302 -0.001091 0.015674 0.000000 -0.014748 0.000000
# 4 0.000000 0.000000 0.000000 -0.053240 0.000000 -0.028887
# 5 -0.010014 -0.004868 -0.014748 0.000000 0.059339 0.000000
# 6 0.000000 0.000000 0.000000 -0.028887 0.000000 0.124784
#
#
# Mechanical properties :
#
#
# Convention : Reuss Voigt Hill
#
# Bulk Modulus (GPa) = 20.65816 40.77517 30.71666
# Shear Modulus (GPa) = 18.38473 13.47094 15.92783
#
# Velocity S-wave (km/s) = 3.05409 2.61428 2.84270
# Velocity P-wave (km/s) = 4.78723 5.45893 5.13407
#
# Compressibility (1/GPa) = 0.04840703
#
# Stress axis : x y z
#
# Youngs Moduli (GPa) = 48.73997 19.80743 63.80180
#
# Poissons Ratio (x) = 0.36339 -0.01928
# Poissons Ratio (y) = 0.89418 0.06961
# Poissons Ratio (z) = -0.01473 0.02161
#
# Static dielectric constant tensor:
#      x y z
#    x 1.754820 0.000000 -0.006060 
#    y 0.000000 1.668920 0.000000 
#    z -0.006060 0.000000 1.754540 
# 
# From -- ./inp_files/89572.got.cif
#   From: 2010.05.17/outbox.ucp.g08.bks.cvg/sg10_45_cif.got.tgz:89572.got - 2010.06.11 11:31:16.
