data_PCOD9155097
_publ_section_title
;
Structure prediction by ZEFSAII (Michael W. Deem and Ramdas Pophale) SiO2 
 PCOD9155097
Probable space group: P 2/M
;
_chemical_formula_sum "Si O2"
_cell_formula_units_Z 32
_cell_length_a 21.000000
_cell_length_b 9.000000
_cell_length_c 27.000000
_cell_angle_alpha 90.000000
_cell_angle_beta 160.000000
_cell_angle_gamma 90.000000
_cell_volume 1745.328791
_symmetry_space_group_name_H-M "P 2/M"
_symmetry_group_IT_number 10
_symmetry_cell_setting 'monoclinic'
loop_
_space_group_symop_operation_xyz
x,y,z
-x,y,-z
-x,-y,-z
x,-y,z
loop_
_atom_site_type_symbol
_atom_site_label
_atom_site_fract_x
_atom_site_fract_y
_atom_site_fract_z
Si Si1 0.964118 0.680326 0.732957
Si Si2 0.649015 0.320795 0.152085
Si Si3 0.623233 0.679804 0.960721
Si Si4 0.413971 0.319547 0.712405
Si Si5 0.227480 0.178454 0.318942
Si Si6 0.024123 0.822873 0.458740
Si Si7 0.592507 0.679509 0.403387
Si Si8 0.598752 0.679053 0.639529
O O1 0.952464 0.500000 0.729449
O O2 0.932086 0.756770 0.762720
O O3 0.795339 0.727187 0.573169
O O4 0.173269 0.722568 0.870693
O O5 0.677341 0.500000 0.171856
O O6 0.542277 0.274765 0.124122
O O7 0.849018 0.242822 0.300195
O O8 0.500000 0.286115 0.000000
O O9 0.624422 0.500000 0.961990
O O10 0.568794 0.727454 0.865606
O O11 0.406342 0.500000 0.707648
O O12 0.448572 0.268473 0.681670
O O13 0.213959 0.256542 0.581588
O O14 0.235362 0.244087 0.269300
O O15 0.410520 0.251636 0.478373
O O16 0.236965 0.000000 0.326258
O O17 0.000000 0.794132 0.500000
O O18 0.035443 0.000000 0.459781
O O19 0.602918 0.500000 0.409792
O O20 0.430812 0.715021 0.324525
O O21 0.601043 0.500000 0.634454
#
# Coordination Sequence:
#
# PCOD9155097 Si02
#       8
#     4   4   4   4   4   4   4   4
#     4   9  17  31  48  70 101 133 164 202 252 307
#     4  10  21  36  58  84 105 131 172 221 267 308
#     4   9  18  32  52  77 101 129 168 211 257 303
#     4  10  19  34  56  78 100 131 172 218 259 302
#     4  10  17  26  43  71 100 129 165 205 246 291
#     4  11  23  38  54  75 106 142 177 212 255 313
#     4   8  16  28  49  76  99 125 162 208 254 298
#     4   9  15  27  46  69  98 131 163 200 251 301
#
# _framework density 18.334654
#
# number of rings (size 3 to 8) (size 9 to 14) (size 15 to 20)
#    0.000    2.500    1.250    3.375    1.750    0.750 
#    0.000    4.375    0.000    0.750    0.000    5.250 
#    0.000    0.000    0.000    0.000    0.000    0.000 
#
# Total GULP energy -178212.615239 kJ/mol
# GULP energy per Si atom -5569.144226 kJ/mol
# Density = 1.829292 g / cm^3
# Si number density = 18.334654 Si / 1000 Ang^3
#
#
#
# Elastic Constant Matrix: (Units=GPa)
#
#
# Indices 1 2 3 4 5 6 
#
# 1 63.9707 2.8814 -9.8254 0.0000 -23.4354 0.0000
# 2 2.8814 43.8045 -1.6932 0.0000 -5.7407 0.0000
# 3 -9.8254 -1.6932 31.9348 0.0000 -17.4583 0.0000
# 4 0.0000 0.0000 0.0000 4.9106 0.0000 0.0522
# 5 -23.4354 -5.7407 -17.4583 0.0000 24.3624 0.0000
# 6 0.0000 0.0000 0.0000 0.0522 0.0000 10.3343
#
#
#
# Elastic Compliance Matrix: (Units=1/GPa)
#
#
# Indices 1 2 3 4 5 6 
#
# 1 0.457140 0.119002 0.662061 0.000000 0.942225 0.000000
# 2 0.119002 0.055539 0.179689 0.000000 0.256328 0.000000
# 3 0.662061 0.179689 1.012521 0.000000 1.404792 0.000000
# 4 0.000000 0.000000 0.000000 0.203654 0.000000 -0.001029
# 5 0.942225 0.256328 1.404792 0.000000 2.014506 0.000000
# 6 0.000000 0.000000 0.000000 -0.001029 0.000000 0.096770
#
#
# Mechanical properties :
#
#
# Convention : Reuss Voigt Hill
#
# Bulk Modulus (GPa) = 0.29013 13.60395 6.94704
# Shear Modulus (GPa) = 1.62998 17.81127 9.72062
#
# Velocity S-wave (km/s) = 0.94390 3.12020 2.30506
# Velocity P-wave (km/s) = 1.16039 4.51849 3.29873
#
# Compressibility (1/GPa) = 3.44670399
#
# Stress axis : x y z
#
# Youngs Moduli (GPa) = 2.18752 18.00539 0.98763
#
# Poissons Ratio (x) = -2.14267 -0.65387
# Poissons Ratio (y) = -0.26032 -0.17747
# Poissons Ratio (z) = -1.44827 -3.23538
#
# Static dielectric constant tensor:
#      x y z
#    x 1.725060 0.000000 0.005880 
#    y 0.000000 1.600680 0.000000 
#    z 0.005880 0.000000 1.610920 
# 
# From -- ./inp_files/93797.got.cif
#   From: 2010.05.17/outbox.ucp.g08.bks.cvg/sg10_47_cif.got.tgz:93797.got - 2010.06.11 11:31:16.
