data_PCOD9155018
_publ_section_title
;
Structure prediction by ZEFSAII (Michael W. Deem and Ramdas Pophale) SiO2 
 PCOD9155018
Probable space group: P 2/M
;
_chemical_formula_sum "Si O2"
_cell_formula_units_Z 24
_cell_length_a 5.130739
_cell_length_b 14.031404
_cell_length_c 15.945991
_cell_angle_alpha 90.000000
_cell_angle_beta 66.583586
_cell_angle_gamma 90.000000
_cell_volume 1053.429044
_symmetry_space_group_name_H-M "P 2/M"
_symmetry_group_IT_number 10
_symmetry_cell_setting 'monoclinic'
loop_
_space_group_symop_operation_xyz
x,y,z
-x,y,-z
-x,-y,-z
x,-y,z
loop_
_atom_site_type_symbol
_atom_site_label
_atom_site_fract_x
_atom_site_fract_y
_atom_site_fract_z
Si Si1 0.154671 0.394256 0.289647
Si Si2 0.593465 0.000000 0.131125
Si Si3 0.407054 0.397649 0.915875
Si Si4 0.062066 0.000000 0.741813
Si Si5 0.061408 0.198486 0.258435
Si Si6 0.318890 0.614000 0.446413
Si Si7 0.279249 0.198779 0.865631
O O1 0.020676 0.500000 0.319309
O O2 0.322355 0.397284 0.180930
O O3 0.368745 0.377332 0.340229
O O4 0.967063 0.299352 0.308563
O O5 0.702873 0.000000 0.214734
O O6 0.709561 0.100769 0.082653
O O7 0.251728 0.000000 0.173993
O O8 0.261182 0.500000 0.915875
O O9 0.254070 0.299105 0.915044
O O10 0.500000 0.396700 0.000000
O O11 0.063879 0.099320 0.691382
O O12 0.959703 0.196305 0.174825
O O13 0.404750 0.197420 0.217297
O O14 0.500000 0.653216 0.500000
O O15 0.312261 0.500000 0.458987
O O16 0.000000 0.650466 0.500000
#
# Coordination Sequence:
#
# PCOD9155018 Si02
#       7
#     4   2   4   2   4   4   4
#     4   9  18  32  51  76 104 134 169 208 251 300
#     4   8  14  26  45  66  90 121 160 208 252 287
#     4   9  18  33  51  73 104 141 176 207 243 294
#     4   8  14  26  44  68  95 123 160 200 242 295
#     4   9  17  29  48  72  97 128 164 203 248 295
#     4   9  18  32  50  73 100 128 160 203 255 304
#     4   9  17  30  47  68  95 128 167 208 248 289
#
# _framework density 22.782741000000001
#
# number of rings (size 3 to 8) (size 9 to 14) (size 15 to 20)
#    0.000    3.167    0.000    0.000    0.000    3.333 
#    0.000    8.750    0.000    9.000    0.000   18.667 
#    0.000    0.000    0.000    0.000    0.000    0.000 
#
# Total GULP energy -133696.133043 kJ/mol
# GULP energy per Si atom -5570.672210 kJ/mol
# Density = 2.273089 g / cm^3
# Si number density = 22.782741 Si / 1000 Ang^3
#
#
#
# Elastic Constant Matrix: (Units=GPa)
#
#
# Indices 1 2 3 4 5 6 
#
# 1 88.4324 7.0903 22.9836 0.0000 19.8650 0.0000
# 2 7.0903 244.6104 12.0074 0.0000 16.2246 0.0000
# 3 22.9836 12.0074 100.8534 0.0000 10.2652 0.0000
# 4 0.0000 0.0000 0.0000 6.3183 0.0000 16.2742
# 5 19.8650 16.2246 10.2652 0.0000 24.7547 0.0000
# 6 0.0000 0.0000 0.0000 16.2742 0.0000 38.1084
#
#
#
# Elastic Compliance Matrix: (Units=1/GPa)
#
#
# Indices 1 2 3 4 5 6 
#
# 1 0.014276 0.000411 -0.002202 0.000000 -0.010813 0.000000
# 2 0.000411 0.004291 -0.000297 0.000000 -0.003019 0.000000
# 3 -0.002202 -0.000297 0.010705 0.000000 -0.002477 0.000000
# 4 0.000000 0.000000 0.000000 -1.583430 0.000000 0.676201
# 5 -0.010813 -0.003019 -0.002477 0.000000 0.052080 0.000000
# 6 0.000000 0.000000 0.000000 0.676201 0.000000 -0.262530
#
#
# Mechanical properties :
#
#
# Convention : Reuss Voigt Hill
#
# Bulk Modulus (GPa) = 39.84595 57.56208 48.70401
# Shear Modulus (GPa) = -2.85377 39.95730 18.55176
#
# Velocity S-wave (km/s) = -1.12041 4.19243 2.85667
# Velocity P-wave (km/s) = 3.98168 6.98254 5.68373
#
# Compressibility (1/GPa) = 0.02509666
#
# Stress axis : x y z
#
# Youngs Moduli (GPa) = 70.04610 233.04215 93.41694
#
# Poissons Ratio (x) = -0.09589 0.20569
# Poissons Ratio (y) = -0.02882 0.02778
# Poissons Ratio (z) = 0.15423 0.06929
#
# Static dielectric constant tensor:
#      x y z
#    x 1.887800 0.000000 -0.022670 
#    y 0.000000 1.990960 0.000000 
#    z -0.022670 0.000000 1.820430 
# 
# From -- ./inp_files/59071.got.cif
#   From: 2010.05.17/outbox.cif.g08.bks.cpg/sg10_30_cif.got.tgz:59071.got - 2010.06.03 11:33:40.
