data_PCOD9155999
_publ_section_title
;
Structure prediction by ZEFSAII (Michael W. Deem and Ramdas Pophale) SiO2 
 PCOD9155999
Probable space group: P 21/M
;
_chemical_formula_sum "Si O2"
_cell_formula_units_Z 32
_cell_length_a 20.536333
_cell_length_b 14.281431
_cell_length_c 13.548949
_cell_angle_alpha 90.000000
_cell_angle_beta 29.268108
_cell_angle_gamma 90.000000
_cell_volume 1942.752930
_symmetry_space_group_name_H-M "P 21/M"
_symmetry_group_IT_number 11
_symmetry_cell_setting 'monoclinic'
loop_
_space_group_symop_operation_xyz
x,y,z
-x,1/2+y,-z
-x,-y,-z
x,1/2-y,z
loop_
_atom_site_type_symbol
_atom_site_label
_atom_site_fract_x
_atom_site_fract_y
_atom_site_fract_z
Si Si1 0.372160 0.861912 0.187203
Si Si2 0.203492 0.857860 0.605177
Si Si3 0.881018 0.641268 0.368911
Si Si4 0.886436 0.858813 0.972267
Si Si5 0.806780 0.032079 0.725995
Si Si6 0.939273 0.004376 0.743565
Si Si7 0.322966 0.358039 0.182632
Si Si8 0.846706 0.531421 0.214508
O O1 0.367699 0.750000 0.182332
O O2 0.285797 0.885382 0.398645
O O3 0.304626 0.907481 0.181330
O O4 0.525329 0.888614 0.001333
O O5 0.235692 0.750000 0.589108
O O6 0.046335 0.860148 0.784707
O O7 0.227303 0.935172 0.658129
O O8 0.920018 0.750000 0.308446
O O9 0.757938 0.635362 0.607799
O O10 0.841583 0.598896 0.316003
O O11 0.996600 0.577692 0.264388
O O12 0.848267 0.750000 0.013247
O O13 0.871702 0.921258 0.894111
O O14 0.814466 0.911450 0.158343
O O15 0.845409 0.053527 0.786886
O O16 0.754134 0.925609 0.789594
O O17 0.938772 0.037103 0.483067
O O18 0.321840 0.250000 0.152153
O O19 0.000000 0.500000 0.000000
#
# Coordination Sequence:
#
# PCOD9155999 Si02
#       8
#     4   4   4   4   4   4   4   4
#     4  10  18  31  50  72  96 124 161 198 231 276
#     4   9  16  27  46  69  94 121 151 195 237 269
#     4  10  18  31  46  67  99 128 152 191 239 277
#     4  10  18  30  46  67  94 126 157 191 235 280
#     4  10  19  30  47  65  96 128 158 186 235 272
#     4  10  19  31  43  67  96 129 156 190 222 289
#     4   9  19  32  48  71  96 124 159 195 234 277
#     4  10  17  29  44  66  97 121 157 194 231 283
#
# _framework density 16.471471999999999
#
# number of rings (size 3 to 8) (size 9 to 14) (size 15 to 20)
#    0.000    2.250    3.750    1.500    0.000    1.500 
#    0.000    2.500    0.000    0.000    0.000    3.500 
#    0.000    6.000    0.000    0.000    0.000    0.000 
#
# Total GULP energy -178296.986646 kJ/mol
# GULP energy per Si atom -5571.780833 kJ/mol
# Density = 1.643398 g / cm^3
# Si number density = 16.471472 Si / 1000 Ang^3
#
#
#
# Elastic Constant Matrix: (Units=GPa)
#
#
# Indices 1 2 3 4 5 6 
#
# 1 67.0371 32.9079 25.8170 0.0000 16.9856 0.0000
# 2 32.9079 88.7113 23.8206 0.0000 20.0044 0.0000
# 3 25.8170 23.8206 30.6718 0.0000 4.1558 0.0000
# 4 0.0000 0.0000 0.0000 21.3811 0.0000 3.2593
# 5 16.9856 20.0044 4.1558 0.0000 16.2180 0.0000
# 6 0.0000 0.0000 0.0000 3.2593 0.0000 11.4897
#
#
#
# Elastic Compliance Matrix: (Units=1/GPa)
#
#
# Indices 1 2 3 4 5 6 
#
# 1 0.029729 0.000909 -0.022127 0.000000 -0.026587 0.000000
# 2 0.000909 0.019173 -0.012765 0.000000 -0.021330 0.000000
# 3 -0.022127 -0.012765 0.057878 0.000000 0.024088 0.000000
# 4 0.000000 0.000000 0.000000 0.048884 0.000000 -0.013867
# 5 -0.026587 -0.021330 0.024088 0.000000 0.109643 0.000000
# 6 0.000000 0.000000 0.000000 -0.013867 0.000000 0.090968
#
#
# Mechanical properties :
#
#
# Convention : Reuss Voigt Hill
#
# Bulk Modulus (GPa) = 25.76435 39.05681 32.41058
# Shear Modulus (GPa) = 11.43698 16.74274 14.08986
#
# Velocity S-wave (km/s) = 2.63791 3.19167 2.92791
# Velocity P-wave (km/s) = 4.99538 6.11111 5.58119
#
# Compressibility (1/GPa) = 0.03881332
#
# Stress axis : x y z
#
# Youngs Moduli (GPa) = 33.63738 52.15648 17.27785
#
# Poissons Ratio (x) = -0.04740 0.38230
# Poissons Ratio (y) = -0.03057 0.22055
# Poissons Ratio (z) = 0.74428 0.66579
#
# Static dielectric constant tensor:
#      x y z
#    x 1.537300 0.000000 0.014110 
#    y 0.000000 1.592170 0.000000 
#    z 0.014110 0.000000 1.551280 
# 
# From -- ./inp_files/35518.got.cif
#   From: 2010.05.17/outbox.cif.g08.bks.cpg/sg11_18_cif.got.tgz:35518.got - 2010.06.03 12:22:45.
