data_PCOD9155871
_publ_section_title
;
Structure prediction by ZEFSAII (Michael W. Deem and Ramdas Pophale) SiO2 
 PCOD9155871
Probable space group: P 21/M
;
_chemical_formula_sum "Si O2"
_cell_formula_units_Z 32
_cell_length_a 30.195919
_cell_length_b 8.584531
_cell_length_c 24.134736
_cell_angle_alpha 90.000000
_cell_angle_beta 16.723989
_cell_angle_gamma 90.000000
_cell_volume 1800.280180
_symmetry_space_group_name_H-M "P 21/M"
_symmetry_group_IT_number 11
_symmetry_cell_setting 'monoclinic'
loop_
_space_group_symop_operation_xyz
x,y,z
-x,1/2+y,-z
-x,-y,-z
x,1/2-y,z
loop_
_atom_site_type_symbol
_atom_site_label
_atom_site_fract_x
_atom_site_fract_y
_atom_site_fract_z
Si Si1 0.123692 0.561683 0.225578
Si Si2 0.900058 0.563380 0.170028
Si Si3 0.565171 0.939044 0.600521
Si Si4 0.370662 0.436554 0.018725
Si Si5 0.123183 0.062413 0.396895
Si Si6 0.026354 0.565320 0.797533
Si Si7 0.653485 0.563601 0.619388
Si Si8 0.226006 0.938550 0.980033
O O1 0.139847 0.750000 0.210142
O O2 0.954654 0.517347 0.451567
O O3 0.252867 0.489404 0.111153
O O4 0.154118 0.518388 0.125908
O O5 0.901735 0.750000 0.166803
O O6 0.720958 0.510792 0.383203
O O7 0.962228 0.508264 0.155053
O O8 0.000000 0.500000 0.000000
O O9 0.562440 0.750000 0.603520
O O10 0.582329 0.984005 0.644622
O O11 0.403846 0.990717 0.768573
O O12 0.382562 0.250000 0.003780
O O13 0.535700 0.508389 0.807280
O O14 0.288416 0.487878 0.174889
O O15 0.123573 0.250000 0.394604
O O16 0.000000 0.000000 0.500000
O O17 0.032103 0.750000 0.795484
O O18 0.176117 0.506501 0.584223
O O19 0.874436 0.511083 0.947949
O O20 0.665312 0.750000 0.605920
O O21 0.221273 0.750000 0.981227
#
# Coordination Sequence:
#
# PCOD9155871 Si02
#       8
#     4   4   4   4   4   4   4   4
#     4   9  16  28  47  68  97 138 180 214 259 319
#     4  10  20  38  62  86 111 142 176 212 251 302
#     4   8  16  31  54  80 103 131 173 216 252 297
#     4  10  17  25  42  71 104 132 168 221 274 314
#     4   8  15  25  38  63  97 132 169 215 264 314
#     4  11  23  37  53  80 111 139 170 213 264 314
#     4  10  18  33  53  74  99 136 180 221 262 314
#     4  10  18  33  54  77 104 139 177 217 261 312
#
# _framework density 17.775010999999999
#
# number of rings (size 3 to 8) (size 9 to 14) (size 15 to 20)
#    0.000    2.500    1.250    3.000    0.000    1.000 
#    0.000    1.875    0.000    0.750    0.000    0.000 
#    0.000    0.000    0.000    0.000    0.000    0.000 
#
# Total GULP energy -178347.831450 kJ/mol
# GULP energy per Si atom -5573.369733 kJ/mol
# Density = 1.773455 g / cm^3
# Si number density = 17.775011 Si / 1000 Ang^3
#
#
#
# Elastic Constant Matrix: (Units=GPa)
#
#
# Indices 1 2 3 4 5 6 
#
# 1 60.9822 20.4066 64.8663 0.0000 -4.2523 0.0000
# 2 20.4066 42.3218 35.5096 0.0000 2.8168 0.0000
# 3 64.8663 35.5096 164.5308 0.0000 11.2820 0.0000
# 4 0.0000 0.0000 0.0000 25.5247 0.0000 2.7621
# 5 -4.2523 2.8168 11.2820 0.0000 29.7665 0.0000
# 6 0.0000 0.0000 0.0000 2.7621 0.0000 16.7223
#
#
#
# Elastic Compliance Matrix: (Units=1/GPa)
#
#
# Indices 1 2 3 4 5 6 
#
# 1 0.031675 -0.005961 -0.011859 0.000000 0.009584 0.000000
# 2 -0.005961 0.029979 -0.003970 0.000000 -0.002184 0.000000
# 3 -0.011859 -0.003970 0.012013 0.000000 -0.005871 0.000000
# 4 0.000000 0.000000 0.000000 0.039891 0.000000 -0.006589
# 5 0.009584 -0.002184 -0.005871 0.000000 0.037396 0.000000
# 6 0.000000 0.000000 0.000000 -0.006589 0.000000 0.060889
#
#
# Mechanical properties :
#
#
# Convention : Reuss Voigt Hill
#
# Bulk Modulus (GPa) = 33.23678 56.59997 44.91837
# Shear Modulus (GPa) = 18.83584 24.20617 21.52100
#
# Velocity S-wave (km/s) = 3.25881 3.69427 3.48335
# Velocity P-wave (km/s) = 5.73576 7.07873 6.44234
#
# Compressibility (1/GPa) = 0.03008715
#
# Stress axis : x y z
#
# Youngs Moduli (GPa) = 31.57057 33.35624 83.24589
#
# Poissons Ratio (x) = 0.19884 0.98717
# Poissons Ratio (y) = 0.18820 0.33052
# Poissons Ratio (z) = 0.37438 0.13244
#
# Static dielectric constant tensor:
#      x y z
#    x 1.574830 0.000000 0.014400 
#    y 0.000000 1.599860 0.000000 
#    z 0.014400 0.000000 1.643220 
# 
# From -- ./inp_files/67032.got.cif
#   From: 2010.05.17/outbox.cif.g08.bks.cpg/sg11_34_cif.got.tgz:67032.got - 2010.06.03 12:22:45.
