data_PCOD9155633
_publ_section_title
;
Structure prediction by ZEFSAII (Michael W. Deem and Ramdas Pophale) SiO2 
 PCOD9155633
Probable space group: P 2/M
;
_chemical_formula_sum "Si O2"
_cell_formula_units_Z 28
_cell_length_a 30.000000
_cell_length_b 9.000000
_cell_length_c 30.000000
_cell_angle_alpha 90.000000
_cell_angle_beta 170.000000
_cell_angle_gamma 90.000000
_cell_volume 1406.550239
_symmetry_space_group_name_H-M "P 2/M"
_symmetry_group_IT_number 10
_symmetry_cell_setting 'monoclinic'
loop_
_space_group_symop_operation_xyz
x,y,z
-x,y,-z
-x,-y,-z
x,-y,z
loop_
_atom_site_type_symbol
_atom_site_label
_atom_site_fract_x
_atom_site_fract_y
_atom_site_fract_z
Si Si1 0.119763 0.829527 0.068788
Si Si2 0.262867 0.180716 0.737210
Si Si3 0.689941 0.178971 0.320050
Si Si4 0.367478 0.325508 0.451830
Si Si5 0.856289 0.829808 0.091039
Si Si6 0.613350 0.829977 0.438678
Si Si7 0.168322 0.324275 0.841433
O O1 0.397872 0.753496 0.342741
O O2 0.143664 0.000000 0.076831
O O3 0.000000 0.829863 0.000000
O O4 0.909964 0.743107 0.832854
O O5 0.288304 0.217556 0.710656
O O6 0.000000 0.234254 0.500000
O O7 0.261800 0.000000 0.738374
O O8 0.500000 0.234342 0.000000
O O9 0.932468 0.246767 0.584100
O O10 0.685739 0.000000 0.320668
O O11 0.430959 0.249151 0.083885
O O12 0.367499 0.500000 0.442963
O O13 0.421714 0.286231 0.556554
O O14 0.859261 0.714194 0.133786
O O15 0.108940 0.813837 0.309972
O O16 0.856391 0.000000 0.109272
O O17 0.605073 0.812964 0.813472
O O18 0.594580 0.000000 0.437971
O O19 0.170284 0.500000 0.835562
#
# Coordination Sequence:
#
# PCOD9155633 Si02
#       7
#     4   4   4   4   4   4   4
#     4  11  24  43  66  90 121 165 212 253 298 358
#     4   9  17  31  55  87 115 143 192 253 298 336
#     4  11  22  39  64  89 118 159 204 247 294 359
#     4  12  25  40  63  95 129 161 198 251 308 361
#     4  10  21  38  61  87 115 154 203 248 293 351
#     4  10  21  38  61  87 118 156 198 245 295 355
#     4  12  25  40  60  89 126 160 195 248 306 358
#
# _framework density 19.906860999999999
#
# number of rings (size 3 to 8) (size 9 to 14) (size 15 to 20)
#    0.000    1.286    0.000    6.429    0.000    8.571 
#    0.000    0.000    0.000    8.571    0.000    0.000 
#    0.000    0.000    0.000    0.000    0.000    0.000 
#
# Total GULP energy -156594.805336 kJ/mol
# GULP energy per Si atom -5592.671619 kJ/mol
# Density = 1.986155 g / cm^3
# Si number density = 19.906861 Si / 1000 Ang^3
#
#
#
# Elastic Constant Matrix: (Units=GPa)
#
#
# Indices 1 2 3 4 5 6 
#
# 1 85.3069 30.9618 64.0814 0.0000 11.0051 0.0000
# 2 30.9618 114.7616 39.3945 0.0000 -0.5026 0.0000
# 3 64.0814 39.3945 205.4760 0.0000 12.3918 0.0000
# 4 0.0000 0.0000 0.0000 7.5641 0.0000 36.5197
# 5 11.0051 -0.5026 12.3918 0.0000 29.9519 0.0000
# 6 0.0000 0.0000 0.0000 36.5197 0.0000 -59.6338
#
#
#
# Elastic Compliance Matrix: (Units=1/GPa)
#
#
# Indices 1 2 3 4 5 6 
#
# 1 0.016649 -0.003018 -0.004350 0.000000 -0.004368 0.000000
# 2 -0.003018 0.009899 -0.001060 0.000000 0.001713 0.000000
# 3 -0.004350 -0.001060 0.006493 0.000000 -0.001106 0.000000
# 4 0.000000 0.000000 0.000000 0.033413 0.000000 0.020462
# 5 -0.004368 0.001713 -0.001106 0.000000 0.035478 0.000000
# 6 0.000000 0.000000 0.000000 0.020462 0.000000 -0.004238
#
#
# Mechanical properties :
#
#
# Convention : Reuss Voigt Hill
#
# Bulk Modulus (GPa) = 61.78338 74.93554 68.35946
# Shear Modulus (GPa) = 41.68549 13.65021 27.66785
#
# Velocity S-wave (km/s) = 4.58102 2.62144 3.73213
# Velocity P-wave (km/s) = 7.68665 6.84743 7.27915
#
# Compressibility (1/GPa) = 0.01618558
#
# Stress axis : x y z
#
# Youngs Moduli (GPa) = 60.06356 101.01762 154.00189
#
# Poissons Ratio (x) = 0.30483 0.66996
# Poissons Ratio (y) = 0.18125 0.16327
# Poissons Ratio (z) = 0.26130 0.10710
#
# Static dielectric constant tensor:
#      x y z
#    x 1.698780 0.000000 -0.000540 
#    y 0.000000 1.678490 0.000000 
#    z -0.000540 0.000000 1.665130 
# 
# From -- ./inp_files/96041.got.cif
#   From: 2010.05.17/outbox.ucp.g08.bks.cvg/sg10_49_cif.got.tgz:96041.got - 2010.06.11 11:31:16.
