data_PCOD9155987
_publ_section_title
;
Structure prediction by ZEFSAII (Michael W. Deem and Ramdas Pophale) SiO2 
 PCOD9155987
Probable space group: P 21/M
;
_chemical_formula_sum "Si O2"
_cell_formula_units_Z 32
_cell_length_a 11.299709
_cell_length_b 16.034687
_cell_length_c 12.305038
_cell_angle_alpha 90.000000
_cell_angle_beta 130.638714
_cell_angle_gamma 90.000000
_cell_volume 1691.827216
_symmetry_space_group_name_H-M "P 21/M"
_symmetry_group_IT_number 11
_symmetry_cell_setting 'monoclinic'
loop_
_space_group_symop_operation_xyz
x,y,z
-x,1/2+y,-z
-x,-y,-z
x,1/2-y,z
loop_
_atom_site_type_symbol
_atom_site_label
_atom_site_fract_x
_atom_site_fract_y
_atom_site_fract_z
Si Si1 0.566807 0.848745 0.364694
Si Si2 0.686726 0.579142 0.987121
Si Si3 0.098203 0.850695 0.411911
Si Si4 0.250531 0.149597 0.747336
Si Si5 0.009862 0.847529 0.117318
Si Si6 0.615439 0.927415 0.609705
Si Si7 0.427149 0.651793 0.686075
Si Si8 0.248016 0.549039 0.142639
O O1 0.544556 0.750000 0.361163
O O2 0.660712 0.866677 0.310873
O O3 0.660559 0.881693 0.525952
O O4 0.397853 0.892639 0.255906
O O5 0.683723 0.596227 0.112975
O O6 0.826258 0.638038 0.024675
O O7 0.524240 0.604052 0.835307
O O8 0.734384 0.489564 0.966827
O O9 0.110820 0.750000 0.417911
O O10 0.087506 0.875295 0.278779
O O11 0.252613 0.881778 0.563369
O O12 0.933525 0.870575 0.368306
O O13 0.263234 0.250000 0.779491
O O14 0.040036 0.750000 0.119124
O O15 0.091076 0.901109 0.072823
O O16 0.518058 0.864755 0.627752
O O17 0.500000 0.000000 0.500000
O O18 0.737435 0.972640 0.762224
O O19 0.424482 0.750000 0.708941
#
# Coordination Sequence:
#
# PCOD9155987 Si02
#       8
#     4   4   4   4   4   4   4   4
#     4  10  19  33  54  77 105 142 180 216 257 312
#     4  10  20  33  51  77 109 139 171 215 265 309
#     4   8  15  27  47  73  97 127 171 218 255 297
#     4   9  18  33  52  75 103 140 184 219 251 304
#     4  10  18  32  54  78 104 136 178 218 258 314
#     4   9  18  30  46  72 103 128 161 211 265 311
#     4  10  17  28  50  76 100 128 166 214 265 310
#     4  10  20  32  51  77 108 137 168 217 270 320
#
# _framework density 18.914460999999999
#
# number of rings (size 3 to 8) (size 9 to 14) (size 15 to 20)
#    0.000    2.500    0.000    4.500    0.000    1.500 
#    0.000    0.000    0.000   23.250    0.000    8.750 
#    0.000    2.000    0.000    0.000    0.000    0.000 
#
# Total GULP energy -178458.919560 kJ/mol
# GULP energy per Si atom -5576.841236 kJ/mol
# Density = 1.887141 g / cm^3
# Si number density = 18.914461 Si / 1000 Ang^3
#
#
#
# Elastic Constant Matrix: (Units=GPa)
#
#
# Indices 1 2 3 4 5 6 
#
# 1 65.6198 30.6976 44.6191 0.0000 -16.7910 0.0000
# 2 30.6976 46.6037 19.8354 0.0000 -10.6758 0.0000
# 3 44.6191 19.8354 96.1470 0.0000 0.1787 0.0000
# 4 0.0000 0.0000 0.0000 20.5373 0.0000 -4.1050
# 5 -16.7910 -10.6758 0.1787 0.0000 29.2880 0.0000
# 6 0.0000 0.0000 0.0000 -4.1050 0.0000 17.9121
#
#
#
# Elastic Compliance Matrix: (Units=1/GPa)
#
#
# Indices 1 2 3 4 5 6 
#
# 1 0.034353 -0.013637 -0.013156 0.000000 0.014804 0.000000
# 2 -0.013637 0.031325 -0.000140 0.000000 0.003601 0.000000
# 3 -0.013156 -0.000140 0.016550 0.000000 -0.007695 0.000000
# 4 0.000000 0.000000 0.000000 0.051029 0.000000 0.011695
# 5 0.014804 0.003601 -0.007695 0.000000 0.043991 0.000000
# 6 0.000000 0.000000 0.000000 0.011695 0.000000 0.058508
#
#
# Mechanical properties :
#
#
# Convention : Reuss Voigt Hill
#
# Bulk Modulus (GPa) = 35.26180 44.29721 39.77950
# Shear Modulus (GPa) = 16.71812 21.09536 18.90674
#
# Velocity S-wave (km/s) = 2.97624 3.34324 3.16506
# Velocity P-wave (km/s) = 5.52213 6.19464 5.86803
#
# Compressibility (1/GPa) = 0.02835930
#
# Stress axis : x y z
#
# Youngs Moduli (GPa) = 29.10961 31.92348 60.42473
#
# Poissons Ratio (x) = 0.43535 0.79497
# Poissons Ratio (y) = 0.39697 0.00849
# Poissons Ratio (z) = 0.38298 0.00448
#
# Static dielectric constant tensor:
#      x y z
#    x 1.652410 0.000000 0.005530 
#    y 0.000000 1.668960 0.000000 
#    z 0.005530 0.000000 1.683480 
# 
# From -- ./inp_files/36050.got.cif
#   From: 2010.05.17/outbox.cif.g08.bks.cpg/sg11_19_cif.got.tgz:36050.got - 2010.06.03 12:22:45.
