data_PCOD9155071
_publ_section_title
;
Structure prediction by ZEFSAII (Michael W. Deem and Ramdas Pophale) SiO2 
 PCOD9155071
Probable space group: P 2/M
;
_chemical_formula_sum "Si O2"
_cell_formula_units_Z 24
_cell_length_a 5.277561
_cell_length_b 11.300818
_cell_length_c 23.891699
_cell_angle_alpha 90.000000
_cell_angle_beta 53.834400
_cell_angle_gamma 90.000000
_cell_volume 1150.358143
_symmetry_space_group_name_H-M "P 2/M"
_symmetry_group_IT_number 10
_symmetry_cell_setting 'monoclinic'
loop_
_space_group_symop_operation_xyz
x,y,z
-x,y,-z
-x,-y,-z
x,-y,z
loop_
_atom_site_type_symbol
_atom_site_label
_atom_site_fract_x
_atom_site_fract_y
_atom_site_fract_z
Si Si1 0.749176 0.355432 0.420306
Si Si2 0.332093 0.872544 0.198241
Si Si3 0.432562 0.368300 0.221252
Si Si4 0.026332 0.627308 0.063308
Si Si5 0.462139 0.641191 0.341901
Si Si6 0.910206 0.872451 0.896370
O O1 0.500000 0.320010 0.500000
O O2 0.756998 0.500000 0.419604
O O3 0.636187 0.313861 0.374052
O O4 0.102354 0.315275 0.386931
O O5 0.225350 0.747022 0.236717
O O6 0.245605 0.870647 0.144206
O O7 0.709645 0.872359 0.157447
O O8 0.214817 0.000000 0.235924
O O9 0.279605 0.500000 0.243799
O O10 0.587492 0.345676 0.261979
O O11 0.688784 0.373239 0.138562
O O12 0.170952 0.500000 0.061800
O O13 0.177013 0.750303 0.062537
O O14 0.000000 0.628916 0.000000
O O15 0.448306 0.500000 0.351826
O O16 0.832541 0.000000 0.933744
#
# Coordination Sequence:
#
# PCOD9155071 Si02
#       6
#     4   4   4   4   4   4
#     4   9  16  27  43  65  96 129 157 190 237 292
#     4   9  18  33  52  73  98 128 164 207 252 300
#     4   9  18  32  50  73 102 134 169 210 253 298
#     4   9  18  33  52  74 101 135 174 214 256 301
#     4   9  17  27  42  66  94 126 161 195 237 289
#     4   9  18  33  52  72  94 124 164 210 258 304
#
# _framework density 20.863067999999998
#
# number of rings (size 3 to 8) (size 9 to 14) (size 15 to 20)
#    0.000    3.000    0.000    0.500    0.000    5.667 
#    0.000    8.333    0.000   18.000    0.000    0.000 
#    0.000    4.000    0.000    0.000    0.000    0.000 
#
# Total GULP energy -133676.653334 kJ/mol
# GULP energy per Si atom -5569.860556 kJ/mol
# Density = 2.081558 g / cm^3
# Si number density = 20.863068 Si / 1000 Ang^3
#
#
#
# Elastic Constant Matrix: (Units=GPa)
#
#
# Indices 1 2 3 4 5 6 
#
# 1 89.2461 13.3939 40.2593 0.0000 5.8778 0.0000
# 2 13.3939 199.5884 15.7270 0.0000 20.8658 0.0000
# 3 40.2593 15.7270 122.5757 0.0000 -0.1244 0.0000
# 4 0.0000 0.0000 0.0000 2.1166 0.0000 -7.1888
# 5 5.8778 20.8658 -0.1244 0.0000 25.6931 0.0000
# 6 0.0000 0.0000 0.0000 -7.1888 0.0000 -137.0827
#
#
#
# Elastic Compliance Matrix: (Units=1/GPa)
#
#
# Indices 1 2 3 4 5 6 
#
# 1 0.013406 -0.000254 -0.004373 0.000000 -0.002882 0.000000
# 2 -0.000254 0.005542 -0.000632 0.000000 -0.004446 0.000000
# 3 -0.004373 -0.000632 0.009677 0.000000 0.001561 0.000000
# 4 0.000000 0.000000 0.000000 0.401032 0.000000 -0.021031
# 5 -0.002882 -0.004446 0.001561 0.000000 0.043198 0.000000
# 6 0.000000 0.000000 0.000000 -0.021031 0.000000 -0.006192
#
#
# Mechanical properties :
#
#
# Convention : Reuss Voigt Hill
#
# Bulk Modulus (GPa) = 55.22949 61.13007 58.17978
# Shear Modulus (GPa) = 10.34731 0.94740 5.64735
#
# Velocity S-wave (km/s) = 2.22944 0.67460 1.64704
# Velocity P-wave (km/s) = 5.75821 5.47458 5.61819
#
# Compressibility (1/GPa) = 0.01810627
#
# Stress axis : x y z
#
# Youngs Moduli (GPa) = 74.59502 180.44253 103.33410
#
# Poissons Ratio (x) = 0.04578 0.45192
# Poissons Ratio (y) = 0.01893 0.06533
# Poissons Ratio (z) = 0.32623 0.11408
#
# Static dielectric constant tensor:
#      x y z
#    x 1.787730 0.000000 -0.030640 
#    y 0.000000 1.818750 0.000000 
#    z -0.030640 0.000000 1.754470 
# 
# From -- ./inp_files/10958.got.cif
#   From: 2010.05.17/outbox.cif.g08.bks.cpg/sg10_6_cif.got.tgz:10958.got - 2010.06.03 11:33:40.
