data_PCOD9155657
_publ_section_title
;
Structure prediction by ZEFSAII (Michael W. Deem and Ramdas Pophale) SiO2 
 PCOD9155657
Probable space group: P 2/M
;
_chemical_formula_sum "Si O2"
_cell_formula_units_Z 28
_cell_length_a 27.000000
_cell_length_b 9.000000
_cell_length_c 9.000000
_cell_angle_alpha 90.000000
_cell_angle_beta 40.000000
_cell_angle_gamma 90.000000
_cell_volume 1405.776502
_symmetry_space_group_name_H-M "P 2/M"
_symmetry_group_IT_number 10
_symmetry_cell_setting 'monoclinic'
loop_
_space_group_symop_operation_xyz
x,y,z
-x,y,-z
-x,-y,-z
x,-y,z
loop_
_atom_site_type_symbol
_atom_site_label
_atom_site_fract_x
_atom_site_fract_y
_atom_site_fract_z
Si Si1 0.792889 0.820162 0.538332
Si Si2 0.476458 0.321672 0.224771
Si Si3 0.151131 0.170129 0.142299
Si Si4 0.080386 0.675536 0.560776
Si Si5 0.625657 0.177954 0.027932
Si Si6 0.922786 0.169176 0.010135
Si Si7 0.332105 0.822248 0.723800
O O1 0.840281 0.749714 0.563684
O O2 0.702827 0.776895 0.757235
O O3 0.792983 0.000000 0.543495
O O4 0.850981 0.772330 0.273210
O O5 0.472139 0.500000 0.246802
O O6 0.395066 0.254198 0.470645
O O7 0.500000 0.284060 0.000000
O O8 0.547870 0.259150 0.157335
O O9 0.091536 0.275550 0.365799
O O10 0.114353 0.161617 0.065603
O O11 0.151572 0.000000 0.204452
O O12 0.241058 0.219512 0.922077
O O13 0.080166 0.500000 0.582294
O O14 0.003839 0.743993 0.812734
O O15 0.615448 0.000000 0.032352
O O16 0.643256 0.205017 0.161575
O O17 0.939468 0.000000 0.020585
O O18 0.335420 0.000000 0.688717
#
# Coordination Sequence:
#
# PCOD9155657 Si02
#       7
#     4   4   4   4   4   4   4
#     4  10  21  40  64  90 119 155 203 256 303 352
#     4  11  26  43  60  90 130 165 194 233 294 364
#     4  10  21  40  64  90 119 155 203 256 303 352
#     4  12  24  38  58  87 124 165 204 244 300 362
#     4  10  21  40  67  94 119 152 202 255 298 347
#     4  10  22  38  62  89 118 159 205 254 308 352
#     4  10  21  40  67  94 119 152 202 255 298 347
#
# _framework density 19.917818
#
# number of rings (size 3 to 8) (size 9 to 14) (size 15 to 20)
#    0.000    1.571    1.429    3.000    2.000    9.143 
#    0.000    0.000    0.000    0.000    0.000    0.000 
#    0.000    0.000    0.000    0.000    0.000    0.000 
#
# Total GULP energy -156195.218720 kJ/mol
# GULP energy per Si atom -5578.400669 kJ/mol
# Density = 1.987248 g / cm^3
# Si number density = 19.917818 Si / 1000 Ang^3
#
#
#
# Elastic Constant Matrix: (Units=GPa)
#
#
# Indices 1 2 3 4 5 6 
#
# 1 46.5668 3.1974 5.6569 0.0000 -10.9109 0.0000
# 2 3.1974 25.2046 30.7506 0.0000 -14.1553 0.0000
# 3 5.6569 30.7506 145.3425 0.0000 -21.5222 0.0000
# 4 0.0000 0.0000 0.0000 21.1069 0.0000 2.7700
# 5 -10.9109 -14.1553 -21.5222 0.0000 35.5603 0.0000
# 6 0.0000 0.0000 0.0000 2.7700 0.0000 7.4330
#
#
#
# Elastic Compliance Matrix: (Units=1/GPa)
#
#
# Indices 1 2 3 4 5 6 
#
# 1 0.023175 0.001443 -0.000076 0.000000 0.007639 0.000000
# 2 0.001443 0.063178 -0.010582 0.000000 0.019188 0.000000
# 3 -0.000076 -0.010582 0.009331 0.000000 0.001412 0.000000
# 4 0.000000 0.000000 0.000000 0.049814 0.000000 -0.018564
# 5 0.007639 0.019188 0.001412 0.000000 0.038958 0.000000
# 6 0.000000 0.000000 0.000000 -0.018564 0.000000 0.141454
#
#
# Mechanical properties :
#
#
# Convention : Reuss Voigt Hill
#
# Bulk Modulus (GPa) = 12.94418 32.92485 22.93451
# Shear Modulus (GPa) = 13.51021 24.65397 19.08209
#
# Velocity S-wave (km/s) = 2.60724 3.52203 3.09858
# Velocity P-wave (km/s) = 3.94671 5.75377 4.93368
#
# Compressibility (1/GPa) = 0.07725480
#
# Stress axis : x y z
#
# Youngs Moduli (GPa) = 43.15084 15.82821 107.16792
#
# Poissons Ratio (x) = -0.02284 0.00816
# Poissons Ratio (y) = -0.06228 1.13402
# Poissons Ratio (z) = 0.00329 0.16749
#
# Static dielectric constant tensor:
#      x y z
#    x 1.758090 0.000000 0.083200 
#    y 0.000000 1.687040 0.000000 
#    z 0.083200 0.000000 1.734380 
# 
# From -- ./inp_files/34202.got.cif
#   From: 2010.05.17/outbox.ucp.g08.bks.cvg/sg10_18_cif.got.tgz:34202.got - 2010.06.11 11:31:16.
