data_PCOD9155718
_publ_section_title
;
Structure prediction by ZEFSAII (Michael W. Deem and Ramdas Pophale) SiO2 
 PCOD9155718
Probable space group: P 2/M
;
_chemical_formula_sum "Si O2"
_cell_formula_units_Z 32
_cell_length_a 15.000000
_cell_length_b 18.000000
_cell_length_c 12.000000
_cell_angle_alpha 90.000000
_cell_angle_beta 30.000000
_cell_angle_gamma 90.000000
_cell_volume 1620.000000
_symmetry_space_group_name_H-M "P 2/M"
_symmetry_group_IT_number 10
_symmetry_cell_setting 'monoclinic'
loop_
_space_group_symop_operation_xyz
x,y,z
-x,y,-z
-x,-y,-z
x,-y,z
loop_
_atom_site_type_symbol
_atom_site_label
_atom_site_fract_x
_atom_site_fract_y
_atom_site_fract_z
Si Si1 0.945289 0.410964 0.931532
Si Si2 0.827825 0.840479 0.435940
Si Si3 0.443309 0.911424 0.434823
Si Si4 0.213024 0.083564 0.289920
Si Si5 0.214918 0.413071 0.271394
Si Si6 0.245776 0.167147 0.033971
Si Si7 0.345962 0.339843 0.899652
Si Si8 0.738968 0.333840 0.547003
O O1 0.939552 0.500000 0.924795
O O2 0.096655 0.376350 0.688108
O O3 0.759075 0.376435 0.089978
O O4 0.000000 0.393951 0.000000
O O5 0.729606 0.870552 0.431302
O O6 0.755197 0.887953 0.619664
O O7 0.780670 0.753948 0.504647
O O8 0.043382 0.847031 0.210043
O O9 0.500000 0.892784 0.500000
O O10 0.416208 0.000000 0.456508
O O11 0.613054 0.884386 0.181035
O O12 0.268349 0.144073 0.138762
O O13 0.000000 0.078814 0.500000
O O14 0.284938 0.000000 0.194258
O O15 0.263629 0.500000 0.230100
O O16 0.283031 0.380305 0.081230
O O17 0.281533 0.366670 0.306133
O O18 0.000000 0.407986 0.500000
O O19 0.292146 0.253274 0.965735
O O20 0.559428 0.345800 0.670244
#
# Coordination Sequence:
#
# PCOD9155718 Si02
#       8
#     4   4   4   4   4   4   4   4
#     4  11  26  47  69  95 129 171 222 274 326 388
#     4  11  22  42  67  96 130 173 213 265 325 387
#     4  11  26  45  65  95 131 169 222 274 318 380
#     4   9  19  35  62  96 129 163 207 258 317 387
#     4  11  22  39  66  97 136 175 212 263 328 397
#     4  11  22  42  67  96 130 173 213 265 325 387
#     4  12  24  42  67 100 133 173 217 271 327 391
#     4  12  24  42  67 100 133 173 217 271 327 391
#
# _framework density 19.753086
#
# number of rings (size 3 to 8) (size 9 to 14) (size 15 to 20)
#    0.000    1.000    3.750    2.625    0.000    7.500 
#    0.000    3.750    0.000    0.000    0.000    0.000 
#    0.000    0.000    0.000    0.000    0.000    0.000 
#
# Total GULP energy -178924.346186 kJ/mol
# GULP energy per Si atom -5591.385818 kJ/mol
# Density = 1.970813 g / cm^3
# Si number density = 19.753086 Si / 1000 Ang^3
#
#
#
# Elastic Constant Matrix: (Units=GPa)
#
#
# Indices 1 2 3 4 5 6 
#
# 1 125.9202 31.6628 5.4333 0.0000 -15.2825 0.0000
# 2 31.6628 69.0451 -22.2512 0.0000 1.7190 0.0000
# 3 5.4333 -22.2512 30.0391 0.0000 -19.8976 0.0000
# 4 0.0000 0.0000 0.0000 23.4219 0.0000 8.9362
# 5 -15.2825 1.7190 -19.8976 0.0000 39.0514 0.0000
# 6 0.0000 0.0000 0.0000 8.9362 0.0000 52.7592
#
#
#
# Elastic Compliance Matrix: (Units=1/GPa)
#
#
# Indices 1 2 3 4 5 6 
#
# 1 0.009965 -0.006456 -0.005756 0.000000 0.001251 0.000000
# 2 -0.006456 0.025917 0.027074 0.000000 0.010127 0.000000
# 3 -0.005756 0.027074 0.078648 0.000000 0.036629 0.000000
# 4 0.000000 0.000000 0.000000 0.045645 0.000000 -0.007731
# 5 0.001251 0.010127 0.036629 0.000000 0.044315 0.000000
# 6 0.000000 0.000000 0.000000 -0.007731 0.000000 0.020264
#
#
# Mechanical properties :
#
#
# Convention : Reuss Voigt Hill
#
# Bulk Modulus (GPa) = 6.93220 28.29935 17.61578
# Shear Modulus (GPa) = 20.56650 37.05713 28.81182
#
# Velocity S-wave (km/s) = 3.23023 4.33600 3.82330
# Velocity P-wave (km/s) = 4.17487 6.27897 5.33175
#
# Compressibility (1/GPa) = 0.14425425
#
# Stress axis : x y z
#
# Youngs Moduli (GPa) = 100.35028 38.58511 12.71481
#
# Poissons Ratio (x) = 0.24910 0.07318
# Poissons Ratio (y) = 0.64785 -0.34424
# Poissons Ratio (z) = 0.57759 -1.04464
#
# Static dielectric constant tensor:
#      x y z
#    x 1.686950 0.000000 -0.004390 
#    y 0.000000 1.663620 0.000000 
#    z -0.004390 0.000000 1.708530 
# 
# From -- ./inp_files/51938.got.cif
#   From: 2010.05.17/outbox.ucp.g08.bks.cvg/sg10_26_cif.got.tgz:51938.got - 2010.06.11 11:31:16.
