data_PCOD9155406
_publ_section_title
;
Structure prediction by ZEFSAII (Michael W. Deem and Ramdas Pophale) SiO2 
 PCOD9155406
Probable space group: P 2/M
;
_chemical_formula_sum "Si O2"
_cell_formula_units_Z 32
_cell_length_a 21.000000
_cell_length_b 9.000000
_cell_length_c 12.000000
_cell_angle_alpha 90.000000
_cell_angle_beta 50.000000
_cell_angle_gamma 90.000000
_cell_volume 1737.388797
_symmetry_space_group_name_H-M "P 2/M"
_symmetry_group_IT_number 10
_symmetry_cell_setting 'monoclinic'
loop_
_space_group_symop_operation_xyz
x,y,z
-x,y,-z
-x,-y,-z
x,-y,z
loop_
_atom_site_type_symbol
_atom_site_label
_atom_site_fract_x
_atom_site_fract_y
_atom_site_fract_z
Si Si1 0.378839 0.678991 0.316116
Si Si2 0.962702 0.679467 0.866709
Si Si3 0.564349 0.324569 0.110201
Si Si4 0.305949 0.823418 0.605257
Si Si5 0.872960 0.679487 0.202346
Si Si6 0.825559 0.680693 0.855748
Si Si7 0.673556 0.176338 0.160075
Si Si8 0.722203 0.676769 0.770980
O O1 0.372204 0.500000 0.326415
O O2 0.472450 0.713992 0.171404
O O3 0.366962 0.745732 0.450533
O O4 0.305390 0.736847 0.317781
O O5 0.966125 0.500000 0.857442
O O6 0.912189 0.730041 0.814479
O O7 0.056708 0.727504 0.787542
O O8 0.909663 0.714024 0.037894
O O9 0.563899 0.500000 0.138882
O O10 0.592747 0.231090 0.184825
O O11 0.637999 0.304663 0.938194
O O12 0.214358 0.758334 0.686267
O O13 0.329679 0.790623 0.705885
O O14 0.306206 0.000000 0.589863
O O15 0.863184 0.500000 0.219955
O O16 0.824066 0.500000 0.857487
O O17 0.798099 0.732196 0.762641
O O18 0.752015 0.738038 0.018461
O O19 0.685088 0.000000 0.131908
O O20 0.736541 0.500000 0.741469
#
# Coordination Sequence:
#
# PCOD9155406 Si02
#       8
#     4   4   4   4   4   4   4   4
#     4  10  20  34  52  72  93 125 165 200 239 286
#     4   8  14  25  48  79 102 121 152 195 240 282
#     4   9  18  33  54  75  94 118 155 204 249 289
#     4  11  23  35  46  66 100 136 165 196 234 281
#     4   9  16  29  49  73 100 128 158 193 235 285
#     4   9  15  28  52  77 100 124 153 194 242 288
#     4  10  20  32  46  68  99 130 159 194 239 285
#     4   8  15  29  52  78  98 117 151 202 247 281
#
# _framework density 18.418444999999998
#
# number of rings (size 3 to 8) (size 9 to 14) (size 15 to 20)
#    0.000    2.750    1.250    2.625    0.000    4.000 
#    0.000    6.875    0.000    4.500    0.000    5.250 
#    0.000    0.000    0.000    0.000    0.000    0.000 
#
# Total GULP energy -178209.713699 kJ/mol
# GULP energy per Si atom -5569.053553 kJ/mol
# Density = 1.837652 g / cm^3
# Si number density = 18.418445 Si / 1000 Ang^3
#
#
#
# Elastic Constant Matrix: (Units=GPa)
#
#
# Indices 1 2 3 4 5 6 
#
# 1 108.6024 16.0980 -2.1802 0.0000 14.5370 0.0000
# 2 16.0980 1.7490 -0.1169 0.0000 5.3330 0.0000
# 3 -2.1802 -0.1169 -11.5662 0.0000 4.0516 0.0000
# 4 0.0000 0.0000 0.0000 -0.6500 0.0000 6.3932
# 5 14.5370 5.3330 4.0516 0.0000 16.3890 0.0000
# 6 0.0000 0.0000 0.0000 6.3932 0.0000 1.6095
#
#
#
# Elastic Compliance Matrix: (Units=1/GPa)
#
#
# Indices 1 2 3 4 5 6 
#
# 1 -0.001396 0.094564 -0.010158 0.000000 -0.027022 0.000000
# 2 0.094564 -0.773371 0.044875 0.000000 0.156684 0.000000
# 3 -0.010158 0.044875 -0.080026 0.000000 0.014191 0.000000
# 4 0.000000 0.000000 0.000000 -0.038396 0.000000 0.152512
# 5 -0.027022 0.156684 0.014191 0.000000 0.030491 0.000000
# 6 0.000000 0.000000 0.000000 0.152512 0.000000 0.015505
#
#
# Mechanical properties :
#
#
# Convention : Reuss Voigt Hill
#
# Bulk Modulus (GPa) = -1.67720 14.04303 6.18291
# Shear Modulus (GPa) = -3.83289 9.13533 2.65122
#
# Velocity S-wave (km/s) = -1.44413 2.22950 1.20107
# Velocity P-wave (km/s) = 1.92179 3.77737 2.29948
#
# Compressibility (1/GPa) = -0.59623071
#
# Stress axis : x y z
#
# Youngs Moduli (GPa) = -716.26029 -1.29304 -12.49593
#
# Poissons Ratio (x) = 0.12227 -0.12693
# Poissons Ratio (y) = 67.73237 0.56076
# Poissons Ratio (z) = -7.27572 0.05803
#
# Static dielectric constant tensor:
#      x y z
#    x 1.690320 0.000000 0.014850 
#    y 0.000000 1.606430 0.000000 
#    z 0.014850 0.000000 1.638640 
# 
# From -- ./inp_files/55250.got.cif
#   From: 2010.05.17/outbox.ucp.g08.bks.cvg/sg10_28_cif.got.tgz:55250.got - 2010.06.11 11:31:16.
