data_PCOD9155164
_publ_section_title
;
Structure prediction by ZEFSAII (Michael W. Deem and Ramdas Pophale) SiO2 
 PCOD9155164
Probable space group: P 2/M
;
_chemical_formula_sum "Si O2"
_cell_formula_units_Z 32
_cell_length_a 24.000000
_cell_length_b 9.000000
_cell_length_c 15.000000
_cell_angle_alpha 90.000000
_cell_angle_beta 30.000000
_cell_angle_gamma 90.000000
_cell_volume 1620.000000
_symmetry_space_group_name_H-M "P 2/M"
_symmetry_group_IT_number 10
_symmetry_cell_setting 'monoclinic'
loop_
_space_group_symop_operation_xyz
x,y,z
-x,y,-z
-x,-y,-z
x,-y,z
loop_
_atom_site_type_symbol
_atom_site_label
_atom_site_fract_x
_atom_site_fract_y
_atom_site_fract_z
Si Si1 0.232672 0.318687 0.962672
Si Si2 0.886928 0.680771 0.702165
Si Si3 0.718419 0.320193 0.298446
Si Si4 0.237603 0.177363 0.453271
Si Si5 0.884143 0.820948 0.205273
Si Si6 0.289087 0.678596 0.202540
Si Si7 0.522550 0.675013 0.324022
Si Si8 0.468760 0.324931 0.188844
O O1 0.234029 0.500000 0.965360
O O2 0.218814 0.279119 0.879278
O O3 0.356003 0.264635 0.820756
O O4 0.140004 0.267430 0.160773
O O5 0.894053 0.500000 0.693998
O O6 0.779501 0.717461 0.790941
O O7 0.000000 0.735808 0.500000
O O8 0.717566 0.500000 0.309244
O O9 0.782738 0.248328 0.290651
O O10 0.589554 0.268828 0.473332
O O11 0.141142 0.219579 0.657209
O O12 0.226751 0.252167 0.372547
O O13 0.357673 0.234645 0.322299
O O14 0.239931 0.000000 0.442411
O O15 0.879978 0.000000 0.204858
O O16 0.000000 0.770937 0.000000
O O17 0.289450 0.500000 0.208683
O O18 0.418805 0.724563 0.017829
O O19 0.528708 0.500000 0.338781
O O20 0.499135 0.685366 0.251176
O O21 0.448669 0.500000 0.196098
#
# Coordination Sequence:
#
# PCOD9155164 Si02
#       8
#     4   4   4   4   4   4   4   4
#     4   9  16  28  48  78 109 135 167 207 257 312
#     4   9  17  30  48  73 107 141 171 208 255 305
#     4  10  19  31  55  85 106 129 169 222 264 300
#     4  11  23  37  55  78 104 137 176 222 268 309
#     4  10  23  42  57  70  99 144 183 215 263 322
#     4  10  20  34  55  81 109 143 176 210 258 315
#     4   9  15  27  49  77 108 136 163 203 257 313
#     4  10  18  32  55  80 108 141 174 209 257 319
#
# _framework density 19.753086
#
# number of rings (size 3 to 8) (size 9 to 14) (size 15 to 20)
#    0.000    2.250    2.500    1.125    0.000    5.250 
#    0.000    1.250    0.000    3.375    0.000    0.000 
#    0.000    0.000    0.000    0.000    0.000    0.000 
#
# Total GULP energy -178481.452569 kJ/mol
# GULP energy per Si atom -5577.545393 kJ/mol
# Density = 1.970813 g / cm^3
# Si number density = 19.753086 Si / 1000 Ang^3
#
#
#
# Elastic Constant Matrix: (Units=GPa)
#
#
# Indices 1 2 3 4 5 6 
#
# 1 21.3957 -0.9231 11.0997 0.0000 22.5492 0.0000
# 2 -0.9231 -2.9195 8.6439 0.0000 4.9663 0.0000
# 3 11.0997 8.6439 132.7663 0.0000 32.5072 0.0000
# 4 0.0000 0.0000 0.0000 9.4395 0.0000 24.3681
# 5 22.5492 4.9663 32.5072 0.0000 31.5425 0.0000
# 6 0.0000 0.0000 0.0000 24.3681 0.0000 -44.6003
#
#
#
# Elastic Compliance Matrix: (Units=1/GPa)
#
#
# Indices 1 2 3 4 5 6 
#
# 1 0.124053 -0.131042 0.019825 0.000000 -0.088482 0.000000
# 2 -0.131042 -0.122902 -0.011660 0.000000 0.125047 0.000000
# 3 0.019825 -0.011660 0.012913 0.000000 -0.025644 0.000000
# 4 0.000000 0.000000 0.000000 0.043949 0.000000 0.024013
# 5 -0.088482 0.125047 -0.025644 0.000000 0.101698 0.000000
# 6 0.000000 0.000000 0.000000 0.024013 0.000000 -0.009302
#
#
# Mechanical properties :
#
#
# Convention : Reuss Voigt Hill
#
# Bulk Modulus (GPa) = -4.31611 20.98706 8.33547
# Shear Modulus (GPa) = 15.67729 8.10447 11.89088
#
# Velocity S-wave (km/s) = 2.82026 2.02776 2.45618
# Velocity P-wave (km/s) = 2.90093 4.01624 3.50325
#
# Compressibility (1/GPa) = -0.23168991
#
# Stress axis : x y z
#
# Youngs Moduli (GPa) = 8.06108 -8.13658 77.44398
#
# Poissons Ratio (x) = -1.06623 -1.53531
# Poissons Ratio (y) = 1.05634 0.90298
# Poissons Ratio (z) = -0.15981 -0.09487
#
# Static dielectric constant tensor:
#      x y z
#    x 1.698290 0.000000 0.029350 
#    y 0.000000 1.654350 0.000000 
#    z 0.029350 0.000000 1.729230 
# 
# From -- ./inp_files/71438.got.cif
#   From: 2010.05.17/outbox.ucp.g08.bks.cvg/sg10_36_cif.got.tgz:71438.got - 2010.06.11 11:31:16.
