data_PCOD9155141
_publ_section_title
;
Structure prediction by ZEFSAII (Michael W. Deem and Ramdas Pophale) SiO2 
 PCOD9155141
Probable space group: P 2/M
;
_chemical_formula_sum "Si O2"
_cell_formula_units_Z 32
_cell_length_a 21.000000
_cell_length_b 9.000000
_cell_length_c 27.000000
_cell_angle_alpha 90.000000
_cell_angle_beta 20.000000
_cell_angle_gamma 90.000000
_cell_volume 1745.328791
_symmetry_space_group_name_H-M "P 2/M"
_symmetry_group_IT_number 10
_symmetry_cell_setting 'monoclinic'
loop_
_space_group_symop_operation_xyz
x,y,z
-x,y,-z
-x,-y,-z
x,-y,z
loop_
_atom_site_type_symbol
_atom_site_label
_atom_site_fract_x
_atom_site_fract_y
_atom_site_fract_z
Si Si1 0.298712 0.831189 0.175439
Si Si2 0.829555 0.819900 0.158548
Si Si3 0.160117 0.665989 0.186029
Si Si4 0.553191 0.331272 0.841802
Si Si5 0.633814 0.320504 0.124529
Si Si6 0.154312 0.176773 0.639285
Si Si7 0.954111 0.181085 0.175806
Si Si8 0.498431 0.180549 0.676189
O O1 0.177838 0.724531 0.228920
O O2 0.321378 0.771705 0.214702
O O3 0.229229 0.000000 0.225622
O O4 0.500000 0.832644 0.000000
O O5 0.859486 0.771895 0.193245
O O6 0.647278 0.781092 0.260916
O O7 0.835029 0.000000 0.156066
O O8 0.000000 0.768122 0.000000
O O9 0.080708 0.500000 0.242345
O O10 0.042010 0.777222 0.239397
O O11 0.362085 0.660074 0.013044
O O12 0.628264 0.500000 0.783616
O O13 0.491984 0.280346 0.831650
O O14 0.647628 0.500000 0.114926
O O15 0.550389 0.258100 0.236602
O O16 0.840286 0.250461 0.969694
O O17 0.162151 0.226601 0.690602
O O18 0.306389 0.230678 0.489241
O O19 0.174813 0.000000 0.625699
O O20 0.971585 0.000000 0.162642
O O21 0.492524 0.000000 0.687518
#
# Coordination Sequence:
#
# PCOD9155141 Si02
#       8
#     4   4   4   4   4   4   4   4
#     4   9  17  28  46  76 108 136 172 217 260 307
#     4   9  16  30  54  79 103 136 177 219 268 322
#     4  10  18  31  51  73 106 146 175 210 262 316
#     4   9  18  31  48  74 105 137 174 216 261 312
#     4  11  21  34  53  79 107 139 180 221 262 315
#     4  10  21  34  52  79 108 139 179 223 267 317
#     4  10  19  33  55  79 104 138 177 221 269 317
#     4  10  21  37  54  76 107 141 178 222 270 320
#
# _framework density 18.334654
#
# number of rings (size 3 to 8) (size 9 to 14) (size 15 to 20)
#    0.000    2.250    2.500    1.125    0.000    4.000 
#    0.000    3.750    0.000    0.750    0.000    7.875 
#    0.000    0.000    0.000    0.000    0.000    0.000 
#
# Total GULP energy -178264.526671 kJ/mol
# GULP energy per Si atom -5570.766458 kJ/mol
# Density = 1.829292 g / cm^3
# Si number density = 18.334654 Si / 1000 Ang^3
#
#
#
# Elastic Constant Matrix: (Units=GPa)
#
#
# Indices 1 2 3 4 5 6 
#
# 1 143.9895 19.4765 10.3066 0.0000 25.9267 0.0000
# 2 19.4765 8.9559 12.1866 0.0000 16.6935 0.0000
# 3 10.3066 12.1866 27.1303 0.0000 19.8243 0.0000
# 4 0.0000 0.0000 0.0000 2.9064 0.0000 2.8555
# 5 25.9267 16.6935 19.8243 0.0000 16.3563 0.0000
# 6 0.0000 0.0000 0.0000 2.8555 0.0000 -0.2832
#
#
#
# Elastic Compliance Matrix: (Units=1/GPa)
#
#
# Indices 1 2 3 4 5 6 
#
# 1 0.011004 -0.023471 0.014023 0.000000 -0.010483 0.000000
# 2 -0.023471 0.015520 -0.119495 0.000000 0.166196 0.000000
# 3 0.014023 -0.119495 0.107848 0.000000 -0.030984 0.000000
# 4 0.000000 0.000000 0.000000 0.031548 0.000000 0.318090
# 5 -0.010483 0.166196 -0.030984 0.000000 -0.054312 0.000000
# 6 0.000000 0.000000 0.000000 0.318090 0.000000 -0.323761
#
#
# Mechanical properties :
#
#
# Convention : Reuss Voigt Hill
#
# Bulk Modulus (GPa) = -8.09618 29.33501 10.61942
# Shear Modulus (GPa) = 1096.06951 13.00297 554.53624
#
# Velocity S-wave (km/s) = 24.47674 2.66597 17.41003
# Velocity P-wave (km/s) = 28.18491 5.05085 20.24722
#
# Compressibility (1/GPa) = -0.12351507
#
# Stress axis : x y z
#
# Youngs Moduli (GPa) = 90.88001 64.43450 9.27228
#
# Poissons Ratio (x) = 1.51234 -0.13002
# Poissons Ratio (y) = 2.13305 1.10799
# Poissons Ratio (z) = -1.27437 7.69959
#
# Static dielectric constant tensor:
#      x y z
#    x 1.661320 0.000000 -0.053810 
#    y 0.000000 1.626450 0.000000 
#    z -0.053810 0.000000 1.711300 
# 
# From -- ./inp_files/93627.got.cif
#   From: 2010.05.17/outbox.ucp.g08.bks.cvg/sg10_47_cif.got.tgz:93627.got - 2010.06.11 11:31:16.
