data_PCOD9155722
_publ_section_title
;
Structure prediction by ZEFSAII (Michael W. Deem and Ramdas Pophale) SiO2 
 PCOD9155722
Probable space group: P 2/M
;
_chemical_formula_sum "Si O2"
_cell_formula_units_Z 28
_cell_length_a 15.000000
_cell_length_b 9.000000
_cell_length_c 18.000000
_cell_angle_alpha 90.000000
_cell_angle_beta 140.000000
_cell_angle_gamma 90.000000
_cell_volume 1561.973892
_symmetry_space_group_name_H-M "P 2/M"
_symmetry_group_IT_number 10
_symmetry_cell_setting 'monoclinic'
loop_
_space_group_symop_operation_xyz
x,y,z
-x,y,-z
-x,-y,-z
x,-y,z
loop_
_atom_site_type_symbol
_atom_site_label
_atom_site_fract_x
_atom_site_fract_y
_atom_site_fract_z
Si Si1 0.361315 0.179414 0.953386
Si Si2 0.498248 0.819656 0.646182
Si Si3 0.931582 0.670197 0.056290
Si Si4 0.787994 0.171410 0.764414
Si Si5 0.797806 0.171493 0.591816
Si Si6 0.922663 0.329318 0.231762
Si Si7 0.650829 0.177309 0.885026
O O1 0.215785 0.243906 0.832308
O O2 0.353709 0.000000 0.945911
O O3 0.500000 0.226743 0.000000
O O4 0.373611 0.228186 0.047014
O O5 0.636331 0.770754 0.690612
O O6 0.349644 0.762664 0.526577
O O7 0.529189 0.784028 0.751205
O O8 0.493948 0.000000 0.633388
O O9 0.918258 0.500000 0.025856
O O10 0.928675 0.677280 0.145099
O O11 0.078068 0.736878 0.125265
O O12 0.795649 0.760604 0.947307
O O13 0.794636 0.170108 0.679272
O O14 0.800488 0.000000 0.798218
O O15 0.933546 0.256621 0.651474
O O16 0.807569 0.000000 0.573316
O O17 0.914181 0.500000 0.248278
O O18 0.662955 0.000000 0.894340
#
# Coordination Sequence:
#
# PCOD9155722 Si02
#       7
#     4   4   4   4   4   4   4
#     4   9  17  30  50  73  91 108 136 176 219 262
#     4   9  17  28  44  65  87 115 150 184 216 252
#     4   9  17  29  43  61  88 118 148 182 217 255
#     4   9  16  27  44  64  85 113 151 188 217 247
#     4   9  16  28  46  65  87 116 150 184 213 245
#     4   9  17  29  46  68  91 115 144 177 214 256
#     4   9  17  30  46  64  88 115 142 175 219 266
#
# _framework density 17.926036
#
# number of rings (size 3 to 8) (size 9 to 14) (size 15 to 20)
#    0.000    3.000    0.000    1.286    0.000    6.000 
#    0.000    5.000    0.000    4.286    0.000    6.000 
#    0.000    0.000    0.000    0.000    0.000    0.000 
#
# Total GULP energy -155980.669468 kJ/mol
# GULP energy per Si atom -5570.738195 kJ/mol
# Density = 1.788524 g / cm^3
# Si number density = 17.926036 Si / 1000 Ang^3
#
#
#
# Elastic Constant Matrix: (Units=GPa)
#
#
# Indices 1 2 3 4 5 6 
#
# 1 109.3040 29.2552 46.5331 0.0000 35.3652 0.0000
# 2 29.2552 20.3033 27.8883 0.0000 9.8492 0.0000
# 3 46.5331 27.8883 86.3171 0.0000 28.4899 0.0000
# 4 0.0000 0.0000 0.0000 -18.3007 0.0000 -17.5205
# 5 35.3652 9.8492 28.4899 0.0000 24.8734 0.0000
# 6 0.0000 0.0000 0.0000 -17.5205 0.0000 -5.1394
#
#
#
# Elastic Compliance Matrix: (Units=1/GPa)
#
#
# Indices 1 2 3 4 5 6 
#
# 1 0.023564 -0.028002 0.006017 0.000000 -0.029308 0.000000
# 2 -0.028002 0.122037 -0.034608 0.000000 0.031130 0.000000
# 3 0.006017 -0.034608 0.028658 0.000000 -0.027676 0.000000
# 4 0.000000 0.000000 0.000000 0.024138 0.000000 -0.082289
# 5 -0.029308 0.031130 -0.027676 0.000000 0.101247 0.000000
# 6 0.000000 0.000000 0.000000 -0.082289 0.000000 0.085953
#
#
# Mechanical properties :
#
#
# Convention : Reuss Voigt Hill
#
# Bulk Modulus (GPa) = 16.37370 47.03083 31.70226
# Shear Modulus (GPa) = 9.63127 7.76984 8.70056
#
# Velocity S-wave (km/s) = 2.32044 2.08418 2.20548
# Velocity P-wave (km/s) = 4.04143 5.66434 4.92026
#
# Compressibility (1/GPa) = 0.06107357
#
# Stress axis : x y z
#
# Youngs Moduli (GPa) = 42.43673 8.19421 34.89463
#
# Poissons Ratio (x) = 0.22945 -0.20997
# Poissons Ratio (y) = 1.18830 1.20765
# Poissons Ratio (z) = -0.25535 0.28359
#
# Static dielectric constant tensor:
#      x y z
#    x 1.615990 0.000000 -0.022800 
#    y 0.000000 1.609750 0.000000 
#    z -0.022800 0.000000 1.633120 
# 
# From -- ./inp_files/49344.got.cif
#   From: 2010.05.17/outbox.ucp.g08.bks.cvg/sg10_25_cif.got.tgz:49344.got - 2010.06.11 11:31:16.
