data_PCOD9155273
_publ_section_title
;
Structure prediction by ZEFSAII (Michael W. Deem and Ramdas Pophale) SiO2 
 PCOD9155273
Probable space group: P 2/M
;
_chemical_formula_sum "Si O2"
_cell_formula_units_Z 28
_cell_length_a 9.000000
_cell_length_b 9.000000
_cell_length_c 27.000000
_cell_angle_alpha 90.000000
_cell_angle_beta 140.000000
_cell_angle_gamma 90.000000
_cell_volume 1405.776502
_symmetry_space_group_name_H-M "P 2/M"
_symmetry_group_IT_number 10
_symmetry_cell_setting 'monoclinic'
loop_
_space_group_symop_operation_xyz
x,y,z
-x,y,-z
-x,-y,-z
x,-y,z
loop_
_atom_site_type_symbol
_atom_site_label
_atom_site_fract_x
_atom_site_fract_y
_atom_site_fract_z
Si Si1 0.837455 0.322694 0.105813
Si Si2 0.525100 0.175444 0.621515
Si Si3 0.325311 0.177589 0.235096
Si Si4 0.545462 0.176772 0.186343
Si Si5 0.264073 0.328959 0.472863
Si Si6 0.031364 0.678370 0.316580
Si Si7 0.390590 0.177055 0.041404
O O1 0.811006 0.500000 0.103998
O O2 0.640381 0.237051 0.086712
O O3 0.090729 0.267452 0.184480
O O4 0.790104 0.268104 0.037545
O O5 0.508160 0.204507 0.675636
O O6 0.316881 0.235728 0.534933
O O7 0.760341 0.251984 0.661767
O O8 0.547890 0.000000 0.619623
O O9 0.434918 0.219174 0.210512
O O10 0.273167 0.000000 0.220498
O O11 0.782619 0.263472 0.237649
O O12 0.378443 0.201427 0.096944
O O13 0.596313 0.000000 0.200660
O O14 0.500000 0.325063 0.500000
O O15 0.222386 0.500000 0.475717
O O16 0.072956 0.277594 0.384865
O O17 0.047080 0.500000 0.317495
O O18 0.371400 0.000000 0.026654
#
# Coordination Sequence:
#
# PCOD9155273 Si02
#       7
#     4   4   4   4   4   4   4
#     4  11  22  36  57  84 109 136 172 215 262 311
#     4  10  19  32  55  81 104 136 177 219 261 308
#     4  10  22  39  54  75 109 143 176 215 261 311
#     4  10  22  38  56  77 104 141 181 217 256 308
#     4   8  16  31  50  75 106 137 171 215 265 311
#     4  10  20  34  54  79 108 139 172 217 268 313
#     4  10  20  37  60  82 105 137 175 216 262 308
#
# _framework density 19.917818
#
# number of rings (size 3 to 8) (size 9 to 14) (size 15 to 20)
#    0.000    2.143    0.000    5.143    0.000   10.000 
#    0.000    3.571    0.000    4.286    0.000    0.000 
#    0.000    0.000    0.000    0.000    0.000    0.000 
#
# Total GULP energy -156335.495229 kJ/mol
# GULP energy per Si atom -5583.410544 kJ/mol
# Density = 1.987248 g / cm^3
# Si number density = 19.917818 Si / 1000 Ang^3
#
#
#
# Elastic Constant Matrix: (Units=GPa)
#
#
# Indices 1 2 3 4 5 6 
#
# 1 34.2930 11.1491 10.6621 0.0000 -33.0046 0.0000
# 2 11.1491 46.7339 17.6627 0.0000 -19.3314 0.0000
# 3 10.6621 17.6627 82.0369 0.0000 -34.1084 0.0000
# 4 0.0000 0.0000 0.0000 28.9522 0.0000 0.3596
# 5 -33.0046 -19.3314 -34.1084 0.0000 32.4083 0.0000
# 6 0.0000 0.0000 0.0000 0.3596 0.0000 -15.3891
#
#
#
# Elastic Compliance Matrix: (Units=1/GPa)
#
#
# Indices 1 2 3 4 5 6 
#
# 1 -0.068038 -0.019292 -0.036622 0.000000 -0.119340 0.000000
# 2 -0.019292 0.023063 -0.008725 0.000000 -0.015074 0.000000
# 3 -0.036622 -0.008725 0.002058 0.000000 -0.040334 0.000000
# 4 0.000000 0.000000 0.000000 0.034530 0.000000 0.000807
# 5 -0.119340 -0.015074 -0.040334 0.000000 -0.142120 0.000000
# 6 0.000000 0.000000 0.000000 0.000807 0.000000 -0.064962
#
#
# Mechanical properties :
#
#
# Convention : Reuss Voigt Hill
#
# Bulk Modulus (GPa) = -5.80736 26.89018 10.54141
# Shear Modulus (GPa) = -34.82145 17.43360 -8.69392
#
# Velocity S-wave (km/s) = -4.18575 2.96172 -2.09150
# Velocity P-wave (km/s) = 5.12666 5.02251 0.72702
#
# Compressibility (1/GPa) = -0.17219517
#
# Stress axis : x y z
#
# Youngs Moduli (GPa) = -14.69771 43.35989 485.83265
#
# Poissons Ratio (x) = 0.83652 17.79196
# Poissons Ratio (y) = -0.28356 4.23898
# Poissons Ratio (z) = -0.53825 0.37832
#
# Static dielectric constant tensor:
#      x y z
#    x 1.689070 0.000000 -0.046100 
#    y 0.000000 1.664800 0.000000 
#    z -0.046100 0.000000 1.736430 
# 
# From -- ./inp_files/92078.got.cif
#   From: 2010.05.17/outbox.ucp.g08.bks.cvg/sg10_47_cif.got.tgz:92078.got - 2010.06.11 11:31:16.
