data_PCOD9155271
_publ_section_title
;
Structure prediction by ZEFSAII (Michael W. Deem and Ramdas Pophale) SiO2 
 PCOD9155271
Probable space group: P 2/M
;
_chemical_formula_sum "Si O2"
_cell_formula_units_Z 28
_cell_length_a 9.000000
_cell_length_b 15.000000
_cell_length_c 21.000000
_cell_angle_alpha 90.000000
_cell_angle_beta 150.000000
_cell_angle_gamma 90.000000
_cell_volume 1417.500000
_symmetry_space_group_name_H-M "P 2/M"
_symmetry_group_IT_number 10
_symmetry_cell_setting 'monoclinic'
loop_
_space_group_symop_operation_xyz
x,y,z
-x,y,-z
-x,-y,-z
x,-y,z
loop_
_atom_site_type_symbol
_atom_site_label
_atom_site_fract_x
_atom_site_fract_y
_atom_site_fract_z
Si Si1 0.331708 0.395680 0.723100
Si Si2 0.756648 0.864016 0.546121
Si Si3 0.543686 0.099006 0.695839
Si Si4 0.428835 0.900355 0.804681
Si Si5 0.738491 0.282574 0.956263
Si Si6 0.342723 0.347134 0.504600
Si Si7 0.268759 0.299423 0.235839
O O1 0.412939 0.500000 0.746364
O O2 0.478591 0.351022 0.840387
O O3 0.492329 0.335720 0.728095
O O4 0.972862 0.388624 0.591198
O O5 0.500000 0.893579 0.500000
O O6 0.694434 0.896726 0.450576
O O7 0.742863 0.756630 0.538975
O O8 0.079599 0.892565 0.689743
O O9 0.443581 0.106558 0.732613
O O10 0.715994 0.191914 0.750337
O O11 0.685867 0.000000 0.743168
O O12 0.605230 0.817965 0.902189
O O13 0.539652 0.000000 0.862846
O O14 0.000000 0.284275 0.000000
O O15 0.928950 0.313536 0.088092
O O16 0.500000 0.384523 0.500000
O O17 0.601302 0.345132 0.653307
#
# Coordination Sequence:
#
# PCOD9155271 Si02
#       7
#     4   4   4   4   4   4   4
#     4  11  22  39  65  91 118 149 190 245 298 353
#     4  10  20  35  55  82 119 160 201 245 290 340
#     4  10  19  32  54  84 118 153 195 242 288 333
#     4  11  20  32  56  85 117 157 197 242 293 344
#     4  10  20  38  57  86 121 153 193 237 290 350
#     4  10  21  39  63  88 116 154 196 242 294 345
#     4  10  21  38  61  88 120 155 195 241 287 350
#
# _framework density 19.753086
#
# number of rings (size 3 to 8) (size 9 to 14) (size 15 to 20)
#    0.000    1.714    4.286    1.286    0.000    9.429 
#    0.000    0.714    0.000    0.857    0.000    4.000 
#    0.000    0.000    0.000    0.000    0.000    0.000 
#
# Total GULP energy -156068.280702 kJ/mol
# GULP energy per Si atom -5573.867168 kJ/mol
# Density = 1.970813 g / cm^3
# Si number density = 19.753086 Si / 1000 Ang^3
#
#
#
# Elastic Constant Matrix: (Units=GPa)
#
#
# Indices 1 2 3 4 5 6 
#
# 1 49.7498 1.1627 34.5617 0.0000 -5.6581 0.0000
# 2 1.1627 97.2372 20.7573 0.0000 -7.5129 0.0000
# 3 34.5617 20.7573 131.2691 0.0000 -13.3933 0.0000
# 4 0.0000 0.0000 0.0000 12.1877 0.0000 2.3958
# 5 -5.6581 -7.5129 -13.3933 0.0000 17.9681 0.0000
# 6 0.0000 0.0000 0.0000 2.3958 0.0000 3.6583
#
#
#
# Elastic Compliance Matrix: (Units=1/GPa)
#
#
# Indices 1 2 3 4 5 6 
#
# 1 0.024934 0.001351 -0.006407 0.000000 0.003641 0.000000
# 2 0.001351 0.010919 -0.001703 0.000000 0.003722 0.000000
# 3 -0.006407 -0.001703 0.010061 0.000000 0.004770 0.000000
# 4 0.000000 0.000000 0.000000 0.094173 0.000000 -0.061672
# 5 0.003641 0.003722 0.004770 0.000000 0.061912 0.000000
# 6 0.000000 0.000000 0.000000 -0.061672 0.000000 0.313738
#
#
# Mechanical properties :
#
#
# Convention : Reuss Voigt Hill
#
# Bulk Modulus (GPa) = 30.86763 43.46886 37.16824
# Shear Modulus (GPa) = 9.25835 21.54777 15.40306
#
# Velocity S-wave (km/s) = 2.16731 3.30639 2.79548
# Velocity P-wave (km/s) = 4.68227 6.05229 5.41081
#
# Compressibility (1/GPa) = 0.03239640
#
# Stress axis : x y z
#
# Youngs Moduli (GPa) = 40.10574 91.58368 99.39660
#
# Poissons Ratio (x) = -0.12372 0.63684
# Poissons Ratio (y) = -0.05418 0.16923
# Poissons Ratio (z) = 0.25696 0.15592
#
# Static dielectric constant tensor:
#      x y z
#    x 1.714380 0.000000 -0.043840 
#    y 0.000000 1.708550 0.000000 
#    z -0.043840 0.000000 1.719120 
# 
# From -- ./inp_files/82941.got.cif
#   From: 2010.05.17/outbox.ucp.g08.bks.cvg/sg10_42_cif.got.tgz:82941.got - 2010.06.11 11:31:16.
