data_PCOD9155719
_publ_section_title
;
Structure prediction by ZEFSAII (Michael W. Deem and Ramdas Pophale) SiO2 
 PCOD9155719
Probable space group: P 2/M
;
_chemical_formula_sum "Si O2"
_cell_formula_units_Z 32
_cell_length_a 21.000000
_cell_length_b 15.000000
_cell_length_c 15.000000
_cell_angle_alpha 90.000000
_cell_angle_beta 160.000000
_cell_angle_gamma 90.000000
_cell_volume 1616.045177
_symmetry_space_group_name_H-M "P 2/M"
_symmetry_group_IT_number 10
_symmetry_cell_setting 'monoclinic'
loop_
_space_group_symop_operation_xyz
x,y,z
-x,y,-z
-x,-y,-z
x,-y,z
loop_
_atom_site_type_symbol
_atom_site_label
_atom_site_fract_x
_atom_site_fract_y
_atom_site_fract_z
Si Si1 0.466186 0.285741 0.750527
Si Si2 0.789005 0.603646 0.257807
Si Si3 0.387742 0.604710 0.484585
Si Si4 0.802036 0.394614 0.950248
Si Si5 0.848070 0.713936 0.512831
Si Si6 0.693025 0.107515 0.715392
Si Si7 0.051929 0.102551 0.299951
Si Si8 0.377830 0.898798 0.580959
O O1 0.355037 0.330723 0.523304
O O2 0.327165 0.288381 0.651084
O O3 0.509211 0.182962 0.782264
O O4 0.646545 0.345726 0.005653
O O5 0.733590 0.500000 0.196757
O O6 0.791076 0.659892 0.350857
O O7 0.000000 0.604249 0.500000
O O8 0.370966 0.500000 0.486202
O O9 0.249212 0.622118 0.220382
O O10 0.602405 0.619150 0.735935
O O11 0.848584 0.500000 0.022385
O O12 0.970246 0.335234 0.207351
O O13 0.896408 0.818880 0.563784
O O14 0.500000 0.144882 0.500000
O O15 0.702978 0.123746 0.623159
O O16 0.688047 0.000000 0.717182
O O17 0.866775 0.133686 0.004127
O O18 0.212958 0.099887 0.436487
O O19 0.030347 0.000000 0.304622
O O20 0.457171 0.000000 0.680804
#
# Coordination Sequence:
#
# PCOD9155719 Si02
#       8
#     4   4   4   4   4   4   4   4
#     4  11  23  37  59  88 114 145 192 242 287 332
#     4  11  25  45  66  85 110 148 189 231 290 359
#     4   9  19  36  56  80 114 154 189 225 282 352
#     4   9  19  36  56  80 114 154 189 225 282 352
#     4  11  23  37  59  88 114 145 192 242 287 332
#     4   9  17  29  49  79 112 149 194 239 277 318
#     4   9  19  36  55  78 115 158 193 228 278 340
#     4   9  19  36  55  78 115 158 193 228 278 340
#
# _framework density 19.801427
#
# number of rings (size 3 to 8) (size 9 to 14) (size 15 to 20)
#    0.000    2.250    0.000    3.000    1.750    8.500 
#    0.000    1.875    0.000    3.750    0.000    0.000 
#    0.000    0.000    0.000    0.000    0.000    0.000 
#
# Total GULP energy -178625.169668 kJ/mol
# GULP energy per Si atom -5582.036552 kJ/mol
# Density = 1.975636 g / cm^3
# Si number density = 19.801427 Si / 1000 Ang^3
#
#
#
# Elastic Constant Matrix: (Units=GPa)
#
#
# Indices 1 2 3 4 5 6 
#
# 1 35.3672 27.1287 -16.4764 0.0000 -15.4251 0.0000
# 2 27.1287 106.3267 26.2896 0.0000 -18.9084 0.0000
# 3 -16.4764 26.2896 34.1473 0.0000 -7.7519 0.0000
# 4 0.0000 0.0000 0.0000 27.2332 0.0000 -0.6860
# 5 -15.4251 -18.9084 -7.7519 0.0000 16.2609 0.0000
# 6 0.0000 0.0000 0.0000 -0.6860 0.0000 10.1341
#
#
#
# Elastic Compliance Matrix: (Units=1/GPa)
#
#
# Indices 1 2 3 4 5 6 
#
# 1 -0.206930 0.063049 -0.197699 0.000000 -0.217228 0.000000
# 2 0.063049 -0.005794 0.052625 0.000000 0.078158 0.000000
# 3 -0.197699 0.052625 -0.151723 0.000000 -0.198674 0.000000
# 4 0.000000 0.000000 0.000000 0.036783 0.000000 0.002490
# 5 -0.217228 0.078158 -0.198674 0.000000 -0.148394 0.000000
# 6 0.000000 0.000000 0.000000 0.002490 0.000000 0.098845
#
#
# Mechanical properties :
#
#
# Convention : Reuss Voigt Hill
#
# Bulk Modulus (GPa) = -1.89215 27.74725 12.92755
# Shear Modulus (GPa) = -12.84259 19.98560 3.57150
#
# Velocity S-wave (km/s) = -2.54946 3.18040 1.34446
# Velocity P-wave (km/s) = 3.10226 5.24688 2.99213
#
# Compressibility (1/GPa) = -0.52849815
#
# Stress axis : x y z
#
# Youngs Moduli (GPa) = -4.83255 -172.58575 -6.59095
#
# Poissons Ratio (x) = 10.88128 -1.30302
# Poissons Ratio (y) = 0.30469 0.34685
# Poissons Ratio (z) = -0.95539 9.08235
#
# Static dielectric constant tensor:
#      x y z
#    x 1.712660 0.000000 -0.000680 
#    y 0.000000 1.725780 0.000000 
#    z -0.000680 0.000000 1.680280 
# 
# From -- ./inp_files/25355.got.cif
#   From: 2010.05.17/outbox.ucp.g08.bks.cvg/sg10_13_cif.got.tgz:25355.got - 2010.06.11 11:31:16.
