data_PCOD9155134
_publ_section_title
;
Structure prediction by ZEFSAII (Michael W. Deem and Ramdas Pophale) SiO2 
 PCOD9155134
Probable space group: P 2/M
;
_chemical_formula_sum "Si O2"
_cell_formula_units_Z 32
_cell_length_a 27.000000
_cell_length_b 9.000000
_cell_length_c 21.000000
_cell_angle_alpha 90.000000
_cell_angle_beta 20.000000
_cell_angle_gamma 90.000000
_cell_volume 1745.328791
_symmetry_space_group_name_H-M "P 2/M"
_symmetry_group_IT_number 10
_symmetry_cell_setting 'monoclinic'
loop_
_space_group_symop_operation_xyz
x,y,z
-x,y,-z
-x,-y,-z
x,-y,z
loop_
_atom_site_type_symbol
_atom_site_label
_atom_site_fract_x
_atom_site_fract_y
_atom_site_fract_z
Si Si1 0.672147 0.675126 0.306108
Si Si2 0.142168 0.825653 0.168542
Si Si3 0.336315 0.176014 0.554330
Si Si4 0.818943 0.179513 0.515089
Si Si5 0.326367 0.827238 0.820823
Si Si6 0.344234 0.320875 0.407282
Si Si7 0.338180 0.831257 0.169068
Si Si8 0.661084 0.677040 0.968591
O O1 0.500000 0.704775 0.500000
O O2 0.689262 0.500000 0.293714
O O3 0.728127 0.756052 0.302243
O O4 0.735615 0.732598 0.162787
O O5 0.985752 0.792483 0.328778
O O6 0.145180 0.000000 0.182770
O O7 0.245834 0.801004 0.983582
O O8 0.204167 0.733964 0.152534
O O9 0.506695 0.199889 0.363058
O O10 0.306460 0.253633 0.522510
O O11 0.307564 0.000000 0.584607
O O12 0.756467 0.256586 0.527543
O O13 0.744266 0.233924 0.670519
O O14 0.794802 0.000000 0.538473
O O15 0.313765 0.000000 0.817228
O O16 0.334998 0.500000 0.421013
O O17 0.509748 0.279387 0.186642
O O18 0.284084 0.000000 0.222976
O O19 0.500000 0.840180 0.000000
O O20 0.333794 0.744823 0.108250
O O21 0.662486 0.500000 0.962933
#
# Coordination Sequence:
#
# PCOD9155134 Si02
#       8
#     4   4   4   4   4   4   4   4
#     4   9  17  28  45  74 111 144 175 218 269 319
#     4  10  21  38  58  81 111 145 184 228 271 323
#     4  10  18  30  52  79 107 140 182 227 267 316
#     4  10  22  39  59  82 107 142 186 228 275 327
#     4   9  17  30  50  76 106 142 179 219 267 319
#     4  11  22  35  54  81 112 144 181 226 275 326
#     4  10  20  36  59  82 107 142 184 230 274 322
#     4  11  23  36  56  83 111 145 182 224 275 329
#
# _framework density 18.334654
#
# number of rings (size 3 to 8) (size 9 to 14) (size 15 to 20)
#    0.000    2.000    2.500    1.500    0.000    5.250 
#    0.000    2.500    0.000    0.750    0.000    5.250 
#    0.000    0.000    0.000    0.000    0.000    0.000 
#
# Total GULP energy -178335.857117 kJ/mol
# GULP energy per Si atom -5572.995535 kJ/mol
# Density = 1.829292 g / cm^3
# Si number density = 18.334654 Si / 1000 Ang^3
#
#
#
# Elastic Constant Matrix: (Units=GPa)
#
#
# Indices 1 2 3 4 5 6 
#
# 1 175.1539 86.3700 15.2512 0.0000 18.6010 0.0000
# 2 86.3700 51.7370 16.0888 0.0000 15.9967 0.0000
# 3 15.2512 16.0888 5.6634 0.0000 -7.5904 0.0000
# 4 0.0000 0.0000 0.0000 13.8592 0.0000 1.6984
# 5 18.6010 15.9967 -7.5904 0.0000 30.6337 0.0000
# 6 0.0000 0.0000 0.0000 1.6984 0.0000 21.9343
#
#
#
# Elastic Compliance Matrix: (Units=1/GPa)
#
#
# Indices 1 2 3 4 5 6 
#
# 1 0.013772 -0.006266 -0.039092 0.000000 -0.014777 0.000000
# 2 -0.006266 -0.013043 0.102041 0.000000 0.035900 0.000000
# 3 -0.039092 0.102041 -0.071326 0.000000 -0.047221 0.000000
# 4 0.000000 0.000000 0.000000 0.072845 0.000000 -0.005641
# 5 -0.014777 0.035900 -0.047221 0.000000 0.011170 0.000000
# 6 0.000000 0.000000 0.000000 -0.005641 0.000000 0.046028
#
#
# Mechanical properties :
#
#
# Convention : Reuss Voigt Hill
#
# Bulk Modulus (GPa) = 23.38092 51.99715 37.68903
# Shear Modulus (GPa) = -126.05497 20.94173 -52.55662
#
# Velocity S-wave (km/s) = -8.30070 3.38330 -5.35980
# Velocity P-wave (km/s) = 8.89319 6.60938 4.20742
#
# Compressibility (1/GPa) = 0.04276992
#
# Stress axis : x y z
#
# Youngs Moduli (GPa) = 72.61061 -76.66683 -14.02017
#
# Poissons Ratio (x) = -0.48037 -0.54808
# Poissons Ratio (y) = 0.45496 1.43064
# Poissons Ratio (z) = 2.83851 7.82319
#
# Static dielectric constant tensor:
#      x y z
#    x 1.587740 0.000000 0.013600 
#    y 0.000000 1.634960 0.000000 
#    z 0.013600 0.000000 1.487370 
# 
# From -- ./inp_files/86107.got.cif
#   From: 2010.05.17/outbox.ucp.g08.bks.cvg/sg10_44_cif.got.tgz:86107.got - 2010.06.11 11:31:16.
