data_PCOD9155385
_publ_section_title
;
Structure prediction by ZEFSAII (Michael W. Deem and Ramdas Pophale) SiO2 
 PCOD9155385
Probable space group: P 2/M
;
_chemical_formula_sum "Si O2"
_cell_formula_units_Z 28
_cell_length_a 9.000000
_cell_length_b 9.000000
_cell_length_c 27.000000
_cell_angle_alpha 90.000000
_cell_angle_beta 140.000000
_cell_angle_gamma 90.000000
_cell_volume 1405.776502
_symmetry_space_group_name_H-M "P 2/M"
_symmetry_group_IT_number 10
_symmetry_cell_setting 'monoclinic'
loop_
_space_group_symop_operation_xyz
x,y,z
-x,y,-z
-x,-y,-z
x,-y,z
loop_
_atom_site_type_symbol
_atom_site_label
_atom_site_fract_x
_atom_site_fract_y
_atom_site_fract_z
Si Si1 0.557078 0.824447 0.428709
Si Si2 0.980050 0.322602 0.134924
Si Si3 0.090303 0.170869 0.339183
Si Si4 0.462613 0.324616 0.305357
Si Si5 0.941178 0.828147 0.413493
Si Si6 0.798341 0.821950 0.988037
Si Si7 0.729803 0.819722 0.165250
O O1 0.349955 0.764106 0.409911
O O2 0.437968 0.782758 0.346311
O O3 0.822518 0.770932 0.499843
O O4 0.587933 0.000000 0.445885
O O5 0.948897 0.500000 0.128943
O O6 0.874498 0.258981 0.057623
O O7 0.845085 0.245260 0.145445
O O8 0.255377 0.293221 0.213899
O O9 0.999574 0.162668 0.370972
O O10 0.894438 0.234029 0.252533
O O11 0.124475 0.000000 0.330524
O O12 0.447155 0.500000 0.314135
O O13 0.723106 0.280653 0.358331
O O14 0.884602 0.000000 0.416035
O O15 0.791614 0.000000 0.995272
O O16 0.542109 0.777171 0.903542
O O17 0.000000 0.792495 0.000000
O O18 0.733092 0.000000 0.165481
#
# Coordination Sequence:
#
# PCOD9155385 Si02
#       7
#     4   4   4   4   4   4   4
#     4  10  19  36  60  86 113 148 194 242 291 341
#     4  11  24  41  60  84 116 157 198 233 280 339
#     4   9  18  34  59  88 116 146 187 239 288 337
#     4  11  24  39  55  81 117 157 198 236 281 340
#     4  10  21  35  58  88 116 149 192 241 294 344
#     4  10  23  40  63  94 121 145 183 234 288 347
#     4  10  20  38  63  89 115 150 192 233 283 340
#
# _framework density 19.917818
#
# number of rings (size 3 to 8) (size 9 to 14) (size 15 to 20)
#    0.000    1.857    1.429    2.143    2.000    8.286 
#    0.000    1.429    0.000    1.714    0.000    0.000 
#    0.000    0.000    0.000    0.000    0.000    0.000 
#
# Total GULP energy -155956.463493 kJ/mol
# GULP energy per Si atom -5569.873696 kJ/mol
# Density = 1.987248 g / cm^3
# Si number density = 19.917818 Si / 1000 Ang^3
#
#
#
# Elastic Constant Matrix: (Units=GPa)
#
#
# Indices 1 2 3 4 5 6 
#
# 1 65.9599 9.1032 45.1918 0.0000 16.0441 0.0000
# 2 9.1032 9.5532 13.5449 0.0000 8.5555 0.0000
# 3 45.1918 13.5449 141.5085 0.0000 31.3085 0.0000
# 4 0.0000 0.0000 0.0000 27.8427 0.0000 11.8125
# 5 16.0441 8.5555 31.3085 0.0000 35.5768 0.0000
# 6 0.0000 0.0000 0.0000 11.8125 0.0000 -31.1812
#
#
#
# Elastic Compliance Matrix: (Units=1/GPa)
#
#
# Indices 1 2 3 4 5 6 
#
# 1 0.020643 -0.010366 -0.005082 0.000000 -0.002345 0.000000
# 2 -0.010366 0.144516 -0.004803 0.000000 -0.025852 0.000000
# 3 -0.005082 -0.004803 0.010414 0.000000 -0.005718 0.000000
# 4 0.000000 0.000000 0.000000 0.030943 0.000000 0.011722
# 5 -0.002345 -0.025852 -0.005718 0.000000 0.040415 0.000000
# 6 0.000000 0.000000 0.000000 0.011722 0.000000 -0.027630
#
#
# Mechanical properties :
#
#
# Convention : Reuss Voigt Hill
#
# Bulk Modulus (GPa) = 7.40340 39.18904 23.29622
# Shear Modulus (GPa) = 16.40279 16.39313 16.39796
#
# Velocity S-wave (km/s) = 2.87282 2.87198 2.87240
# Velocity P-wave (km/s) = 3.83786 5.54218 4.76681
#
# Compressibility (1/GPa) = 0.13507316
#
# Stress axis : x y z
#
# Youngs Moduli (GPa) = 48.44183 6.91965 96.02063
#
# Poissons Ratio (x) = 0.07173 0.48794
# Poissons Ratio (y) = 0.50215 0.46114
# Poissons Ratio (z) = 0.24616 0.03323
#
# Static dielectric constant tensor:
#      x y z
#    x 1.833090 0.000000 0.029380 
#    y 0.000000 1.698780 0.000000 
#    z 0.029380 0.000000 1.709050 
# 
# From -- ./inp_files/36949.got.cif
#   From: 2010.05.17/outbox.ucp.g08.bks.cvg/sg10_19_cif.got.tgz:36949.got - 2010.06.11 11:31:16.
