data_PCOD9155676
_publ_section_title
;
Structure prediction by ZEFSAII (Michael W. Deem and Ramdas Pophale) SiO2 
 PCOD9155676
Probable space group: P 2/M
;
_chemical_formula_sum "Si O2"
_cell_formula_units_Z 32
_cell_length_a 12.000000
_cell_length_b 9.000000
_cell_length_c 15.000000
_cell_angle_alpha 90.000000
_cell_angle_beta 90.000000
_cell_angle_gamma 90.000000
_cell_volume 1620.000000
_symmetry_space_group_name_H-M "P 2/M"
_symmetry_group_IT_number 10
_symmetry_cell_setting 'monoclinic'
loop_
_space_group_symop_operation_xyz
x,y,z
-x,y,-z
-x,-y,-z
x,-y,z
loop_
_atom_site_type_symbol
_atom_site_label
_atom_site_fract_x
_atom_site_fract_y
_atom_site_fract_z
Si Si1 0.333312 0.174640 0.747725
Si Si2 0.183638 0.827784 0.921914
Si Si3 0.748486 0.671341 0.906807
Si Si4 0.797699 0.326193 0.411859
Si Si5 0.248243 0.324692 0.390581
Si Si6 0.995105 0.328090 0.829417
Si Si7 0.987878 0.824827 0.645426
Si Si8 0.571355 0.323158 0.752825
O O1 0.264538 0.197367 0.838349
O O2 0.272027 0.259949 0.668567
O O3 0.457535 0.235081 0.757541
O O4 0.333021 0.000000 0.727810
O O5 0.075807 0.724905 0.907956
O O6 0.150063 0.000000 0.924312
O O7 0.246697 0.781330 0.010926
O O8 0.741263 0.500000 0.938096
O O9 0.647992 0.699195 0.839478
O O10 0.865934 0.685803 0.855165
O O11 0.818136 0.500000 0.398103
O O12 0.733018 0.307360 0.504531
O O13 0.917084 0.246146 0.416046
O O14 0.229030 0.500000 0.371126
O O15 0.134595 0.240276 0.368852
O O16 0.351779 0.277057 0.330709
O O17 0.016936 0.500000 0.806716
O O18 0.020351 0.223719 0.745614
O O19 0.988210 0.000000 0.635374
O O20 0.548372 0.500000 0.744746
#
# Coordination Sequence:
#
# PCOD9155676 Si02
#       8
#     4   4   4   4   4   4   4   4
#     4  11  25  43  61  87 124 162 204 255 309 361
#     4  11  24  40  60  90 127 162 199 249 306 365
#     4  10  22  40  64  92 121 157 203 253 300 357
#     4  11  23  40  66  92 120 163 206 250 301 358
#     4  10  22  42  65  92 123 159 206 251 299 362
#     4  11  21  38  64  91 123 161 202 248 300 362
#     4  12  23  36  60  94 130 163 196 244 308 367
#     4  10  22  43  66  88 118 158 209 259 301 355
#
# _framework density 19.753086
#
# number of rings (size 3 to 8) (size 9 to 14) (size 15 to 20)
#    0.000    1.250    2.500    3.375    0.000    8.500 
#    0.000    5.000    0.000    0.000    0.000    0.000 
#    0.000    0.000    0.000    0.000    0.000    0.000 
#
# Total GULP energy -178926.465828 kJ/mol
# GULP energy per Si atom -5591.452057 kJ/mol
# Density = 1.970813 g / cm^3
# Si number density = 19.753086 Si / 1000 Ang^3
#
#
#
# Elastic Constant Matrix: (Units=GPa)
#
#
# Indices 1 2 3 4 5 6 
#
# 1 59.6221 21.8803 -4.6655 0.0000 8.0753 0.0000
# 2 21.8803 28.1409 20.1061 0.0000 12.3848 0.0000
# 3 -4.6655 20.1061 47.3183 0.0000 7.4901 0.0000
# 4 0.0000 0.0000 0.0000 76.8995 0.0000 -34.1940
# 5 8.0753 12.3848 7.4901 0.0000 -3.5265 0.0000
# 6 0.0000 0.0000 0.0000 -34.1940 0.0000 156.0606
#
#
#
# Elastic Compliance Matrix: (Units=1/GPa)
#
#
# Indices 1 2 3 4 5 6 
#
# 1 0.032532 -0.035568 0.019684 0.000000 -0.008611 0.000000
# 2 -0.035568 0.065507 -0.041060 0.000000 0.061397 0.000000
# 3 0.019684 -0.041060 0.042068 0.000000 -0.009774 0.000000
# 4 0.000000 0.000000 0.000000 0.014408 0.000000 0.003157
# 5 -0.008611 0.061397 -0.009774 0.000000 -0.108425 0.000000
# 6 0.000000 0.000000 0.000000 0.003157 0.000000 0.007099
#
#
# Mechanical properties :
#
#
# Convention : Reuss Voigt Hill
#
# Bulk Modulus (GPa) = 38.14173 23.30258 30.72215
# Shear Modulus (GPa) = 28.43859 52.40408 40.42134
#
# Velocity S-wave (km/s) = 3.79846 5.15627 4.52855
# Velocity P-wave (km/s) = 6.21200 6.87547 6.55214
#
# Compressibility (1/GPa) = 0.02621800
#
# Stress axis : x y z
#
# Youngs Moduli (GPa) = 30.73908 15.26563 23.77086
#
# Poissons Ratio (x) = 0.54297 -0.46791
# Poissons Ratio (y) = 1.09334 0.97603
# Poissons Ratio (z) = -0.60507 0.62681
#
# Static dielectric constant tensor:
#      x y z
#    x 1.654110 0.000000 -0.001090 
#    y 0.000000 1.662280 0.000000 
#    z -0.001090 0.000000 1.727800 
# 
# From -- ./inp_files/49937.got.cif
#   From: 2010.05.17/outbox.ucp.g08.bks.cvg/sg10_25_cif.got.tgz:49937.got - 2010.06.11 11:31:16.
