data_PCOD9155196
_publ_section_title
;
Structure prediction by ZEFSAII (Michael W. Deem and Ramdas Pophale) SiO2 
 PCOD9155196
Probable space group: P 2/M
;
_chemical_formula_sum "Si O2"
_cell_formula_units_Z 24
_cell_length_a 9.000000
_cell_length_b 12.000000
_cell_length_c 24.000000
_cell_angle_alpha 90.000000
_cell_angle_beta 30.000000
_cell_angle_gamma 90.000000
_cell_volume 1296.000000
_symmetry_space_group_name_H-M "P 2/M"
_symmetry_group_IT_number 10
_symmetry_cell_setting 'monoclinic'
loop_
_space_group_symop_operation_xyz
x,y,z
-x,y,-z
-x,-y,-z
x,-y,z
loop_
_atom_site_type_symbol
_atom_site_label
_atom_site_fract_x
_atom_site_fract_y
_atom_site_fract_z
Si Si1 0.674102 0.373338 0.098033
Si Si2 0.856883 0.234394 0.754603
Si Si3 0.374055 0.768873 0.666021
Si Si4 0.563008 0.378396 0.699340
Si Si5 0.993492 0.000000 0.671082
Si Si6 0.565796 0.000000 0.569176
Si Si7 0.826073 0.368996 0.447430
O O1 0.695616 0.500000 0.068823
O O2 0.447578 0.298872 0.137680
O O3 0.543695 0.380294 0.202588
O O4 0.000000 0.325913 0.000000
O O5 0.044045 0.221314 0.749765
O O6 0.819129 0.112740 0.740087
O O7 0.052613 0.305019 0.646267
O O8 0.399754 0.712617 0.716836
O O9 0.548462 0.691790 0.564817
O O10 0.531928 0.887866 0.614330
O O11 0.508945 0.500000 0.691207
O O12 0.913277 0.360269 0.591411
O O13 0.284585 0.000000 0.617326
O O14 0.135991 0.000000 0.563760
O O15 0.780461 0.500000 0.450544
#
# Coordination Sequence:
#
# PCOD9155196 Si02
#       7
#     4   4   4   4   2   2   4
#     4   9  19  38  58  73  95 127 162 205 259 308
#     4  10  19  31  52  74  96 129 173 208 235 288
#     4  11  19  30  48  73 103 133 167 202 237 288
#     4   9  19  33  48  70 102 134 159 196 254 299
#     4   9  16  32  48  69 102 137 169 201 239 280
#     4   9  18  30  46  68 104 144 166 193 243 278
#     4  10  19  30  45  69 104 139 163 192 241 297
#
# _framework density 18.518519000000001
#
# number of rings (size 3 to 8) (size 9 to 14) (size 15 to 20)
#    0.000    2.333    1.667    3.000    0.000    4.667 
#    0.000    6.250    0.000    3.000    0.000    3.500 
#    0.000    0.000    0.000    0.000    0.000    0.000 
#
# Total GULP energy -133751.773609 kJ/mol
# GULP energy per Si atom -5572.990567 kJ/mol
# Density = 1.847637 g / cm^3
# Si number density = 18.518519 Si / 1000 Ang^3
#
#
#
# Elastic Constant Matrix: (Units=GPa)
#
#
# Indices 1 2 3 4 5 6 
#
# 1 46.3631 29.6141 8.9299 0.0000 -4.0092 0.0000
# 2 29.6141 106.8826 -0.0054 0.0000 -8.2127 0.0000
# 3 8.9299 -0.0054 32.6277 0.0000 -25.0418 0.0000
# 4 0.0000 0.0000 0.0000 17.0506 0.0000 -14.9821
# 5 -4.0092 -8.2127 -25.0418 0.0000 13.7938 0.0000
# 6 0.0000 0.0000 0.0000 -14.9821 0.0000 88.2770
#
#
#
# Elastic Compliance Matrix: (Units=1/GPa)
#
#
# Indices 1 2 3 4 5 6 
#
# 1 0.024973 -0.005297 0.009369 0.000000 0.021113 0.000000
# 2 -0.005297 0.009504 -0.011726 0.000000 -0.017169 0.000000
# 3 0.009369 -0.011726 -0.063084 0.000000 -0.118784 0.000000
# 4 0.000000 0.000000 0.000000 0.068928 0.000000 0.011698
# 5 0.021113 -0.017169 -0.118784 0.000000 -0.147234 0.000000
# 6 0.000000 0.000000 0.000000 0.011698 0.000000 0.013313
#
#
# Mechanical properties :
#
#
# Convention : Reuss Voigt Hill
#
# Bulk Modulus (GPa) = -22.77130 29.21674 3.22272
# Shear Modulus (GPa) = -53.80433 33.64662 -10.07886
#
# Velocity S-wave (km/s) = -5.39606 4.26716 -2.33547
# Velocity P-wave (km/s) = 7.15167 6.33162 2.35127
#
# Compressibility (1/GPa) = -0.04391492
#
# Stress axis : x y z
#
# Youngs Moduli (GPa) = 40.04275 105.22149 -15.85193
#
# Poissons Ratio (x) = 0.55732 0.14851
# Poissons Ratio (y) = 0.21209 -0.18588
# Poissons Ratio (z) = -0.37514 1.23383
#
# Static dielectric constant tensor:
#      x y z
#    x 1.664600 0.000000 -0.030050 
#    y 0.000000 1.549130 0.000000 
#    z -0.030050 0.000000 1.656890 
# 
# From -- ./inp_files/27563.got.cif
#   From: 2010.05.17/outbox.ucp.g08.bks.cvg/sg10_14_cif.got.tgz:27563.got - 2010.06.11 11:31:16.
