data_PCOD9155598
_publ_section_title
;
Structure prediction by ZEFSAII (Michael W. Deem and Ramdas Pophale) SiO2 
 PCOD9155598
Probable space group: P 2/M
;
_chemical_formula_sum "Si O2"
_cell_formula_units_Z 28
_cell_length_a 30.000000
_cell_length_b 9.000000
_cell_length_c 30.000000
_cell_angle_alpha 90.000000
_cell_angle_beta 10.000000
_cell_angle_gamma 90.000000
_cell_volume 1406.550239
_symmetry_space_group_name_H-M "P 2/M"
_symmetry_group_IT_number 10
_symmetry_cell_setting 'monoclinic'
loop_
_space_group_symop_operation_xyz
x,y,z
-x,y,-z
-x,-y,-z
x,-y,z
loop_
_atom_site_type_symbol
_atom_site_label
_atom_site_fract_x
_atom_site_fract_y
_atom_site_fract_z
Si Si1 0.447059 0.326542 0.323791
Si Si2 0.236789 0.322077 0.235076
Si Si3 0.424954 0.668479 0.625531
Si Si4 0.827624 0.179604 0.797073
Si Si5 0.352970 0.821731 0.323999
Si Si6 0.024126 0.674475 0.148494
Si Si7 0.053918 0.825469 0.864582
O O1 0.421241 0.500000 0.337332
O O2 0.373857 0.230646 0.353670
O O3 0.245461 0.298521 0.561795
O O4 0.737440 0.301291 0.053458
O O5 0.236868 0.500000 0.228090
O O6 0.210099 0.241504 0.214710
O O7 0.000000 0.283913 0.500000
O O8 0.500000 0.280369 0.000000
O O9 0.500000 0.661698 0.500000
O O10 0.416227 0.500000 0.652150
O O11 0.659374 0.759275 0.415981
O O12 0.149458 0.744690 0.902872
O O13 0.094694 0.231657 0.554884
O O14 0.827444 0.000000 0.795887
O O15 0.597520 0.230352 0.055317
O O16 0.350724 0.000000 0.325288
O O17 0.031534 0.500000 0.127042
O O18 0.051568 0.782929 0.080045
O O19 0.058780 0.000000 0.868386
#
# Coordination Sequence:
#
# PCOD9155598 Si02
#       7
#     4   4   4   4   4   4   4
#     4  10  21  36  57  83 109 145 192 235 278 334
#     4  10  21  36  54  78 106 136 173 218 267 315
#     4  11  24  43  66  90 121 165 208 245 298 366
#     4  10  21  36  54  78 106 140 179 216 265 327
#     4  10  21  36  54  78 109 141 176 223 275 327
#     4  10  21  38  58  82 115 153 193 236 284 346
#     4  12  25  40  63  95 126 158 201 254 307 355
#
# _framework density 19.906860999999999
#
# number of rings (size 3 to 8) (size 9 to 14) (size 15 to 20)
#    0.000    1.571    0.000    4.714    0.000    6.857 
#    0.000    0.000    0.000    0.000    0.000    0.000 
#    0.000    0.000    0.000    0.000    0.000    0.000 
#
# Total GULP energy -156480.643637 kJ/mol
# GULP energy per Si atom -5588.594416 kJ/mol
# Density = 1.986155 g / cm^3
# Si number density = 19.906861 Si / 1000 Ang^3
#
#
#
# Elastic Constant Matrix: (Units=GPa)
#
#
# Indices 1 2 3 4 5 6 
#
# 1 52.7122 23.4178 16.5750 0.0000 -0.5629 0.0000
# 2 23.4178 52.9256 32.7213 0.0000 -1.9634 0.0000
# 3 16.5750 32.7213 104.5577 0.0000 -8.0992 0.0000
# 4 0.0000 0.0000 0.0000 -19.7295 0.0000 5.2070
# 5 -0.5629 -1.9634 -8.0992 0.0000 23.8386 0.0000
# 6 0.0000 0.0000 0.0000 5.2070 0.0000 19.1881
#
#
#
# Elastic Compliance Matrix: (Units=1/GPa)
#
#
# Indices 1 2 3 4 5 6 
#
# 1 0.023647 -0.010093 -0.000628 0.000000 -0.000486 0.000000
# 2 -0.010093 0.027743 -0.007111 0.000000 -0.000369 0.000000
# 3 -0.000628 -0.007111 0.012162 0.000000 0.003532 0.000000
# 4 0.000000 0.000000 0.000000 -0.047298 0.000000 0.012835
# 5 -0.000486 -0.000369 0.003532 0.000000 0.043107 0.000000
# 6 0.000000 0.000000 0.000000 0.012835 0.000000 0.048633
#
#
# Mechanical properties :
#
#
# Convention : Reuss Voigt Hill
#
# Bulk Modulus (GPa) = 35.85583 39.51375 37.68479
# Shear Modulus (GPa) = 32.68988 13.82489 23.25739
#
# Velocity S-wave (km/s) = 4.05673 2.63815 3.42176
# Velocity P-wave (km/s) = 6.32405 5.40113 5.88073
#
# Compressibility (1/GPa) = 0.02788947
#
# Stress axis : x y z
#
# Youngs Moduli (GPa) = 42.28873 36.04550 82.22010
#
# Poissons Ratio (x) = 0.36380 0.05161
# Poissons Ratio (y) = 0.42682 0.58464
# Poissons Ratio (z) = 0.02654 0.25631
#
# Static dielectric constant tensor:
#      x y z
#    x 1.682600 0.000000 0.005320 
#    y 0.000000 1.675730 0.000000 
#    z 0.005320 0.000000 1.697840 
# 
# From -- ./inp_files/13685.got.cif
#   From: 2010.05.17/outbox.ucp.g08.bks.cvg/sg10_7_cif.got.tgz:13685.got - 2010.06.11 11:31:16.
