data_PCOD9155198
_publ_section_title
;
Structure prediction by ZEFSAII (Michael W. Deem and Ramdas Pophale) SiO2 
 PCOD9155198
Probable space group: P 2/M
;
_chemical_formula_sum "Si O2"
_cell_formula_units_Z 28
_cell_length_a 27.000000
_cell_length_b 15.000000
_cell_length_c 24.000000
_cell_angle_alpha 90.000000
_cell_angle_beta 10.000000
_cell_angle_gamma 90.000000
_cell_volume 1687.860287
_symmetry_space_group_name_H-M "P 2/M"
_symmetry_group_IT_number 10
_symmetry_cell_setting 'monoclinic'
loop_
_space_group_symop_operation_xyz
x,y,z
-x,y,-z
-x,-y,-z
x,-y,z
loop_
_atom_site_type_symbol
_atom_site_label
_atom_site_fract_x
_atom_site_fract_y
_atom_site_fract_z
Si Si1 0.838371 0.902230 0.120794
Si Si2 0.652770 0.500000 0.674977
Si Si3 0.043964 0.808470 0.793435
Si Si4 0.334758 0.896504 0.883870
Si Si5 0.747225 0.314384 0.519767
Si Si6 0.022787 0.500000 0.567443
Si Si7 0.832095 0.301041 0.630077
Si Si8 0.876986 0.227454 0.798713
O O1 0.500000 0.904514 0.500000
O O2 0.925360 0.000000 0.000114
O O3 0.000000 0.894993 0.000000
O O4 0.914448 0.821257 0.996959
O O5 0.708829 0.415717 0.575300
O O6 0.857922 0.500000 0.501475
O O7 0.319021 0.500000 0.060873
O O8 0.350010 0.856677 0.458726
O O9 0.102926 0.711362 0.703796
O O10 0.836056 0.854750 0.978813
O O11 0.351260 0.000000 0.857007
O O12 0.171916 0.869631 0.121096
O O13 0.939289 0.276367 0.357127
O O14 0.434377 0.270558 0.864873
O O15 0.130151 0.407127 0.423039
O O16 0.000000 0.280303 0.500000
O O17 0.962536 0.243304 0.435990
O O18 0.500000 0.282748 0.000000
#
# Coordination Sequence:
#
# PCOD9155198 Si02
#       8
#     4   2   4   4   4   2   4   4
#     4  10  19  30  46  70 102 135 160 188 230 279
#     4  12  18  33  54  70 100 125 154 198 250 284
#     4  10  20  32  50  75 103 127 166 195 236 285
#     4  10  19  32  54  74  95 124 160 207 246 282
#     4  10  19  33  51  71  95 129 156 201 243 285
#     4  12  22  33  50  70  98 125 160 194 236 300
#     4  12  22  34  48  68  97 129 159 191 237 297
#     4  10  20  35  48  70  96 124 159 198 247 286
#
# _framework density 16.589051000000001
#
# number of rings (size 3 to 8) (size 9 to 14) (size 15 to 20)
#    0.000    1.429    2.857    4.286    0.000    1.143 
#    0.000    0.000    0.000    0.857    0.000    1.000 
#    0.000    0.000    0.000    0.000    0.000    0.000 
#
# Total GULP energy -155998.598531 kJ/mol
# GULP energy per Si atom -5571.378519 kJ/mol
# Density = 1.655129 g / cm^3
# Si number density = 16.589051 Si / 1000 Ang^3
#
#
#
# Elastic Constant Matrix: (Units=GPa)
#
#
# Indices 1 2 3 4 5 6 
#
# 1 83.6316 6.2457 34.0865 0.0000 -7.5689 0.0000
# 2 6.2457 -2.0518 12.4387 0.0000 -3.2464 0.0000
# 3 34.0865 12.4387 72.7180 0.0000 -11.2192 0.0000
# 4 0.0000 0.0000 0.0000 19.7801 0.0000 2.4937
# 5 -7.5689 -3.2464 -11.2192 0.0000 34.8131 0.0000
# 6 0.0000 0.0000 0.0000 2.4937 0.0000 23.6129
#
#
#
# Elastic Compliance Matrix: (Units=1/GPa)
#
#
# Indices 1 2 3 4 5 6 
#
# 1 0.014811 0.001128 -0.006969 0.000000 0.001079 0.000000
# 2 0.001128 -0.236169 0.038419 0.000000 -0.009397 0.000000
# 3 -0.006969 0.038419 0.011329 0.000000 0.005718 0.000000
# 4 0.000000 0.000000 0.000000 0.051238 0.000000 -0.005411
# 5 0.001079 -0.009397 0.005718 0.000000 0.029926 0.000000
# 6 0.000000 0.000000 0.000000 -0.005411 0.000000 0.042921
#
#
# Mechanical properties :
#
#
# Convention : Reuss Voigt Hill
#
# Bulk Modulus (GPa) = -6.90263 28.87107 10.98422
# Shear Modulus (GPa) = -25.07650 22.40969 -1.33341
#
# Velocity S-wave (km/s) = -3.89219 3.67941 -0.89751
# Velocity P-wave (km/s) = 4.93648 5.95753 2.35833
#
# Compressibility (1/GPa) = -0.14487237
#
# Stress axis : x y z
#
# Youngs Moduli (GPa) = 67.51683 -4.23426 88.26872
#
# Poissons Ratio (x) = 0.00478 0.61516
# Poissons Ratio (y) = -0.07617 -3.39120
# Poissons Ratio (z) = 0.47053 0.16268
#
# Static dielectric constant tensor:
#      x y z
#    x 1.537270 0.000000 0.080370 
#    y 0.000000 1.548500 0.000000 
#    z 0.080370 0.000000 1.442840 
# 
# From -- ./inp_files/91276.got.cif
#   From: 2010.05.17/outbox.ucp.g08.bks.cvg/sg10_46_cif.got.tgz:91276.got - 2010.06.11 11:31:16.
