data_PCOD9155480
_publ_section_title
;
Structure prediction by ZEFSAII (Michael W. Deem and Ramdas Pophale) SiO2 
 PCOD9155480
Probable space group: P 2/M
;
_chemical_formula_sum "Si O2"
_cell_formula_units_Z 32
_cell_length_a 15.000000
_cell_length_b 9.000000
_cell_length_c 12.000000
_cell_angle_alpha 90.000000
_cell_angle_beta 90.000000
_cell_angle_gamma 90.000000
_cell_volume 1620.000000
_symmetry_space_group_name_H-M "P 2/M"
_symmetry_group_IT_number 10
_symmetry_cell_setting 'monoclinic'
loop_
_space_group_symop_operation_xyz
x,y,z
-x,y,-z
-x,-y,-z
x,-y,z
loop_
_atom_site_type_symbol
_atom_site_label
_atom_site_fract_x
_atom_site_fract_y
_atom_site_fract_z
Si Si1 0.557098 0.675794 0.677951
Si Si2 0.330634 0.825319 0.152593
Si Si3 0.105852 0.333740 0.003664
Si Si4 0.135776 0.170100 0.221752
Si Si5 0.632975 0.823520 0.312928
Si Si6 0.720496 0.679274 0.516344
Si Si7 0.742482 0.175656 0.094354
Si Si8 0.080206 0.322310 0.423518
O O1 0.543505 0.500000 0.665862
O O2 0.594022 0.720321 0.799210
O O3 0.464751 0.759830 0.663114
O O4 0.635766 0.723217 0.592957
O O5 0.241424 0.797435 0.225669
O O6 0.354173 0.000000 0.164486
O O7 0.304395 0.797957 0.025084
O O8 0.138704 0.500000 0.036919
O O9 0.117969 0.205157 0.094175
O O10 0.168279 0.276553 0.903016
O O11 0.000000 0.345867 0.000000
O O12 0.073652 0.272968 0.296053
O O13 0.120964 0.000000 0.250986
O O14 0.699249 0.742021 0.396096
O O15 0.670785 0.793417 0.189850
O O16 0.633051 0.000000 0.330725
O O17 0.722328 0.500000 0.519443
O O18 0.820322 0.731567 0.546058
O O19 0.766008 0.000000 0.100582
O O20 0.079780 0.500000 0.430893
O O21 0.000000 0.265113 0.500000
#
# Coordination Sequence:
#
# PCOD9155480 Si02
#       8
#     4   4   4   4   4   4   4   4
#     4  11  22  37  60  87 115 151 196 243 293 349
#     4   9  18  35  59  83 110 147 189 234 286 345
#     4  10  21  36  58  86 114 150 195 238 286 348
#     4  10  20  35  57  83 114 150 189 238 290 343
#     4  11  24  40  59  84 118 157 196 242 295 353
#     4  10  22  40  59  83 118 155 195 245 293 345
#     4   9  21  40  58  83 118 154 192 240 296 345
#     4  10  21  38  60  86 117 154 194 241 296 348
#
# _framework density 19.753086
#
# number of rings (size 3 to 8) (size 9 to 14) (size 15 to 20)
#    0.000    2.000    1.250    2.625    0.000    8.750 
#    0.000    6.250    0.000    0.000    0.000    0.000 
#    0.000    0.000    0.000    0.000    0.000    0.000 
#
# Total GULP energy -178248.475112 kJ/mol
# GULP energy per Si atom -5570.264847 kJ/mol
# Density = 1.970813 g / cm^3
# Si number density = 19.753086 Si / 1000 Ang^3
#
#
#
# Elastic Constant Matrix: (Units=GPa)
#
#
# Indices 1 2 3 4 5 6 
#
# 1 78.7764 22.2828 26.9720 0.0000 -19.1508 0.0000
# 2 22.2828 -47.5755 -8.9263 0.0000 -8.4214 0.0000
# 3 26.9720 -8.9263 62.2401 0.0000 -23.8361 0.0000
# 4 0.0000 0.0000 0.0000 24.0845 0.0000 -4.1715
# 5 -19.1508 -8.4214 -23.8361 0.0000 24.5043 0.0000
# 6 0.0000 0.0000 0.0000 -4.1715 0.0000 31.9060
#
#
#
# Elastic Compliance Matrix: (Units=1/GPa)
#
#
# Indices 1 2 3 4 5 6 
#
# 1 0.014600 0.004875 -0.000982 0.000000 0.012131 0.000000
# 2 0.004875 -0.015621 -0.007889 0.000000 -0.009232 0.000000
# 3 -0.000982 -0.007889 0.022358 0.000000 0.018269 0.000000
# 4 0.000000 0.000000 0.000000 0.042483 0.000000 0.005554
# 5 0.012131 -0.009232 0.018269 0.000000 0.064888 0.000000
# 6 0.000000 0.000000 0.000000 0.005554 0.000000 0.032068
#
#
# Mechanical properties :
#
#
# Convention : Reuss Voigt Hill
#
# Bulk Modulus (GPa) = 74.93211 19.34423 47.13817
# Shear Modulus (GPa) = 28.86584 19.63979 24.25282
#
# Velocity S-wave (km/s) = 3.82689 3.15662 3.50780
# Velocity P-wave (km/s) = 7.58574 4.80624 6.34994
#
# Compressibility (1/GPa) = 0.01334541
#
# Stress axis : x y z
#
# Youngs Moduli (GPa) = 68.49110 -64.01440 44.72738
#
# Poissons Ratio (x) = 0.31209 0.04393
# Poissons Ratio (y) = -0.33392 0.35284
# Poissons Ratio (z) = 0.06727 -0.50499
#
# Static dielectric constant tensor:
#      x y z
#    x 1.745440 0.000000 0.032190 
#    y 0.000000 1.677430 0.000000 
#    z 0.032190 0.000000 1.761530 
# 
# From -- ./inp_files/49827.got.cif
#   From: 2010.05.17/outbox.ucp.g08.bks.cvg/sg10_25_cif.got.tgz:49827.got - 2010.06.11 11:31:16.
