data_PCOD9155628
_publ_section_title
;
Structure prediction by ZEFSAII (Michael W. Deem and Ramdas Pophale) SiO2 
 PCOD9155628
Probable space group: P 2/M
;
_chemical_formula_sum "Si O2"
_cell_formula_units_Z 32
_cell_length_a 30.000000
_cell_length_b 9.000000
_cell_length_c 12.000000
_cell_angle_alpha 90.000000
_cell_angle_beta 30.000000
_cell_angle_gamma 90.000000
_cell_volume 1620.000000
_symmetry_space_group_name_H-M "P 2/M"
_symmetry_group_IT_number 10
_symmetry_cell_setting 'monoclinic'
loop_
_space_group_symop_operation_xyz
x,y,z
-x,y,-z
-x,-y,-z
x,-y,z
loop_
_atom_site_type_symbol
_atom_site_label
_atom_site_fract_x
_atom_site_fract_y
_atom_site_fract_z
Si Si1 0.592661 0.177389 0.740732
Si Si2 0.579686 0.678320 0.175281
Si Si3 0.686293 0.676023 0.731379
Si Si4 0.259592 0.678111 0.000170
Si Si5 0.030024 0.828501 0.113130
Si Si6 0.394739 0.177754 0.547271
Si Si7 0.141668 0.171277 0.673941
Si Si8 0.066011 0.177645 0.461557
O O1 0.666570 0.257383 0.653679
O O2 0.598290 0.213525 0.598952
O O3 0.601227 0.000000 0.733469
O O4 0.500000 0.222086 0.000000
O O5 0.564960 0.500000 0.209902
O O6 0.485938 0.756894 0.402449
O O7 0.613692 0.726312 0.979093
O O8 0.664338 0.710087 0.070982
O O9 0.684056 0.500000 0.735103
O O10 0.783746 0.734630 0.548816
O O11 0.251907 0.500000 0.007207
O O12 0.162517 0.746609 0.236420
O O13 0.306577 0.749360 0.790191
O O14 0.945028 0.832321 0.215723
O O15 0.991522 0.761284 0.309401
O O16 0.055851 0.000000 0.082165
O O17 0.109917 0.767299 0.863371
O O18 0.392271 0.000000 0.567106
O O19 0.171888 0.000000 0.621925
O O20 0.000000 0.193658 0.500000
O O21 0.081902 0.000000 0.445147
#
# Coordination Sequence:
#
# PCOD9155628 Si02
#       8
#     4   4   4   4   4   4   4   4
#     4  10  21  39  58  79 109 146 188 231 277 329
#     4  10  22  39  58  83 120 160 193 235 289 343
#     4  11  22  34  54  85 118 152 191 230 279 338
#     4  11  24  41  60  85 119 156 194 236 290 350
#     4   8  16  33  56  80 106 141 185 234 286 335
#     4  11  23  39  62  88 115 150 197 246 288 336
#     4   9  17  32  55  80 108 144 187 233 281 332
#     4  10  21  38  60  84 112 146 190 242 291 338
#
# _framework density 19.753086
#
# number of rings (size 3 to 8) (size 9 to 14) (size 15 to 20)
#    0.000    2.000    1.250    3.000    0.000    5.500 
#    0.000    4.375    0.000    0.000    0.000    0.000 
#    0.000    0.000    0.000    0.000    0.000    0.000 
#
# Total GULP energy -178475.707006 kJ/mol
# GULP energy per Si atom -5577.365844 kJ/mol
# Density = 1.970813 g / cm^3
# Si number density = 19.753086 Si / 1000 Ang^3
#
#
#
# Elastic Constant Matrix: (Units=GPa)
#
#
# Indices 1 2 3 4 5 6 
#
# 1 40.5474 23.9574 7.5800 0.0000 18.0245 0.0000
# 2 23.9574 -4.2054 -2.1783 0.0000 10.8917 0.0000
# 3 7.5800 -2.1783 71.3438 0.0000 23.4622 0.0000
# 4 0.0000 0.0000 0.0000 32.3352 0.0000 -7.4347
# 5 18.0245 10.8917 23.4622 0.0000 31.3540 0.0000
# 6 0.0000 0.0000 0.0000 -7.4347 0.0000 16.8211
#
#
#
# Elastic Compliance Matrix: (Units=1/GPa)
#
#
# Indices 1 2 3 4 5 6 
#
# 1 0.017531 0.029115 0.007516 0.000000 -0.025816 0.000000
# 2 0.029115 -0.051925 -0.006773 0.000000 0.006369 0.000000
# 3 0.007516 -0.006773 0.018117 0.000000 -0.015525 0.000000
# 4 0.000000 0.000000 0.000000 0.034424 0.000000 0.015215
# 5 -0.025816 0.006369 -0.015525 0.000000 0.056140 0.000000
# 6 0.000000 0.000000 0.000000 0.015215 0.000000 0.066174
#
#
# Mechanical properties :
#
#
# Convention : Reuss Voigt Hill
#
# Bulk Modulus (GPa) = 23.02071 18.48934 20.75503
# Shear Modulus (GPa) = 52.50713 21.32384 36.91548
#
# Velocity S-wave (km/s) = 5.16134 3.28917 4.32771
# Velocity P-wave (km/s) = 6.87014 4.87908 5.95836
#
# Compressibility (1/GPa) = 0.04343914
#
# Stress axis : x y z
#
# Youngs Moduli (GPa) = 57.04165 -19.25868 55.19755
#
# Poissons Ratio (x) = 0.56071 -0.41488
# Poissons Ratio (y) = -1.66076 0.37386
# Poissons Ratio (z) = -0.42874 -0.13044
#
# Static dielectric constant tensor:
#      x y z
#    x 1.745200 0.000000 0.025560 
#    y 0.000000 1.668330 0.000000 
#    z 0.025560 0.000000 1.727310 
# 
# From -- ./inp_files/58122.got.cif
#   From: 2010.05.17/outbox.ucp.g08.bks.cvg/sg10_30_cif.got.tgz:58122.got - 2010.06.11 11:31:16.
