data_PCOD9155985
_publ_section_title
;
Structure prediction by ZEFSAII (Michael W. Deem and Ramdas Pophale) SiO2 
 PCOD9155985
Probable space group: P 21/M
;
_chemical_formula_sum "Si O2"
_cell_formula_units_Z 32
_cell_length_a 32.085656
_cell_length_b 8.714751
_cell_length_c 12.665363
_cell_angle_alpha 90.000000
_cell_angle_beta 28.342394
_cell_angle_gamma 90.000000
_cell_volume 1681.275824
_symmetry_space_group_name_H-M "P 21/M"
_symmetry_group_IT_number 11
_symmetry_cell_setting 'monoclinic'
loop_
_space_group_symop_operation_xyz
x,y,z
-x,1/2+y,-z
-x,-y,-z
x,1/2-y,z
loop_
_atom_site_type_symbol
_atom_site_label
_atom_site_fract_x
_atom_site_fract_y
_atom_site_fract_z
Si Si1 0.179478 0.934453 0.868275
Si Si2 0.982947 0.936852 0.352833
Si Si3 0.794290 0.563906 0.820804
Si Si4 0.060374 0.423335 0.781048
Si Si5 0.322464 0.436108 0.121206
Si Si6 0.237948 0.074598 0.514456
Si Si7 0.503344 0.066867 0.374129
Si Si8 0.319055 0.933894 0.735585
O O1 0.173957 0.750000 0.873980
O O2 0.256651 0.975471 0.776805
O O3 0.205192 0.993938 0.694257
O O4 0.084799 0.987786 0.127111
O O5 0.984285 0.750000 0.359014
O O6 0.896506 0.984075 0.612319
O O7 0.951425 0.991064 0.307387
O O8 0.790584 0.750000 0.836669
O O9 0.753978 0.525404 0.794613
O O10 0.731121 0.489259 0.047561
O O11 0.029184 0.250000 0.837537
O O12 0.155756 0.420734 0.617680
O O13 0.000000 0.500000 0.000000
O O14 0.324510 0.250000 0.121182
O O15 0.308734 0.491717 0.273224
O O16 0.412247 0.499476 0.873148
O O17 0.261652 0.250000 0.489868
O O18 0.508508 0.250000 0.367508
O O19 0.500000 0.000000 0.500000
O O20 0.413290 0.013431 0.520408
O O21 0.329847 0.750000 0.714585
#
# Coordination Sequence:
#
# PCOD9155985 Si02
#       8
#     4   4   4   4   4   4   4   4
#     4  10  22  39  58  80 117 166 205 240 282 338
#     4   9  17  32  54  82 116 157 197 234 286 342
#     4  10  19  34  59  86 116 155 193 235 296 352
#     4  10  17  28  49  78 111 147 190 234 276 329
#     4  10  20  36  59  91 123 149 184 240 299 348
#     4  10  20  34  56  87 120 154 194 240 290 345
#     4  12  24  40  65  93 117 146 186 239 299 356
#     4  11  24  41  59  84 117 154 199 245 291 345
#
# _framework density 19.033165
#
# number of rings (size 3 to 8) (size 9 to 14) (size 15 to 20)
#    0.000    1.750    3.750    1.500    0.000    2.000 
#    0.000    1.875    0.000    0.000    0.000    0.000 
#    0.000    0.000    0.000    0.000    0.000    0.000 
#
# Total GULP energy -178281.567185 kJ/mol
# GULP energy per Si atom -5571.298975 kJ/mol
# Density = 1.898984 g / cm^3
# Si number density = 19.033165 Si / 1000 Ang^3
#
#
#
# Elastic Constant Matrix: (Units=GPa)
#
#
# Indices 1 2 3 4 5 6 
#
# 1 67.1494 15.9497 27.8641 0.0000 -15.4381 0.0000
# 2 15.9497 19.4127 23.2866 0.0000 -7.2865 0.0000
# 3 27.8641 23.2866 139.5839 0.0000 -15.2254 0.0000
# 4 0.0000 0.0000 0.0000 23.5450 0.0000 4.5031
# 5 -15.4381 -7.2865 -15.2254 0.0000 28.1095 0.0000
# 6 0.0000 0.0000 0.0000 4.5031 0.0000 18.2087
#
#
#
# Elastic Compliance Matrix: (Units=1/GPa)
#
#
# Indices 1 2 3 4 5 6 
#
# 1 0.019935 -0.012329 -0.001145 0.000000 0.007133 0.000000
# 2 -0.012329 0.075763 -0.009326 0.000000 0.007817 0.000000
# 3 -0.001145 -0.009326 0.009157 0.000000 0.001914 0.000000
# 4 0.000000 0.000000 0.000000 0.044581 0.000000 -0.011025
# 5 0.007133 0.007817 0.001914 0.000000 0.042556 0.000000
# 6 0.000000 0.000000 0.000000 -0.011025 0.000000 0.057645
#
#
# Mechanical properties :
#
#
# Convention : Reuss Voigt Hill
#
# Bulk Modulus (GPa) = 16.87559 40.03856 28.45708
# Shear Modulus (GPa) = 15.87364 24.57567 20.22465
#
# Velocity S-wave (km/s) = 2.89104 3.59723 3.26329
# Velocity P-wave (km/s) = 4.47547 6.19155 5.40209
#
# Compressibility (1/GPa) = 0.05925717
#
# Stress axis : x y z
#
# Youngs Moduli (GPa) = 50.16184 13.19909 109.20345
#
# Poissons Ratio (x) = 0.16273 0.12501
# Poissons Ratio (y) = 0.61843 1.01840
# Poissons Ratio (z) = 0.05742 0.12309
#
# Static dielectric constant tensor:
#      x y z
#    x 1.632130 0.000000 0.003510 
#    y 0.000000 1.654080 0.000000 
#    z 0.003510 0.000000 1.715860 
# 
# From -- ./inp_files/45198.got.cif
#   From: 2010.05.17/outbox.cif.g08.bks.cpg/sg11_23_cif.got.tgz:45198.got - 2010.06.03 12:22:45.
