data_PCOD9155145
_publ_section_title
;
Structure prediction by ZEFSAII (Michael W. Deem and Ramdas Pophale) SiO2 
 PCOD9155145
Probable space group: P 2/M
;
_chemical_formula_sum "Si O2"
_cell_formula_units_Z 32
_cell_length_a 21.000000
_cell_length_b 9.000000
_cell_length_c 27.000000
_cell_angle_alpha 90.000000
_cell_angle_beta 160.000000
_cell_angle_gamma 90.000000
_cell_volume 1745.328791
_symmetry_space_group_name_H-M "P 2/M"
_symmetry_group_IT_number 10
_symmetry_cell_setting 'monoclinic'
loop_
_space_group_symop_operation_xyz
x,y,z
-x,y,-z
-x,-y,-z
x,-y,z
loop_
_atom_site_type_symbol
_atom_site_label
_atom_site_fract_x
_atom_site_fract_y
_atom_site_fract_z
Si Si1 0.524469 0.321325 0.574651
Si Si2 0.713929 0.332229 0.173760
Si Si3 0.831947 0.174752 0.650599
Si Si4 0.212920 0.173336 0.671067
Si Si5 0.173738 0.826389 0.836214
Si Si6 0.451252 0.673923 0.115776
Si Si7 0.899036 0.673680 0.076240
Si Si8 0.931166 0.680460 0.899199
O O1 0.500000 0.274638 0.500000
O O2 0.518182 0.500000 0.571242
O O3 0.360263 0.259663 0.487894
O O4 0.725896 0.267409 0.737325
O O5 0.784393 0.500000 0.219109
O O6 0.739216 0.275908 0.247378
O O7 0.813092 0.216089 0.210777
O O8 0.500000 0.331816 0.000000
O O9 0.968299 0.210519 0.705030
O O10 0.957359 0.227645 0.788316
O O11 0.799970 0.000000 0.629176
O O12 0.364253 0.230148 0.742442
O O13 0.000000 0.192535 0.500000
O O14 0.244478 0.000000 0.705448
O O15 0.209562 0.000000 0.871502
O O16 0.326941 0.733738 0.978892
O O17 0.493209 0.500000 0.138972
O O18 0.308770 0.690755 0.056698
O O19 0.952732 0.500000 0.123536
O O20 0.924884 0.711455 0.038616
O O21 0.919343 0.500000 0.893855
O O22 0.000000 0.744735 0.000000
#
# Coordination Sequence:
#
# PCOD9155145 Si02
#       8
#     4   4   4   4   4   4   4   4
#     4  10  18  31  52  76 102 136 176 219 266 314
#     4  11  22  36  58  87 112 139 180 229 278 322
#     4  10  20  32  50  79 110 140 177 222 270 318
#     4  11  24  40  58  81 112 152 189 222 271 333
#     4  10  20  34  54  80 111 145 180 222 274 331
#     4  10  19  32  54  81 108 140 180 229 276 321
#     4   9  17  32  53  77 106 138 176 220 268 320
#     4   9  17  31  52  77 104 136 176 218 261 317
#
# _framework density 18.334654
#
# number of rings (size 3 to 8) (size 9 to 14) (size 15 to 20)
#    0.000    2.000    2.500    1.875    0.000    3.750 
#    0.000    1.250    0.000    3.000    0.000    0.000 
#    0.000    0.000    0.000    0.000    0.000    0.000 
#
# Total GULP energy -178302.463115 kJ/mol
# GULP energy per Si atom -5571.951972 kJ/mol
# Density = 1.829292 g / cm^3
# Si number density = 18.334654 Si / 1000 Ang^3
#
#
#
# Elastic Constant Matrix: (Units=GPa)
#
#
# Indices 1 2 3 4 5 6 
#
# 1 68.2928 9.6931 41.5712 0.0000 14.1211 0.0000
# 2 9.6931 0.5236 20.9652 0.0000 11.0601 0.0000
# 3 41.5712 20.9652 70.5597 0.0000 8.3986 0.0000
# 4 0.0000 0.0000 0.0000 14.4261 0.0000 6.7350
# 5 14.1211 11.0601 8.3986 0.0000 15.4044 0.0000
# 6 0.0000 0.0000 0.0000 6.7350 0.0000 -4.4577
#
#
#
# Elastic Compliance Matrix: (Units=1/GPa)
#
#
# Indices 1 2 3 4 5 6 
#
# 1 0.022699 -0.017054 -0.007793 0.000000 -0.004315 0.000000
# 2 -0.017054 -0.079796 0.026818 0.000000 0.058305 0.000000
# 3 -0.007793 0.026818 0.013086 0.000000 -0.019246 0.000000
# 4 0.000000 0.000000 0.000000 0.040648 0.000000 0.061413
# 5 -0.004315 0.058305 -0.019246 0.000000 0.037503 0.000000
# 6 0.000000 0.000000 0.000000 0.061413 0.000000 -0.131544
#
#
# Mechanical properties :
#
#
# Convention : Reuss Voigt Hill
#
# Bulk Modulus (GPa) = -24.95646 31.53723 3.29038
# Shear Modulus (GPa) = -43.59137 9.55100 -17.02019
#
# Velocity S-wave (km/s) = -4.88129 2.28486 -3.05012
# Velocity P-wave (km/s) = 6.73873 4.91925 3.25665
#
# Compressibility (1/GPa) = -0.04006978
#
# Stress axis : x y z
#
# Youngs Moduli (GPa) = 44.05463 -12.53196 76.41703
#
# Poissons Ratio (x) = -0.21373 0.59549
# Poissons Ratio (y) = 0.75133 -2.04932
# Poissons Ratio (z) = 0.34330 0.33608
#
# Static dielectric constant tensor:
#      x y z
#    x 1.750740 0.000000 0.021830 
#    y 0.000000 1.614310 0.000000 
#    z 0.021830 0.000000 1.601510 
# 
# From -- ./inp_files/93792.got.cif
#   From: 2010.05.17/outbox.ucp.g08.bks.cvg/sg10_47_cif.got.tgz:93792.got - 2010.06.11 11:31:16.
