data_PCOD9155186
_publ_section_title
;
Structure prediction by ZEFSAII (Michael W. Deem and Ramdas Pophale) SiO2 
 PCOD9155186
Probable space group: P 2/M
;
_chemical_formula_sum "Si O2"
_cell_formula_units_Z 28
_cell_length_a 12.000000
_cell_length_b 9.000000
_cell_length_c 27.000000
_cell_angle_alpha 90.000000
_cell_angle_beta 150.000000
_cell_angle_gamma 90.000000
_cell_volume 1458.000000
_symmetry_space_group_name_H-M "P 2/M"
_symmetry_group_IT_number 10
_symmetry_cell_setting 'monoclinic'
loop_
_space_group_symop_operation_xyz
x,y,z
-x,y,-z
-x,-y,-z
x,-y,z
loop_
_atom_site_type_symbol
_atom_site_label
_atom_site_fract_x
_atom_site_fract_y
_atom_site_fract_z
Si Si1 0.932642 0.328081 0.763342
Si Si2 0.484866 0.825364 0.553821
Si Si3 0.845199 0.327513 0.844919
Si Si4 0.723481 0.177785 0.174241
Si Si5 0.533818 0.178525 0.248291
Si Si6 0.682784 0.679316 0.932847
Si Si7 0.984411 0.179187 0.376939
O O1 0.955608 0.500000 0.756781
O O2 0.694570 0.264377 0.654607
O O3 0.929012 0.320815 0.821055
O O4 0.132763 0.235077 0.816344
O O5 0.500000 0.818960 0.500000
O O6 0.240458 0.768522 0.477194
O O7 0.506491 0.000000 0.576070
O O8 0.797728 0.500000 0.839291
O O9 0.619111 0.235742 0.765934
O O10 0.059832 0.278106 0.959343
O O11 0.486762 0.258244 0.090790
O O12 0.874435 0.213729 0.281133
O O13 0.693098 0.000000 0.161240
O O14 0.410396 0.249298 0.153289
O O15 0.794949 0.224327 0.343980
O O16 0.527290 0.000000 0.243020
O O17 0.671241 0.500000 0.927056
O O18 0.999642 0.000000 0.385162
#
# Coordination Sequence:
#
# PCOD9155186 Si02
#       7
#     4   4   4   4   4   4   4
#     4  11  23  37  53  79 113 147 185 227 273 327
#     4  10  18  34  59  82 107 143 178 219 278 335
#     4  10  23  40  54  73 111 155 187 222 273 331
#     4  10  19  35  56  82 112 142 179 226 276 327
#     4  10  20  35  58  85 110 139 183 234 273 320
#     4  10  20  36  58  81 107 145 186 225 275 328
#     4   8  16  32  54  81 109 135 170 219 276 326
#
# _framework density 19.20439
#
# number of rings (size 3 to 8) (size 9 to 14) (size 15 to 20)
#    0.000    2.143    1.429    3.000    0.000    4.857 
#    0.000    5.000    0.000    4.286    0.000    0.000 
#    0.000    0.000    0.000    0.000    0.000    0.000 
#
# Total GULP energy -156225.981265 kJ/mol
# GULP energy per Si atom -5579.499331 kJ/mol
# Density = 1.916068 g / cm^3
# Si number density = 19.204390 Si / 1000 Ang^3
#
#
#
# Elastic Constant Matrix: (Units=GPa)
#
#
# Indices 1 2 3 4 5 6 
#
# 1 82.5104 20.5004 4.2731 0.0000 34.9206 0.0000
# 2 20.5004 53.8695 5.1578 0.0000 9.4478 0.0000
# 3 4.2731 5.1578 25.2587 0.0000 17.5463 0.0000
# 4 0.0000 0.0000 0.0000 39.9174 0.0000 -7.7874
# 5 34.9206 9.4478 17.5463 0.0000 33.0690 0.0000
# 6 0.0000 0.0000 0.0000 -7.7874 0.0000 45.5027
#
#
#
# Elastic Compliance Matrix: (Units=1/GPa)
#
#
# Indices 1 2 3 4 5 6 
#
# 1 0.032601 -0.006787 0.029202 0.000000 -0.047981 0.000000
# 2 -0.006787 0.020956 -0.006257 0.000000 0.004500 0.000000
# 3 0.029202 -0.006257 0.088860 0.000000 -0.076198 0.000000
# 4 0.000000 0.000000 0.000000 0.025917 0.000000 0.004435
# 5 -0.047981 0.004500 -0.076198 0.000000 0.120052 0.000000
# 6 0.000000 0.000000 0.000000 0.004435 0.000000 0.022736
#
#
# Mechanical properties :
#
#
# Convention : Reuss Voigt Hill
#
# Bulk Modulus (GPa) = 5.72306 24.61124 15.16715
# Shear Modulus (GPa) = 14.83456 32.47833 23.65644
#
# Velocity S-wave (km/s) = 2.78233 4.11687 3.51354
# Velocity P-wave (km/s) = 3.64806 5.95327 4.93709
#
# Compressibility (1/GPa) = 0.17473159
#
# Stress axis : x y z
#
# Youngs Moduli (GPa) = 30.67421 47.71870 11.25367
#
# Poissons Ratio (x) = 0.32388 -0.32863
# Poissons Ratio (y) = 0.20819 0.07041
# Poissons Ratio (z) = -0.89574 0.29858
#
# Static dielectric constant tensor:
#      x y z
#    x 1.722440 0.000000 -0.003330 
#    y 0.000000 1.649700 0.000000 
#    z -0.003330 0.000000 1.658900 
# 
# From -- ./inp_files/68687.got.cif
#   From: 2010.05.17/outbox.ucp.g08.bks.cvg/sg10_35_cif.got.tgz:68687.got - 2010.06.11 11:31:16.
