data_PCOD9155369
_publ_section_title
;
Structure prediction by ZEFSAII (Michael W. Deem and Ramdas Pophale) SiO2 
 PCOD9155369
Probable space group: P 2/M
;
_chemical_formula_sum "Si O2"
_cell_formula_units_Z 24
_cell_length_a 15.000000
_cell_length_b 9.000000
_cell_length_c 18.000000
_cell_angle_alpha 90.000000
_cell_angle_beta 30.000000
_cell_angle_gamma 90.000000
_cell_volume 1215.000000
_symmetry_space_group_name_H-M "P 2/M"
_symmetry_group_IT_number 10
_symmetry_cell_setting 'monoclinic'
loop_
_space_group_symop_operation_xyz
x,y,z
-x,y,-z
-x,-y,-z
x,-y,z
loop_
_atom_site_type_symbol
_atom_site_label
_atom_site_fract_x
_atom_site_fract_y
_atom_site_fract_z
Si Si1 0.422367 0.177389 0.659430
Si Si2 0.234047 0.678673 0.663142
Si Si3 0.848971 0.322929 0.875164
Si Si4 0.308079 0.832529 0.140137
Si Si5 0.542186 0.821578 0.195714
Si Si6 0.179882 0.832335 0.397780
O O1 0.612355 0.245968 0.497710
O O2 0.275291 0.256825 0.714820
O O3 0.395022 0.204057 0.765892
O O4 0.423308 0.000000 0.645287
O O5 0.255068 0.500000 0.647108
O O6 0.036715 0.716614 0.777474
O O7 0.833928 0.500000 0.884912
O O8 0.836968 0.256645 0.801148
O O9 0.680544 0.253809 0.040138
O O10 0.272711 0.848414 0.251676
O O11 0.320439 0.000000 0.098922
O O12 0.500000 0.755947 0.000000
O O13 0.336197 0.768310 0.335910
O O14 0.537213 0.000000 0.186196
O O15 0.000000 0.752718 0.500000
O O16 0.131036 0.000000 0.462018
#
# Coordination Sequence:
#
# PCOD9155369 Si02
#       6
#     4   4   4   4   4   4
#     4  10  21  37  62  90 113 141 186 243 288 329
#     4  10  22  40  59  81 115 155 189 225 281 349
#     4  11  24  38  56  83 115 154 194 230 275 335
#     4  10  19  35  59  82 110 149 187 230 281 331
#     4  10  21  38  58  85 116 145 186 237 286 335
#     4   9  18  33  55  83 112 144 182 224 281 339
#
# _framework density 19.753086
#
# number of rings (size 3 to 8) (size 9 to 14) (size 15 to 20)
#    0.000    2.000    1.667    2.500    2.333    5.000 
#    0.000    3.333    0.000    1.000    0.000    0.000 
#    0.000    0.000    0.000    0.000    0.000    0.000 
#
# Total GULP energy -133747.331676 kJ/mol
# GULP energy per Si atom -5572.805486 kJ/mol
# Density = 1.970813 g / cm^3
# Si number density = 19.753086 Si / 1000 Ang^3
#
#
#
# Elastic Constant Matrix: (Units=GPa)
#
#
# Indices 1 2 3 4 5 6 
#
# 1 106.8768 25.2842 5.7830 0.0000 -17.6719 0.0000
# 2 25.2842 41.5882 -2.0298 0.0000 -11.4496 0.0000
# 3 5.7830 -2.0298 4.4453 0.0000 -16.6872 0.0000
# 4 0.0000 0.0000 0.0000 21.1743 0.0000 -46.8355
# 5 -17.6719 -11.4496 -16.6872 0.0000 42.4304 0.0000
# 6 0.0000 0.0000 0.0000 -46.8355 0.0000 77.4195
#
#
#
# Elastic Compliance Matrix: (Units=1/GPa)
#
#
# Indices 1 2 3 4 5 6 
#
# 1 0.011081 -0.004556 0.007949 0.000000 0.006512 0.000000
# 2 -0.004556 0.018923 -0.055868 0.000000 -0.018764 0.000000
# 3 0.007949 -0.055868 -0.304276 0.000000 -0.131432 0.000000
# 4 0.000000 0.000000 0.000000 -0.139680 0.000000 -0.084501
# 5 0.006512 -0.018764 -0.131432 0.000000 -0.030473 0.000000
# 6 0.000000 0.000000 0.000000 -0.084501 0.000000 -0.038203
#
#
# Mechanical properties :
#
#
# Convention : Reuss Voigt Hill
#
# Bulk Modulus (GPa) = -2.63697 23.44280 10.40291
# Shear Modulus (GPa) = -9.91895 36.46303 13.27204
#
# Velocity S-wave (km/s) = -2.24329 4.30110 2.59491
# Velocity P-wave (km/s) = 2.83685 6.04646 3.77571
#
# Compressibility (1/GPa) = -0.37922301
#
# Stress axis : x y z
#
# Youngs Moduli (GPa) = 90.24422 52.84680 -3.28649
#
# Poissons Ratio (x) = 0.24078 0.02612
# Poissons Ratio (y) = 0.41116 -0.18361
# Poissons Ratio (z) = -0.71736 2.95246
#
# Static dielectric constant tensor:
#      x y z
#    x 1.723620 0.000000 -0.030610 
#    y 0.000000 1.680300 0.000000 
#    z -0.030610 0.000000 1.762700 
# 
# From -- ./inp_files/77663.got.cif
#   From: 2010.05.17/outbox.ucp.g08.bks.cvg/sg10_39_cif.got.tgz:77663.got - 2010.06.11 11:31:16.
