data_PCOD9155052
_publ_section_title
;
Structure prediction by ZEFSAII (Michael W. Deem and Ramdas Pophale) SiO2 
 PCOD9155052
Probable space group: P 2/M
;
_chemical_formula_sum "Si O2"
_cell_formula_units_Z 32
_cell_length_a 20.806520
_cell_length_b 9.226069
_cell_length_c 19.118435
_cell_angle_alpha 90.000000
_cell_angle_beta 157.837239
_cell_angle_gamma 90.000000
_cell_volume 1384.474642
_symmetry_space_group_name_H-M "P 2/M"
_symmetry_group_IT_number 10
_symmetry_cell_setting 'monoclinic'
loop_
_space_group_symop_operation_xyz
x,y,z
-x,y,-z
-x,-y,-z
x,-y,z
loop_
_atom_site_type_symbol
_atom_site_label
_atom_site_fract_x
_atom_site_fract_y
_atom_site_fract_z
Si Si1 0.318651 0.332799 0.415515
Si Si2 0.485500 0.165767 0.185827
Si Si3 0.983037 0.666653 0.319801
Si Si4 0.835040 0.324853 0.877626
Si Si5 0.349021 0.333493 0.769565
Si Si6 0.681998 0.668337 0.859885
Si Si7 0.817056 0.166573 0.275119
Si Si8 0.852352 0.834209 0.636018
O O1 0.257469 0.500000 0.359215
O O2 0.311486 0.293106 0.326860
O O3 0.503987 0.329633 0.636757
O O4 0.196539 0.233966 0.339152
O O5 0.523733 0.244089 0.151315
O O6 0.358728 0.248607 0.110093
O O7 0.670444 0.165273 0.411238
O O8 0.433606 0.000000 0.124398
O O9 0.926797 0.500000 0.259842
O O10 0.166472 0.666567 0.544670
O O11 0.022856 0.735201 0.284506
O O12 0.859633 0.762541 0.243491
O O13 0.839215 0.500000 0.890686
O O14 0.808722 0.266713 0.929151
O O15 0.000000 0.280713 0.000000
O O16 0.402604 0.500000 0.829823
O O17 0.307082 0.260266 0.801255
O O18 0.721022 0.500000 0.914273
O O19 0.000000 0.166064 0.500000
O O20 0.761273 0.000000 0.214401
O O21 0.911837 0.000000 0.699793
#
# Coordination Sequence:
#
# PCOD9155052 Si02
#       8
#     4   4   4   4   4   4   4   4
#     4   9  16  27  44  64  84 108 140 176 212 252
#     4   9  16  25  37  54  76 102 134 173 214 253
#     4   9  15  22  32  47  69  99 136 175 212 251
#     4   9  17  29  46  67  88 110 138 173 212 254
#     4   9  15  22  32  47  69  99 136 175 212 251
#     4   9  16  27  44  64  84 108 140 176 212 252
#     4   9  15  21  29  43  67 101 138 173 210 253
#     4   9  16  25  37  54  76 102 134 173 214 253
#
# _framework density 23.113458999999999
#
# number of rings (size 3 to 8) (size 9 to 14) (size 15 to 20)
#    0.000    3.000    0.000    2.250    0.000    9.000 
#    0.000    0.625    0.000    4.500    0.000    0.000 
#    0.000    0.000    0.000    1.125    0.000   24.500 
#
# Total GULP energy -178962.791604 kJ/mol
# GULP energy per Si atom -5592.587238 kJ/mol
# Density = 2.306085 g / cm^3
# Si number density = 23.113459 Si / 1000 Ang^3
#
#
#
# Elastic Constant Matrix: (Units=GPa)
#
#
# Indices 1 2 3 4 5 6 
#
# 1 228.5681 99.8924 23.4268 0.0000 6.2276 0.0000
# 2 99.8924 150.7740 -3.1721 0.0000 15.3739 0.0000
# 3 23.4268 -3.1721 69.9869 0.0000 -5.5101 0.0000
# 4 0.0000 0.0000 0.0000 -4.4330 0.0000 -8.6149
# 5 6.2276 15.3739 -5.5101 0.0000 38.3238 0.0000
# 6 0.0000 0.0000 0.0000 -8.6149 0.0000 -12.9905
#
#
#
# Elastic Compliance Matrix: (Units=1/GPa)
#
#
# Indices 1 2 3 4 5 6 
#
# 1 0.006538 -0.004419 -0.002360 0.000000 0.000371 0.000000
# 2 -0.004419 0.009903 0.001691 0.000000 -0.003011 0.000000
# 3 -0.002360 0.001691 0.015305 0.000000 0.001906 0.000000
# 4 0.000000 0.000000 0.000000 0.781152 0.000000 -0.518036
# 5 0.000371 -0.003011 0.001906 0.000000 0.027515 0.000000
# 6 0.000000 0.000000 0.000000 -0.518036 0.000000 0.266566
#
#
# Mechanical properties :
#
#
# Convention : Reuss Voigt Hill
#
# Bulk Modulus (GPa) = 46.35991 76.62479 61.49235
# Shear Modulus (GPa) = 4.44703 26.12552 15.28628
#
# Velocity S-wave (km/s) = 1.38859 3.36567 2.57448
# Velocity P-wave (km/s) = 4.76151 6.95177 5.95815
#
# Compressibility (1/GPa) = 0.02157036
#
# Stress axis : x y z
#
# Youngs Moduli (GPa) = 152.94859 100.98015 65.33859
#
# Poissons Ratio (x) = 0.44625 0.15417
# Poissons Ratio (y) = 0.67591 -0.11049
# Poissons Ratio (z) = 0.36090 -0.17076
#
# Static dielectric constant tensor:
#      x y z
#    x 1.806870 0.000000 -0.021710 
#    y 0.000000 1.776760 0.000000 
#    z -0.021710 0.000000 1.983270 
# 
# From -- ./inp_files/37461.got.cif
#   From: 2010.05.17/outbox.cif.g08.bks.cpg/sg10_19_cif.got.tgz:37461.got - 2010.06.03 11:33:40.
