data_PCOD9155512
_publ_section_title
;
Structure prediction by ZEFSAII (Michael W. Deem and Ramdas Pophale) SiO2 
 PCOD9155512
Probable space group: P 2/M
;
_chemical_formula_sum "Si O2"
_cell_formula_units_Z 24
_cell_length_a 9.000000
_cell_length_b 9.000000
_cell_length_c 15.000000
_cell_angle_alpha 90.000000
_cell_angle_beta 100.000000
_cell_angle_gamma 90.000000
_cell_volume 1196.541420
_symmetry_space_group_name_H-M "P 2/M"
_symmetry_group_IT_number 10
_symmetry_cell_setting 'monoclinic'
loop_
_space_group_symop_operation_xyz
x,y,z
-x,y,-z
-x,-y,-z
x,-y,z
loop_
_atom_site_type_symbol
_atom_site_label
_atom_site_fract_x
_atom_site_fract_y
_atom_site_fract_z
Si Si1 0.373741 0.678891 0.914350
Si Si2 0.512823 0.322233 0.270114
Si Si3 0.923761 0.832123 0.576360
Si Si4 0.387685 0.167150 0.554921
Si Si5 0.165092 0.677416 0.256373
Si Si6 0.050666 0.169568 0.903313
O O1 0.352429 0.500000 0.916791
O O2 0.437844 0.717391 0.823920
O O3 0.214932 0.757766 0.912647
O O4 0.500000 0.719803 0.000000
O O5 0.516984 0.500000 0.278223
O O6 0.623353 0.251256 0.353989
O O7 0.340425 0.273517 0.271379
O O8 0.757750 0.847750 0.520026
O O9 0.917078 0.743054 0.665825
O O10 0.000000 0.754509 0.500000
O O11 0.988135 0.000000 0.596112
O O12 0.500000 0.250522 0.500000
O O13 0.444552 0.000000 0.581348
O O14 0.163138 0.500000 0.257655
O O15 0.072747 0.737667 0.163383
O O16 0.054327 0.000000 0.869832
O O17 0.000000 0.167700 0.000000
#
# Coordination Sequence:
#
# PCOD9155512 Si02
#       6
#     4   4   4   4   4   4
#     4  10  22  42  66  92 123 157 196 244 300 361
#     4  10  22  38  60  90 121 156 199 249 298 352
#     4  10  22  39  58  84 122 163 204 249 298 354
#     4  10  20  36  58  84 116 160 203 243 295 351
#     4  11  23  40  63  90 121 161 203 247 303 358
#     4  11  25  43  64  91 123 158 199 247 299 358
#
# _framework density 20.05781
#
# number of rings (size 3 to 8) (size 9 to 14) (size 15 to 20)
#    0.000    1.667    1.667    2.000    2.333    5.667 
#    0.000    0.000    0.000    0.000    0.000    0.000 
#    0.000    0.000    0.000    0.000    0.000    0.000 
#
# Total GULP energy -133867.156311 kJ/mol
# GULP energy per Si atom -5577.798180 kJ/mol
# Density = 2.001216 g / cm^3
# Si number density = 20.057810 Si / 1000 Ang^3
#
#
#
# Elastic Constant Matrix: (Units=GPa)
#
#
# Indices 1 2 3 4 5 6 
#
# 1 11.1388 4.2668 -15.9307 0.0000 -13.0996 0.0000
# 2 4.2668 34.2406 29.3185 0.0000 -6.9110 0.0000
# 3 -15.9307 29.3185 97.7994 0.0000 -8.9301 0.0000
# 4 0.0000 0.0000 0.0000 44.3131 0.0000 5.9272
# 5 -13.0996 -6.9110 -8.9301 0.0000 30.8897 0.0000
# 6 0.0000 0.0000 0.0000 5.9272 0.0000 14.4693
#
#
#
# Elastic Compliance Matrix: (Units=1/GPa)
#
#
# Indices 1 2 3 4 5 6 
#
# 1 -2.139547 0.602005 -0.615791 0.000000 -0.950665 0.000000
# 2 0.602005 -0.129153 0.161721 0.000000 0.273153 0.000000
# 3 -0.615791 0.161721 -0.163418 0.000000 -0.272203 0.000000
# 4 0.000000 0.000000 0.000000 0.023875 0.000000 -0.009780
# 5 -0.950665 0.273153 -0.272203 0.000000 -0.388360 0.000000
# 6 0.000000 0.000000 0.000000 -0.009780 0.000000 0.073118
#
#
# Mechanical properties :
#
#
# Convention : Reuss Voigt Hill
#
# Bulk Modulus (GPa) = -0.46811 19.83199 9.68194
# Shear Modulus (GPa) = -1.33997 26.30271 12.48137
#
# Velocity S-wave (km/s) = -0.81823 3.62518 2.49724
# Velocity P-wave (km/s) = 1.06139 5.23750 3.62663
#
# Compressibility (1/GPa) = -2.13624826
#
# Stress axis : x y z
#
# Youngs Moduli (GPa) = -0.46739 -7.74274 -6.11927
#
# Poissons Ratio (x) = 4.66116 -3.76819
# Poissons Ratio (y) = 0.28137 0.98961
# Poissons Ratio (z) = -0.28781 1.25216
#
# Static dielectric constant tensor:
#      x y z
#    x 1.701660 0.000000 -0.010620 
#    y 0.000000 1.707200 0.000000 
#    z -0.010620 0.000000 1.714380 
# 
# From -- ./inp_files/60382.got.cif
#   From: 2010.05.17/outbox.ucp.g08.bks.cvg/sg10_31_cif.got.tgz:60382.got - 2010.06.11 11:31:16.
