data_PCOD9155275
_publ_section_title
;
Structure prediction by ZEFSAII (Michael W. Deem and Ramdas Pophale) SiO2 
 PCOD9155275
Probable space group: P 2/M
;
_chemical_formula_sum "Si O2"
_cell_formula_units_Z 32
_cell_length_a 27.000000
_cell_length_b 9.000000
_cell_length_c 21.000000
_cell_angle_alpha 90.000000
_cell_angle_beta 160.000000
_cell_angle_gamma 90.000000
_cell_volume 1745.328791
_symmetry_space_group_name_H-M "P 2/M"
_symmetry_group_IT_number 10
_symmetry_cell_setting 'monoclinic'
loop_
_space_group_symop_operation_xyz
x,y,z
-x,y,-z
-x,-y,-z
x,-y,z
loop_
_atom_site_type_symbol
_atom_site_label
_atom_site_fract_x
_atom_site_fract_y
_atom_site_fract_z
Si Si1 0.638539 0.176238 0.470293
Si Si2 0.244751 0.324574 0.913602
Si Si3 0.171155 0.331058 0.211404
Si Si4 0.480560 0.177182 0.812855
Si Si5 0.634473 0.324145 0.799925
Si Si6 0.351096 0.675550 0.780829
Si Si7 0.937673 0.320499 0.493228
Si Si8 0.328063 0.176444 0.283096
O O1 0.786495 0.243716 0.673668
O O2 0.598808 0.212860 0.349861
O O3 0.520224 0.248866 0.374052
O O4 0.633839 0.000000 0.472089
O O5 0.259995 0.500000 0.917525
O O6 0.076459 0.286408 0.704191
O O7 0.357155 0.242489 0.002148
O O8 0.287819 0.299496 0.038631
O O9 0.226457 0.500000 0.281444
O O10 0.239845 0.250510 0.233469
O O11 0.000000 0.334037 0.000000
O O12 0.388887 0.243725 0.760273
O O13 0.490851 0.000000 0.832176
O O14 0.620779 0.500000 0.772547
O O15 0.708901 0.247765 0.829760
O O16 0.326504 0.500000 0.738418
O O17 0.213137 0.730589 0.656416
O O18 0.500000 0.689565 0.000000
O O19 0.920447 0.500000 0.466062
O O20 0.000000 0.267327 0.500000
O O21 0.500000 0.204183 0.500000
O O22 0.305262 0.000000 0.255322
#
# Coordination Sequence:
#
# PCOD9155275 Si02
#       8
#     4   4   4   4   4   4   4   4
#     4  10  20  36  57  80 110 147 188 226 274 337
#     4   9  18  34  56  82 111 143 183 228 277 327
#     4  11  24  40  58  83 111 143 185 235 286 331
#     4  10  21  36  56  82 113 147 184 226 271 328
#     4  10  19  32  55  83 111 142 183 235 281 325
#     4  10  20  35  58  85 111 145 189 231 273 326
#     4   9  17  32  56  84 112 141 178 227 274 319
#     4  11  22  36  58  84 110 145 187 229 277 337
#
# _framework density 18.334654
#
# number of rings (size 3 to 8) (size 9 to 14) (size 15 to 20)
#    0.000    2.000    1.250    2.625    0.000    5.750 
#    2.250    0.625    0.000    1.500    0.000    0.000 
#    0.000    0.000    0.000    0.000    0.000    0.000 
#
# Total GULP energy -178422.346355 kJ/mol
# GULP energy per Si atom -5575.698324 kJ/mol
# Density = 1.829292 g / cm^3
# Si number density = 18.334654 Si / 1000 Ang^3
#
#
#
# Elastic Constant Matrix: (Units=GPa)
#
#
# Indices 1 2 3 4 5 6 
#
# 1 141.1586 62.0704 48.8963 0.0000 19.0568 0.0000
# 2 62.0704 31.3687 24.2934 0.0000 1.6472 0.0000
# 3 48.8963 24.2934 80.1703 0.0000 14.4700 0.0000
# 4 0.0000 0.0000 0.0000 4.1371 0.0000 -9.6471
# 5 19.0568 1.6472 14.4700 0.0000 23.5808 0.0000
# 6 0.0000 0.0000 0.0000 -9.6471 0.0000 14.6025
#
#
#
# Elastic Compliance Matrix: (Units=1/GPa)
#
#
# Indices 1 2 3 4 5 6 
#
# 1 0.153470 -0.315308 0.022888 0.000000 -0.116045 0.000000
# 2 -0.315308 0.690092 -0.060834 0.000000 0.243939 0.000000
# 3 0.022888 -0.060834 0.021950 0.000000 -0.027717 0.000000
# 4 0.000000 0.000000 0.000000 -0.447159 0.000000 -0.295416
# 5 -0.116045 0.243939 -0.027717 0.000000 0.136157 0.000000
# 6 0.000000 0.000000 0.000000 -0.295416 0.000000 -0.126686
#
#
# Mechanical properties :
#
#
# Convention : Reuss Voigt Hill
#
# Bulk Modulus (GPa) = 6.28909 58.13531 32.21220
# Shear Modulus (GPa) = 4.21112 16.29323 10.25217
#
# Velocity S-wave (km/s) = 1.51717 2.98427 2.36724
# Velocity P-wave (km/s) = 2.55082 6.60691 5.00789
#
# Compressibility (1/GPa) = 0.15900551
#
# Stress axis : x y z
#
# Youngs Moduli (GPa) = 6.51594 1.44908 45.55728
#
# Poissons Ratio (x) = 0.45691 -1.04273
# Poissons Ratio (y) = 2.05453 2.77142
# Poissons Ratio (z) = -0.14914 0.08815
#
# Static dielectric constant tensor:
#      x y z
#    x 1.615760 0.000000 -0.038550 
#    y 0.000000 1.620000 0.000000 
#    z -0.038550 0.000000 1.695530 
# 
# From -- ./inp_files/86823.got.cif
#   From: 2010.05.17/outbox.ucp.g08.bks.cvg/sg10_44_cif.got.tgz:86823.got - 2010.06.11 11:31:16.
