data_PCOD9155146
_publ_section_title
;
Structure prediction by ZEFSAII (Michael W. Deem and Ramdas Pophale) SiO2 
 PCOD9155146
Probable space group: P 2/M
;
_chemical_formula_sum "Si O2"
_cell_formula_units_Z 28
_cell_length_a 15.000000
_cell_length_b 9.000000
_cell_length_c 21.000000
_cell_angle_alpha 90.000000
_cell_angle_beta 30.000000
_cell_angle_gamma 90.000000
_cell_volume 1417.500000
_symmetry_space_group_name_H-M "P 2/M"
_symmetry_group_IT_number 10
_symmetry_cell_setting 'monoclinic'
loop_
_space_group_symop_operation_xyz
x,y,z
-x,y,-z
-x,-y,-z
x,-y,z
loop_
_atom_site_type_symbol
_atom_site_label
_atom_site_fract_x
_atom_site_fract_y
_atom_site_fract_z
Si Si1 0.458660 0.828364 0.403963
Si Si2 0.230811 0.172632 0.413500
Si Si3 0.794001 0.181140 0.119204
Si Si4 0.107658 0.180076 0.687563
Si Si5 0.925110 0.322525 0.677789
Si Si6 0.430799 0.677227 0.171082
Si Si7 0.209998 0.820924 0.025642
O O1 0.346548 0.826474 0.407240
O O2 0.650510 0.764670 0.261160
O O3 0.314600 0.769747 0.545878
O O4 0.493967 0.000000 0.400868
O O5 0.342170 0.252187 0.289381
O O6 0.048014 0.255160 0.545330
O O7 0.199979 0.000000 0.416012
O O8 0.785529 0.000000 0.127502
O O9 0.756345 0.222184 0.069008
O O10 0.000000 0.224653 0.000000
O O11 0.993872 0.245175 0.699307
O O12 0.986940 0.217947 0.824437
O O13 0.112883 0.000000 0.680378
O O14 0.953238 0.500000 0.663560
O O15 0.718044 0.294294 0.790860
O O16 0.447871 0.500000 0.168263
O O17 0.624742 0.747602 0.039472
O O18 0.223289 0.000000 0.021128
#
# Coordination Sequence:
#
# PCOD9155146 Si02
#       7
#     4   4   4   4   4   4   4
#     4   8  14  28  49  74 102 132 165 205 255 309
#     4  10  18  31  52  76 105 140 179 220 262 306
#     4   9  16  29  53  82 107 131 164 212 269 321
#     4   9  19  34  52  73 103 140 180 221 259 307
#     4  10  21  34  48  72 106 141 180 221 261 309
#     4  11  22  33  48  73 106 141 178 222 267 310
#     4  10  20  35  53  76 103 136 178 222 265 312
#
# _framework density 19.753086
#
# number of rings (size 3 to 8) (size 9 to 14) (size 15 to 20)
#    0.000    2.429    1.429    2.571    0.000    5.143 
#    0.000    3.571    0.000    4.714    0.000    0.000 
#    0.000    3.714    0.000    0.000    0.000    0.000 
#
# Total GULP energy -156065.503990 kJ/mol
# GULP energy per Si atom -5573.768000 kJ/mol
# Density = 1.970813 g / cm^3
# Si number density = 19.753086 Si / 1000 Ang^3
#
#
#
# Elastic Constant Matrix: (Units=GPa)
#
#
# Indices 1 2 3 4 5 6 
#
# 1 8.2023 2.3641 9.8189 0.0000 -16.9925 0.0000
# 2 2.3641 22.1566 14.5298 0.0000 -3.7958 0.0000
# 3 9.8189 14.5298 175.3689 0.0000 -16.5547 0.0000
# 4 0.0000 0.0000 0.0000 5.3062 0.0000 12.2836
# 5 -16.9925 -3.7958 -16.5547 0.0000 30.6176 0.0000
# 6 0.0000 0.0000 0.0000 12.2836 0.0000 1.9113
#
#
#
# Elastic Compliance Matrix: (Units=1/GPa)
#
#
# Indices 1 2 3 4 5 6 
#
# 1 -0.811086 0.008212 0.002460 0.000000 -0.447798 0.000000
# 2 0.008212 0.048108 -0.003638 0.000000 0.008555 0.000000
# 3 0.002460 -0.003638 0.006272 0.000000 0.004306 0.000000
# 4 0.000000 0.000000 0.000000 -0.013580 0.000000 0.087276
# 5 -0.447798 0.008555 0.004306 0.000000 -0.212475 0.000000
# 6 0.000000 0.000000 0.000000 0.087276 0.000000 -0.037701
#
#
# Mechanical properties :
#
#
# Convention : Reuss Voigt Hill
#
# Bulk Modulus (GPa) = -1.34655 28.79482 13.72413
# Shear Modulus (GPa) = -3.89993 19.50136 7.80071
#
# Velocity S-wave (km/s) = -1.40664 3.14547 1.98939
# Velocity P-wave (km/s) = 1.82245 5.27267 3.49855
#
# Compressibility (1/GPa) = -0.74263695
#
# Stress axis : x y z
#
# Youngs Moduli (GPa) = -1.23292 20.78635 159.42826
#
# Poissons Ratio (x) = -0.17069 -0.39225
# Poissons Ratio (y) = 0.01012 0.58002
# Poissons Ratio (z) = 0.00303 0.07562
#
# Static dielectric constant tensor:
#      x y z
#    x 1.744540 0.000000 -0.010720 
#    y 0.000000 1.649310 0.000000 
#    z -0.010720 0.000000 1.738110 
# 
# From -- ./inp_files/84905.got.cif
#   From: 2010.05.17/outbox.ucp.g08.bks.cvg/sg10_43_cif.got.tgz:84905.got - 2010.06.11 11:31:16.
