data_PCOD9155291
_publ_section_title
;
Structure prediction by ZEFSAII (Michael W. Deem and Ramdas Pophale) SiO2 
 PCOD9155291
Probable space group: P 2/M
;
_chemical_formula_sum "Si O2"
_cell_formula_units_Z 28
_cell_length_a 9.000000
_cell_length_b 9.000000
_cell_length_c 30.000000
_cell_angle_alpha 90.000000
_cell_angle_beta 140.000000
_cell_angle_gamma 90.000000
_cell_volume 1561.973892
_symmetry_space_group_name_H-M "P 2/M"
_symmetry_group_IT_number 10
_symmetry_cell_setting 'monoclinic'
loop_
_space_group_symop_operation_xyz
x,y,z
-x,y,-z
-x,-y,-z
x,-y,z
loop_
_atom_site_type_symbol
_atom_site_label
_atom_site_fract_x
_atom_site_fract_y
_atom_site_fract_z
Si Si1 0.322156 0.825683 0.001178
Si Si2 0.592647 0.679035 0.705970
Si Si3 0.772196 0.678998 0.569965
Si Si4 0.958901 0.179586 0.848562
Si Si5 0.055060 0.320774 0.293079
Si Si6 0.098179 0.822279 0.571719
Si Si7 0.685421 0.678676 0.141117
O O1 0.435139 0.736998 0.068090
O O2 0.317541 0.000000 0.011494
O O3 0.500000 0.809502 0.000000
O O4 0.073387 0.783325 0.922973
O O5 0.589424 0.500000 0.709599
O O6 0.714737 0.751572 0.777460
O O7 0.755108 0.719024 0.700815
O O8 0.340346 0.742295 0.637963
O O9 0.500000 0.705858 0.500000
O O10 0.807884 0.500000 0.574546
O O11 0.864506 0.729579 0.639787
O O12 0.915050 0.763015 0.565277
O O13 0.137268 0.249803 0.853805
O O14 0.956970 0.000000 0.844272
O O15 0.054527 0.500000 0.294862
O O16 0.802486 0.277993 0.215414
O O17 0.000000 0.786687 0.500000
O O18 0.127436 0.000000 0.581442
O O19 0.691206 0.500000 0.138762
#
# Coordination Sequence:
#
# PCOD9155291 Si02
#       7
#     4   4   4   4   4   4   4
#     4   8  14  23  35  56  90 130 167 203 247 296
#     4  10  19  33  54  77 101 132 171 209 248 298
#     4  10  20  36  58  79 100 130 168 208 249 295
#     4   9  16  26  40  62  96 132 164 204 253 298
#     4   8  16  30  48  74 103 129 164 211 256 295
#     4  11  24  39  54  76 106 135 164 202 248 297
#     4   9  15  23  38  62  94 130 168 209 249 293
#
# _framework density 17.926036
#
# number of rings (size 3 to 8) (size 9 to 14) (size 15 to 20)
#    0.000    2.714    0.000    4.286    0.000    5.714 
#    0.000    4.286    0.000    0.000    0.000    1.000 
#    0.000    8.000    0.000    0.000    0.000    0.000 
#
# Total GULP energy -155956.059073 kJ/mol
# GULP energy per Si atom -5569.859253 kJ/mol
# Density = 1.788524 g / cm^3
# Si number density = 17.926036 Si / 1000 Ang^3
#
#
#
# Elastic Constant Matrix: (Units=GPa)
#
#
# Indices 1 2 3 4 5 6 
#
# 1 47.1100 23.9030 53.4903 0.0000 -4.3603 0.0000
# 2 23.9030 63.9738 69.5481 0.0000 1.6784 0.0000
# 3 53.4903 69.5481 217.5525 0.0000 -5.5300 0.0000
# 4 0.0000 0.0000 0.0000 32.1309 0.0000 3.2755
# 5 -4.3603 1.6784 -5.5300 0.0000 20.7895 0.0000
# 6 0.0000 0.0000 0.0000 3.2755 0.0000 12.7978
#
#
#
# Elastic Compliance Matrix: (Units=1/GPa)
#
#
# Indices 1 2 3 4 5 6 
#
# 1 0.031031 -0.005506 -0.005732 0.000000 0.005428 0.000000
# 2 -0.005506 0.025269 -0.006852 0.000000 -0.005017 0.000000
# 3 -0.005732 -0.006852 0.008235 0.000000 0.001542 0.000000
# 4 0.000000 0.000000 0.000000 0.031956 0.000000 -0.008179
# 5 0.005428 -0.005017 0.001542 0.000000 0.050055 0.000000
# 6 0.000000 0.000000 0.000000 -0.008179 0.000000 0.080232
#
#
# Mechanical properties :
#
#
# Convention : Reuss Voigt Hill
#
# Bulk Modulus (GPa) = 35.26481 69.16879 52.21680
# Shear Modulus (GPa) = 18.35475 25.25663 21.80569
#
# Velocity S-wave (km/s) = 3.20334 3.75765 3.49151
# Velocity P-wave (km/s) = 5.77901 7.58261 6.74140
#
# Compressibility (1/GPa) = 0.02835688
#
# Stress axis : x y z
#
# Youngs Moduli (GPa) = 32.22628 39.57385 121.42564
#
# Poissons Ratio (x) = 0.21788 0.69596
# Poissons Ratio (y) = 0.17743 0.83201
# Poissons Ratio (z) = 0.18471 0.27116
#
# Static dielectric constant tensor:
#      x y z
#    x 1.607750 0.000000 0.002210 
#    y 0.000000 1.595570 0.000000 
#    z 0.002210 0.000000 1.671330 
# 
# From -- ./inp_files/86451.got.cif
#   From: 2010.05.17/outbox.ucp.g08.bks.cvg/sg10_44_cif.got.tgz:86451.got - 2010.06.11 11:31:16.
