data_PCOD9155800
_publ_section_title
;
Structure prediction by ZEFSAII (Michael W. Deem and Ramdas Pophale) SiO2 
 PCOD9155800
Probable space group: P 21/M
;
_chemical_formula_sum "Si O2"
_cell_formula_units_Z 24
_cell_length_a 15.707301
_cell_length_b 14.893255
_cell_length_c 5.309763
_cell_angle_alpha 90.000000
_cell_angle_beta 114.071196
_cell_angle_gamma 90.000000
_cell_volume 1134.111668
_symmetry_space_group_name_H-M "P 21/M"
_symmetry_group_IT_number 11
_symmetry_cell_setting 'monoclinic'
loop_
_space_group_symop_operation_xyz
x,y,z
-x,1/2+y,-z
-x,-y,-z
x,1/2-y,z
loop_
_atom_site_type_symbol
_atom_site_label
_atom_site_fract_x
_atom_site_fract_y
_atom_site_fract_z
Si Si1 0.218700 0.890108 0.823510
Si Si2 0.684381 0.115766 0.559767
Si Si3 0.998966 0.141323 0.408963
Si Si4 0.097242 0.143653 0.028366
Si Si5 0.510030 0.938359 0.761462
Si Si6 0.288170 0.063077 0.131911
O O1 0.250079 0.856295 0.589775
O O2 0.110336 0.877817 0.743920
O O3 0.279433 0.849830 0.127449
O O4 0.245538 0.995257 0.872770
O O5 0.576685 0.129818 0.358364
O O6 0.692825 0.007663 0.617734
O O7 0.008769 0.250000 0.425569
O O8 0.041158 0.106141 0.721133
O O9 0.056884 0.106183 0.240124
O O10 0.080372 0.250000 0.014541
O O11 0.206605 0.127929 0.118872
O O12 0.614538 0.899860 0.857402
O O13 0.500000 0.000000 0.500000
O O14 0.500000 0.000000 0.000000
#
# Coordination Sequence:
#
# PCOD9155800 Si02
#       6
#     4   4   4   4   4   4
#     4  10  19  32  52  76 101 126 170 210 248 296
#     4   9  18  31  48  82 100 127 161 205 251 297
#     4  10  22  38  52  69  99 141 171 206 257 307
#     4  10  22  37  52  71 101 136 173 205 253 306
#     4  10  16  30  49  76 103 131 156 195 251 306
#     4   9  21  30  55  77 102 132 166 210 252 293
#
# _framework density 21.161939
#
# number of rings (size 3 to 8) (size 9 to 14) (size 15 to 20)
#    1.000    1.333    1.667    1.000    2.333    1.333 
#    0.000    0.000    0.000    2.000    0.000    0.000 
#    0.000    0.000    0.000    0.000    0.000    0.000 
#
# Total GULP energy -133715.753194 kJ/mol
# GULP energy per Si atom -5571.489716 kJ/mol
# Density = 2.111377 g / cm^3
# Si number density = 21.161939 Si / 1000 Ang^3
#
#
#
# Elastic Constant Matrix: (Units=GPa)
#
#
# Indices 1 2 3 4 5 6 
#
# 1 158.3996 -1.1771 55.2264 0.0000 -0.8701 0.0000
# 2 -1.1771 14.2404 11.4463 0.0000 -4.8606 0.0000
# 3 55.2264 11.4463 106.2672 0.0000 -19.7567 0.0000
# 4 0.0000 0.0000 0.0000 -22.9907 0.0000 -19.9852
# 5 -0.8701 -4.8606 -19.7567 0.0000 39.9188 0.0000
# 6 0.0000 0.0000 0.0000 -19.9852 0.0000 -103.0061
#
#
#
# Elastic Compliance Matrix: (Units=1/GPa)
#
#
# Indices 1 2 3 4 5 6 
#
# 1 0.008062 0.004041 -0.004957 0.000000 -0.001785 0.000000
# 2 0.004041 0.080142 -0.009804 0.000000 0.004994 0.000000
# 3 -0.004957 -0.009804 0.014097 0.000000 0.005675 0.000000
# 4 0.000000 0.000000 0.000000 -0.052320 0.000000 0.010151
# 5 -0.001785 0.004994 0.005675 0.000000 0.028429 0.000000
# 6 0.000000 0.000000 0.000000 0.010151 0.000000 -0.011678
#
#
# Mechanical properties :
#
#
# Convention : Reuss Voigt Hill
#
# Bulk Modulus (GPa) = 12.36683 45.54427 28.95555
# Shear Modulus (GPa) = 43.43122 -2.98813 20.22155
#
# Velocity S-wave (km/s) = 4.53518 -1.18958 3.09457
# Velocity P-wave (km/s) = 5.76891 4.43641 5.14597
#
# Compressibility (1/GPa) = 0.08086147
#
# Stress axis : x y z
#
# Youngs Moduli (GPa) = 124.04555 12.47792 70.93531
#
# Poissons Ratio (x) = -0.05042 0.35161
# Poissons Ratio (y) = -0.50128 0.69544
# Poissons Ratio (z) = 0.61486 0.12233
#
# Static dielectric constant tensor:
#      x y z
#    x 1.769640 0.000000 0.011880 
#    y 0.000000 1.794020 0.000000 
#    z 0.011880 0.000000 1.789210 
# 
# From -- ./inp_files/6615.got.cif
#   From: 2010.05.17/outbox.cif.g08.bks.cpg/sg11_4_cif.got.tgz:6615.got - 2010.06.03 12:22:45.
