data_PCOD9155166
_publ_section_title
;
Structure prediction by ZEFSAII (Michael W. Deem and Ramdas Pophale) SiO2 
 PCOD9155166
Probable space group: P 2/M
;
_chemical_formula_sum "Si O2"
_cell_formula_units_Z 28
_cell_length_a 12.000000
_cell_length_b 9.000000
_cell_length_c 15.000000
_cell_angle_alpha 90.000000
_cell_angle_beta 60.000000
_cell_angle_gamma 90.000000
_cell_volume 1402.961154
_symmetry_space_group_name_H-M "P 2/M"
_symmetry_group_IT_number 10
_symmetry_cell_setting 'monoclinic'
loop_
_space_group_symop_operation_xyz
x,y,z
-x,y,-z
-x,-y,-z
x,-y,z
loop_
_atom_site_type_symbol
_atom_site_label
_atom_site_fract_x
_atom_site_fract_y
_atom_site_fract_z
Si Si1 0.360801 0.829619 0.037493
Si Si2 0.084301 0.176866 0.189723
Si Si3 0.649078 0.675037 0.662162
Si Si4 0.904234 0.174805 0.614239
Si Si5 0.387494 0.830664 0.818258
Si Si6 0.821000 0.818902 0.235940
Si Si7 0.352597 0.173736 0.525986
O O1 0.350820 0.837764 0.935519
O O2 0.368242 0.000000 0.072728
O O3 0.500000 0.758672 0.000000
O O4 0.227714 0.759725 0.123619
O O5 0.039147 0.188368 0.309852
O O6 0.967123 0.236922 0.178207
O O7 0.098693 0.000000 0.163445
O O8 0.650328 0.500000 0.667414
O O9 0.768917 0.744175 0.665702
O O10 0.515653 0.738683 0.752003
O O11 0.663619 0.729388 0.554870
O O12 0.000000 0.231509 0.500000
O O13 0.881565 0.000000 0.606185
O O14 0.268219 0.770998 0.809492
O O15 0.414784 0.000000 0.775596
O O16 0.743002 0.781368 0.356703
O O17 0.828285 0.000000 0.230492
O O18 0.500000 0.184878 0.500000
O O19 0.327839 0.000000 0.514374
#
# Coordination Sequence:
#
# PCOD9155166 Si02
#       7
#     4   4   4   4   4   4   4
#     4   9  17  29  49  78 109 140 176 227 280 322
#     4   9  17  30  51  82 112 135 174 231 281 323
#     4  12  24  35  52  80 114 145 181 228 276 325
#     4  10  20  36  59  81 106 145 188 226 272 331
#     4  10  19  34  55  78 106 142 184 223 270 328
#     4   9  17  30  51  80 109 138 176 223 272 326
#     4  10  18  33  55  77 107 145 184 223 266 322
#
# _framework density 19.957787
#
# number of rings (size 3 to 8) (size 9 to 14) (size 15 to 20)
#    0.000    2.143    1.429    3.000    0.000    5.714 
#    0.000    2.857    0.000    4.714    0.000    1.000 
#    0.000    0.000    0.000    0.000    0.000    0.000 
#
# Total GULP energy -156172.570335 kJ/mol
# GULP energy per Si atom -5577.591798 kJ/mol
# Density = 1.991236 g / cm^3
# Si number density = 19.957787 Si / 1000 Ang^3
#
#
#
# Elastic Constant Matrix: (Units=GPa)
#
#
# Indices 1 2 3 4 5 6 
#
# 1 122.4398 28.5596 48.3931 0.0000 -29.8494 0.0000
# 2 28.5596 26.2795 4.9227 0.0000 4.1556 0.0000
# 3 48.3931 4.9227 69.6157 0.0000 -13.5040 0.0000
# 4 0.0000 0.0000 0.0000 -3.2088 0.0000 2.9899
# 5 -29.8494 4.1556 -13.5040 0.0000 27.8406 0.0000
# 6 0.0000 0.0000 0.0000 2.9899 0.0000 -38.7183
#
#
#
# Elastic Compliance Matrix: (Units=1/GPa)
#
#
# Indices 1 2 3 4 5 6 
#
# 1 0.026488 -0.031156 -0.010817 0.000000 0.027803 0.000000
# 2 -0.031156 0.076815 0.008304 0.000000 -0.040843 0.000000
# 3 -0.010817 0.008304 0.020760 0.000000 -0.002767 0.000000
# 4 0.000000 0.000000 0.000000 -0.335804 0.000000 -0.025931
# 5 0.027803 -0.040843 -0.002767 0.000000 0.070482 0.000000
# 6 0.000000 0.000000 0.000000 -0.025931 0.000000 -0.027830
#
#
# Mechanical properties :
#
#
# Convention : Reuss Voigt Hill
#
# Bulk Modulus (GPa) = 17.62903 42.45398 30.04150
# Shear Modulus (GPa) = -60.35594 6.27999 -27.03798
#
# Velocity S-wave (km/s) = -5.50522 1.77580 -3.68470
# Velocity P-wave (km/s) = 5.61762 5.05200 1.73708
#
# Compressibility (1/GPa) = 0.05672462
#
# Stress axis : x y z
#
# Youngs Moduli (GPa) = 37.75307 13.01824 48.17010
#
# Poissons Ratio (x) = 0.40560 0.52104
# Poissons Ratio (y) = 1.17625 -0.40000
# Poissons Ratio (z) = 0.40836 -0.10810
#
# Static dielectric constant tensor:
#      x y z
#    x 1.762240 0.000000 0.014200 
#    y 0.000000 1.667140 0.000000 
#    z 0.014200 0.000000 1.720890 
# 
# From -- ./inp_files/49379.got.cif
#   From: 2010.05.17/outbox.ucp.g08.bks.cvg/sg10_25_cif.got.tgz:49379.got - 2010.06.11 11:31:16.
