data_PCOD9155411
_publ_section_title
;
Structure prediction by ZEFSAII (Michael W. Deem and Ramdas Pophale) SiO2 
 PCOD9155411
Probable space group: P 2/M
;
_chemical_formula_sum "Si O2"
_cell_formula_units_Z 32
_cell_length_a 12.000000
_cell_length_b 9.000000
_cell_length_c 30.000000
_cell_angle_alpha 90.000000
_cell_angle_beta 150.000000
_cell_angle_gamma 90.000000
_cell_volume 1620.000000
_symmetry_space_group_name_H-M "P 2/M"
_symmetry_group_IT_number 10
_symmetry_cell_setting 'monoclinic'
loop_
_space_group_symop_operation_xyz
x,y,z
-x,y,-z
-x,-y,-z
x,-y,z
loop_
_atom_site_type_symbol
_atom_site_label
_atom_site_fract_x
_atom_site_fract_y
_atom_site_fract_z
Si Si1 0.491968 0.823853 0.719298
Si Si2 0.503438 0.174900 0.063594
Si Si3 0.117244 0.820832 0.876921
Si Si4 0.643547 0.663037 0.196337
Si Si5 0.199601 0.330563 0.102283
Si Si6 0.655375 0.676332 0.690371
Si Si7 0.070260 0.825748 0.636845
Si Si8 0.451812 0.823564 0.534947
O O1 0.701421 0.763596 0.821810
O O2 0.494427 0.744198 0.672546
O O3 0.252893 0.799758 0.660982
O O4 0.521216 0.000000 0.723943
O O5 0.694318 0.215581 0.094578
O O6 0.594396 0.218699 0.142081
O O7 0.481183 0.000000 0.050987
O O8 0.251930 0.230687 0.967644
O O9 0.896206 0.735280 0.788796
O O10 0.073920 0.000000 0.862163
O O11 0.680263 0.500000 0.189537
O O12 0.422199 0.659126 0.149531
O O13 0.848830 0.716516 0.296590
O O14 0.139322 0.500000 0.095564
O O15 0.000000 0.276099 0.000000
O O16 0.644951 0.500000 0.687416
O O17 0.598282 0.737626 0.621749
O O18 0.806870 0.802634 0.540005
O O19 0.098712 0.000000 0.659355
O O20 0.500000 0.780599 0.500000
O O21 0.500469 0.000000 0.554851
#
# Coordination Sequence:
#
# PCOD9155411 Si02
#       8
#     4   4   4   4   4   4   4   4
#     4  10  21  39  62  88 119 157 208 254 296 356
#     4   9  19  36  58  82 113 155 203 249 292 346
#     4   9  20  39  59  82 114 156 203 248 293 348
#     4  10  20  32  53  85 120 159 194 237 298 357
#     4   9  19  35  53  80 121 162 200 244 297 352
#     4  12  26  41  61  91 127 161 196 249 312 368
#     4   9  20  40  64  89 117 155 203 254 299 352
#     4  10  23  44  69  94 119 154 200 248 306 367
#
# _framework density 19.753086
#
# number of rings (size 3 to 8) (size 9 to 14) (size 15 to 20)
#    0.000    2.250    0.000    2.625    3.500    3.500 
#    0.000    3.750    0.000    0.000    0.000    0.000 
#    0.000    0.000    0.000    0.000    0.000    0.000 
#
# Total GULP energy -178349.859932 kJ/mol
# GULP energy per Si atom -5573.433123 kJ/mol
# Density = 1.970813 g / cm^3
# Si number density = 19.753086 Si / 1000 Ang^3
#
#
#
# Elastic Constant Matrix: (Units=GPa)
#
#
# Indices 1 2 3 4 5 6 
#
# 1 62.1746 34.0385 23.2021 0.0000 -7.4540 0.0000
# 2 34.0385 34.4237 17.8899 0.0000 3.1899 0.0000
# 3 23.2021 17.8899 12.2052 0.0000 17.6038 0.0000
# 4 0.0000 0.0000 0.0000 91.7591 0.0000 -128.9044
# 5 -7.4540 3.1899 17.6038 0.0000 23.9069 0.0000
# 6 0.0000 0.0000 0.0000 -128.9044 0.0000 222.1280
#
#
#
# Elastic Compliance Matrix: (Units=1/GPa)
#
#
# Indices 1 2 3 4 5 6 
#
# 1 0.022628 -0.039997 0.036489 0.000000 -0.014476 0.000000
# 2 -0.039997 0.073530 -0.006349 0.000000 -0.017607 0.000000
# 3 0.036489 -0.006349 -0.068365 0.000000 0.062565 0.000000
# 4 0.000000 0.000000 0.000000 0.058984 0.000000 0.034229
# 5 -0.014476 -0.017607 0.062565 0.000000 -0.006405 0.000000
# 6 0.000000 0.000000 0.000000 0.034229 0.000000 0.024366
#
#
# Mechanical properties :
#
#
# Convention : Reuss Voigt Hill
#
# Bulk Modulus (GPa) = 123.76932 28.78494 76.27713
# Shear Modulus (GPa) = 39.32541 69.80367 54.56454
#
# Velocity S-wave (km/s) = 4.46673 5.95104 5.26149
# Velocity P-wave (km/s) = 9.45497 7.86281 8.69541
#
# Compressibility (1/GPa) = 0.00807955
#
# Stress axis : x y z
#
# Youngs Moduli (GPa) = 44.19256 13.59990 -14.62733
#
# Poissons Ratio (x) = 0.54395 0.53373
# Poissons Ratio (y) = 1.76756 -0.09287
# Poissons Ratio (z) = -1.61253 0.08634
#
# Static dielectric constant tensor:
#      x y z
#    x 1.768170 0.000000 -0.052730 
#    y 0.000000 1.677770 0.000000 
#    z -0.052730 0.000000 1.737960 
# 
# From -- ./inp_files/95097.got.cif
#   From: 2010.05.17/outbox.ucp.g08.bks.cvg/sg10_48_cif.got.tgz:95097.got - 2010.06.11 11:31:16.
