data_PCOD9155109
_publ_section_title
;
Structure prediction by ZEFSAII (Michael W. Deem and Ramdas Pophale) SiO2 
 PCOD9155109
Probable space group: P 2/M
;
_chemical_formula_sum "Si O2"
_cell_formula_units_Z 32
_cell_length_a 12.000000
_cell_length_b 9.000000
_cell_length_c 21.000000
_cell_angle_alpha 90.000000
_cell_angle_beta 120.000000
_cell_angle_gamma 90.000000
_cell_volume 1964.145616
_symmetry_space_group_name_H-M "P 2/M"
_symmetry_group_IT_number 10
_symmetry_cell_setting 'monoclinic'
loop_
_space_group_symop_operation_xyz
x,y,z
-x,y,-z
-x,-y,-z
x,-y,z
loop_
_atom_site_type_symbol
_atom_site_label
_atom_site_fract_x
_atom_site_fract_y
_atom_site_fract_z
Si Si1 0.400685 0.177768 0.777524
Si Si2 0.417031 0.678774 0.539517
Si Si3 0.851987 0.320271 0.597319
Si Si4 0.894938 0.670324 0.171838
Si Si5 0.156888 0.822082 0.265096
Si Si6 0.394771 0.319874 0.915660
Si Si7 0.438200 0.821063 0.299096
Si Si8 0.863485 0.670231 0.316670
O O1 0.420946 0.251715 0.852943
O O2 0.505022 0.220980 0.753699
O O3 0.261883 0.229839 0.710301
O O4 0.401131 0.000000 0.785460
O O5 0.500000 0.718594 0.500000
O O6 0.423957 0.500000 0.548266
O O7 0.268066 0.718927 0.482173
O O8 0.478645 0.751718 0.619563
O O9 0.851078 0.500000 0.605183
O O10 0.832050 0.246723 0.660779
O O11 0.997332 0.281202 0.616553
O O12 0.913133 0.500000 0.155895
O O13 0.753375 0.723330 0.108768
O O14 0.883236 0.668539 0.245622
O O15 0.024312 0.762599 0.196083
O O16 0.288195 0.780677 0.265994
O O17 0.149831 0.000000 0.268023
O O18 0.394628 0.500000 0.909508
O O19 0.500000 0.280077 0.000000
O O20 0.447440 0.000000 0.306768
O O21 0.837307 0.500000 0.329493
#
# Coordination Sequence:
#
# PCOD9155109 Si02
#       8
#     4   4   4   4   4   4   4   4
#     4  10  20  34  50  71 100 129 163 199 232 281
#     4  10  19  31  49  71  93 122 166 212 248 287
#     4   9  17  30  46  68  95 119 154 208 255 286
#     4   8  15  28  47  72  99 122 150 193 237 276
#     4  10  18  28  45  68  94 127 165 198 235 282
#     4   9  18  34  56  80 103 125 151 189 238 287
#     4  10  22  35  46  66  99 135 164 199 244 286
#     4   8  15  29  48  67  92 125 158 197 246 290
#
# _framework density 16.292071
#
# number of rings (size 3 to 8) (size 9 to 14) (size 15 to 20)
#    0.000    2.750    1.250    2.250    0.000    7.000 
#    0.000    0.625    0.000    4.500    0.000    5.250 
#    0.000    0.000    0.000    0.000    0.000    0.000 
#
# Total GULP energy -178235.045726 kJ/mol
# GULP energy per Si atom -5569.845179 kJ/mol
# Density = 1.625499 g / cm^3
# Si number density = 16.292071 Si / 1000 Ang^3
#
#
#
# Elastic Constant Matrix: (Units=GPa)
#
#
# Indices 1 2 3 4 5 6 
#
# 1 122.3591 39.7873 64.6092 0.0000 20.9168 0.0000
# 2 39.7873 32.3325 28.5159 0.0000 5.3889 0.0000
# 3 64.6092 28.5159 103.7736 0.0000 26.2034 0.0000
# 4 0.0000 0.0000 0.0000 15.0734 0.0000 5.7117
# 5 20.9168 5.3889 26.2034 0.0000 31.7977 0.0000
# 6 0.0000 0.0000 0.0000 5.7117 0.0000 21.6467
#
#
#
# Elastic Compliance Matrix: (Units=1/GPa)
#
#
# Indices 1 2 3 4 5 6 
#
# 1 0.016457 -0.015105 -0.005061 0.000000 -0.004095 0.000000
# 2 -0.015105 0.054904 -0.007377 0.000000 0.006711 0.000000
# 3 -0.005061 -0.007377 0.017247 0.000000 -0.009633 0.000000
# 4 0.000000 0.000000 0.000000 0.073712 0.000000 -0.019449
# 5 -0.004095 0.006711 -0.009633 0.000000 0.040943 0.000000
# 6 0.000000 0.000000 0.000000 -0.019449 0.000000 0.051328
#
#
# Mechanical properties :
#
#
# Convention : Reuss Voigt Hill
#
# Bulk Modulus (GPa) = 29.83200 58.25446 44.04323
# Shear Modulus (GPa) = 15.58351 22.07376 18.82864
#
# Velocity S-wave (km/s) = 3.09610 3.68486 3.40324
# Velocity P-wave (km/s) = 5.57957 7.34426 6.52188
#
# Compressibility (1/GPa) = 0.03352105
#
# Stress axis : x y z
#
# Youngs Moduli (GPa) = 60.76514 18.21359 57.98045
#
# Poissons Ratio (x) = 0.27511 0.29346
# Poissons Ratio (y) = 0.91784 0.42774
# Poissons Ratio (z) = 0.30756 0.13437
#
# Static dielectric constant tensor:
#      x y z
#    x 1.575710 0.000000 0.028800 
#    y 0.000000 1.552290 0.000000 
#    z 0.028800 0.000000 1.529060 
# 
# From -- ./inp_files/83386.got.cif
#   From: 2010.05.17/outbox.ucp.g08.bks.cvg/sg10_42_cif.got.tgz:83386.got - 2010.06.11 11:31:16.
