data_PCOD9155726
_publ_section_title
;
Structure prediction by ZEFSAII (Michael W. Deem and Ramdas Pophale) SiO2 
 PCOD9155726
Probable space group: P 21/M
;
_chemical_formula_sum "Si O2"
_cell_formula_units_Z 24
_cell_length_a 8.166217
_cell_length_b 27.610517
_cell_length_c 5.101585
_cell_angle_alpha 90.000000
_cell_angle_beta 129.061963
_cell_angle_gamma 90.000000
_cell_volume 893.145930
_symmetry_space_group_name_H-M "P 21/M"
_symmetry_group_IT_number 11
_symmetry_cell_setting 'monoclinic'
loop_
_space_group_symop_operation_xyz
x,y,z
-x,1/2+y,-z
-x,-y,-z
x,1/2-y,z
loop_
_atom_site_type_symbol
_atom_site_label
_atom_site_fract_x
_atom_site_fract_y
_atom_site_fract_z
Si Si1 0.741522 0.485815 0.042494
Si Si2 0.559773 0.147090 0.253788
Si Si3 0.478305 0.750000 0.769504
Si Si4 0.044144 0.938163 0.242794
Si Si5 0.457518 0.409478 0.647077
Si Si6 0.124881 0.152609 0.084090
Si Si7 0.220547 0.250000 0.419237
O O1 0.804790 0.541626 0.065526
O O2 0.824770 0.464255 0.397735
O O3 0.506032 0.465324 0.757634
O O4 0.878077 0.459170 0.954485
O O5 0.570155 0.107478 0.494435
O O6 0.313230 0.162343 0.069306
O O7 0.658520 0.200622 0.350610
O O8 0.567504 0.121690 0.984244
O O9 0.656453 0.750000 0.180770
O O10 0.584852 0.750000 0.590780
O O11 0.040919 0.879763 0.241482
O O12 0.223645 0.388030 0.382688
O O13 0.090569 0.201366 0.213212
#
# Coordination Sequence:
#
# PCOD9155726 Si02
#       7
#     4   4   2   4   4   4   2
#     4  10  22  39  55  78 109 150 178 218 274 324
#     4   9  18  29  52  80 105 136 170 225 262 306
#     4  10  14  30  46  77 109 136 170 210 267 323
#     4  10  22  38  58  77 109 147 184 217 270 330
#     4  10  19  33  54  81 109 134 180 222 267 312
#     4   9  21  33  59  82 107 137 185 223 268 312
#     4  10  18  30  54  81 109 136 172 226 269 315
#
# _framework density 26.871309
#
# number of rings (size 3 to 8) (size 9 to 14) (size 15 to 20)
#    1.000    1.333    1.667    1.000    2.333    0.667 
#    0.000    0.833    0.000    8.000    0.000    0.000 
#    0.000    0.000    0.000    0.000    0.000    0.000 
#
# Total GULP energy -133986.786061 kJ/mol
# GULP energy per Si atom -5582.782753 kJ/mol
# Density = 2.681015 g / cm^3
# Si number density = 26.871309 Si / 1000 Ang^3
#
#
#
# Elastic Constant Matrix: (Units=GPa)
#
#
# Indices 1 2 3 4 5 6 
#
# 1 37.9868 4.2591 14.2897 0.0000 -1.4373 0.0000
# 2 4.2591 191.5301 48.0015 0.0000 4.7700 0.0000
# 3 14.2897 48.0015 116.8780 0.0000 -35.3594 0.0000
# 4 0.0000 0.0000 0.0000 46.4402 0.0000 3.2578
# 5 -1.4373 4.7700 -35.3594 0.0000 29.1242 0.0000
# 6 0.0000 0.0000 0.0000 3.2578 0.0000 17.6104
#
#
#
# Elastic Compliance Matrix: (Units=1/GPa)
#
#
# Indices 1 2 3 4 5 6 
#
# 1 0.028053 0.000857 -0.005382 0.000000 -0.005291 0.000000
# 2 0.000857 0.006622 -0.004962 0.000000 -0.007067 0.000000
# 3 -0.005382 -0.004962 0.018046 0.000000 0.022456 0.000000
# 4 0.000000 0.000000 0.000000 0.021816 0.000000 -0.004036
# 5 -0.005291 -0.007067 0.022456 0.000000 0.062496 0.000000
# 6 0.000000 0.000000 0.000000 -0.004036 0.000000 0.057531
#
#
# Mechanical properties :
#
#
# Convention : Reuss Voigt Hill
#
# Bulk Modulus (GPa) = 29.63364 53.27727 41.45546
# Shear Modulus (GPa) = 22.24315 37.29126 29.76721
#
# Velocity S-wave (km/s) = 2.88021 3.72932 3.33193
# Velocity P-wave (km/s) = 4.70242 6.19788 5.50120
#
# Compressibility (1/GPa) = 0.03374544
#
# Stress axis : x y z
#
# Youngs Moduli (GPa) = 35.64627 151.01876 55.41481
#
# Poissons Ratio (x) = -0.12940 0.29826
# Poissons Ratio (y) = -0.03054 0.27498
# Poissons Ratio (z) = 0.19186 0.74939
#
# Static dielectric constant tensor:
#      x y z
#    x 2.130990 0.000000 0.152630 
#    y 0.000000 2.212150 0.000000 
#    z 0.152630 0.000000 2.190370 
# 
# From -- ./inp_files/3122.got.cif
#   From: 2010.05.17/outbox.cif.g08.bks.cpg/sg11_2_cif.got.tgz:3122.got - 2010.06.03 12:22:45.
