data_PCOD9155502
_publ_section_title
;
Structure prediction by ZEFSAII (Michael W. Deem and Ramdas Pophale) SiO2 
 PCOD9155502
Probable space group: P 2/M
;
_chemical_formula_sum "Si O2"
_cell_formula_units_Z 32
_cell_length_a 15.000000
_cell_length_b 9.000000
_cell_length_c 24.000000
_cell_angle_alpha 90.000000
_cell_angle_beta 30.000000
_cell_angle_gamma 90.000000
_cell_volume 1620.000000
_symmetry_space_group_name_H-M "P 2/M"
_symmetry_group_IT_number 10
_symmetry_cell_setting 'monoclinic'
loop_
_space_group_symop_operation_xyz
x,y,z
-x,y,-z
-x,-y,-z
x,-y,z
loop_
_atom_site_type_symbol
_atom_site_label
_atom_site_fract_x
_atom_site_fract_y
_atom_site_fract_z
Si Si1 0.072375 0.333427 0.799840
Si Si2 0.158908 0.671890 0.881752
Si Si3 0.257699 0.824026 0.071747
Si Si4 0.750131 0.178557 0.504850
Si Si5 0.560397 0.677632 0.831750
Si Si6 0.574795 0.834965 0.398573
Si Si7 0.855157 0.179394 0.743329
Si Si8 0.456323 0.678840 0.289605
O O1 0.027540 0.500000 0.804809
O O2 0.088408 0.333895 0.857609
O O3 0.268309 0.280957 0.678673
O O4 0.929332 0.217769 0.855256
O O5 0.174471 0.500000 0.894114
O O6 0.356938 0.731695 0.783533
O O7 0.000000 0.751147 0.000000
O O8 0.233592 0.778342 0.149407
O O9 0.292322 0.000000 0.051760
O O10 0.407613 0.742032 0.954751
O O11 0.584133 0.218289 0.555030
O O12 0.705524 0.248916 0.588722
O O13 0.937700 0.222628 0.375553
O O14 0.752252 0.000000 0.508358
O O15 0.560499 0.500000 0.836007
O O16 0.743327 0.746053 0.755061
O O17 0.534383 0.715935 0.780800
O O18 0.500000 0.854659 0.500000
O O19 0.637768 0.000000 0.344594
O O20 0.845037 0.000000 0.745376
O O21 0.441297 0.500000 0.303230
#
# Coordination Sequence:
#
# PCOD9155502 Si02
#       8
#     4   4   4   4   4   4   4   4
#     4  11  21  34  57  88 119 154 195 239 290 347
#     4   9  17  32  54  79 113 155 191 229 286 351
#     4  11  23  41  64  89 123 162 200 247 306 371
#     4  10  21  38  61  87 119 160 207 252 295 356
#     4  11  24  41  64  92 120 155 201 257 312 360
#     4  10  20  36  57  82 118 160 199 242 293 351
#     4  10  23  43  64  87 118 161 204 249 311 367
#     4  10  21  39  60  85 123 163 199 246 307 364
#
# _framework density 19.753086
#
# number of rings (size 3 to 8) (size 9 to 14) (size 15 to 20)
#    0.000    1.750    1.250    3.000    0.000    8.750 
#    0.000    3.750    0.000    1.875    0.000    0.000 
#    0.000    0.000    0.000    0.000    0.000    0.000 
#
# Total GULP energy -178475.030685 kJ/mol
# GULP energy per Si atom -5577.344709 kJ/mol
# Density = 1.970813 g / cm^3
# Si number density = 19.753086 Si / 1000 Ang^3
#
#
#
# Elastic Constant Matrix: (Units=GPa)
#
#
# Indices 1 2 3 4 5 6 
#
# 1 72.9089 5.7246 16.4598 0.0000 0.5710 0.0000
# 2 5.7246 0.0143 6.8861 0.0000 9.8169 0.0000
# 3 16.4598 6.8861 82.7178 0.0000 15.0698 0.0000
# 4 0.0000 0.0000 0.0000 27.0378 0.0000 5.2866
# 5 0.5710 9.8169 15.0698 0.0000 26.5686 0.0000
# 6 0.0000 0.0000 0.0000 5.2866 0.0000 19.6493
#
#
#
# Elastic Compliance Matrix: (Units=1/GPa)
#
#
# Indices 1 2 3 4 5 6 
#
# 1 0.013004 0.018692 -0.003161 0.000000 -0.005393 0.000000
# 2 0.018692 -0.248133 0.000342 0.000000 0.091087 0.000000
# 3 -0.003161 0.000342 0.014164 0.000000 -0.008093 0.000000
# 4 0.000000 0.000000 0.000000 0.039039 0.000000 -0.010503
# 5 -0.005393 0.091087 -0.008093 0.000000 0.008688 0.000000
# 6 0.000000 0.000000 0.000000 -0.010503 0.000000 0.053718
#
#
# Mechanical properties :
#
#
# Convention : Reuss Voigt Hill
#
# Bulk Modulus (GPa) = -5.28491 23.75356 9.23432
# Shear Modulus (GPa) = -23.32764 23.08916 -0.11924
#
# Velocity S-wave (km/s) = -3.44024 3.42261 -0.24596
# Velocity P-wave (km/s) = 4.29670 5.26026 2.14578
#
# Compressibility (1/GPa) = -0.18921786
#
# Stress axis : x y z
#
# Youngs Moduli (GPa) = 76.89940 -4.03010 70.60080
#
# Poissons Ratio (x) = 0.07533 0.22318
# Poissons Ratio (y) = -1.43741 -0.02418
# Poissons Ratio (z) = 0.24309 0.00138
#
# Static dielectric constant tensor:
#      x y z
#    x 1.686650 0.000000 -0.003560 
#    y 0.000000 1.700660 0.000000 
#    z -0.003560 0.000000 1.711990 
# 
# From -- ./inp_files/71712.got.cif
#   From: 2010.05.17/outbox.ucp.g08.bks.cvg/sg10_36_cif.got.tgz:71712.got - 2010.06.11 11:31:16.
