data_PCOD9155380
_publ_section_title
;
Structure prediction by ZEFSAII (Michael W. Deem and Ramdas Pophale) SiO2 
 PCOD9155380
Probable space group: P 2/M
;
_chemical_formula_sum "Si O2"
_cell_formula_units_Z 32
_cell_length_a 15.000000
_cell_length_b 9.000000
_cell_length_c 12.000000
_cell_angle_alpha 90.000000
_cell_angle_beta 90.000000
_cell_angle_gamma 90.000000
_cell_volume 1620.000000
_symmetry_space_group_name_H-M "P 2/M"
_symmetry_group_IT_number 10
_symmetry_cell_setting 'monoclinic'
loop_
_space_group_symop_operation_xyz
x,y,z
-x,y,-z
-x,-y,-z
x,-y,z
loop_
_atom_site_type_symbol
_atom_site_label
_atom_site_fract_x
_atom_site_fract_y
_atom_site_fract_z
Si Si1 0.757253 0.672003 0.896077
Si Si2 0.254864 0.833892 0.880546
Si Si3 0.137467 0.831365 0.278339
Si Si4 0.706189 0.827700 0.546721
Si Si5 0.778764 0.670344 0.342097
Si Si6 0.594970 0.324249 0.733591
Si Si7 0.950949 0.836251 0.382541
Si Si8 0.532715 0.169047 0.117948
O O1 0.751907 0.500000 0.927552
O O2 0.832217 0.705799 0.805748
O O3 0.666080 0.713879 0.831697
O O4 0.774848 0.773622 0.001087
O O5 0.228748 0.724004 0.783329
O O6 0.361747 0.836355 0.883906
O O7 0.221684 0.000000 0.858878
O O8 0.198228 0.811335 0.389170
O O9 0.032766 0.824174 0.298185
O O10 0.159658 0.000000 0.238981
O O11 0.716565 0.763985 0.424189
O O12 0.633889 0.744774 0.621674
O O13 0.684676 0.000000 0.543702
O O14 0.757395 0.500000 0.355899
O O15 0.879687 0.708350 0.375159
O O16 0.591770 0.500000 0.723271
O O17 0.503140 0.258916 0.777354
O O18 0.000000 0.834987 0.500000
O O19 0.906929 0.000000 0.370675
O O20 0.496988 0.000000 0.124893
O O21 0.500000 0.234445 0.000000
#
# Coordination Sequence:
#
# PCOD9155380 Si02
#       8
#     4   4   4   4   4   4   4   4
#     4  10  20  34  54  84 120 151 185 231 288 343
#     4  11  23  40  61  82 113 155 197 236 282 342
#     4   9  18  33  58  86 113 147 190 237 279 330
#     4  10  19  36  59  83 114 153 195 234 279 337
#     4  12  25  39  57  85 121 154 189 235 293 347
#     4  10  20  33  55  88 121 150 183 234 294 341
#     4  10  19  37  61  87 115 149 196 239 279 335
#     4  10  20  36  59  87 113 146 196 243 281 334
#
# _framework density 19.753086
#
# number of rings (size 3 to 8) (size 9 to 14) (size 15 to 20)
#    0.000    1.750    2.500    2.625    0.000    3.500 
#    0.000    1.250    0.000    7.500    0.000    0.000 
#    0.000    0.000    0.000    0.000    0.000    0.000 
#
# Total GULP energy -178535.077929 kJ/mol
# GULP energy per Si atom -5579.221185 kJ/mol
# Density = 1.970813 g / cm^3
# Si number density = 19.753086 Si / 1000 Ang^3
#
#
#
# Elastic Constant Matrix: (Units=GPa)
#
#
# Indices 1 2 3 4 5 6 
#
# 1 4.3763 4.2793 2.0118 0.0000 -3.1982 0.0000
# 2 4.2793 26.6670 22.2009 0.0000 -1.9218 0.0000
# 3 2.0118 22.2009 27.2832 0.0000 -5.9206 0.0000
# 4 0.0000 0.0000 0.0000 32.9629 0.0000 -7.2767
# 5 -3.1982 -1.9218 -5.9206 0.0000 14.5103 0.0000
# 6 0.0000 0.0000 0.0000 -7.2767 0.0000 58.5561
#
#
#
# Elastic Compliance Matrix: (Units=1/GPa)
#
#
# Indices 1 2 3 4 5 6 
#
# 1 0.429532 -0.175043 0.138545 0.000000 0.128020 0.000000
# 2 -0.175043 0.196842 -0.164552 0.000000 -0.079653 0.000000
# 3 0.138545 -0.164552 0.177994 0.000000 0.081369 0.000000
# 4 0.000000 0.000000 0.000000 0.031193 0.000000 0.003876
# 5 0.128020 -0.079653 0.081369 0.000000 0.119785 0.000000
# 6 0.000000 0.000000 0.000000 0.003876 0.000000 0.017559
#
#
# Mechanical properties :
#
#
# Convention : Reuss Voigt Hill
#
# Bulk Modulus (GPa) = 2.48591 12.81227 7.64909
# Shear Modulus (GPa) = 3.31324 23.19484 13.25404
#
# Velocity S-wave (km/s) = 1.29652 3.43043 2.59315
# Velocity P-wave (km/s) = 1.87150 4.71071 3.58422
#
# Compressibility (1/GPa) = 0.40226707
#
# Stress axis : x y z
#
# Youngs Moduli (GPa) = 2.32811 5.08021 5.61817
#
# Poissons Ratio (x) = 0.88926 -0.77837
# Poissons Ratio (y) = 0.40752 0.92448
# Poissons Ratio (z) = -0.32255 0.83596
#
# Static dielectric constant tensor:
#      x y z
#    x 1.697050 0.000000 -0.015830 
#    y 0.000000 1.690610 0.000000 
#    z -0.015830 0.000000 1.655950 
# 
# From -- ./inp_files/49794.got.cif
#   From: 2010.05.17/outbox.ucp.g08.bks.cvg/sg10_25_cif.got.tgz:49794.got - 2010.06.11 11:31:16.
