data_PCOD9155395
_publ_section_title
;
Structure prediction by ZEFSAII (Michael W. Deem and Ramdas Pophale) SiO2 
 PCOD9155395
Probable space group: P 2/M
;
_chemical_formula_sum "Si O2"
_cell_formula_units_Z 24
_cell_length_a 12.000000
_cell_length_b 15.000000
_cell_length_c 15.000000
_cell_angle_alpha 90.000000
_cell_angle_beta 150.000000
_cell_angle_gamma 90.000000
_cell_volume 1350.000000
_symmetry_space_group_name_H-M "P 2/M"
_symmetry_group_IT_number 10
_symmetry_cell_setting 'monoclinic'
loop_
_space_group_symop_operation_xyz
x,y,z
-x,y,-z
-x,-y,-z
x,-y,z
loop_
_atom_site_type_symbol
_atom_site_label
_atom_site_fract_x
_atom_site_fract_y
_atom_site_fract_z
Si Si1 0.078264 0.394348 0.799734
Si Si2 0.604302 0.703927 0.852968
Si Si3 0.727266 0.103806 0.701261
Si Si4 0.238719 0.396995 0.714273
Si Si5 0.550795 0.606300 0.430543
Si Si6 0.237315 0.105109 0.059388
O O1 0.107648 0.500000 0.837408
O O2 0.204130 0.373100 0.794024
O O3 0.815754 0.379801 0.602856
O O4 0.176383 0.338767 0.949568
O O5 0.405222 0.664066 0.774561
O O6 0.571828 0.667065 0.728976
O O7 0.614494 0.811133 0.868463
O O8 0.500000 0.143758 0.500000
O O9 0.727114 0.106431 0.808680
O O10 0.726052 0.000000 0.672936
O O11 0.981851 0.132207 0.856430
O O12 0.318024 0.500000 0.765404
O O13 0.000000 0.394427 0.500000
O O14 0.500000 0.624355 0.500000
O O15 0.503033 0.500000 0.381356
O O16 0.274082 0.000000 0.058344
#
# Coordination Sequence:
#
# PCOD9155395 Si02
#       6
#     4   4   4   4   4   4
#     4  10  21  37  59  85 109 140 187 238 281 329
#     4  12  22  34  58  84 112 150 189 230 284 338
#     4   8  15  33  57  74  99 144 192 236 280 318
#     4  10  19  37  63  85 107 139 188 245 288 324
#     4  10  22  38  54  81 122 156 182 221 280 349
#     4   9  20  34  50  80 114 145 187 237 278 326
#
# _framework density 17.777778000000001
#
# number of rings (size 3 to 8) (size 9 to 14) (size 15 to 20)
#    0.000    2.167    1.667    3.000    0.000    6.667 
#    0.000    2.500    0.000    2.500    0.000    0.000 
#    0.000    0.000    0.000    0.000    0.000    0.000 
#
# Total GULP energy -133776.038824 kJ/mol
# GULP energy per Si atom -5574.001618 kJ/mol
# Density = 1.773731 g / cm^3
# Si number density = 17.777778 Si / 1000 Ang^3
#
#
#
# Elastic Constant Matrix: (Units=GPa)
#
#
# Indices 1 2 3 4 5 6 
#
# 1 79.2907 45.2863 19.7030 0.0000 -2.8318 0.0000
# 2 45.2863 106.7625 38.2987 0.0000 1.4540 0.0000
# 3 19.7030 38.2987 107.5779 0.0000 -12.7285 0.0000
# 4 0.0000 0.0000 0.0000 14.9500 0.0000 -1.9469
# 5 -2.8318 1.4540 -12.7285 0.0000 28.3238 0.0000
# 6 0.0000 0.0000 0.0000 -1.9469 0.0000 17.8788
#
#
#
# Elastic Compliance Matrix: (Units=1/GPa)
#
#
# Indices 1 2 3 4 5 6 
#
# 1 0.016772 -0.007013 -0.000353 0.000000 0.001878 0.000000
# 2 -0.007013 0.013827 -0.004019 0.000000 -0.003217 0.000000
# 3 -0.000353 -0.004019 0.011418 0.000000 0.005302 0.000000
# 4 0.000000 0.000000 0.000000 0.067852 0.000000 0.007389
# 5 0.001878 -0.003217 0.005302 0.000000 0.038042 0.000000
# 6 0.000000 0.000000 0.000000 0.007389 0.000000 0.056737
#
#
# Mechanical properties :
#
#
# Convention : Reuss Voigt Hill
#
# Bulk Modulus (GPa) = 51.95411 55.57856 53.76633
# Shear Modulus (GPa) = 21.38275 24.92006 23.15141
#
# Velocity S-wave (km/s) = 3.47187 3.74806 3.61261
# Velocity P-wave (km/s) = 6.73495 7.07541 6.90728
#
# Compressibility (1/GPa) = 0.01924776
#
# Stress axis : x y z
#
# Youngs Moduli (GPa) = 59.62233 72.32259 87.57931
#
# Poissons Ratio (x) = 0.50723 0.03089
# Poissons Ratio (y) = 0.41816 0.35195
# Poissons Ratio (z) = 0.02103 0.29064
#
# Static dielectric constant tensor:
#      x y z
#    x 1.608710 0.000000 0.017920 
#    y 0.000000 1.612500 0.000000 
#    z 0.017920 0.000000 1.648640 
# 
# From -- ./inp_files/51531.got.cif
#   From: 2010.05.17/outbox.ucp.g08.bks.cvg/sg10_26_cif.got.tgz:51531.got - 2010.06.11 11:31:16.
