data_PCOD9155106
_publ_section_title
;
Structure prediction by ZEFSAII (Michael W. Deem and Ramdas Pophale) SiO2 
 PCOD9155106
Probable space group: P 2/M
;
_chemical_formula_sum "Si O2"
_cell_formula_units_Z 28
_cell_length_a 9.000000
_cell_length_b 12.000000
_cell_length_c 15.000000
_cell_angle_alpha 90.000000
_cell_angle_beta 110.000000
_cell_angle_gamma 90.000000
_cell_volume 1522.302046
_symmetry_space_group_name_H-M "P 2/M"
_symmetry_group_IT_number 10
_symmetry_cell_setting 'monoclinic'
loop_
_space_group_symop_operation_xyz
x,y,z
-x,y,-z
-x,-y,-z
x,-y,z
loop_
_atom_site_type_symbol
_atom_site_label
_atom_site_fract_x
_atom_site_fract_y
_atom_site_fract_z
Si Si1 0.569715 0.799783 0.732857
Si Si2 0.358220 0.870548 0.544075
Si Si3 0.775513 0.000000 0.072011
Si Si4 0.148774 0.868062 0.345313
Si Si5 0.677741 0.630141 0.045021
Si Si6 0.068156 0.775640 0.836978
Si Si7 0.472758 0.000000 0.138291
Si Si8 0.212029 0.369108 0.134623
O O1 0.415858 0.797875 0.638534
O O2 0.709763 0.845683 0.696707
O O3 0.542948 0.890412 0.804154
O O4 0.634659 0.684991 0.786527
O O5 0.500000 0.870941 0.500000
O O6 0.207885 0.834114 0.455326
O O7 0.339408 0.000000 0.569107
O O8 0.883548 0.890468 0.104516
O O9 0.639991 0.000000 0.120943
O O10 0.672995 0.000000 0.960965
O O11 0.000675 0.805814 0.273376
O O12 0.120372 0.000000 0.341550
O O13 0.672004 0.500000 0.067828
O O14 0.776487 0.701054 0.134266
O O15 0.500000 0.673095 0.000000
O O16 0.760829 0.640258 0.965643
O O17 0.935283 0.704878 0.862589
O O18 0.189783 0.500000 0.150979
#
# Coordination Sequence:
#
# PCOD9155106 Si02
#       8
#     4   4   2   4   4   4   2   4
#     4  10  17  31  56  79 106 141 178 220 274 329
#     4   8  13  25  49  78 107 136 175 216 265 326
#     4  11  26  35  48  78 116 149 180 221 275 327
#     4   9  16  30  49  79 109 139 180 216 267 331
#     4  10  22  39  57  77 103 143 192 229 267 317
#     4  11  21  36  55  74 110 147 178 220 271 319
#     4  11  22  35  49  78 114 145 181 220 270 334
#     4  10  22  37  56  81 106 139 188 235 267 314
#
# _framework density 18.393196
#
# number of rings (size 3 to 8) (size 9 to 14) (size 15 to 20)
#    0.000    2.143    2.143    2.571    4.000    2.286 
#    0.000    2.857    0.000   13.286    0.000    0.000 
#    0.000    3.429    0.000    0.143    0.000    0.000 
#
# Total GULP energy -156259.477533 kJ/mol
# GULP energy per Si atom -5580.695626 kJ/mol
# Density = 1.835133 g / cm^3
# Si number density = 18.393196 Si / 1000 Ang^3
#
#
#
# Elastic Constant Matrix: (Units=GPa)
#
#
# Indices 1 2 3 4 5 6 
#
# 1 41.6433 35.0305 36.0430 0.0000 25.3439 0.0000
# 2 35.0305 92.4996 54.9025 0.0000 22.2225 0.0000
# 3 36.0430 54.9025 130.4981 0.0000 43.1956 0.0000
# 4 0.0000 0.0000 0.0000 1.5378 0.0000 13.3573
# 5 25.3439 22.2225 43.1956 0.0000 29.2664 0.0000
# 6 0.0000 0.0000 0.0000 13.3573 0.0000 19.4763
#
#
#
# Elastic Compliance Matrix: (Units=1/GPa)
#
#
# Indices 1 2 3 4 5 6 
#
# 1 0.063258 -0.015038 0.006272 0.000000 -0.052619 0.000000
# 2 -0.015038 0.018215 -0.006339 0.000000 0.008548 0.000000
# 3 0.006272 -0.006339 0.017210 0.000000 -0.026019 0.000000
# 4 0.000000 0.000000 0.000000 -0.131183 0.000000 0.089969
# 5 -0.052619 0.008548 -0.026019 0.000000 0.111648 0.000000
# 6 0.000000 0.000000 0.000000 0.089969 0.000000 -0.010358
#
#
# Mechanical properties :
#
#
# Convention : Reuss Voigt Hill
#
# Bulk Modulus (GPa) = 14.60426 57.39921 36.00174
# Shear Modulus (GPa) = 41.04270 19.30043 30.17157
#
# Velocity S-wave (km/s) = 4.72890 3.24284 4.05454
# Velocity P-wave (km/s) = 6.14605 6.73022 6.44476
#
# Compressibility (1/GPa) = 0.06847315
#
# Stress axis : x y z
#
# Youngs Moduli (GPa) = 15.80818 54.90003 58.10526
#
# Poissons Ratio (x) = 0.82558 -0.36444
# Poissons Ratio (y) = 0.23772 0.36835
# Poissons Ratio (z) = -0.09915 0.34803
#
# Static dielectric constant tensor:
#      x y z
#    x 1.659940 0.000000 0.037820 
#    y 0.000000 1.609420 0.000000 
#    z 0.037820 0.000000 1.660060 
# 
# From -- ./inp_files/61049.got.cif
#   From: 2010.05.17/outbox.ucp.g08.bks.cvg/sg10_31_cif.got.tgz:61049.got - 2010.06.11 11:31:16.
