data_PCOD9155124
_publ_section_title
;
Structure prediction by ZEFSAII (Michael W. Deem and Ramdas Pophale) SiO2 
 PCOD9155124
Probable space group: P 2/M
;
_chemical_formula_sum "Si O2"
_cell_formula_units_Z 32
_cell_length_a 27.000000
_cell_length_b 9.000000
_cell_length_c 21.000000
_cell_angle_alpha 90.000000
_cell_angle_beta 160.000000
_cell_angle_gamma 90.000000
_cell_volume 1745.328791
_symmetry_space_group_name_H-M "P 2/M"
_symmetry_group_IT_number 10
_symmetry_cell_setting 'monoclinic'
loop_
_space_group_symop_operation_xyz
x,y,z
-x,y,-z
-x,-y,-z
x,-y,z
loop_
_atom_site_type_symbol
_atom_site_label
_atom_site_fract_x
_atom_site_fract_y
_atom_site_fract_z
Si Si1 0.207978 0.181213 0.618488
Si Si2 0.363173 0.326585 0.542992
Si Si3 0.647450 0.179690 0.336023
Si Si4 0.337460 0.826877 0.382503
Si Si5 0.289716 0.327127 0.056214
Si Si6 0.658879 0.180870 0.093485
Si Si7 0.888818 0.821555 0.269607
Si Si8 0.312781 0.826091 0.212401
O O1 0.247654 0.226910 0.595010
O O2 0.323861 0.226283 0.812317
O O3 0.051366 0.231874 0.453775
O O4 0.207837 0.000000 0.617397
O O5 0.330548 0.500000 0.508083
O O6 0.318683 0.245083 0.554056
O O7 0.299942 0.260287 0.401095
O O8 0.537974 0.309577 0.747448
O O9 0.648512 0.000000 0.341613
O O10 0.486567 0.227542 0.118366
O O11 0.276694 0.775808 0.240608
O O12 0.512259 0.820133 0.584531
O O13 0.300241 0.000000 0.345520
O O14 0.253930 0.500000 0.004630
O O15 0.253630 0.272089 0.083685
O O16 0.206538 0.226835 0.905431
O O17 0.800831 0.229031 0.225560
O O18 0.655931 0.000000 0.089533
O O19 0.896207 0.000000 0.282789
O O20 0.272276 0.000000 0.156584
#
# Coordination Sequence:
#
# PCOD9155124 Si02
#       8
#     4   4   4   4   4   4   4   4
#     4   9  18  30  47  73  98 117 152 203 243 280
#     4  10  19  29  43  65  95 128 161 196 231 275
#     4  10  18  30  49  71  94 123 157 195 239 284
#     4   8  14  25  42  65  93 123 155 192 234 279
#     4  10  19  29  43  65  95 128 161 196 231 275
#     4   9  16  28  49  73  94 119 152 195 245 288
#     4  10  18  30  49  71  94 123 157 195 239 284
#     4   8  14  25  42  65  93 123 155 192 234 279
#
# _framework density 18.334654
#
# number of rings (size 3 to 8) (size 9 to 14) (size 15 to 20)
#    0.000    2.750    1.250    2.250    0.000    4.500 
#    0.000    3.125    0.000    4.500    0.000    0.875 
#    0.000    7.000    0.000    0.000    0.000    0.000 
#
# Total GULP energy -178264.476763 kJ/mol
# GULP energy per Si atom -5570.764899 kJ/mol
# Density = 1.829292 g / cm^3
# Si number density = 18.334654 Si / 1000 Ang^3
#
#
#
# Elastic Constant Matrix: (Units=GPa)
#
#
# Indices 1 2 3 4 5 6 
#
# 1 125.7310 23.5316 17.2999 0.0000 -20.6206 0.0000
# 2 23.5316 4.0868 3.3855 0.0000 -0.8982 0.0000
# 3 17.2999 3.3855 4.7539 0.0000 4.0514 0.0000
# 4 0.0000 0.0000 0.0000 3.7428 0.0000 6.6281
# 5 -20.6206 -0.8982 4.0514 0.0000 22.3286 0.0000
# 6 0.0000 0.0000 0.0000 6.6281 0.0000 -8.1048
#
#
#
# Elastic Compliance Matrix: (Units=1/GPa)
#
#
# Indices 1 2 3 4 5 6 
#
# 1 -0.045434 0.204184 0.057591 0.000000 -0.044194 0.000000
# 2 0.204184 0.172277 -1.221163 0.000000 0.417070 0.000000
# 3 0.057591 -1.221163 1.025534 0.000000 -0.182016 0.000000
# 4 0.000000 0.000000 0.000000 0.109132 0.000000 0.089248
# 5 -0.044194 0.417070 -0.182016 0.000000 0.053776 0.000000
# 6 0.000000 0.000000 0.000000 0.089248 0.000000 -0.050397
#
#
# Mechanical properties :
#
#
# Convention : Reuss Voigt Hill
#
# Bulk Modulus (GPa) = -1.30481 24.77840 11.73680
# Shear Modulus (GPa) = 1.70754 9.61695 5.66224
#
# Velocity S-wave (km/s) = 0.96609 2.29273 1.75926
# Velocity P-wave (km/s) = 0.72886 4.53351 3.24684
#
# Compressibility (1/GPa) = -0.76639748
#
# Stress axis : x y z
#
# Youngs Moduli (GPa) = -22.01016 5.80460 0.97510
#
# Poissons Ratio (x) = -1.18521 -0.05616
# Poissons Ratio (y) = 4.49412 1.19076
# Poissons Ratio (z) = 1.26759 7.08836
#
# Static dielectric constant tensor:
#      x y z
#    x 1.648350 0.000000 0.001050 
#    y 0.000000 1.611330 0.000000 
#    z 0.001050 0.000000 1.644710 
# 
# From -- ./inp_files/86105.got.cif
#   From: 2010.05.17/outbox.ucp.g08.bks.cvg/sg10_44_cif.got.tgz:86105.got - 2010.06.11 11:31:16.
