data_PCOD9155163
_publ_section_title
;
Structure prediction by ZEFSAII (Michael W. Deem and Ramdas Pophale) SiO2 
 PCOD9155163
Probable space group: P 2/M
;
_chemical_formula_sum "Si O2"
_cell_formula_units_Z 24
_cell_length_a 9.000000
_cell_length_b 9.000000
_cell_length_c 21.000000
_cell_angle_alpha 90.000000
_cell_angle_beta 130.000000
_cell_angle_gamma 90.000000
_cell_volume 1303.041598
_symmetry_space_group_name_H-M "P 2/M"
_symmetry_group_IT_number 10
_symmetry_cell_setting 'monoclinic'
loop_
_space_group_symop_operation_xyz
x,y,z
-x,y,-z
-x,-y,-z
x,-y,z
loop_
_atom_site_type_symbol
_atom_site_label
_atom_site_fract_x
_atom_site_fract_y
_atom_site_fract_z
Si Si1 0.987532 0.827656 0.289900
Si Si2 0.285761 0.319927 0.469132
Si Si3 0.818795 0.674321 0.911433
Si Si4 0.349525 0.330417 0.626340
Si Si5 0.385041 0.680806 0.777602
Si Si6 0.813693 0.336167 0.759741
O O1 0.785004 0.742704 0.226743
O O2 0.120630 0.751055 0.380399
O O3 0.099916 0.797497 0.255633
O O4 0.960375 0.000000 0.295832
O O5 0.500000 0.284894 0.500000
O O6 0.269076 0.500000 0.463563
O O7 0.272009 0.266923 0.538781
O O8 0.806192 0.500000 0.927095
O O9 0.599004 0.733489 0.857114
O O10 0.855023 0.677195 0.845780
O O11 0.000000 0.740266 0.000000
O O12 0.273711 0.500000 0.608802
O O13 0.326132 0.264055 0.690054
O O14 0.582941 0.338021 0.684781
O O15 0.390086 0.500000 0.776391
O O16 0.884871 0.500000 0.757251
#
# Coordination Sequence:
#
# PCOD9155163 Si02
#       6
#     4   4   4   4   4   4
#     4  12  24  34  46  72 110 143 176 212 252 295
#     4  10  18  32  55  76  99 131 177 220 256 303
#     4   8  15  31  60  91 106 118 159 222 268 304
#     4   8  15  30  53  77  95 127 176 217 247 299
#     4   9  18  34  55  76 104 136 168 206 260 313
#     4   9  16  32  56  78 102 133 170 208 258 312
#
# _framework density 18.418444999999998
#
# number of rings (size 3 to 8) (size 9 to 14) (size 15 to 20)
#    0.000    2.667    1.667    3.500    0.000    1.000 
#    0.000    8.333    0.000    7.000    0.000    0.000 
#    0.000    0.000    0.000    0.000    0.000    0.000 
#
# Total GULP energy -133613.782262 kJ/mol
# GULP energy per Si atom -5567.240928 kJ/mol
# Density = 1.837652 g / cm^3
# Si number density = 18.418445 Si / 1000 Ang^3
#
#
#
# Elastic Constant Matrix: (Units=GPa)
#
#
# Indices 1 2 3 4 5 6 
#
# 1 28.9205 6.2273 4.4863 0.0000 12.1716 0.0000
# 2 6.2273 18.9388 14.8231 0.0000 6.5045 0.0000
# 3 4.4863 14.8231 88.2997 0.0000 16.9508 0.0000
# 4 0.0000 0.0000 0.0000 -3.3013 0.0000 -3.8665
# 5 12.1716 6.5045 16.9508 0.0000 13.4880 0.0000
# 6 0.0000 0.0000 0.0000 -3.8665 0.0000 -1.7270
#
#
#
# Elastic Compliance Matrix: (Units=1/GPa)
#
#
# Indices 1 2 3 4 5 6 
#
# 1 0.062276 -0.005883 0.010632 0.000000 -0.066723 0.000000
# 2 -0.005883 0.066596 -0.007558 0.000000 -0.017308 0.000000
# 3 0.010632 -0.007558 0.017392 0.000000 -0.027806 0.000000
# 4 0.000000 0.000000 0.000000 0.186731 0.000000 -0.418065
# 5 -0.066723 -0.017308 -0.027806 0.000000 0.177643 0.000000
# 6 0.000000 0.000000 0.000000 -0.418065 0.000000 0.356951
#
#
# Mechanical properties :
#
#
# Convention : Reuss Voigt Hill
#
# Bulk Modulus (GPa) = 7.11002 20.80360 13.95681
# Shear Modulus (GPa) = 5.43425 9.06677 7.25051
#
# Velocity S-wave (km/s) = 1.71955 2.22111 1.98623
# Velocity P-wave (km/s) = 2.79484 4.23052 3.58528
#
# Compressibility (1/GPa) = 0.14064661
#
# Stress axis : x y z
#
# Youngs Moduli (GPa) = 16.05745 15.01586 57.49890
#
# Poissons Ratio (x) = 0.08834 -0.61135
# Poissons Ratio (y) = 0.09447 0.43458
# Poissons Ratio (z) = -0.17073 0.11349
#
# Static dielectric constant tensor:
#      x y z
#    x 1.675710 0.000000 -0.013760 
#    y 0.000000 1.613210 0.000000 
#    z -0.013760 0.000000 1.632050 
# 
# From -- ./inp_files/27196.got.cif
#   From: 2010.05.17/outbox.ucp.g08.bks.cvg/sg10_14_cif.got.tgz:27196.got - 2010.06.11 11:31:16.
