data_PCOD9155024
_publ_section_title
;
Structure prediction by ZEFSAII (Michael W. Deem and Ramdas Pophale) SiO2 
 PCOD9155024
Probable space group: P 2/M
;
_chemical_formula_sum "Si O2"
_cell_formula_units_Z 32
_cell_length_a 21.203192
_cell_length_b 10.379988
_cell_length_c 21.202745
_cell_angle_alpha 90.000000
_cell_angle_beta 20.925869
_cell_angle_gamma 90.000000
_cell_volume 1666.681845
_symmetry_space_group_name_H-M "P 2/M"
_symmetry_group_IT_number 10
_symmetry_cell_setting 'monoclinic'
loop_
_space_group_symop_operation_xyz
x,y,z
-x,y,-z
-x,-y,-z
x,-y,z
loop_
_atom_site_type_symbol
_atom_site_label
_atom_site_fract_x
_atom_site_fract_y
_atom_site_fract_z
Si Si1 0.504600 0.853717 0.422266
Si Si2 0.797153 0.355485 0.881082
Si Si3 0.380835 0.644504 0.297441
Si Si4 0.449408 0.647468 0.373990
Si Si5 0.873937 0.647481 0.949424
Si Si6 0.755528 0.854895 0.672312
Si Si7 0.827417 0.145109 0.744685
Si Si8 0.922305 0.853706 0.004554
O O1 0.500000 0.816639 0.500000
O O2 0.413534 0.750950 0.461629
O O3 0.710554 0.857799 0.210514
O O4 0.434133 0.000000 0.482389
O O5 0.853216 0.500000 0.808909
O O6 0.811126 0.250048 0.814038
O O7 0.590836 0.362719 0.091096
O O8 0.893625 0.322484 0.856781
O O9 0.308647 0.500000 0.353515
O O10 0.356643 0.677473 0.393818
O O11 0.313715 0.749957 0.311515
O O12 0.405420 0.500000 0.432576
O O13 0.662069 0.649695 0.162106
O O14 0.932536 0.500000 0.905390
O O15 0.961610 0.750940 0.913527
O O16 0.729139 0.822002 0.770819
O O17 0.965509 0.860694 0.465279
O O18 0.685189 0.000000 0.727000
O O19 0.772675 0.000000 0.815056
O O20 0.982432 0.000000 0.934089
O O21 0.000000 0.816627 0.000000
#
# Coordination Sequence:
#
# PCOD9155024 Si02
#       8
#     4   4   4   4   4   4   4   4
#     4   9  17  29  45  65  89 117 149 184 222 265
#     4   9  18  32  50  73  98 122 153 195 238 279
#     4   9  18  32  50  73  98 122 153 195 238 279
#     4   8  15  29  47  66  90 119 149 183 224 269
#     4   8  15  29  47  66  90 119 149 183 224 269
#     4   9  19  35  51  68  94 127 160 193 231 277
#     4   9  19  35  51  68  94 127 160 193 231 277
#     4   9  17  29  45  65  89 117 149 184 222 265
#
# _framework density 19.199826000000002
#
# number of rings (size 3 to 8) (size 9 to 14) (size 15 to 20)
#    0.000    3.250    0.000    2.250    0.000    3.500 
#    0.000    7.500    0.000    4.500    0.000    0.000 
#    0.000    0.000    0.000    0.000    0.000    0.000 
#
# Total GULP energy -178351.356580 kJ/mol
# GULP energy per Si atom -5573.479893 kJ/mol
# Density = 1.915613 g / cm^3
# Si number density = 19.199826 Si / 1000 Ang^3
#
#
#
# Elastic Constant Matrix: (Units=GPa)
#
#
# Indices 1 2 3 4 5 6 
#
# 1 174.4374 154.9643 14.4609 0.0000 33.9862 0.0000
# 2 154.9643 171.8271 17.8950 0.0000 39.5131 0.0000
# 3 14.4609 17.8950 31.5624 0.0000 7.1257 0.0000
# 4 0.0000 0.0000 0.0000 26.3323 0.0000 5.3829
# 5 33.9862 39.5131 7.1257 0.0000 28.7179 0.0000
# 6 0.0000 0.0000 0.0000 5.3829 0.0000 44.9081
#
#
#
# Elastic Compliance Matrix: (Units=1/GPa)
#
#
# Indices 1 2 3 4 5 6 
#
# 1 0.029008 -0.026819 0.001414 0.000000 0.002220 0.000000
# 2 -0.026819 0.033471 -0.003663 0.000000 -0.013405 0.000000
# 3 0.001414 -0.003663 0.034272 0.000000 -0.005137 0.000000
# 4 0.000000 0.000000 0.000000 0.038930 0.000000 -0.004666
# 5 0.002220 -0.013405 -0.005137 0.000000 0.051913 0.000000
# 6 0.000000 0.000000 0.000000 -0.004666 0.000000 0.022827
#
#
# Mechanical properties :
#
#
# Convention : Reuss Voigt Hill
#
# Bulk Modulus (GPa) = 25.89692 83.60746 54.75219
# Shear Modulus (GPa) = 17.76645 32.69211 25.22928
#
# Velocity S-wave (km/s) = 3.04525 4.13089 3.62890
# Velocity P-wave (km/s) = 5.08744 8.14818 6.79246
#
# Compressibility (1/GPa) = 0.03861462
#
# Stress axis : x y z
#
# Youngs Moduli (GPa) = 34.47305 29.87662 29.17823
#
# Poissons Ratio (x) = 0.80126 -0.04125
# Poissons Ratio (y) = 0.92454 0.10688
# Poissons Ratio (z) = -0.04874 0.10944
#
# Static dielectric constant tensor:
#      x y z
#    x 1.654160 0.000000 -0.018380 
#    y 0.000000 1.667170 0.000000 
#    z -0.018380 0.000000 1.717810 
# 
# From -- ./inp_files/86133.got.cif
#   From: 2010.05.17/outbox.cif.g08.bks.cpg/sg10_44_cif.got.tgz:86133.got - 2010.06.03 11:33:40.
