data_PCOD9155446
_publ_section_title
;
Structure prediction by ZEFSAII (Michael W. Deem and Ramdas Pophale) SiO2 
 PCOD9155446
Probable space group: P 2/M
;
_chemical_formula_sum "Si O2"
_cell_formula_units_Z 28
_cell_length_a 9.000000
_cell_length_b 9.000000
_cell_length_c 27.000000
_cell_angle_alpha 90.000000
_cell_angle_beta 140.000000
_cell_angle_gamma 90.000000
_cell_volume 1405.776502
_symmetry_space_group_name_H-M "P 2/M"
_symmetry_group_IT_number 10
_symmetry_cell_setting 'monoclinic'
loop_
_space_group_symop_operation_xyz
x,y,z
-x,y,-z
-x,-y,-z
x,-y,z
loop_
_atom_site_type_symbol
_atom_site_label
_atom_site_fract_x
_atom_site_fract_y
_atom_site_fract_z
Si Si1 0.657273 0.821266 0.893779
Si Si2 0.837396 0.321766 0.241887
Si Si3 0.761689 0.329294 0.471220
Si Si4 0.469976 0.176473 0.677335
Si Si5 0.994068 0.177404 0.378303
Si Si6 0.049075 0.676275 0.188495
Si Si7 0.104055 0.321929 0.956432
O O1 0.407309 0.761301 0.815002
O O2 0.857940 0.741991 0.912858
O O3 0.673376 0.000000 0.893982
O O4 0.709791 0.764505 0.962986
O O5 0.808520 0.500000 0.238487
O O6 0.997100 0.260596 0.326780
O O7 0.938783 0.287504 0.213396
O O8 0.701109 0.500000 0.466214
O O9 0.580214 0.253050 0.388281
O O10 0.000000 0.328632 0.500000
O O11 0.816825 0.239241 0.534987
O O12 0.255462 0.210055 0.659288
O O13 0.713005 0.236333 0.758462
O O14 0.475564 0.000000 0.672682
O O15 0.013584 0.000000 0.377539
O O16 0.101518 0.500000 0.201725
O O17 0.884743 0.703947 0.099428
O O18 0.117397 0.500000 0.969028
#
# Coordination Sequence:
#
# PCOD9155446 Si02
#       7
#     4   4   4   4   4   4   4
#     4  11  22  37  58  86 114 141 178 225 273 323
#     4  11  23  39  56  78 110 148 186 224 269 322
#     4   9  17  31  54  82 110 142 181 224 270 321
#     4  10  20  34  56  83 112 143 178 225 276 324
#     4  10  20  35  56  84 113 142 180 226 275 325
#     4  10  23  39  56  79 109 145 186 227 268 321
#     4  10  20  38  62  85 109 142 182 225 272 322
#
# _framework density 19.917818
#
# number of rings (size 3 to 8) (size 9 to 14) (size 15 to 20)
#    0.000    1.857    0.000    5.143    0.000    8.571 
#    0.000    3.571    0.000    4.286    0.000    0.000 
#    0.000    0.000    0.000    0.000    0.000    0.000 
#
# Total GULP energy -156488.848159 kJ/mol
# GULP energy per Si atom -5588.887434 kJ/mol
# Density = 1.987248 g / cm^3
# Si number density = 19.917818 Si / 1000 Ang^3
#
#
#
# Elastic Constant Matrix: (Units=GPa)
#
#
# Indices 1 2 3 4 5 6 
#
# 1 33.2827 21.9981 10.0887 0.0000 -32.3889 0.0000
# 2 21.9981 81.0510 18.7437 0.0000 -20.4325 0.0000
# 3 10.0887 18.7437 79.4728 0.0000 -35.9185 0.0000
# 4 0.0000 0.0000 0.0000 34.5435 0.0000 4.5581
# 5 -32.3889 -20.4325 -35.9185 0.0000 35.3246 0.0000
# 6 0.0000 0.0000 0.0000 4.5581 0.0000 -2.5983
#
#
#
# Elastic Compliance Matrix: (Units=1/GPa)
#
#
# Indices 1 2 3 4 5 6 
#
# 1 -0.115821 0.003657 -0.061430 0.000000 -0.166543 0.000000
# 2 0.003657 0.014349 0.002624 0.000000 0.014320 0.000000
# 3 -0.061430 0.002624 -0.009267 0.000000 -0.064230 0.000000
# 4 0.000000 0.000000 0.000000 0.023508 0.000000 0.041238
# 5 -0.166543 0.014320 -0.064230 0.000000 -0.181420 0.000000
# 6 0.000000 0.000000 0.000000 0.041238 0.000000 -0.312521
#
#
# Mechanical properties :
#
#
# Convention : Reuss Voigt Hill
#
# Bulk Modulus (GPa) = -4.52409 32.82972 14.15282
# Shear Modulus (GPa) = -9.18184 22.98569 6.90192
#
# Velocity S-wave (km/s) = -2.14939 3.40078 1.86352
# Velocity P-wave (km/s) = 2.90450 5.65144 3.42802
#
# Compressibility (1/GPa) = -0.22103873
#
# Stress axis : x y z
#
# Youngs Moduli (GPa) = -8.63404 69.69242 -107.90861
#
# Poissons Ratio (x) = -0.25484 -6.62886
# Poissons Ratio (y) = 0.03157 0.28314
# Poissons Ratio (z) = -0.53039 -0.18286
#
# Static dielectric constant tensor:
#      x y z
#    x 1.698090 0.000000 -0.020770 
#    y 0.000000 1.658650 0.000000 
#    z -0.020770 0.000000 1.705230 
# 
# From -- ./inp_files/92060.got.cif
#   From: 2010.05.17/outbox.ucp.g08.bks.cvg/sg10_47_cif.got.tgz:92060.got - 2010.06.11 11:31:16.
