data_PCOD9155739
_publ_section_title
;
Structure prediction by ZEFSAII (Michael W. Deem and Ramdas Pophale) SiO2 
 PCOD9155739
Probable space group: P 21/M
;
_chemical_formula_sum "Si O2"
_cell_formula_units_Z 22
_cell_length_a 11.209317
_cell_length_b 14.262440
_cell_length_c 5.406946
_cell_angle_alpha 90.000000
_cell_angle_beta 97.309991
_cell_angle_gamma 90.000000
_cell_volume 857.394637
_symmetry_space_group_name_H-M "P 21/M"
_symmetry_group_IT_number 11
_symmetry_cell_setting 'monoclinic'
loop_
_space_group_symop_operation_xyz
x,y,z
-x,1/2+y,-z
-x,-y,-z
x,1/2-y,z
loop_
_atom_site_type_symbol
_atom_site_label
_atom_site_fract_x
_atom_site_fract_y
_atom_site_fract_z
Si Si1 0.014627 0.613716 0.508763
Si Si2 0.594384 0.750000 0.380806
Si Si3 0.917201 0.594017 0.983647
Si Si4 0.433828 0.892780 0.123925
Si Si5 0.292856 0.606673 0.580229
Si Si6 0.334261 0.068795 0.296152
O O1 0.154881 0.637483 0.545953
O O2 0.000000 0.500000 0.500000
O O3 0.953134 0.646179 0.743002
O O4 0.948821 0.645061 0.243814
O O5 0.553538 0.832729 0.169302
O O6 0.627215 0.667311 0.591215
O O7 0.778290 0.569430 0.918233
O O8 0.000000 0.500000 0.000000
O O9 0.362840 0.855124 0.355641
O O10 0.356651 0.874444 0.857604
O O11 0.563552 0.996557 0.802188
O O12 0.709032 0.504203 0.484347
#
# Coordination Sequence:
#
# PCOD9155739 Si02
#       6
#     4   2   4   4   4   4
#     4  10  15  29  59  98 118 160 203 252 317 387
#     4  12  26  48  64  96 132 174 222 294 318 380
#     4  10  17  30  62  96 125 158 206 253 322 396
#     4  10  23  44  64  93 126 175 220 269 327 379
#     4  10  20  39  68  96 126 167 223 258 320 399
#     4  10  23  41  68  98 132 173 224 264 333 390
#
# _framework density 25.659130000000001
#
# number of rings (size 3 to 8) (size 9 to 14) (size 15 to 20)
#    1.091    0.727    3.636    3.818    0.000    1.455 
#    3.273    0.000    0.000   12.000    0.000    0.000 
#    0.000    0.000    0.000    0.000    0.000    0.000 
#
# Total GULP energy -122560.132743 kJ/mol
# GULP energy per Si atom -5570.915125 kJ/mol
# Density = 2.560073 g / cm^3
# Si number density = 25.659130 Si / 1000 Ang^3
#
#
#
# Elastic Constant Matrix: (Units=GPa)
#
#
# Indices 1 2 3 4 5 6 
#
# 1 87.1605 7.7760 41.2393 0.0000 11.9441 0.0000
# 2 7.7760 193.0538 37.9613 0.0000 20.0310 0.0000
# 3 41.2393 37.9613 268.0033 0.0000 10.9273 0.0000
# 4 0.0000 0.0000 0.0000 -14.2089 0.0000 -13.9550
# 5 11.9441 20.0310 10.9273 0.0000 57.3351 0.0000
# 6 0.0000 0.0000 0.0000 -13.9550 0.0000 -18.4167
#
#
#
# Elastic Compliance Matrix: (Units=1/GPa)
#
#
# Indices 1 2 3 4 5 6 
#
# 1 0.012666 0.000098 -0.001868 0.000000 -0.002317 0.000000
# 2 0.000098 0.005505 -0.000721 0.000000 -0.001806 0.000000
# 3 -0.001868 -0.000721 0.004127 0.000000 -0.000145 0.000000
# 4 0.000000 0.000000 0.000000 -0.275135 0.000000 0.208480
# 5 -0.002317 -0.001806 -0.000145 0.000000 0.018583 0.000000
# 6 0.000000 0.000000 0.000000 0.208480 0.000000 -0.212272
#
#
# Mechanical properties :
#
#
# Convention : Reuss Voigt Hill
#
# Bulk Modulus (GPa) = 57.75655 80.24121 68.99888
# Shear Modulus (GPa) = -11.47390 35.69131 12.10870
#
# Velocity S-wave (km/s) = -2.11693 3.73363 2.17470
# Velocity P-wave (km/s) = 4.07221 7.06587 5.76669
#
# Compressibility (1/GPa) = 0.01731405
#
# Stress axis : x y z
#
# Youngs Moduli (GPa) = 78.95263 181.64684 242.31475
#
# Poissons Ratio (x) = -0.01772 0.45273
# Poissons Ratio (y) = -0.00770 0.17475
# Poissons Ratio (z) = 0.14751 0.13099
#
# Static dielectric constant tensor:
#      x y z
#    x 2.052370 0.000000 -0.135040 
#    y 0.000000 2.000280 0.000000 
#    z -0.135040 0.000000 1.970580 
# 
# From -- ./inp_files/2786.got.cif
#   From: 2010.05.17/outbox.cif.g08.bks.cpg/sg11_2_cif.got.tgz:2786.got - 2010.06.03 12:22:45.
