data_PCOD9155578
_publ_section_title
;
Structure prediction by ZEFSAII (Michael W. Deem and Ramdas Pophale) SiO2 
 PCOD9155578
Probable space group: P 2/M
;
_chemical_formula_sum "Si O2"
_cell_formula_units_Z 28
_cell_length_a 6.000000
_cell_length_b 18.000000
_cell_length_c 15.000000
_cell_angle_alpha 90.000000
_cell_angle_beta 120.000000
_cell_angle_gamma 90.000000
_cell_volume 1402.961154
_symmetry_space_group_name_H-M "P 2/M"
_symmetry_group_IT_number 10
_symmetry_cell_setting 'monoclinic'
loop_
_space_group_symop_operation_xyz
x,y,z
-x,y,-z
-x,-y,-z
x,-y,z
loop_
_atom_site_type_symbol
_atom_site_label
_atom_site_fract_x
_atom_site_fract_y
_atom_site_fract_z
Si Si1 0.260622 0.836185 0.894736
Si Si2 0.044251 0.693492 0.110129
Si Si3 0.788150 0.410895 0.702753
Si Si4 0.547122 0.790572 0.256544
Si Si5 0.207905 0.915110 0.266184
Si Si6 0.816256 0.647325 0.378199
Si Si7 0.209018 0.086996 0.467564
O O1 0.344997 0.827050 0.810287
O O2 0.173332 0.754053 0.909167
O O3 0.015171 0.889976 0.846169
O O4 0.500000 0.862768 0.000000
O O5 0.073182 0.625352 0.183576
O O6 0.307054 0.739780 0.176709
O O7 0.000000 0.669837 0.000000
O O8 0.785243 0.500000 0.700215
O O9 0.476097 0.386400 0.652720
O O10 0.987837 0.384467 0.661740
O O11 0.434987 0.855175 0.297247
O O12 0.746905 0.732487 0.339127
O O13 0.097204 0.910652 0.344865
O O14 0.290114 0.000000 0.267676
O O15 0.000000 0.642308 0.500000
O O16 0.500000 0.116702 0.500000
O O17 0.000000 0.115511 0.500000
O O18 0.251137 0.000000 0.501081
#
# Coordination Sequence:
#
# PCOD9155578 Si02
#       7
#     4   4   4   4   4   4   4
#     4  11  21  39  67  90 118 175 227 275 339 409
#     4  10  20  39  66  92 131 178 224 276 331 397
#     4  11  24  42  69 109 145 175 223 276 331 401
#     4  10  22  41  65  91 125 175 229 275 332 403
#     4  10  24  41  61  95 132 167 220 292 353 405
#     4  11  24  45  70  98 140 186 230 273 326 400
#     4   9  19  38  61  85 120 165 206 253 329 409
#
# _framework density 19.957787
#
# number of rings (size 3 to 8) (size 9 to 14) (size 15 to 20)
#    0.000    1.714    2.857    0.857    2.000    2.857 
#    2.571    0.714    0.000    3.429    0.000    0.000 
#    0.000    0.000    0.000    0.000    0.000    0.000 
#
# Total GULP energy -155903.074380 kJ/mol
# GULP energy per Si atom -5567.966942 kJ/mol
# Density = 1.991236 g / cm^3
# Si number density = 19.957787 Si / 1000 Ang^3
#
#
#
# Elastic Constant Matrix: (Units=GPa)
#
#
# Indices 1 2 3 4 5 6 
#
# 1 141.1787 50.4495 59.8802 0.0000 -10.3887 0.0000
# 2 50.4495 117.3717 60.4895 0.0000 -8.7776 0.0000
# 3 59.8802 60.4895 135.9366 0.0000 -8.6089 0.0000
# 4 0.0000 0.0000 0.0000 5.2228 0.0000 -1.4617
# 5 -10.3887 -8.7776 -8.6089 0.0000 41.0229 0.0000
# 6 0.0000 0.0000 0.0000 -1.4617 0.0000 15.5086
#
#
#
# Elastic Compliance Matrix: (Units=1/GPa)
#
#
# Indices 1 2 3 4 5 6 
#
# 1 0.009273 -0.002373 -0.002951 0.000000 0.001221 0.000000
# 2 -0.002373 0.011737 -0.004111 0.000000 0.001048 0.000000
# 3 -0.002951 -0.004111 0.010523 0.000000 0.000581 0.000000
# 4 0.000000 0.000000 0.000000 0.196656 0.000000 0.018535
# 5 0.001221 0.001048 0.000581 0.000000 0.025032 0.000000
# 6 0.000000 0.000000 0.000000 0.018535 0.000000 0.066227
#
#
# Mechanical properties :
#
#
# Convention : Reuss Voigt Hill
#
# Bulk Modulus (GPa) = 78.98125 81.79170 80.38648
# Shear Modulus (GPa) = 14.59686 27.26205 20.92945
#
# Velocity S-wave (km/s) = 2.70735 3.69993 3.24186
# Velocity P-wave (km/s) = 7.03086 7.70221 7.37418
#
# Compressibility (1/GPa) = 0.01266123
#
# Stress axis : x y z
#
# Youngs Moduli (GPa) = 107.84004 85.19976 95.03431
#
# Poissons Ratio (x) = 0.20222 0.28047
# Poissons Ratio (y) = 0.25596 0.39068
# Poissons Ratio (z) = 0.31826 0.35025
#
# Static dielectric constant tensor:
#      x y z
#    x 1.776190 0.000000 0.024460 
#    y 0.000000 1.690630 0.000000 
#    z 0.024460 0.000000 1.743620 
# 
# From -- ./inp_files/59456.got.cif
#   From: 2010.05.17/outbox.ucp.g08.bks.cvg/sg10_30_cif.got.tgz:59456.got - 2010.06.11 11:31:16.
