data_PCOD9155622
_publ_section_title
;
Structure prediction by ZEFSAII (Michael W. Deem and Ramdas Pophale) SiO2 
 PCOD9155622
Probable space group: P 2/M
;
_chemical_formula_sum "Si O2"
_cell_formula_units_Z 28
_cell_length_a 15.000000
_cell_length_b 9.000000
_cell_length_c 12.000000
_cell_angle_alpha 90.000000
_cell_angle_beta 60.000000
_cell_angle_gamma 90.000000
_cell_volume 1402.961154
_symmetry_space_group_name_H-M "P 2/M"
_symmetry_group_IT_number 10
_symmetry_cell_setting 'monoclinic'
loop_
_space_group_symop_operation_xyz
x,y,z
-x,y,-z
-x,-y,-z
x,-y,z
loop_
_atom_site_type_symbol
_atom_site_label
_atom_site_fract_x
_atom_site_fract_y
_atom_site_fract_z
Si Si1 0.949642 0.179792 0.402770
Si Si2 0.746624 0.825702 0.146927
Si Si3 0.384906 0.664861 0.616080
Si Si4 0.359654 0.680060 0.989875
Si Si5 0.726823 0.673213 0.548272
Si Si6 0.584572 0.820578 0.815835
Si Si7 0.063893 0.321723 0.841095
O O1 0.836149 0.246952 0.488026
O O2 0.974520 0.249500 0.256921
O O3 0.000000 0.209603 0.500000
O O4 0.954347 0.000000 0.387108
O O5 0.642428 0.792380 0.280436
O O6 0.726829 0.740461 0.042175
O O7 0.832240 0.756968 0.177011
O O8 0.764779 0.000000 0.117197
O O9 0.500000 0.674519 0.500000
O O10 0.371226 0.500000 0.678185
O O11 0.312459 0.671702 0.553737
O O12 0.359209 0.500000 0.994989
O O13 0.472447 0.742365 0.883661
O O14 0.353043 0.753845 0.116752
O O15 0.731621 0.500000 0.582270
O O16 0.646280 0.767083 0.670148
O O17 0.574944 0.000000 0.830499
O O18 0.076924 0.500000 0.812285
O O19 0.000000 0.309063 0.000000
#
# Coordination Sequence:
#
# PCOD9155622 Si02
#       7
#     4   4   4   4   4   4   4
#     4  11  25  45  69  98 133 172 219 283 348 406
#     4  12  24  39  63  93 128 165 209 266 328 388
#     4  10  21  37  60  91 128 168 210 255 310 381
#     4  11  22  39  61  87 126 172 220 264 319 390
#     4  11  22  38  63  92 127 169 213 261 319 388
#     4  11  22  38  60  90 129 168 216 268 323 386
#     4  11  25  46  71  98 130 172 224 282 342 413
#
# _framework density 19.957787
#
# number of rings (size 3 to 8) (size 9 to 14) (size 15 to 20)
#    0.000    1.000    1.429    6.857    0.000    5.429 
#    0.000    2.857    0.000    0.000    0.000    0.000 
#    0.000    0.000    0.000    0.000    0.000    0.000 
#
# Total GULP energy -156032.246849 kJ/mol
# GULP energy per Si atom -5572.580245 kJ/mol
# Density = 1.991236 g / cm^3
# Si number density = 19.957787 Si / 1000 Ang^3
#
#
#
# Elastic Constant Matrix: (Units=GPa)
#
#
# Indices 1 2 3 4 5 6 
#
# 1 95.0460 34.1375 3.0512 0.0000 28.5629 0.0000
# 2 34.1375 169.5725 31.9282 0.0000 13.7987 0.0000
# 3 3.0512 31.9282 71.9740 0.0000 15.3783 0.0000
# 4 0.0000 0.0000 0.0000 -35.3930 0.0000 -145.2436
# 5 28.5629 13.7987 15.3783 0.0000 35.5670 0.0000
# 6 0.0000 0.0000 0.0000 -145.2436 0.0000 -298.6863
#
#
#
# Elastic Compliance Matrix: (Units=1/GPa)
#
#
# Indices 1 2 3 4 5 6 
#
# 1 0.015121 -0.002628 0.003197 0.000000 -0.012506 0.000000
# 2 -0.002628 0.006955 -0.003138 0.000000 0.000769 0.000000
# 3 0.003197 -0.003138 0.017010 0.000000 -0.008705 0.000000
# 4 0.000000 0.000000 0.000000 0.028381 0.000000 -0.013801
# 5 -0.012506 0.000769 -0.008705 0.000000 0.041624 0.000000
# 6 0.000000 0.000000 0.000000 -0.013801 0.000000 0.003363
#
#
# Mechanical properties :
#
#
# Convention : Reuss Voigt Hill
#
# Bulk Modulus (GPa) = 29.45787 52.75848 41.10817
# Shear Modulus (GPa) = 38.78732 -41.87076 -1.54172
#
# Velocity S-wave (km/s) = 4.41326 -4.58533 -0.87987
# Velocity P-wave (km/s) = 6.38446 1.24145 4.42832
#
# Compressibility (1/GPa) = 0.03394679
#
# Stress axis : x y z
#
# Youngs Moduli (GPa) = 66.13411 143.79071 58.78766
#
# Poissons Ratio (x) = 0.37793 -0.18794
# Poissons Ratio (y) = 0.17382 0.18448
# Poissons Ratio (z) = -0.21143 0.45123
#
# Static dielectric constant tensor:
#      x y z
#    x 1.738730 0.000000 -0.011610 
#    y 0.000000 1.686790 0.000000 
#    z -0.011610 0.000000 1.788830 
# 
# From -- ./inp_files/49572.got.cif
#   From: 2010.05.17/outbox.ucp.g08.bks.cvg/sg10_25_cif.got.tgz:49572.got - 2010.06.11 11:31:16.
