data_PCOD9155177
_publ_section_title
;
Structure prediction by ZEFSAII (Michael W. Deem and Ramdas Pophale) SiO2 
 PCOD9155177
Probable space group: P 2/M
;
_chemical_formula_sum "Si O2"
_cell_formula_units_Z 32
_cell_length_a 12.000000
_cell_length_b 9.000000
_cell_length_c 30.000000
_cell_angle_alpha 90.000000
_cell_angle_beta 30.000000
_cell_angle_gamma 90.000000
_cell_volume 1620.000000
_symmetry_space_group_name_H-M "P 2/M"
_symmetry_group_IT_number 10
_symmetry_cell_setting 'monoclinic'
loop_
_space_group_symop_operation_xyz
x,y,z
-x,y,-z
-x,-y,-z
x,-y,z
loop_
_atom_site_type_symbol
_atom_site_label
_atom_site_fract_x
_atom_site_fract_y
_atom_site_fract_z
Si Si1 0.135733 0.318953 0.564712
Si Si2 0.021914 0.681110 0.791243
Si Si3 0.909593 0.320295 0.730227
Si Si4 0.173891 0.323325 0.048930
Si Si5 0.442757 0.175385 0.881457
Si Si6 0.719665 0.678530 0.649459
Si Si7 0.529613 0.681554 0.623022
Si Si8 0.738028 0.326040 0.139030
O O1 0.132273 0.500000 0.565683
O O2 0.358815 0.273412 0.462077
O O3 0.095707 0.275411 0.629589
O O4 0.928928 0.266758 0.605467
O O5 0.022873 0.500000 0.790713
O O6 0.274172 0.729250 0.714648
O O7 0.953982 0.729644 0.765350
O O8 0.864357 0.723619 0.886868
O O9 0.896032 0.500000 0.735237
O O10 0.677665 0.256346 0.792892
O O11 0.227531 0.500000 0.029082
O O12 0.943382 0.303043 0.101267
O O13 0.354849 0.231405 0.959449
O O14 0.273971 0.230398 0.901506
O O15 0.466807 0.000000 0.871558
O O16 0.750288 0.500000 0.635700
O O17 0.678867 0.732222 0.613215
O O18 0.489748 0.703600 0.755280
O O19 0.527801 0.500000 0.625328
O O20 0.741003 0.500000 0.124779
#
# Coordination Sequence:
#
# PCOD9155177 Si02
#       8
#     4   4   4   4   4   4   4   4
#     4   9  16  25  45  77 113 146 172 208 261 313
#     4   9  18  32  52  78 109 142 179 222 263 307
#     4  10  20  36  55  77 107 144 184 222 261 311
#     4  10  20  36  58  82 107 140 176 216 266 321
#     4  12  25  38  54  78 107 139 176 225 274 319
#     4   9  14  24  45  75 111 143 170 206 257 314
#     4   9  15  25  44  79 117 141 168 214 266 311
#     4  10  18  33  58  82 108 140 174 212 262 325
#
# _framework density 19.753086
#
# number of rings (size 3 to 8) (size 9 to 14) (size 15 to 20)
#    0.000    2.250    2.500    1.875    0.000    4.500 
#    0.000    5.625    0.000    0.000    0.000    4.375 
#    0.000    0.000    0.000    0.000    0.000    0.000 
#
# Total GULP energy -178527.099208 kJ/mol
# GULP energy per Si atom -5578.971850 kJ/mol
# Density = 1.970813 g / cm^3
# Si number density = 19.753086 Si / 1000 Ang^3
#
#
#
# Elastic Constant Matrix: (Units=GPa)
#
#
# Indices 1 2 3 4 5 6 
#
# 1 75.0279 11.1989 12.7339 0.0000 38.3298 0.0000
# 2 11.1989 3.8539 13.5246 0.0000 11.6261 0.0000
# 3 12.7339 13.5246 54.6517 0.0000 32.0778 0.0000
# 4 0.0000 0.0000 0.0000 -6.0939 0.0000 -3.8222
# 5 38.3298 11.6261 32.0778 0.0000 33.9816 0.0000
# 6 0.0000 0.0000 0.0000 -3.8222 0.0000 -3.9814
#
#
#
# Elastic Compliance Matrix: (Units=1/GPa)
#
#
# Indices 1 2 3 4 5 6 
#
# 1 0.100252 0.138229 0.081995 0.000000 -0.237773 0.000000
# 2 0.138229 -2.370220 0.380980 0.000000 0.295370 0.000000
# 3 0.081995 0.380980 0.080064 0.000000 -0.298410 0.000000
# 4 0.000000 0.000000 0.000000 -0.412459 0.000000 0.395970
# 5 -0.237773 0.295370 -0.298410 0.000000 0.478263 0.000000
# 6 0.000000 0.000000 0.000000 0.395970 0.000000 -0.631309
#
#
# Mechanical properties :
#
#
# Convention : Reuss Voigt Hill
#
# Bulk Modulus (GPa) = -1.01266 23.16091 11.07413
# Shear Modulus (GPa) = -1.16632 11.18634 5.01001
#
# Velocity S-wave (km/s) = -0.76924 2.38231 1.59431
# Velocity P-wave (km/s) = 1.14138 4.39521 3.00126
#
# Compressibility (1/GPa) = -0.98749631
#
# Stress axis : x y z
#
# Youngs Moduli (GPa) = 9.97488 -0.42190 12.49003
#
# Poissons Ratio (x) = 0.05832 -1.02412
# Poissons Ratio (y) = -1.37881 -4.75846
# Poissons Ratio (z) = -0.81789 0.16074
#
# Static dielectric constant tensor:
#      x y z
#    x 1.703320 0.000000 0.017860 
#    y 0.000000 1.656430 0.000000 
#    z 0.017860 0.000000 1.730640 
# 
# From -- ./inp_files/63773.got.cif
#   From: 2010.05.17/outbox.ucp.g08.bks.cvg/sg10_32_cif.got.tgz:63773.got - 2010.06.11 11:31:16.
