data_PCOD9155585
_publ_section_title
;
Structure prediction by ZEFSAII (Michael W. Deem and Ramdas Pophale) SiO2 
 PCOD9155585
Probable space group: P 2/M
;
_chemical_formula_sum "Si O2"
_cell_formula_units_Z 26
_cell_length_a 30.000000
_cell_length_b 9.000000
_cell_length_c 30.000000
_cell_angle_alpha 90.000000
_cell_angle_beta 10.000000
_cell_angle_gamma 90.000000
_cell_volume 1406.550239
_symmetry_space_group_name_H-M "P 2/M"
_symmetry_group_IT_number 10
_symmetry_cell_setting 'monoclinic'
loop_
_space_group_symop_operation_xyz
x,y,z
-x,y,-z
-x,-y,-z
x,-y,z
loop_
_atom_site_type_symbol
_atom_site_label
_atom_site_fract_x
_atom_site_fract_y
_atom_site_fract_z
Si Si1 0.627214 0.177956 0.127542
Si Si2 0.949841 0.320585 0.450953
Si Si3 0.901229 0.819511 0.400850
Si Si4 0.675558 0.328387 0.175371
Si Si5 0.234432 0.000000 0.734431
Si Si6 0.206324 0.318202 0.706125
Si Si7 0.472516 0.822743 0.973691
O O1 0.362166 0.222215 0.364729
O O2 0.652684 0.235874 0.152693
O O3 0.628356 0.000000 0.128521
O O4 0.864159 0.222270 0.862683
O O5 0.950433 0.500000 0.451630
O O6 0.924868 0.260785 0.424967
O O7 0.211846 0.254198 0.213515
O O8 0.711935 0.254169 0.713291
O O9 0.904556 0.000000 0.404139
O O10 0.668536 0.500000 0.168492
O O11 0.442304 0.303933 0.439408
O O12 0.939716 0.303956 0.941963
O O13 0.500000 0.000000 0.500000
O O14 0.221549 0.164534 0.721529
O O15 0.000000 0.000000 0.000000
O O16 0.214527 0.500000 0.714380
O O17 0.467253 0.000000 0.968719
O O18 0.500000 0.806734 0.000000
#
# Coordination Sequence:
#
# PCOD9155585 Si02
#       7
#     4   4   4   4   2   4   4
#     4  10  21  34  57  87 116 156 204 252 292 345
#     4  12  25  40  63  92 123 161 200 254 317 364
#     4  10  21  38  55  82 120 161 204 240 294 365
#     4  10  21  38  60  88 122 161 199 245 307 356
#     4  12  26  42  66  96 122 164 210 252 312 366
#     4  10  23  41  62  91 125 162 204 253 308 367
#     4  11  24  43  66  90 117 157 204 250 309 379
#
# _framework density 18.484942
#
# number of rings (size 3 to 8) (size 9 to 14) (size 15 to 20)
#    0.000    1.385    0.000    5.077    2.154    6.154 
#    0.000    0.000    0.000    0.000    0.000    0.000 
#    0.000    0.000    0.000    0.000    0.000    0.000 
#
# Total GULP energy -145108.896430 kJ/mol
# GULP energy per Si atom -5581.111401 kJ/mol
# Density = 1.844287 g / cm^3
# Si number density = 18.484942 Si / 1000 Ang^3
#
#
#
# Elastic Constant Matrix: (Units=GPa)
#
#
# Indices 1 2 3 4 5 6 
#
# 1 127.8496 81.1487 82.2614 0.0000 -1.5915 0.0000
# 2 81.1487 136.1418 68.5862 0.0000 1.0950 0.0000
# 3 82.2614 68.5862 203.3974 0.0000 -5.0930 0.0000
# 4 0.0000 0.0000 0.0000 24.0469 0.0000 0.5798
# 5 -1.5915 1.0950 -5.0930 0.0000 32.0344 0.0000
# 6 0.0000 0.0000 0.0000 0.5798 0.0000 31.1786
#
#
#
# Elastic Compliance Matrix: (Units=1/GPa)
#
#
# Indices 1 2 3 4 5 6 
#
# 1 0.014427 -0.006828 -0.003523 0.000000 0.000390 0.000000
# 2 -0.006828 0.012099 -0.001343 0.000000 -0.000966 0.000000
# 3 -0.003523 -0.001343 0.006818 0.000000 0.000955 0.000000
# 4 0.000000 0.000000 0.000000 0.041604 0.000000 -0.000774
# 5 0.000390 -0.000966 0.000955 0.000000 0.031421 0.000000
# 6 0.000000 0.000000 0.000000 -0.000774 0.000000 0.032088
#
#
# Mechanical properties :
#
#
# Convention : Reuss Voigt Hill
#
# Bulk Modulus (GPa) = 100.42447 103.48682 101.95565
# Shear Modulus (GPa) = 30.27339 33.14481 31.70910
#
# Velocity S-wave (km/s) = 4.05128 4.23906 4.14623
# Velocity P-wave (km/s) = 8.73668 8.94793 8.84293
#
# Compressibility (1/GPa) = 0.00995773
#
# Stress axis : x y z
#
# Youngs Moduli (GPa) = 69.31565 82.65002 146.67412
#
# Poissons Ratio (x) = 0.56431 0.51668
# Poissons Ratio (y) = 0.47327 0.19694
# Poissons Ratio (z) = 0.24417 0.11098
#
# Static dielectric constant tensor:
#      x y z
#    x 1.606640 0.000000 -0.004310 
#    y 0.000000 1.657600 0.000000 
#    z -0.004310 0.000000 1.655650 
# 
# From -- ./inp_files/95947.got.cif
#   From: 2010.05.17/outbox.ucp.g08.bks.cvg/sg10_48_cif.got.tgz:95947.got - 2010.06.11 11:31:16.
