data_PCOD9155523
_publ_section_title
;
Structure prediction by ZEFSAII (Michael W. Deem and Ramdas Pophale) SiO2 
 PCOD9155523
Probable space group: P 2/M
;
_chemical_formula_sum "Si O2"
_cell_formula_units_Z 32
_cell_length_a 15.000000
_cell_length_b 9.000000
_cell_length_c 24.000000
_cell_angle_alpha 90.000000
_cell_angle_beta 30.000000
_cell_angle_gamma 90.000000
_cell_volume 1620.000000
_symmetry_space_group_name_H-M "P 2/M"
_symmetry_group_IT_number 10
_symmetry_cell_setting 'monoclinic'
loop_
_space_group_symop_operation_xyz
x,y,z
-x,y,-z
-x,-y,-z
x,-y,z
loop_
_atom_site_type_symbol
_atom_site_label
_atom_site_fract_x
_atom_site_fract_y
_atom_site_fract_z
Si Si1 0.026762 0.171229 0.730899
Si Si2 0.503702 0.675597 0.657950
Si Si3 0.126664 0.828954 0.545771
Si Si4 0.740307 0.820841 0.725727
Si Si5 0.035721 0.176370 0.046146
Si Si6 0.430533 0.823105 0.811272
Si Si7 0.304998 0.670167 0.131236
Si Si8 0.778563 0.322661 0.275004
O O1 0.082002 0.175449 0.635903
O O2 0.165804 0.246922 0.697366
O O3 0.837371 0.254139 0.832765
O O4 0.004957 0.000000 0.759086
O O5 0.483389 0.500000 0.672817
O O6 0.707196 0.723907 0.552117
O O7 0.413941 0.750316 0.759934
O O8 0.410440 0.722602 0.650452
O O9 0.950392 0.786059 0.606594
O O10 0.173258 0.000000 0.506156
O O11 0.603835 0.770951 0.751809
O O12 0.689009 0.754109 0.813165
O O13 0.729131 0.000000 0.735151
O O14 0.245381 0.203062 0.943375
O O15 0.997702 0.000000 0.074576
O O16 0.000000 0.208774 0.000000
O O17 0.919242 0.271372 0.151650
O O18 0.446713 0.000000 0.794580
O O19 0.248438 0.500000 0.171410
O O20 0.500000 0.672776 0.000000
O O21 0.781855 0.500000 0.280344
#
# Coordination Sequence:
#
# PCOD9155523 Si02
#       8
#     4   4   4   4   4   4   4   4
#     4  10  22  40  62  86 113 150 196 241 287 341
#     4  11  24  39  58  85 116 154 194 236 294 352
#     4   9  20  40  62  83 111 148 192 244 293 339
#     4   9  20  38  59  85 114 151 195 238 289 339
#     4  10  20  36  59  86 115 152 196 239 285 339
#     4  10  21  38  60  86 117 152 194 241 285 339
#     4  10  21  36  55  84 119 154 190 232 287 344
#     4  11  24  39  57  85 121 156 190 236 293 352
#
# _framework density 19.753086
#
# number of rings (size 3 to 8) (size 9 to 14) (size 15 to 20)
#    0.000    2.000    1.250    2.250    1.750    7.250 
#    0.000    5.000    0.000    0.000    0.000    0.000 
#    0.000    0.000    0.000    0.000    0.000    0.000 
#
# Total GULP energy -178628.278323 kJ/mol
# GULP energy per Si atom -5582.133698 kJ/mol
# Density = 1.970813 g / cm^3
# Si number density = 19.753086 Si / 1000 Ang^3
#
#
#
# Elastic Constant Matrix: (Units=GPa)
#
#
# Indices 1 2 3 4 5 6 
#
# 1 97.6691 20.6918 1.6903 0.0000 -28.9948 0.0000
# 2 20.6918 27.0596 14.0121 0.0000 -15.1679 0.0000
# 3 1.6903 14.0121 33.8766 0.0000 -19.4262 0.0000
# 4 0.0000 0.0000 0.0000 6.9292 0.0000 -15.9513
# 5 -28.9948 -15.1679 -19.4262 0.0000 25.0661 0.0000
# 6 0.0000 0.0000 0.0000 -15.9513 0.0000 23.2267
#
#
#
# Elastic Compliance Matrix: (Units=1/GPa)
#
#
# Indices 1 2 3 4 5 6 
#
# 1 0.025393 -0.008130 0.029012 0.000000 0.046937 0.000000
# 2 -0.008130 0.059387 -0.016099 0.000000 0.014055 0.000000
# 3 0.029012 -0.016099 0.087094 0.000000 0.091315 0.000000
# 4 0.000000 0.000000 0.000000 -0.248415 0.000000 -0.170602
# 5 0.046937 0.014055 0.091315 0.000000 0.173462 0.000000
# 6 0.000000 0.000000 0.000000 -0.170602 0.000000 -0.074110
#
#
# Mechanical properties :
#
#
# Convention : Reuss Voigt Hill
#
# Bulk Modulus (GPa) = 5.51149 25.71040 15.61095
# Shear Modulus (GPa) = 67.81898 19.19181 43.50540
#
# Velocity S-wave (km/s) = 5.86582 3.12041 4.69813
# Velocity P-wave (km/s) = 6.97664 5.10164 6.11147
#
# Compressibility (1/GPa) = 0.18143916
#
# Stress axis : x y z
#
# Youngs Moduli (GPa) = 39.38055 16.83873 11.48189
#
# Poissons Ratio (x) = 0.13691 -0.33311
# Poissons Ratio (y) = 0.32018 0.18484
# Poissons Ratio (z) = -1.14250 0.27108
#
# Static dielectric constant tensor:
#      x y z
#    x 1.683650 0.000000 -0.025470 
#    y 0.000000 1.673490 0.000000 
#    z -0.025470 0.000000 1.723690 
# 
# From -- ./inp_files/66498.got.cif
#   From: 2010.05.17/outbox.ucp.g08.bks.cvg/sg10_34_cif.got.tgz:66498.got - 2010.06.11 11:31:16.
