data_PCOD9155169
_publ_section_title
;
Structure prediction by ZEFSAII (Michael W. Deem and Ramdas Pophale) SiO2 
 PCOD9155169
Probable space group: P 2/M
;
_chemical_formula_sum "Si O2"
_cell_formula_units_Z 28
_cell_length_a 24.000000
_cell_length_b 9.000000
_cell_length_c 21.000000
_cell_angle_alpha 90.000000
_cell_angle_beta 160.000000
_cell_angle_gamma 90.000000
_cell_volume 1551.403370
_symmetry_space_group_name_H-M "P 2/M"
_symmetry_group_IT_number 10
_symmetry_cell_setting 'monoclinic'
loop_
_space_group_symop_operation_xyz
x,y,z
-x,y,-z
-x,-y,-z
x,-y,z
loop_
_atom_site_type_symbol
_atom_site_label
_atom_site_fract_x
_atom_site_fract_y
_atom_site_fract_z
Si Si1 0.393386 0.319460 0.547575
Si Si2 0.254517 0.819169 0.100404
Si Si3 0.335205 0.179601 0.622636
Si Si4 0.041400 0.821087 0.750423
Si Si5 0.093948 0.823787 0.663356
Si Si6 0.523126 0.824535 0.952833
Si Si7 0.046965 0.820896 0.124851
O O1 0.393235 0.500000 0.544335
O O2 0.564117 0.255054 0.700073
O O3 0.394594 0.261231 0.622438
O O4 0.219970 0.256861 0.331442
O O5 0.274677 0.000000 0.123141
O O6 0.173296 0.773151 0.945027
O O7 0.111633 0.784241 0.000007
O O8 0.421727 0.229060 0.781987
O O9 0.141690 0.206026 0.421836
O O10 0.362008 0.000000 0.644419
O O11 0.057646 0.763006 0.695281
O O12 0.061574 0.000000 0.768421
O O13 0.000000 0.762782 0.500000
O O14 0.049944 0.000000 0.618755
O O15 0.286371 0.812518 0.858389
O O16 0.478144 0.000000 0.908927
O O17 0.500000 0.762468 0.000000
O O18 0.071619 0.000000 0.157842
O O19 0.000000 0.790062 0.000000
#
# Coordination Sequence:
#
# PCOD9155169 Si02
#       7
#     4   4   4   4   4   4   4
#     4  12  25  39  59  89 126 163 201 243 296 358
#     4  10  20  38  63  89 118 153 200 247 294 353
#     4  10  18  33  56  80 111 150 201 253 300 354
#     4   9  16  28  50  77 104 143 189 241 294 341
#     4   9  15  22  34  62 105 143 178 226 292 356
#     4   9  16  25  42  72 107 144 187 246 309 355
#     4  10  22  43  70  96 121 153 197 248 299 354
#
# _framework density 18.048175000000001
#
# number of rings (size 3 to 8) (size 9 to 14) (size 15 to 20)
#    0.000    2.143    1.429    3.000    0.000    7.143 
#    0.000    2.857    0.000    0.429    0.000    0.000 
#    0.000    5.143    0.000    0.000    0.000    0.000 
#
# Total GULP energy -156036.062962 kJ/mol
# GULP energy per Si atom -5572.716534 kJ/mol
# Density = 1.800710 g / cm^3
# Si number density = 18.048175 Si / 1000 Ang^3
#
#
#
# Elastic Constant Matrix: (Units=GPa)
#
#
# Indices 1 2 3 4 5 6 
#
# 1 144.1156 30.5242 61.8874 0.0000 -4.1917 0.0000
# 2 30.5242 50.1235 38.8182 0.0000 3.1562 0.0000
# 3 61.8874 38.8182 137.6162 0.0000 -14.3754 0.0000
# 4 0.0000 0.0000 0.0000 17.9942 0.0000 1.6268
# 5 -4.1917 3.1562 -14.3754 0.0000 29.4549 0.0000
# 6 0.0000 0.0000 0.0000 1.6268 0.0000 12.5524
#
#
#
# Elastic Compliance Matrix: (Units=1/GPa)
#
#
# Indices 1 2 3 4 5 6 
#
# 1 0.008935 -0.002988 -0.003170 0.000000 0.000044 0.000000
# 2 -0.002988 0.027800 -0.007221 0.000000 -0.006929 0.000000
# 3 -0.003170 -0.007221 0.011341 0.000000 0.005858 0.000000
# 4 0.000000 0.000000 0.000000 0.056232 0.000000 -0.007288
# 5 0.000044 -0.006929 0.005858 0.000000 0.037558 0.000000
# 6 0.000000 0.000000 0.000000 -0.007288 0.000000 0.080611
#
#
# Mechanical properties :
#
#
# Convention : Reuss Voigt Hill
#
# Bulk Modulus (GPa) = 46.91556 66.03496 56.47526
# Shear Modulus (GPa) = 19.50524 25.37532 22.44028
#
# Velocity S-wave (km/s) = 3.29101 3.75370 3.52995
# Velocity P-wave (km/s) = 6.36334 7.44679 6.92628
#
# Compressibility (1/GPa) = 0.02131489
#
# Stress axis : x y z
#
# Youngs Moduli (GPa) = 111.92471 35.97181 88.17416
#
# Poissons Ratio (x) = 0.10750 0.27954
# Poissons Ratio (y) = 0.33449 0.63674
# Poissons Ratio (z) = 0.35484 0.25977
#
# Static dielectric constant tensor:
#      x y z
#    x 1.655540 0.000000 -0.011000 
#    y 0.000000 1.608620 0.000000 
#    z -0.011000 0.000000 1.623430 
# 
# From -- ./inp_files/86548.got.cif
#   From: 2010.05.17/outbox.ucp.g08.bks.cvg/sg10_44_cif.got.tgz:86548.got - 2010.06.11 11:31:16.
