data_PCOD9155396
_publ_section_title
;
Structure prediction by ZEFSAII (Michael W. Deem and Ramdas Pophale) SiO2 
 PCOD9155396
Probable space group: P 2/M
;
_chemical_formula_sum "Si O2"
_cell_formula_units_Z 32
_cell_length_a 24.000000
_cell_length_b 9.000000
_cell_length_c 24.000000
_cell_angle_alpha 90.000000
_cell_angle_beta 20.000000
_cell_angle_gamma 90.000000
_cell_volume 1773.032423
_symmetry_space_group_name_H-M "P 2/M"
_symmetry_group_IT_number 10
_symmetry_cell_setting 'monoclinic'
loop_
_space_group_symop_operation_xyz
x,y,z
-x,y,-z
-x,-y,-z
x,-y,z
loop_
_atom_site_type_symbol
_atom_site_label
_atom_site_fract_x
_atom_site_fract_y
_atom_site_fract_z
Si Si1 0.689824 0.176357 0.311000
Si Si2 0.810643 0.321731 0.695277
Si Si3 0.731978 0.176156 0.138452
Si Si4 0.095117 0.319783 0.795857
Si Si5 0.781243 0.179879 0.845274
Si Si6 0.601912 0.820127 0.792016
Si Si7 0.853002 0.179122 0.456368
Si Si8 0.349324 0.819348 0.467163
O O1 0.500000 0.221117 0.500000
O O2 0.716934 0.192772 0.219452
O O3 0.825604 0.262732 0.219864
O O4 0.702501 0.000000 0.313249
O O5 0.787781 0.500000 0.719496
O O6 0.792362 0.247498 0.772978
O O7 0.678728 0.253513 0.775715
O O8 0.000000 0.293609 0.500000
O O9 0.547200 0.219163 0.287429
O O10 0.751448 0.000000 0.106651
O O11 0.908833 0.256615 0.959074
O O12 0.089384 0.500000 0.799768
O O13 0.232238 0.256509 0.623638
O O14 0.953598 0.226513 0.715699
O O15 0.786752 0.000000 0.838910
O O16 0.589977 0.217678 0.042073
O O17 0.733415 0.778597 0.620194
O O18 0.606064 0.000000 0.794404
O O19 0.747498 0.219014 0.499768
O O20 0.861450 0.000000 0.447673
O O21 0.344826 0.000000 0.478059
#
# Coordination Sequence:
#
# PCOD9155396 Si02
#       8
#     4   4   4   4   4   4   4   4
#     4  10  19  37  63  90 117 151 195 240 290 345
#     4  11  22  35  54  81 112 151 190 224 271 334
#     4  10  21  38  63  89 116 152 196 243 287 341
#     4  12  25  38  57  88 125 159 190 234 293 352
#     4  10  20  35  58  87 114 143 178 227 287 342
#     4  10  20  35  57  85 113 143 181 228 287 340
#     4   9  19  36  60  86 111 140 185 242 286 326
#     4  10  21  41  65  87 111 151 202 247 288 336
#
# _framework density 18.048175000000001
#
# number of rings (size 3 to 8) (size 9 to 14) (size 15 to 20)
#    0.000    1.750    2.500    2.250    0.000    6.250 
#    0.000    5.000    0.000    1.500    0.000    0.000 
#    0.000    0.000    0.000    0.000    0.000    0.000 
#
# Total GULP energy -178173.674158 kJ/mol
# GULP energy per Si atom -5567.927317 kJ/mol
# Density = 1.800710 g / cm^3
# Si number density = 18.048175 Si / 1000 Ang^3
#
#
#
# Elastic Constant Matrix: (Units=GPa)
#
#
# Indices 1 2 3 4 5 6 
#
# 1 124.3344 21.8937 44.5603 0.0000 -35.6826 0.0000
# 2 21.8937 53.6445 35.1928 0.0000 -11.6322 0.0000
# 3 44.5603 35.1928 152.8693 0.0000 -43.3594 0.0000
# 4 0.0000 0.0000 0.0000 27.9264 0.0000 -5.0886
# 5 -35.6826 -11.6322 -43.3594 0.0000 43.1121 0.0000
# 6 0.0000 0.0000 0.0000 -5.0886 0.0000 14.5730
#
#
#
# Elastic Compliance Matrix: (Units=1/GPa)
#
#
# Indices 1 2 3 4 5 6 
#
# 1 0.010901 -0.002495 -0.000329 0.000000 0.008019 0.000000
# 2 -0.002495 0.022571 -0.004655 0.000000 -0.000657 0.000000
# 3 -0.000329 -0.004655 0.010180 0.000000 0.008710 0.000000
# 4 0.000000 0.000000 0.000000 0.038241 0.000000 0.013353
# 5 0.008019 -0.000657 0.008710 0.000000 0.038415 0.000000
# 6 0.000000 0.000000 0.000000 0.013353 0.000000 0.073283
#
#
# Mechanical properties :
#
#
# Convention : Reuss Voigt Hill
#
# Bulk Modulus (GPa) = 34.85028 59.34909 47.09969
# Shear Modulus (GPa) = 22.92391 32.40240 27.66316
#
# Velocity S-wave (km/s) = 3.56778 4.24173 3.91927
# Velocity P-wave (km/s) = 6.02691 7.54618 6.82892
#
# Compressibility (1/GPa) = 0.02869418
#
# Stress axis : x y z
#
# Youngs Moduli (GPa) = 91.73251 44.30467 98.23665
#
# Poissons Ratio (x) = 0.11052 0.03232
# Poissons Ratio (y) = 0.22883 0.45732
# Poissons Ratio (z) = 0.03018 0.20625
#
# Static dielectric constant tensor:
#      x y z
#    x 1.644370 0.000000 0.006220 
#    y 0.000000 1.605390 0.000000 
#    z 0.006220 0.000000 1.661230 
# 
# From -- ./inp_files/90563.got.cif
#   From: 2010.05.17/outbox.ucp.g08.bks.cvg/sg10_46_cif.got.tgz:90563.got - 2010.06.11 11:31:16.
