data_PCOD9155906
_publ_section_title
;
Structure prediction by ZEFSAII (Michael W. Deem and Ramdas Pophale) SiO2 
 PCOD9155906
Probable space group: P 21/M
;
_chemical_formula_sum "Si O2"
_cell_formula_units_Z 28
_cell_length_a 13.944667
_cell_length_b 8.190484
_cell_length_c 15.097528
_cell_angle_alpha 90.000000
_cell_angle_beta 76.731879
_cell_angle_gamma 90.000000
_cell_volume 1678.314241
_symmetry_space_group_name_H-M "P 21/M"
_symmetry_group_IT_number 11
_symmetry_cell_setting 'monoclinic'
loop_
_space_group_symop_operation_xyz
x,y,z
-x,1/2+y,-z
-x,-y,-z
x,1/2-y,z
loop_
_atom_site_type_symbol
_atom_site_label
_atom_site_fract_x
_atom_site_fract_y
_atom_site_fract_z
Si Si1 0.733853 0.942963 0.206071
Si Si2 0.418609 0.559116 0.904059
Si Si3 0.261937 0.058931 0.069039
Si Si4 0.109489 0.940393 0.957444
Si Si5 0.632991 0.946628 0.399292
Si Si6 0.369672 0.449861 0.212803
Si Si7 0.586998 0.552653 0.601442
O O1 0.711431 0.750000 0.203316
O O2 0.717198 0.993286 0.311343
O O3 0.654306 0.038791 0.163941
O O4 0.837996 0.972856 0.137020
O O5 0.424268 0.750000 0.927189
O O6 0.525386 0.499721 0.851167
O O7 0.364669 0.462793 0.993762
O O8 0.236782 0.250000 0.076374
O O9 0.283882 0.998485 0.163610
O O10 0.179406 0.971827 0.027840
O O11 0.108414 0.750000 0.938464
O O12 0.000000 0.000000 0.000000
O O13 0.631440 0.750000 0.403605
O O14 0.638252 0.006147 0.499633
O O15 0.527450 0.002532 0.383045
O O16 0.369534 0.250000 0.212515
O O17 0.367982 0.504852 0.315029
O O18 0.590197 0.750000 0.602078
#
# Coordination Sequence:
#
# PCOD9155906 Si02
#       7
#     4   4   4   4   4   4   4
#     4  10  18  29  45  69  96 123 154 191 230 272
#     4  10  17  27  41  62  89 125 162 191 221 262
#     4  10  19  31  45  65  91 121 153 189 227 272
#     4  11  22  37  54  72  90 114 145 186 236 282
#     4   9  17  27  42  65  92 124 161 196 229 259
#     4   9  17  27  42  63  91 127 162 189 222 263
#     4   9  16  28  43  61  91 129 164 195 223 260
#
# _framework density 16.683408
#
# number of rings (size 3 to 8) (size 9 to 14) (size 15 to 20)
#    0.000    2.286    1.429    4.714    0.000    0.571 
#    0.000    3.571    0.000    0.000    0.000    1.000 
#    0.000    0.000    0.000    0.000    0.000    0.000 
#
# Total GULP energy -156065.941917 kJ/mol
# GULP energy per Si atom -5573.783640 kJ/mol
# Density = 1.664544 g / cm^3
# Si number density = 16.683408 Si / 1000 Ang^3
#
#
#
# Elastic Constant Matrix: (Units=GPa)
#
#
# Indices 1 2 3 4 5 6 
#
# 1 57.3021 1.4948 54.1413 0.0000 -7.2387 0.0000
# 2 1.4948 16.8983 -2.0741 0.0000 1.6062 0.0000
# 3 54.1413 -2.0741 138.7744 0.0000 8.1215 0.0000
# 4 0.0000 0.0000 0.0000 14.9429 0.0000 -0.7397
# 5 -7.2387 1.6062 8.1215 0.0000 18.5286 0.0000
# 6 0.0000 0.0000 0.0000 -0.7397 0.0000 18.0401
#
#
#
# Elastic Compliance Matrix: (Units=1/GPa)
#
#
# Indices 1 2 3 4 5 6 
#
# 1 0.033866 -0.006691 -0.014492 0.000000 0.020163 0.000000
# 2 -0.006691 0.061195 0.004093 0.000000 -0.009713 0.000000
# 3 -0.014492 0.004093 0.013623 0.000000 -0.011988 0.000000
# 4 0.000000 0.000000 0.000000 0.067057 0.000000 0.002750
# 5 0.020163 -0.009713 -0.011988 0.000000 0.067944 0.000000
# 6 0.000000 0.000000 0.000000 0.002750 0.000000 0.055545
#
#
# Mechanical properties :
#
#
# Convention : Reuss Voigt Hill
#
# Bulk Modulus (GPa) = 13.42209 35.56654 24.49431
# Shear Modulus (GPa) = 13.95691 20.92984 17.44337
#
# Velocity S-wave (km/s) = 2.89550 3.54578 3.23701
# Velocity P-wave (km/s) = 4.38648 6.17480 5.35581
#
# Compressibility (1/GPa) = 0.07450406
#
# Stress axis : x y z
#
# Youngs Moduli (GPa) = 29.52808 16.34114 73.40652
#
# Poissons Ratio (x) = 0.10934 1.06384
# Poissons Ratio (y) = 0.19757 -0.30049
# Poissons Ratio (z) = 0.42794 -0.06689
#
# Static dielectric constant tensor:
#      x y z
#    x 1.538820 0.000000 0.002810 
#    y 0.000000 1.564530 0.000000 
#    z 0.002810 0.000000 1.630050 
# 
# From -- ./inp_files/50963.got.cif
#   From: 2010.05.17/outbox.cif.g08.bks.cpg/sg11_26_cif.got.tgz:50963.got - 2010.06.03 12:22:45.
