data_PCOD9155297
_publ_section_title
;
Structure prediction by ZEFSAII (Michael W. Deem and Ramdas Pophale) SiO2 
 PCOD9155297
Probable space group: P 2/M
;
_chemical_formula_sum "Si O2"
_cell_formula_units_Z 30
_cell_length_a 9.000000
_cell_length_b 15.000000
_cell_length_c 24.000000
_cell_angle_alpha 90.000000
_cell_angle_beta 30.000000
_cell_angle_gamma 90.000000
_cell_volume 1620.000000
_symmetry_space_group_name_H-M "P 2/M"
_symmetry_group_IT_number 10
_symmetry_cell_setting 'monoclinic'
loop_
_space_group_symop_operation_xyz
x,y,z
-x,y,-z
-x,-y,-z
x,-y,z
loop_
_atom_site_type_symbol
_atom_site_label
_atom_site_fract_x
_atom_site_fract_y
_atom_site_fract_z
Si Si1 0.035648 0.097633 0.421901
Si Si2 0.069530 0.293281 0.543980
Si Si3 0.319818 0.604718 0.648131
Si Si4 0.734378 0.901198 0.199849
Si Si5 0.958327 0.263029 0.840361
Si Si6 0.000000 0.842607 0.000000
Si Si7 0.193263 0.396264 0.274821
Si Si8 0.561332 0.720062 0.074828
O O1 0.387145 0.110521 0.299590
O O2 0.000000 0.092697 0.500000
O O3 0.882701 0.189865 0.454210
O O4 0.055225 0.000000 0.571538
O O5 0.359308 0.351710 0.461317
O O6 0.000000 0.295978 0.500000
O O7 0.820371 0.336373 0.665130
O O8 0.341964 0.500000 0.653362
O O9 0.158735 0.660064 0.749102
O O10 0.116228 0.613707 0.659069
O O11 0.857330 0.823290 0.199604
O O12 0.774882 0.000000 0.211489
O O13 0.897903 0.895635 0.087463
O O14 0.717338 0.240131 0.870108
O O15 0.792242 0.298611 0.949765
O O16 0.272370 0.783420 0.935237
O O17 0.233313 0.500000 0.275500
O O18 0.436867 0.361630 0.151458
#
# Coordination Sequence:
#
# PCOD9155297 Si02
#       8
#     4   4   4   4   4   2   4   4
#     4   9  18  32  52  77 103 134 170 208 255 308
#     4  11  21  34  54  80 108 137 171 219 263 305
#     4  10  21  36  55  77 104 140 178 216 262 315
#     4  10  19  33  54  78 105 139 177 214 258 310
#     4   9  18  35  54  77 104 136 178 222 260 303
#     4  10  19  34  51  76 108 140 173 212 263 314
#     4  10  21  37  55  76 105 142 179 214 261 315
#     4   9  19  34  54  75 105 141 175 216 263 311
#
# _framework density 18.518519000000001
#
# number of rings (size 3 to 8) (size 9 to 14) (size 15 to 20)
#    0.000    2.267    0.000    3.400    0.000    3.733 
#    0.000    9.000    0.000    4.800    0.000    0.000 
#    0.000    0.000    0.000    0.000    0.000    0.000 
#
# Total GULP energy -167194.134127 kJ/mol
# GULP energy per Si atom -5573.137804 kJ/mol
# Density = 1.847637 g / cm^3
# Si number density = 18.518519 Si / 1000 Ang^3
#
#
#
# Elastic Constant Matrix: (Units=GPa)
#
#
# Indices 1 2 3 4 5 6 
#
# 1 47.3432 47.6920 10.2781 0.0000 10.5540 0.0000
# 2 47.6920 144.4582 38.8690 0.0000 11.1990 0.0000
# 3 10.2781 38.8690 59.5558 0.0000 4.4122 0.0000
# 4 0.0000 0.0000 0.0000 27.7338 0.0000 -7.4653
# 5 10.5540 11.1990 4.4122 0.0000 20.9758 0.0000
# 6 0.0000 0.0000 0.0000 -7.4653 0.0000 16.6625
#
#
#
# Elastic Compliance Matrix: (Units=1/GPa)
#
#
# Indices 1 2 3 4 5 6 
#
# 1 0.034397 -0.011008 0.002128 0.000000 -0.011877 0.000000
# 2 -0.011008 0.012163 -0.006062 0.000000 0.000320 0.000000
# 3 0.002128 -0.006062 0.020540 0.000000 -0.002155 0.000000
# 4 0.000000 0.000000 0.000000 0.041002 0.000000 0.018370
# 5 -0.011877 0.000320 -0.002155 0.000000 0.053932 0.000000
# 6 0.000000 0.000000 0.000000 0.018370 0.000000 0.068245
#
#
# Mechanical properties :
#
#
# Convention : Reuss Voigt Hill
#
# Bulk Modulus (GPa) = 26.87028 49.44839 38.15933
# Shear Modulus (GPa) = 18.34402 23.37562 20.85982
#
# Velocity S-wave (km/s) = 3.15076 3.55672 3.35987
# Velocity P-wave (km/s) = 5.27047 6.60508 5.97515
#
# Compressibility (1/GPa) = 0.03721584
#
# Stress axis : x y z
#
# Youngs Moduli (GPa) = 29.07231 82.21746 48.68602
#
# Poissons Ratio (x) = 0.90503 -0.10360
# Poissons Ratio (y) = 0.32002 0.29514
# Poissons Ratio (z) = -0.06186 0.49841
#
# Static dielectric constant tensor:
#      x y z
#    x 1.609940 0.000000 -0.030090 
#    y 0.000000 1.636890 0.000000 
#    z -0.030090 0.000000 1.522160 
# 
# From -- ./inp_files/88205.got.cif
#   From: 2010.05.17/outbox.ucp.g08.bks.cvg/sg10_45_cif.got.tgz:88205.got - 2010.06.11 11:31:16.
