data_PCOD9155086
_publ_section_title
;
Structure prediction by ZEFSAII (Michael W. Deem and Ramdas Pophale) SiO2 
 PCOD9155086
Probable space group: P 2/M
;
_chemical_formula_sum "Si O2"
_cell_formula_units_Z 16
_cell_length_a 20.906245
_cell_length_b 7.613931
_cell_length_c 7.315305
_cell_angle_alpha 90.000000
_cell_angle_beta 143.525945
_cell_angle_gamma 90.000000
_cell_volume 692.211980
_symmetry_space_group_name_H-M "P 2/M"
_symmetry_group_IT_number 10
_symmetry_cell_setting 'monoclinic'
loop_
_space_group_symop_operation_xyz
x,y,z
-x,y,-z
-x,-y,-z
x,-y,z
loop_
_atom_site_type_symbol
_atom_site_label
_atom_site_fract_x
_atom_site_fract_y
_atom_site_fract_z
Si Si1 0.965478 0.796317 0.131099
Si Si2 0.343813 0.500000 0.987768
Si Si3 0.267366 0.198718 0.316624
Si Si4 0.418448 0.500000 0.589519
Si Si5 0.195188 0.198877 0.733636
O O1 0.073296 0.729651 0.476993
O O2 0.952491 0.000000 0.162330
O O3 0.846286 0.722176 0.875644
O O4 0.000000 0.790796 0.000000
O O5 0.378251 0.500000 0.283223
O O6 0.453566 0.500000 0.128314
O O7 0.269523 0.328989 0.789754
O O8 0.366525 0.329265 0.563598
O O9 0.284980 0.000000 0.427768
O O10 0.246626 0.185509 0.051139
O O11 0.187764 0.000000 0.639722
#
# Coordination Sequence:
#
# PCOD9155086 Si02
#       5
#     4   2   4   2   4
#     4   9  17  30  49  72  97 123 152 189 233 280
#     4   9  18  31  47  70  96 121 156 197 230 267
#     4   9  17  30  49  71  95 123 153 188 231 276
#     4   9  18  31  47  70  96 121 156 197 230 267
#     4   9  17  30  49  71  95 123 153 188 231 276
#
# _framework density 23.114305000000002
#
# number of rings (size 3 to 8) (size 9 to 14) (size 15 to 20)
#    0.000    3.000    0.000    0.750    0.000    5.000 
#    0.000   11.250    0.000    3.000    0.000    7.000 
#    0.000    0.000    0.000    0.000    0.000    0.000 
#
# Total GULP energy -89333.739686 kJ/mol
# GULP energy per Si atom -5583.358730 kJ/mol
# Density = 2.306170 g / cm^3
# Si number density = 23.114305 Si / 1000 Ang^3
#
#
#
# Elastic Constant Matrix: (Units=GPa)
#
#
# Indices 1 2 3 4 5 6 
#
# 1 72.7978 52.7609 54.2519 0.0000 49.0926 0.0000
# 2 52.7609 125.0142 64.4716 0.0000 47.8189 0.0000
# 3 54.2519 64.4716 103.6828 0.0000 47.3517 0.0000
# 4 0.0000 0.0000 0.0000 26.6737 0.0000 15.2831
# 5 49.0926 47.8189 47.3517 0.0000 72.0676 0.0000
# 6 0.0000 0.0000 0.0000 15.2831 0.0000 18.8980
#
#
#
# Elastic Compliance Matrix: (Units=1/GPa)
#
#
# Indices 1 2 3 4 5 6 
#
# 1 0.031880 -0.004144 -0.007775 0.000000 -0.013859 0.000000
# 2 -0.004144 0.013321 -0.004811 0.000000 -0.002855 0.000000
# 3 -0.007775 -0.004811 0.018328 0.000000 -0.003553 0.000000
# 4 0.000000 0.000000 0.000000 0.069862 0.000000 -0.056499
# 5 -0.013859 -0.002855 -0.003553 0.000000 0.027545 0.000000
# 6 0.000000 0.000000 0.000000 -0.056499 0.000000 0.098607
#
#
# Mechanical properties :
#
#
# Convention : Reuss Voigt Hill
#
# Bulk Modulus (GPa) = 33.25766 71.60706 52.43236
# Shear Modulus (GPa) = 16.50017 32.19520 24.34769
#
# Velocity S-wave (km/s) = 2.67470 3.73617 3.24907
# Velocity P-wave (km/s) = 4.89472 7.04689 6.06700
#
# Compressibility (1/GPa) = 0.03006826
#
# Stress axis : x y z
#
# Youngs Moduli (GPa) = 31.36732 75.06808 54.56236
#
# Poissons Ratio (x) = 0.31107 0.42425
# Poissons Ratio (y) = 0.12998 0.26251
# Poissons Ratio (z) = 0.24389 0.36117
#
# Static dielectric constant tensor:
#      x y z
#    x 1.890430 0.000000 -0.039680 
#    y 0.000000 1.886940 0.000000 
#    z -0.039680 0.000000 1.876770 
# 
# From -- ./inp_files/16559.got.cif
#   From: 2010.05.17/outbox.cif.g08.bks.cpg/sg10_9_cif.got.tgz:16559.got - 2010.06.03 11:33:40.
