data_PCOD9155329
_publ_section_title
;
Structure prediction by ZEFSAII (Michael W. Deem and Ramdas Pophale) SiO2 
 PCOD9155329
Probable space group: P 2/M
;
_chemical_formula_sum "Si O2"
_cell_formula_units_Z 28
_cell_length_a 9.000000
_cell_length_b 9.000000
_cell_length_c 27.000000
_cell_angle_alpha 90.000000
_cell_angle_beta 140.000000
_cell_angle_gamma 90.000000
_cell_volume 1405.776502
_symmetry_space_group_name_H-M "P 2/M"
_symmetry_group_IT_number 10
_symmetry_cell_setting 'monoclinic'
loop_
_space_group_symop_operation_xyz
x,y,z
-x,y,-z
-x,-y,-z
x,-y,z
loop_
_atom_site_type_symbol
_atom_site_label
_atom_site_fract_x
_atom_site_fract_y
_atom_site_fract_z
Si Si1 0.833095 0.670372 0.071736
Si Si2 0.336344 0.680963 0.685758
Si Si3 0.682652 0.328337 0.860950
Si Si4 0.123077 0.326271 0.477045
Si Si5 0.452245 0.173120 0.084181
Si Si6 0.919036 0.320607 0.206358
Si Si7 0.427994 0.318535 0.358391
O O1 0.754552 0.500000 0.055786
O O2 0.898428 0.723752 0.143277
O O3 0.077020 0.669075 0.106454
O O4 0.646435 0.757292 0.991471
O O5 0.327662 0.500000 0.683621
O O6 0.482499 0.721021 0.771351
O O7 0.477634 0.722382 0.672165
O O8 0.071551 0.734955 0.610218
O O9 0.635792 0.500000 0.865332
O O10 0.718359 0.219241 0.915699
O O11 0.153150 0.500000 0.471485
O O12 0.380975 0.264967 0.552886
O O13 0.000000 0.322765 0.500000
O O14 0.684544 0.248972 0.165077
O O15 0.484489 0.000000 0.086174
O O16 0.910452 0.500000 0.207341
O O17 0.160448 0.272653 0.292605
O O18 0.431127 0.500000 0.361127
#
# Coordination Sequence:
#
# PCOD9155329 Si02
#       7
#     4   4   4   4   4   4   4
#     4  10  20  36  58  79  97 123 166 214 255 298
#     4   8  12  22  43  74 105 129 155 193 244 296
#     4  10  19  34  56  78 101 130 167 207 247 296
#     4   7  10  16  34  69 109 132 144 182 245 298
#     4  12  26  38  48  69 102 137 172 208 252 300
#     4  10  19  34  56  78 101 130 167 207 247 296
#     4   8  12  22  43  74 105 129 155 193 244 296
#
# _framework density 19.917818
#
# number of rings (size 3 to 8) (size 9 to 14) (size 15 to 20)
#    0.000    2.714    1.429    3.857    0.000    4.571 
#    0.000    0.000    0.000    0.857    0.000    7.000 
#    0.000    3.429    0.000    0.000    0.000    0.000 
#
# Total GULP energy -155903.592426 kJ/mol
# GULP energy per Si atom -5567.985444 kJ/mol
# Density = 1.987248 g / cm^3
# Si number density = 19.917818 Si / 1000 Ang^3
#
#
#
# Elastic Constant Matrix: (Units=GPa)
#
#
# Indices 1 2 3 4 5 6 
#
# 1 36.4528 -4.0611 21.9123 0.0000 8.0801 0.0000
# 2 -4.0611 -0.6022 21.9884 0.0000 5.3848 0.0000
# 3 21.9123 21.9884 152.1130 0.0000 36.5784 0.0000
# 4 0.0000 0.0000 0.0000 -3.6825 0.0000 -6.1129
# 5 8.0801 5.3848 36.5784 0.0000 23.2769 0.0000
# 6 0.0000 0.0000 0.0000 -6.1129 0.0000 -45.4066
#
#
#
# Elastic Compliance Matrix: (Units=1/GPa)
#
#
# Indices 1 2 3 4 5 6 
#
# 1 0.021440 -0.041093 0.003786 0.000000 -0.003886 0.000000
# 2 -0.041093 -0.185696 0.030544 0.000000 0.009224 0.000000
# 3 0.003786 0.030544 0.005833 0.000000 -0.017546 0.000000
# 4 0.000000 0.000000 0.000000 -0.349708 0.000000 0.047080
# 5 -0.003886 0.009224 -0.017546 0.000000 0.069749 0.000000
# 6 0.000000 0.000000 0.000000 0.047080 0.000000 -0.028361
#
#
# Mechanical properties :
#
#
# Convention : Reuss Voigt Hill
#
# Bulk Modulus (GPa) = -5.81569 29.73808 11.96120
# Shear Modulus (GPa) = -9.79364 4.71249 -2.54058
#
# Velocity S-wave (km/s) = -2.21984 1.53984 -1.13062
# Velocity P-wave (km/s) = 3.08163 4.25726 2.07700
#
# Compressibility (1/GPa) = -0.17194867
#
# Stress axis : x y z
#
# Youngs Moduli (GPa) = 46.64140 -5.38513 171.44925
#
# Poissons Ratio (x) = -0.22129 -0.64910
# Poissons Ratio (y) = 1.91664 -5.23683
# Poissons Ratio (z) = -0.17658 0.16449
#
# Static dielectric constant tensor:
#      x y z
#    x 1.791250 0.000000 0.021240 
#    y 0.000000 1.675330 0.000000 
#    z 0.021240 0.000000 1.726170 
# 
# From -- ./inp_files/92063.got.cif
#   From: 2010.05.17/outbox.ucp.g08.bks.cvg/sg10_47_cif.got.tgz:92063.got - 2010.06.11 11:31:16.
