data_PCOD9155558
_publ_section_title
;
Structure prediction by ZEFSAII (Michael W. Deem and Ramdas Pophale) SiO2 
 PCOD9155558
Probable space group: P 2/M
;
_chemical_formula_sum "Si O2"
_cell_formula_units_Z 32
_cell_length_a 12.000000
_cell_length_b 9.000000
_cell_length_c 30.000000
_cell_angle_alpha 90.000000
_cell_angle_beta 150.000000
_cell_angle_gamma 90.000000
_cell_volume 1620.000000
_symmetry_space_group_name_H-M "P 2/M"
_symmetry_group_IT_number 10
_symmetry_cell_setting 'monoclinic'
loop_
_space_group_symop_operation_xyz
x,y,z
-x,y,-z
-x,-y,-z
x,-y,z
loop_
_atom_site_type_symbol
_atom_site_label
_atom_site_fract_x
_atom_site_fract_y
_atom_site_fract_z
Si Si1 0.838293 0.175754 0.508364
Si Si2 0.663340 0.323655 0.825590
Si Si3 0.681527 0.177029 0.352406
Si Si4 0.240174 0.673797 0.913533
Si Si5 0.438924 0.176899 0.832744
Si Si6 0.887331 0.175109 0.042686
Si Si7 0.038040 0.675825 0.745323
Si Si8 0.538149 0.330805 0.565764
O O1 0.743551 0.197031 0.425582
O O2 0.667603 0.250171 0.482637
O O3 0.095957 0.226832 0.597353
O O4 0.845007 0.000000 0.519021
O O5 0.667196 0.500000 0.829191
O O6 0.535079 0.266159 0.737249
O O7 0.519114 0.254679 0.815534
O O8 0.913476 0.260381 0.912784
O O9 0.648311 0.000000 0.333268
O O10 0.228740 0.500000 0.923339
O O11 0.120801 0.771845 0.909206
O O12 0.133284 0.688183 0.828108
O O13 0.500000 0.715192 0.000000
O O14 0.208971 0.241329 0.772034
O O15 0.420997 0.000000 0.820156
O O16 0.643085 0.206357 0.937761
O O17 0.928862 0.000000 0.053216
O O18 0.032005 0.500000 0.731019
O O19 0.785231 0.734311 0.658193
O O20 0.500000 0.334191 0.500000
O O21 0.543451 0.500000 0.585059
#
# Coordination Sequence:
#
# PCOD9155558 Si02
#       8
#     4   4   4   4   4   4   4   4
#     4   9  20  40  65  89 120 158 198 247 304 362
#     4  12  26  40  62  91 121 159 204 251 304 362
#     4   9  20  41  64  90 121 155 197 251 307 359
#     4  10  20  37  62  90 123 162 203 250 302 363
#     4  11  24  42  63  88 121 160 203 251 303 361
#     4  11  24  41  62  89 124 161 202 251 302 359
#     4  10  22  40  61  88 124 165 206 248 301 364
#     4  10  23  40  59  88 128 164 202 252 298 350
#
# _framework density 19.753086
#
# number of rings (size 3 to 8) (size 9 to 14) (size 15 to 20)
#    0.000    1.750    1.250    3.000    3.500    5.500 
#    0.000    1.250    0.000    0.000    0.000    0.000 
#    0.000    0.000    0.000    0.000    0.000    0.000 
#
# Total GULP energy -178795.080140 kJ/mol
# GULP energy per Si atom -5587.346254 kJ/mol
# Density = 1.970813 g / cm^3
# Si number density = 19.753086 Si / 1000 Ang^3
#
#
#
# Elastic Constant Matrix: (Units=GPa)
#
#
# Indices 1 2 3 4 5 6 
#
# 1 69.6507 26.2888 3.9738 0.0000 16.2631 0.0000
# 2 26.2888 41.9077 14.1074 0.0000 5.4001 0.0000
# 3 3.9738 14.1074 50.3348 0.0000 15.9358 0.0000
# 4 0.0000 0.0000 0.0000 22.9926 0.0000 20.8532
# 5 16.2631 5.4001 15.9358 0.0000 20.5623 0.0000
# 6 0.0000 0.0000 0.0000 20.8532 0.0000 5.6072
#
#
#
# Elastic Compliance Matrix: (Units=1/GPa)
#
#
# Indices 1 2 3 4 5 6 
#
# 1 0.025457 -0.016304 0.010043 0.000000 -0.023636 0.000000
# 2 -0.016304 0.036829 -0.013325 0.000000 0.013550 0.000000
# 3 0.010043 -0.013325 0.032089 0.000000 -0.029313 0.000000
# 4 0.000000 0.000000 0.000000 -0.018328 0.000000 0.068162
# 5 -0.023636 0.013550 -0.029313 0.000000 0.086486 0.000000
# 6 0.000000 0.000000 0.000000 0.068162 0.000000 -0.075155
#
#
# Mechanical properties :
#
#
# Convention : Reuss Voigt Hill
#
# Bulk Modulus (GPa) = 18.11505 27.84815 22.98160
# Shear Modulus (GPa) = 34.49420 17.66728 26.08074
#
# Velocity S-wave (km/s) = 4.18337 2.99391 3.63759
# Velocity P-wave (km/s) = 5.70305 5.10686 5.41317
#
# Compressibility (1/GPa) = 0.05520272
#
# Stress axis : x y z
#
# Youngs Moduli (GPa) = 39.28169 27.15230 31.16322
#
# Poissons Ratio (x) = 0.44270 -0.31297
# Poissons Ratio (y) = 0.64047 0.41525
# Poissons Ratio (z) = -0.39450 0.36180
#
# Static dielectric constant tensor:
#      x y z
#    x 1.667880 0.000000 -0.007970 
#    y 0.000000 1.673430 0.000000 
#    z -0.007970 0.000000 1.698960 
# 
# From -- ./inp_files/95019.got.cif
#   From: 2010.05.17/outbox.ucp.g08.bks.cvg/sg10_48_cif.got.tgz:95019.got - 2010.06.11 11:31:16.
