data_PCOD9155226
_publ_section_title
;
Structure prediction by ZEFSAII (Michael W. Deem and Ramdas Pophale) SiO2 
 PCOD9155226
Probable space group: P 2/M
;
_chemical_formula_sum "Si O2"
_cell_formula_units_Z 28
_cell_length_a 30.000000
_cell_length_b 9.000000
_cell_length_c 30.000000
_cell_angle_alpha 90.000000
_cell_angle_beta 10.000000
_cell_angle_gamma 90.000000
_cell_volume 1406.550239
_symmetry_space_group_name_H-M "P 2/M"
_symmetry_group_IT_number 10
_symmetry_cell_setting 'monoclinic'
loop_
_space_group_symop_operation_xyz
x,y,z
-x,y,-z
-x,-y,-z
x,-y,z
loop_
_atom_site_type_symbol
_atom_site_label
_atom_site_fract_x
_atom_site_fract_y
_atom_site_fract_z
Si Si1 0.433383 0.818884 0.739800
Si Si2 0.759201 0.322821 0.269108
Si Si3 0.044291 0.322266 0.368966
Si Si4 0.705921 0.820337 0.024610
Si Si5 0.092107 0.820812 0.784928
Si Si6 0.569304 0.828420 0.879763
Si Si7 0.820539 0.820124 0.500495
O O1 0.364327 0.765123 0.857136
O O2 0.709142 0.773483 0.449448
O O3 0.435561 0.000000 0.738948
O O4 0.198531 0.773336 0.939216
O O5 0.500000 0.272966 0.500000
O O6 0.740931 0.500000 0.294783
O O7 0.805520 0.242115 0.269834
O O8 0.000000 0.294541 0.000000
O O9 0.052957 0.500000 0.363751
O O10 0.839154 0.253479 0.605891
O O11 0.926927 0.265755 0.438080
O O12 0.328811 0.254179 0.093895
O O13 0.472107 0.779010 0.222280
O O14 0.702509 0.000000 0.030150
O O15 0.985790 0.781504 0.730643
O O16 0.093968 0.000000 0.784579
O O17 0.587979 0.000000 0.845498
O O18 0.500000 0.830686 0.000000
O O19 0.833874 0.000000 0.494052
#
# Coordination Sequence:
#
# PCOD9155226 Si02
#       7
#     4   4   4   4   4   4   4
#     4   9  17  30  49  77 107 132 167 217 269 312
#     4  10  21  36  52  70  96 131 168 207 251 304
#     4  12  25  40  61  90 125 160 193 240 300 353
#     4   9  17  30  52  79 105 138 181 226 268 317
#     4  10  19  31  51  76 102 131 164 211 265 315
#     4  11  24  43  66  90 118 155 200 247 291 344
#     4  10  19  33  55  80 107 145 191 231 268 321
#
# _framework density 19.906860999999999
#
# number of rings (size 3 to 8) (size 9 to 14) (size 15 to 20)
#    0.000    1.857    0.000    4.714    0.000    8.000 
#    0.000    0.000    0.000    5.143    0.000    0.000 
#    0.000    0.000    0.000    0.000    0.000    0.000 
#
# Total GULP energy -156411.969726 kJ/mol
# GULP energy per Si atom -5586.141776 kJ/mol
# Density = 1.986155 g / cm^3
# Si number density = 19.906861 Si / 1000 Ang^3
#
#
#
# Elastic Constant Matrix: (Units=GPa)
#
#
# Indices 1 2 3 4 5 6 
#
# 1 46.3855 10.5519 -21.7886 0.0000 -2.8860 0.0000
# 2 10.5519 53.3033 17.2783 0.0000 0.0887 0.0000
# 3 -21.7886 17.2783 58.2312 0.0000 -10.7728 0.0000
# 4 0.0000 0.0000 0.0000 -14.5148 0.0000 30.9372
# 5 -2.8860 0.0887 -10.7728 0.0000 32.5591 0.0000
# 6 0.0000 0.0000 0.0000 30.9372 0.0000 -58.5859
#
#
#
# Elastic Compliance Matrix: (Units=1/GPa)
#
#
# Indices 1 2 3 4 5 6 
#
# 1 0.033254 -0.012350 0.017745 0.000000 0.008852 0.000000
# 2 -0.012350 0.025497 -0.013210 0.000000 -0.005535 0.000000
# 3 0.017745 -0.013210 0.029858 0.000000 0.011488 0.000000
# 4 0.000000 0.000000 0.000000 0.548825 0.000000 0.289816
# 5 0.008852 -0.005535 0.011488 0.000000 0.035314 0.000000
# 6 0.000000 0.000000 0.000000 0.289816 0.000000 0.135973
#
#
# Mechanical properties :
#
#
# Convention : Reuss Voigt Hill
#
# Bulk Modulus (GPa) = 13.70279 18.88925 16.29602
# Shear Modulus (GPa) = 5.89153 2.01689 3.95421
#
# Velocity S-wave (km/s) = 1.72220 1.00765 1.41091
# Velocity P-wave (km/s) = 3.29439 3.29594 3.29517
#
# Compressibility (1/GPa) = 0.07297785
#
# Stress axis : x y z
#
# Youngs Moduli (GPa) = 30.07171 39.22093 33.49238
#
# Poissons Ratio (x) = 0.48436 -0.59432
# Poissons Ratio (y) = 0.37138 0.44244
# Poissons Ratio (z) = -0.53362 0.51812
#
# Static dielectric constant tensor:
#      x y z
#    x 1.717800 0.000000 0.019710 
#    y 0.000000 1.666790 0.000000 
#    z 0.019710 0.000000 1.692570 
# 
# From -- ./inp_files/95987.got.cif
#   From: 2010.05.17/outbox.ucp.g08.bks.cvg/sg10_48_cif.got.tgz:95987.got - 2010.06.11 11:31:16.
