data_PCOD9155392
_publ_section_title
;
Structure prediction by ZEFSAII (Michael W. Deem and Ramdas Pophale) SiO2 
 PCOD9155392
Probable space group: P 2/M
;
_chemical_formula_sum "Si O2"
_cell_formula_units_Z 32
_cell_length_a 27.000000
_cell_length_b 9.000000
_cell_length_c 21.000000
_cell_angle_alpha 90.000000
_cell_angle_beta 20.000000
_cell_angle_gamma 90.000000
_cell_volume 1745.328791
_symmetry_space_group_name_H-M "P 2/M"
_symmetry_group_IT_number 10
_symmetry_cell_setting 'monoclinic'
loop_
_space_group_symop_operation_xyz
x,y,z
-x,y,-z
-x,-y,-z
x,-y,z
loop_
_atom_site_type_symbol
_atom_site_label
_atom_site_fract_x
_atom_site_fract_y
_atom_site_fract_z
Si Si1 0.161257 0.681025 0.620162
Si Si2 0.899557 0.166625 0.773879
Si Si3 0.384913 0.825100 0.958408
Si Si4 0.365221 0.332855 0.115496
Si Si5 0.544920 0.322044 0.372366
Si Si6 0.847194 0.828764 0.983664
Si Si7 0.186189 0.675177 0.445402
Si Si8 0.405012 0.819182 0.413092
O O1 0.159394 0.500000 0.625621
O O2 0.220504 0.724583 0.476861
O O3 0.257668 0.750071 0.560593
O O4 0.998874 0.748545 0.817086
O O5 0.018351 0.292749 0.637042
O O6 0.963175 0.000000 0.687277
O O7 0.780632 0.194295 0.864249
O O8 0.829912 0.162416 0.928032
O O9 0.480661 0.778634 0.781605
O O10 0.412553 0.000000 0.934082
O O11 0.405084 0.745057 0.001406
O O12 0.314588 0.500000 0.159966
O O13 0.255382 0.255751 0.297869
O O14 0.500000 0.345024 0.000000
O O15 0.500000 0.289226 0.500000
O O16 0.536170 0.500000 0.373464
O O17 0.709359 0.263948 0.171622
O O18 0.456259 0.245274 0.420210
O O19 0.847977 0.000000 0.006165
O O20 0.220522 0.500000 0.402950
O O21 0.396955 0.000000 0.427073
#
# Coordination Sequence:
#
# PCOD9155392 Si02
#       8
#     4   4   4   4   4   4   4   4
#     4  10  20  36  60  89 119 156 199 244 293 344
#     4   9  18  34  54  78 108 143 184 232 283 336
#     4  10  21  36  54  79 109 143 189 238 285 339
#     4  10  21  36  51  71 104 145 188 236 290 343
#     4  11  24  41  63  92 123 154 189 234 288 345
#     4  10  19  37  62  88 120 157 195 236 285 345
#     4   9  19  34  52  77 110 146 191 238 285 342
#     4  11  22  39  61  88 119 152 196 244 289 347
#
# _framework density 18.334654
#
# number of rings (size 3 to 8) (size 9 to 14) (size 15 to 20)
#    0.000    2.000    1.250    2.250    0.000    5.750 
#    0.000    3.125    0.000    3.750    0.000    0.000 
#    0.000    0.000    0.000    0.000    0.000    0.000 
#
# Total GULP energy -178179.640982 kJ/mol
# GULP energy per Si atom -5568.113781 kJ/mol
# Density = 1.829292 g / cm^3
# Si number density = 18.334654 Si / 1000 Ang^3
#
#
#
# Elastic Constant Matrix: (Units=GPa)
#
#
# Indices 1 2 3 4 5 6 
#
# 1 159.1501 59.1481 57.5985 0.0000 5.9033 0.0000
# 2 59.1481 60.2734 29.2727 0.0000 3.7624 0.0000
# 3 57.5985 29.2727 76.7759 0.0000 7.7065 0.0000
# 4 0.0000 0.0000 0.0000 21.1193 0.0000 3.2903
# 5 5.9033 3.7624 7.7065 0.0000 23.7879 0.0000
# 6 0.0000 0.0000 0.0000 3.2903 0.0000 9.4455
#
#
#
# Elastic Compliance Matrix: (Units=1/GPa)
#
#
# Indices 1 2 3 4 5 6 
#
# 1 0.011393 -0.008631 -0.005282 0.000000 0.000249 0.000000
# 2 -0.008631 0.026912 -0.003694 0.000000 -0.000918 0.000000
# 3 -0.005282 -0.003694 0.018817 0.000000 -0.004201 0.000000
# 4 0.000000 0.000000 0.000000 0.050067 0.000000 -0.017441
# 5 0.000249 -0.000918 -0.004201 0.000000 0.043483 0.000000
# 6 0.000000 0.000000 0.000000 -0.017441 0.000000 0.111946
#
#
# Mechanical properties :
#
#
# Convention : Reuss Voigt Hill
#
# Bulk Modulus (GPa) = 45.64094 65.35978 55.50036
# Shear Modulus (GPa) = 16.38620 20.88254 18.63437
#
# Velocity S-wave (km/s) = 2.99277 3.37852 3.19148
# Velocity P-wave (km/s) = 6.07368 7.13756 6.62700
#
# Compressibility (1/GPa) = 0.02191015
#
# Stress axis : x y z
#
# Youngs Moduli (GPa) = 87.77022 37.15794 53.14262
#
# Poissons Ratio (x) = 0.32071 0.28068
# Poissons Ratio (y) = 0.75755 0.19629
# Poissons Ratio (z) = 0.46357 0.13725
#
# Static dielectric constant tensor:
#      x y z
#    x 1.606910 0.000000 0.018800 
#    y 0.000000 1.646380 0.000000 
#    z 0.018800 0.000000 1.731450 
# 
# From -- ./inp_files/86729.got.cif
#   From: 2010.05.17/outbox.ucp.g08.bks.cvg/sg10_44_cif.got.tgz:86729.got - 2010.06.11 11:31:16.
