data_PCOD9155741
_publ_section_title
;
Structure prediction by ZEFSAII (Michael W. Deem and Ramdas Pophale) SiO2 
 PCOD9155741
Probable space group: P 21/M
;
_chemical_formula_sum "Si O2"
_cell_formula_units_Z 24
_cell_length_a 11.934086
_cell_length_b 18.965234
_cell_length_c 9.229726
_cell_angle_alpha 90.000000
_cell_angle_beta 141.681405
_cell_angle_gamma 90.000000
_cell_volume 1295.243637
_symmetry_space_group_name_H-M "P 21/M"
_symmetry_group_IT_number 11
_symmetry_cell_setting 'monoclinic'
loop_
_space_group_symop_operation_xyz
x,y,z
-x,1/2+y,-z
-x,-y,-z
x,1/2-y,z
loop_
_atom_site_type_symbol
_atom_site_label
_atom_site_fract_x
_atom_site_fract_y
_atom_site_fract_z
Si Si1 0.280291 0.876762 0.742831
Si Si2 0.172219 0.544947 0.227676
Si Si3 0.993041 0.328709 0.749174
Si Si4 0.820377 0.973057 0.488716
Si Si5 0.673307 0.596156 0.062098
Si Si6 0.755377 0.446164 0.016716
O O1 0.137921 0.826387 0.523780
O O2 0.300574 0.881880 0.935988
O O3 0.198205 0.953787 0.617639
O O4 0.475819 0.870647 0.869054
O O5 0.098180 0.614950 0.233558
O O6 0.264681 0.494456 0.442153
O O7 0.276267 0.562811 0.186034
O O8 0.000000 0.500000 0.000000
O O9 0.012769 0.250000 0.829474
O O10 0.181697 0.360033 0.882239
O O11 0.738592 0.916649 0.294807
O O12 0.028707 0.955915 0.734638
O O13 0.664184 0.518470 0.980392
#
# Coordination Sequence:
#
# PCOD9155741 Si02
#       6
#     4   4   4   4   4   4
#     4  10  19  32  53  81 105 136 175 222 264 318
#     4   9  17  31  58  80 108 144 176 222 273 324
#     4  11  22  38  54  74 106 146 184 225 276 331
#     4   9  15  29  51  79 109 131 166 214 267 312
#     4  11  18  32  55  82 104 137 176 225 268 314
#     4  10  15  31  57  81 111 136 174 219 271 320
#
# _framework density 18.529333000000001
#
# number of rings (size 3 to 8) (size 9 to 14) (size 15 to 20)
#    0.000    2.000    6.667    3.000    0.000    0.667 
#    0.000    8.333    0.000    0.000    0.000    0.000 
#    0.000    0.000    0.000    0.000    0.000    0.000 
#
# Total GULP energy -133609.373875 kJ/mol
# GULP energy per Si atom -5567.057245 kJ/mol
# Density = 1.848716 g / cm^3
# Si number density = 18.529333 Si / 1000 Ang^3
#
#
#
# Elastic Constant Matrix: (Units=GPa)
#
#
# Indices 1 2 3 4 5 6 
#
# 1 115.9692 15.6039 35.4694 0.0000 -19.9036 0.0000
# 2 15.6039 54.8348 6.3110 0.0000 -2.7680 0.0000
# 3 35.4694 6.3110 34.8247 0.0000 -3.5218 0.0000
# 4 0.0000 0.0000 0.0000 3.0737 0.0000 -9.8296
# 5 -19.9036 -2.7680 -3.5218 0.0000 42.4563 0.0000
# 6 0.0000 0.0000 0.0000 -9.8296 0.0000 4.6947
#
#
#
# Elastic Compliance Matrix: (Units=1/GPa)
#
#
# Indices 1 2 3 4 5 6 
#
# 1 0.013847 -0.002158 -0.013181 0.000000 0.005257 0.000000
# 2 -0.002158 0.018999 -0.001232 0.000000 0.000125 0.000000
# 3 -0.013181 -0.001232 0.042083 0.000000 -0.002769 0.000000
# 4 0.000000 0.000000 0.000000 -0.057120 0.000000 -0.119595
# 5 0.005257 0.000125 -0.002769 0.000000 0.025797 0.000000
# 6 0.000000 0.000000 0.000000 -0.119595 0.000000 -0.037397
#
#
# Mechanical properties :
#
#
# Convention : Reuss Voigt Hill
#
# Bulk Modulus (GPa) = 23.93088 35.59969 29.76529
# Shear Modulus (GPa) = 93.84364 19.92790 56.88577
#
# Velocity S-wave (km/s) = 7.12432 3.28301 5.54680
# Velocity P-wave (km/s) = 8.97874 5.79872 7.55787
#
# Compressibility (1/GPa) = 0.04178701
#
# Stress axis : x y z
#
# Youngs Moduli (GPa) = 72.21790 52.63490 23.76240
#
# Poissons Ratio (x) = 0.11358 0.31320
# Poissons Ratio (y) = 0.15584 0.02929
# Poissons Ratio (z) = 0.95188 0.06487
#
# Static dielectric constant tensor:
#      x y z
#    x 1.719780 0.000000 -0.035330 
#    y 0.000000 1.644050 0.000000 
#    z -0.035330 0.000000 1.687810 
# 
# From -- ./inp_files/13791.got.cif
#   From: 2010.05.17/outbox.cif.g08.bks.cpg/sg11_7_cif.got.tgz:13791.got - 2010.06.03 12:22:45.
