data_PCOD9155231
_publ_section_title
;
Structure prediction by ZEFSAII (Michael W. Deem and Ramdas Pophale) SiO2 
 PCOD9155231
Probable space group: P 2/M
;
_chemical_formula_sum "Si O2"
_cell_formula_units_Z 32
_cell_length_a 21.000000
_cell_length_b 9.000000
_cell_length_c 12.000000
_cell_angle_alpha 90.000000
_cell_angle_beta 130.000000
_cell_angle_gamma 90.000000
_cell_volume 1737.388797
_symmetry_space_group_name_H-M "P 2/M"
_symmetry_group_IT_number 10
_symmetry_cell_setting 'monoclinic'
loop_
_space_group_symop_operation_xyz
x,y,z
-x,y,-z
-x,-y,-z
x,-y,z
loop_
_atom_site_type_symbol
_atom_site_label
_atom_site_fract_x
_atom_site_fract_y
_atom_site_fract_z
Si Si1 0.531325 0.819803 0.414514
Si Si2 0.623652 0.821429 0.908474
Si Si3 0.404191 0.321514 0.892547
Si Si4 0.100707 0.179649 0.525352
Si Si5 0.726600 0.820686 0.635345
Si Si6 0.790306 0.178593 0.954695
Si Si7 0.068394 0.680442 0.731775
Si Si8 0.747237 0.678068 0.428798
O O1 0.500000 0.770246 0.500000
O O2 0.463423 0.769942 0.246614
O O3 0.628296 0.780985 0.520049
O O4 0.527967 0.000000 0.408097
O O5 0.703614 0.789518 0.921684
O O6 0.619225 0.000000 0.916211
O O7 0.634942 0.745936 0.040117
O O8 0.405546 0.500000 0.902036
O O9 0.345746 0.284126 0.721483
O O10 0.500000 0.268533 0.000000
O O11 0.096661 0.251679 0.644183
O O12 0.187186 0.232493 0.571345
O O13 0.024839 0.250296 0.367515
O O14 0.093138 0.000000 0.522348
O O15 0.770439 0.785926 0.802703
O O16 0.762206 0.732211 0.571017
O O17 0.732779 0.000000 0.627103
O O18 0.804924 0.000000 0.979056
O O19 0.866928 0.262576 0.101005
O O20 0.065787 0.500000 0.725824
O O21 0.758002 0.500000 0.430204
#
# Coordination Sequence:
#
# PCOD9155231 Si02
#       8
#     4   4   4   4   4   4   4   4
#     4   9  15  29  52  79 110 146 189 239 286 325
#     4  10  19  31  54  83 109 142 188 239 285 331
#     4  10  22  38  53  74 111 154 189 229 281 335
#     4  11  22  40  65  90 115 146 187 232 282 340
#     4  10  20  35  57  82 113 153 197 242 285 334
#     4  10  20  35  55  84 117 149 188 235 285 335
#     4  11  22  38  62  91 121 148 180 227 285 342
#     4  11  23  39  58  81 115 155 194 235 285 342
#
# _framework density 18.418444999999998
#
# number of rings (size 3 to 8) (size 9 to 14) (size 15 to 20)
#    0.000    1.750    1.250    4.875    0.000    4.250 
#    0.000    0.625    0.000    4.500    0.000    0.000 
#    0.000    0.000    0.000    0.000    0.000    0.000 
#
# Total GULP energy -178564.905453 kJ/mol
# GULP energy per Si atom -5580.153295 kJ/mol
# Density = 1.837652 g / cm^3
# Si number density = 18.418445 Si / 1000 Ang^3
#
#
#
# Elastic Constant Matrix: (Units=GPa)
#
#
# Indices 1 2 3 4 5 6 
#
# 1 61.5024 28.7723 31.6974 0.0000 3.3861 0.0000
# 2 28.7723 76.6244 49.3973 0.0000 5.4982 0.0000
# 3 31.6974 49.3973 157.4398 0.0000 4.0478 0.0000
# 4 0.0000 0.0000 0.0000 17.1776 0.0000 24.6602
# 5 3.3861 5.4982 4.0478 0.0000 33.1786 0.0000
# 6 0.0000 0.0000 0.0000 24.6602 0.0000 -19.3328
#
#
#
# Elastic Compliance Matrix: (Units=1/GPa)
#
#
# Indices 1 2 3 4 5 6 
#
# 1 0.020295 -0.006197 -0.002122 0.000000 -0.000786 0.000000
# 2 -0.006197 0.018398 -0.004477 0.000000 -0.001870 0.000000
# 3 -0.002122 -0.004477 0.008184 0.000000 -0.000040 0.000000
# 4 0.000000 0.000000 0.000000 0.020562 0.000000 0.026228
# 5 -0.000786 -0.001870 -0.000040 0.000000 0.030535 0.000000
# 6 0.000000 0.000000 0.000000 0.026228 0.000000 -0.018270
#
#
# Mechanical properties :
#
#
# Convention : Reuss Voigt Hill
#
# Bulk Modulus (GPa) = 46.97638 57.25562 52.11600
# Shear Modulus (GPa) = 44.48793 18.58466 31.53629
#
# Velocity S-wave (km/s) = 4.92000 3.17996 4.14238
# Velocity P-wave (km/s) = 7.60498 6.68105 7.15794
#
# Compressibility (1/GPa) = 0.02128729
#
# Stress axis : x y z
#
# Youngs Moduli (GPa) = 49.27276 54.35470 122.18395
#
# Poissons Ratio (x) = 0.33682 0.25923
# Poissons Ratio (y) = 0.30533 0.54698
# Poissons Ratio (z) = 0.10454 0.24333
#
# Static dielectric constant tensor:
#      x y z
#    x 1.674140 0.000000 0.010390 
#    y 0.000000 1.610220 0.000000 
#    z 0.010390 0.000000 1.627500 
# 
# From -- ./inp_files/55312.got.cif
#   From: 2010.05.17/outbox.ucp.g08.bks.cvg/sg10_28_cif.got.tgz:55312.got - 2010.06.11 11:31:16.
