data_PCOD9155970
_publ_section_title
;
Structure prediction by ZEFSAII (Michael W. Deem and Ramdas Pophale) SiO2 
 PCOD9155970
Probable space group: P 21/M
;
_chemical_formula_sum "Si O2"
_cell_formula_units_Z 24
_cell_length_a 12.492457
_cell_length_b 8.734133
_cell_length_c 14.516028
_cell_angle_alpha 90.000000
_cell_angle_beta 109.630450
_cell_angle_gamma 90.000000
_cell_volume 1491.799974
_symmetry_space_group_name_H-M "P 21/M"
_symmetry_group_IT_number 11
_symmetry_cell_setting 'monoclinic'
loop_
_space_group_symop_operation_xyz
x,y,z
-x,1/2+y,-z
-x,-y,-z
x,1/2-y,z
loop_
_atom_site_type_symbol
_atom_site_label
_atom_site_fract_x
_atom_site_fract_y
_atom_site_fract_z
Si Si1 0.396915 0.933092 0.532461
Si Si2 0.056901 0.433809 0.151495
Si Si3 0.462627 0.566036 0.275184
Si Si4 0.415035 0.932853 0.050550
Si Si5 0.833431 0.567379 0.013497
Si Si6 0.742264 0.933961 0.660410
O O1 0.400320 0.750000 0.532948
O O2 0.500000 0.000000 0.500000
O O3 0.426916 0.998135 0.641516
O O4 0.286502 0.994246 0.447089
O O5 0.042310 0.250000 0.145072
O O6 0.125981 0.477111 0.078330
O O7 0.135695 0.473144 0.261046
O O8 0.934762 0.512070 0.108988
O O9 0.461108 0.750000 0.285144
O O10 0.454265 0.525480 0.165593
O O11 0.352875 0.497133 0.296047
O O12 0.414612 0.750000 0.044393
O O13 0.287465 0.993843 0.000496
O O14 0.500000 0.000000 0.000000
O O15 0.823552 0.750000 0.013385
O O16 0.731246 0.750000 0.652960
#
# Coordination Sequence:
#
# PCOD9155970 Si02
#       6
#     4   4   4   4   4   4
#     4  10  18  27  42  65  94 126 158 194 237 289
#     4   9  18  30  47  71  99 131 161 195 242 290
#     4  10  19  31  46  66  93 126 161 200 241 285
#     4  11  23  36  52  71  96 129 168 207 244 288
#     4  10  19  32  49  70  97 128 164 202 242 288
#     4  10  17  28  46  69  98 129 159 194 237 289
#
# _framework density 16.087947
#
# number of rings (size 3 to 8) (size 9 to 14) (size 15 to 20)
#    0.000    2.000    1.667    5.500    0.000    4.000 
#    0.000    0.000    0.000    0.000    0.000    1.167 
#    0.000    0.000    0.000    0.000    0.000    0.000 
#
# Total GULP energy -133853.789339 kJ/mol
# GULP energy per Si atom -5577.241222 kJ/mol
# Density = 1.605133 g / cm^3
# Si number density = 16.087947 Si / 1000 Ang^3
#
#
#
# Elastic Constant Matrix: (Units=GPa)
#
#
# Indices 1 2 3 4 5 6 
#
# 1 87.3368 37.1979 67.0980 0.0000 14.4755 0.0000
# 2 37.1979 70.3819 55.8811 0.0000 11.6795 0.0000
# 3 67.0980 55.8811 135.8658 0.0000 33.5562 0.0000
# 4 0.0000 0.0000 0.0000 25.2902 0.0000 4.6938
# 5 14.4755 11.6795 33.5562 0.0000 24.7604 0.0000
# 6 0.0000 0.0000 0.0000 4.6938 0.0000 23.4135
#
#
#
# Elastic Compliance Matrix: (Units=1/GPa)
#
#
# Indices 1 2 3 4 5 6 
#
# 1 0.019199 -0.003801 -0.008401 0.000000 0.001954 0.000000
# 2 -0.003801 0.021973 -0.007740 0.000000 0.002347 0.000000
# 3 -0.008401 -0.007740 0.018906 0.000000 -0.017059 0.000000
# 4 0.000000 0.000000 0.000000 0.041069 0.000000 -0.008233
# 5 0.001954 0.002347 -0.017059 0.000000 0.061257 0.000000
# 6 0.000000 0.000000 0.000000 -0.008233 0.000000 0.044361
#
#
# Mechanical properties :
#
#
# Convention : Reuss Voigt Hill
#
# Bulk Modulus (GPa) = 49.51911 68.21538 58.86725
# Shear Modulus (GPa) = 19.73324 23.58666 21.65995
#
# Velocity S-wave (km/s) = 3.50606 3.83313 3.67324
# Velocity P-wave (km/s) = 6.87292 7.87935 7.39328
#
# Compressibility (1/GPa) = 0.02019422
#
# Stress axis : x y z
#
# Youngs Moduli (GPa) = 52.08580 45.51063 52.89464
#
# Poissons Ratio (x) = 0.17300 0.44435
# Poissons Ratio (y) = 0.19800 0.40939
# Poissons Ratio (z) = 0.43755 0.35224
#
# Static dielectric constant tensor:
#      x y z
#    x 1.504770 0.000000 0.026740 
#    y 0.000000 1.535400 0.000000 
#    z 0.026740 0.000000 1.580140 
# 
# From -- ./inp_files/48704.got.cif
#   From: 2010.05.17/outbox.cif.g08.bks.cpg/sg11_25_cif.got.tgz:48704.got - 2010.06.03 12:22:45.
