data_PCOD9155138
_publ_section_title
;
Structure prediction by ZEFSAII (Michael W. Deem and Ramdas Pophale) SiO2 
 PCOD9155138
Probable space group: P 2/M
;
_chemical_formula_sum "Si O2"
_cell_formula_units_Z 32
_cell_length_a 21.000000
_cell_length_b 9.000000
_cell_length_c 15.000000
_cell_angle_alpha 90.000000
_cell_angle_beta 140.000000
_cell_angle_gamma 90.000000
_cell_volume 1822.302873
_symmetry_space_group_name_H-M "P 2/M"
_symmetry_group_IT_number 10
_symmetry_cell_setting 'monoclinic'
loop_
_space_group_symop_operation_xyz
x,y,z
-x,y,-z
-x,-y,-z
x,-y,z
loop_
_atom_site_type_symbol
_atom_site_label
_atom_site_fract_x
_atom_site_fract_y
_atom_site_fract_z
Si Si1 0.953087 0.823659 0.736808
Si Si2 0.823050 0.674057 0.453744
Si Si3 0.885852 0.169132 0.350074
Si Si4 0.154616 0.673840 0.021189
Si Si5 0.232014 0.176879 0.944137
Si Si6 0.409696 0.820545 0.010325
Si Si7 0.375627 0.178719 0.766819
Si Si8 0.117426 0.831209 0.151396
O O1 0.908024 0.756082 0.600089
O O2 0.878473 0.797307 0.739882
O O3 0.054631 0.749999 0.876785
O O4 0.967883 0.000000 0.743805
O O5 0.830621 0.500000 0.473691
O O6 0.834344 0.719790 0.362746
O O7 0.718204 0.738514 0.372300
O O8 0.862403 0.203942 0.222317
O O9 0.000000 0.169084 0.500000
O O10 0.846634 0.000000 0.322862
O O11 0.144146 0.500000 0.004135
O O12 0.233615 0.736996 0.037531
O O13 0.169631 0.723558 0.138588
O O14 0.323241 0.226629 0.981805
O O15 0.235030 0.000000 0.963927
O O16 0.387224 0.781747 0.884101
O O17 0.411261 0.000000 0.011829
O O18 0.518440 0.774746 0.157998
O O19 0.362534 0.000000 0.745818
O O20 0.150138 0.000000 0.170643
O O21 0.000000 0.826515 0.000000
#
# Coordination Sequence:
#
# PCOD9155138 Si02
#       8
#     4   4   4   4   4   4   4   4
#     4  10  20  35  53  70  93 129 170 206 236 277
#     4  12  23  32  46  72 102 129 157 195 248 299
#     4  10  20  33  49  66  90 131 173 202 233 275
#     4  11  21  31  47  74 105 132 157 195 245 292
#     4  10  18  31  49  70  96 130 170 203 235 279
#     4   8  15  29  53  74  88 119 167 213 242 273
#     4   9  16  32  53  71  91 120 165 208 244 284
#     4   8  16  32  52  71  91 122 164 204 239 278
#
# _framework density 17.560198
#
# number of rings (size 3 to 8) (size 9 to 14) (size 15 to 20)
#    0.000    2.250    1.250    4.875    0.000    4.500 
#    0.000    1.875    0.000    0.000    0.000    0.875 
#    0.000    7.000    0.000    0.000    0.000    0.000 
#
# Total GULP energy -178284.274300 kJ/mol
# GULP energy per Si atom -5571.383572 kJ/mol
# Density = 1.752023 g / cm^3
# Si number density = 17.560198 Si / 1000 Ang^3
#
#
#
# Elastic Constant Matrix: (Units=GPa)
#
#
# Indices 1 2 3 4 5 6 
#
# 1 66.1671 43.4500 15.7970 0.0000 -0.0568 0.0000
# 2 43.4500 56.5930 13.0457 0.0000 -10.8842 0.0000
# 3 15.7970 13.0457 11.8061 0.0000 6.5919 0.0000
# 4 0.0000 0.0000 0.0000 3.7833 0.0000 10.1475
# 5 -0.0568 -10.8842 6.5919 0.0000 23.2770 0.0000
# 6 0.0000 0.0000 0.0000 10.1475 0.0000 -344.7095
#
#
#
# Elastic Compliance Matrix: (Units=1/GPa)
#
#
# Indices 1 2 3 4 5 6 
#
# 1 0.035024 -0.024559 -0.015870 0.000000 -0.006904 0.000000
# 2 -0.024559 0.056695 -0.052922 0.000000 0.041437 0.000000
# 3 -0.015870 -0.052922 0.211733 0.000000 -0.084746 0.000000
# 4 0.000000 0.000000 0.000000 0.244977 0.000000 0.007212
# 5 -0.006904 0.041437 -0.084746 0.000000 0.086319 0.000000
# 6 0.000000 0.000000 0.000000 0.007212 0.000000 -0.002689
#
#
# Mechanical properties :
#
#
# Convention : Reuss Voigt Hill
#
# Bulk Modulus (GPa) = 8.56550 31.01683 19.79116
# Shear Modulus (GPa) = 5.82970 -59.37828 -26.77429
#
# Velocity S-wave (km/s) = 1.82402 -5.82130 -3.90900
# Velocity P-wave (km/s) = 3.05359 5.24232 3.01309
#
# Compressibility (1/GPa) = 0.11674742
#
# Stress axis : x y z
#
# Youngs Moduli (GPa) = 28.55221 17.63833 4.72294
#
# Poissons Ratio (x) = 0.43318 0.07495
# Poissons Ratio (y) = 0.70122 0.24995
# Poissons Ratio (z) = 0.45312 0.93346
#
# Static dielectric constant tensor:
#      x y z
#    x 1.707760 0.000000 0.027410 
#    y 0.000000 1.582200 0.000000 
#    z 0.027410 0.000000 1.591050 
# 
# From -- ./inp_files/66153.got.cif
#   From: 2010.05.17/outbox.ucp.g08.bks.cvg/sg10_34_cif.got.tgz:66153.got - 2010.06.11 11:31:16.
