data_PCOD9155805
_publ_section_title
;
Structure prediction by ZEFSAII (Michael W. Deem and Ramdas Pophale) SiO2 
 PCOD9155805
Probable space group: P 21/M
;
_chemical_formula_sum "Si O2"
_cell_formula_units_Z 24
_cell_length_a 10.002125
_cell_length_b 19.322118
_cell_length_c 13.359665
_cell_angle_alpha 90.000000
_cell_angle_beta 33.334595
_cell_angle_gamma 90.000000
_cell_volume 1418.835049
_symmetry_space_group_name_H-M "P 21/M"
_symmetry_group_IT_number 11
_symmetry_cell_setting 'monoclinic'
loop_
_space_group_symop_operation_xyz
x,y,z
-x,1/2+y,-z
-x,-y,-z
x,1/2-y,z
loop_
_atom_site_type_symbol
_atom_site_label
_atom_site_fract_x
_atom_site_fract_y
_atom_site_fract_z
Si Si1 0.411613 0.394388 0.104137
Si Si2 0.230570 0.431721 0.631827
Si Si3 0.118738 0.670839 0.252638
Si Si4 0.941826 0.419032 0.513239
Si Si5 0.494744 0.039532 0.665677
Si Si6 0.749511 0.517808 0.975701
O O1 0.179819 0.383199 0.318800
O O2 0.307929 0.417950 0.060941
O O3 0.617685 0.336744 0.964366
O O4 0.557210 0.459443 0.060567
O O5 0.401202 0.465868 0.439928
O O6 0.381527 0.424613 0.639185
O O7 0.092948 0.363086 0.682385
O O8 0.016094 0.487704 0.787188
O O9 0.069524 0.750000 0.308901
O O10 0.130913 0.620261 0.340760
O O11 0.000000 0.500000 0.500000
O O12 0.721648 0.420654 0.572645
O O13 0.301886 0.031416 0.875946
#
# Coordination Sequence:
#
# PCOD9155805 Si02
#       6
#     4   4   4   4   4   4
#     4  10  18  30  54  80 108 135 177 229 272 316
#     4  10  21  33  51  84 114 143 180 231 281 331
#     4  11  23  38  55  77 111 152 189 226 284 349
#     4  12  18  35  60  87 109 139 187 242 278 322
#     4  11  19  31  55  87 112 135 183 235 282 324
#     4  10  16  30  52  81 109 136 171 225 272 318
#
# _framework density 16.915285999999998
#
# number of rings (size 3 to 8) (size 9 to 14) (size 15 to 20)
#    0.000    1.333    6.667    1.500    0.000    0.667 
#    0.000    0.833    0.000    0.000    0.000    0.000 
#    0.000    0.000    0.000    0.000    0.000    0.000 
#
# Total GULP energy -133874.440101 kJ/mol
# GULP energy per Si atom -5578.101671 kJ/mol
# Density = 1.687679 g / cm^3
# Si number density = 16.915286 Si / 1000 Ang^3
#
#
#
# Elastic Constant Matrix: (Units=GPa)
#
#
# Indices 1 2 3 4 5 6 
#
# 1 108.8939 25.4928 2.4079 0.0000 -2.6315 0.0000
# 2 25.4928 66.4174 7.0066 0.0000 -1.9609 0.0000
# 3 2.4079 7.0066 68.6114 0.0000 6.8539 0.0000
# 4 0.0000 0.0000 0.0000 11.5736 0.0000 2.2121
# 5 -2.6315 -1.9609 6.8539 0.0000 27.0755 0.0000
# 6 0.0000 0.0000 0.0000 2.2121 0.0000 8.5083
#
#
#
# Elastic Compliance Matrix: (Units=1/GPa)
#
#
# Indices 1 2 3 4 5 6 
#
# 1 0.010103 -0.003854 -0.000032 0.000000 0.000711 0.000000
# 2 -0.003854 0.016752 -0.001702 0.000000 0.001270 0.000000
# 3 -0.000032 -0.001702 0.015145 0.000000 -0.003960 0.000000
# 4 0.000000 0.000000 0.000000 0.090922 0.000000 -0.023640
# 5 0.000711 0.001270 -0.003960 0.000000 0.038097 0.000000
# 6 0.000000 0.000000 0.000000 -0.023640 0.000000 0.123679
#
#
# Mechanical properties :
#
#
# Convention : Reuss Voigt Hill
#
# Bulk Modulus (GPa) = 32.44095 34.85969 33.65032
# Shear Modulus (GPa) = 15.81526 23.36584 19.59055
#
# Velocity S-wave (km/s) = 3.06104 3.72068 3.40686
# Velocity P-wave (km/s) = 5.63147 6.25388 5.95082
#
# Compressibility (1/GPa) = 0.03082524
#
# Stress axis : x y z
#
# Youngs Moduli (GPa) = 98.97782 59.69276 66.02655
#
# Poissons Ratio (x) = 0.23003 0.00212
# Poissons Ratio (y) = 0.38141 0.11240
# Poissons Ratio (z) = 0.00317 0.10162
#
# Static dielectric constant tensor:
#      x y z
#    x 1.576770 0.000000 -0.001980 
#    y 0.000000 1.545960 0.000000 
#    z -0.001980 0.000000 1.612260 
# 
# From -- ./inp_files/13786.got.cif
#   From: 2010.05.17/outbox.cif.g08.bks.cpg/sg11_7_cif.got.tgz:13786.got - 2010.06.03 12:22:45.
