data_PCOD9155533
_publ_section_title
;
Structure prediction by ZEFSAII (Michael W. Deem and Ramdas Pophale) SiO2 
 PCOD9155533
Probable space group: P 2/M
;
_chemical_formula_sum "Si O2"
_cell_formula_units_Z 32
_cell_length_a 21.000000
_cell_length_b 9.000000
_cell_length_c 27.000000
_cell_angle_alpha 90.000000
_cell_angle_beta 20.000000
_cell_angle_gamma 90.000000
_cell_volume 1745.328791
_symmetry_space_group_name_H-M "P 2/M"
_symmetry_group_IT_number 10
_symmetry_cell_setting 'monoclinic'
loop_
_space_group_symop_operation_xyz
x,y,z
-x,y,-z
-x,-y,-z
x,-y,z
loop_
_atom_site_type_symbol
_atom_site_label
_atom_site_fract_x
_atom_site_fract_y
_atom_site_fract_z
Si Si1 0.493683 0.676039 0.945401
Si Si2 0.883227 0.178836 0.634702
Si Si3 0.939345 0.178829 0.885184
Si Si4 0.218134 0.676674 0.842241
Si Si5 0.695331 0.677317 0.333883
Si Si6 0.413887 0.179308 0.792187
Si Si7 0.105754 0.179163 0.195947
Si Si8 0.841672 0.819371 0.477719
O O1 0.490625 0.500000 0.938129
O O2 0.680999 0.746581 0.785601
O O3 0.500000 0.700150 0.000000
O O4 0.303502 0.749934 0.065456
O O5 0.000000 0.212135 0.500000
O O6 0.014894 0.226009 0.584118
O O7 0.857102 0.000000 0.656349
O O8 0.941834 0.217255 0.825582
O O9 0.118977 0.248273 0.780189
O O10 0.949751 0.000000 0.882417
O O11 0.741592 0.226523 0.053816
O O12 0.223492 0.500000 0.849503
O O13 0.303354 0.701604 0.725910
O O14 0.331072 0.764267 0.800980
O O15 0.000000 0.720499 0.000000
O O16 0.500000 0.729878 0.500000
O O17 0.709473 0.500000 0.332303
O O18 0.628299 0.231553 0.641406
O O19 0.418706 0.000000 0.789447
O O20 0.940580 0.225301 0.354062
O O21 0.124259 0.000000 0.186241
O O22 0.835217 0.000000 0.483303
#
# Coordination Sequence:
#
# PCOD9155533 Si02
#       8
#     4   4   4   4   4   4   4   4
#     4  11  23  39  59  85 118 153 192 240 290 339
#     4  10  21  37  63  90 114 152 198 239 287 344
#     4  10  22  37  57  86 115 144 184 236 283 333
#     4  10  20  37  58  79 106 145 190 227 268 332
#     4  10  22  39  58  80 111 149 187 230 278 333
#     4  10  21  36  56  83 115 145 181 232 287 333
#     4  10  21  38  60  83 112 150 192 233 283 343
#     4   9  19  36  56  83 114 145 184 232 281 334
#
# _framework density 18.334654
#
# number of rings (size 3 to 8) (size 9 to 14) (size 15 to 20)
#    0.000    2.000    2.500    0.375    3.500    2.250 
#    0.000    1.250    0.000    0.000    0.000    0.000 
#    0.000    0.000    0.000    0.000    0.000    0.000 
#
# Total GULP energy -178600.158296 kJ/mol
# GULP energy per Si atom -5581.254947 kJ/mol
# Density = 1.829292 g / cm^3
# Si number density = 18.334654 Si / 1000 Ang^3
#
#
#
# Elastic Constant Matrix: (Units=GPa)
#
#
# Indices 1 2 3 4 5 6 
#
# 1 78.9097 16.7645 42.0747 0.0000 9.7526 0.0000
# 2 16.7645 8.3467 18.4242 0.0000 10.1839 0.0000
# 3 42.0747 18.4242 158.5417 0.0000 11.3568 0.0000
# 4 0.0000 0.0000 0.0000 11.6153 0.0000 6.6259
# 5 9.7526 10.1839 11.3568 0.0000 26.3938 0.0000
# 6 0.0000 0.0000 0.0000 6.6259 0.0000 9.8602
#
#
#
# Elastic Compliance Matrix: (Units=1/GPa)
#
#
# Indices 1 2 3 4 5 6 
#
# 1 0.027079 -0.082428 0.000858 0.000000 0.021430 0.000000
# 2 -0.082428 0.569987 -0.031770 0.000000 -0.175799 0.000000
# 3 0.000858 -0.031770 0.009200 0.000000 0.007983 0.000000
# 4 0.000000 0.000000 0.000000 0.139609 0.000000 -0.093815
# 5 0.021430 -0.175799 0.007983 0.000000 0.094365 0.000000
# 6 0.000000 0.000000 0.000000 -0.093815 0.000000 0.164460
#
#
# Mechanical properties :
#
#
# Convention : Reuss Voigt Hill
#
# Bulk Modulus (GPa) = 2.63446 44.48057 23.55751
# Shear Modulus (GPa) = 3.68213 20.80951 12.24582
#
# Velocity S-wave (km/s) = 1.41868 3.37260 2.58719
# Velocity P-wave (km/s) = 2.03065 6.28323 4.66918
#
# Compressibility (1/GPa) = 0.37958507
#
# Stress axis : x y z
#
# Youngs Moduli (GPa) = 36.92914 1.75443 108.69431
#
# Poissons Ratio (x) = 0.14461 -0.09321
# Poissons Ratio (y) = 3.04398 3.45325
# Poissons Ratio (z) = -0.03167 0.05574
#
# Static dielectric constant tensor:
#      x y z
#    x 1.621810 0.000000 0.023610 
#    y 0.000000 1.614820 0.000000 
#    z 0.023610 0.000000 1.618380 
# 
# From -- ./inp_files/93586.got.cif
#   From: 2010.05.17/outbox.ucp.g08.bks.cvg/sg10_47_cif.got.tgz:93586.got - 2010.06.11 11:31:16.
