data_PCOD9155951
_publ_section_title
;
Structure prediction by ZEFSAII (Michael W. Deem and Ramdas Pophale) SiO2 
 PCOD9155951
Probable space group: P 21/M
;
_chemical_formula_sum "Si O2"
_cell_formula_units_Z 32
_cell_length_a 17.627790
_cell_length_b 8.656316
_cell_length_c 24.744971
_cell_angle_alpha 90.000000
_cell_angle_beta 33.593149
_cell_angle_gamma 90.000000
_cell_volume 2089.162740
_symmetry_space_group_name_H-M "P 21/M"
_symmetry_group_IT_number 11
_symmetry_cell_setting 'monoclinic'
loop_
_space_group_symop_operation_xyz
x,y,z
-x,1/2+y,-z
-x,-y,-z
x,1/2-y,z
loop_
_atom_site_type_symbol
_atom_site_label
_atom_site_fract_x
_atom_site_fract_y
_atom_site_fract_z
Si Si1 0.871072 0.933856 0.608236
Si Si2 0.484911 0.432733 0.924442
Si Si3 0.105867 0.433912 0.892459
Si Si4 0.097430 0.433555 0.064934
Si Si5 0.193030 0.566590 0.120218
Si Si6 0.307808 0.933821 0.850857
Si Si7 0.208472 0.936240 0.229684
Si Si8 0.565053 0.934989 0.763496
O O1 0.881184 0.750000 0.603912
O O2 0.725947 0.972979 0.665186
O O3 0.859791 0.995590 0.676257
O O4 0.000000 0.000000 0.500000
O O5 0.462020 0.250000 0.946562
O O6 0.630065 0.479964 0.864271
O O7 0.505679 0.469218 0.848892
O O8 0.354661 0.528366 0.020839
O O9 0.097493 0.250000 0.895801
O O10 0.250990 0.487342 0.830380
O O11 0.047534 0.504619 0.871872
O O12 0.000000 0.500000 0.000000
O O13 0.104766 0.250000 0.054356
O O14 0.123973 0.481966 0.110706
O O15 0.214943 0.507817 0.956567
O O16 0.173077 0.750000 0.126153
O O17 0.148376 0.518360 0.207131
O O18 0.287679 0.750000 0.858487
O O19 0.465763 0.965245 0.771975
O O20 0.203990 0.750000 0.236068
O O21 0.553862 0.750000 0.782138
#
# Coordination Sequence:
#
# PCOD9155951 Si02
#       8
#     4   4   4   4   4   4   4   4
#     4  10  20  35  53  71  91 118 149 188 234 278
#     4  10  18  28  43  63  88 118 153 189 223 261
#     4  10  18  28  41  58  83 117 154 189 226 265
#     4  11  20  29  41  60  86 120 159 192 225 262
#     4  11  20  30  43  61  90 123 154 188 226 266
#     4  10  17  28  44  62  87 117 152 191 227 265
#     4   9  20  34  47  65  88 117 152 189 227 270
#     4   9  18  30  46  66  90 120 153 186 227 272
#
# _framework density 15.317140999999999
#
# number of rings (size 3 to 8) (size 9 to 14) (size 15 to 20)
#    0.000    2.000    1.250    5.625    0.000    2.500 
#    0.000    0.000    0.000    0.000    0.000    0.000 
#    0.000    1.000    0.000    3.000    0.000    4.000 
#
# Total GULP energy -178415.002566 kJ/mol
# GULP energy per Si atom -5575.468830 kJ/mol
# Density = 1.528228 g / cm^3
# Si number density = 15.317141 Si / 1000 Ang^3
#
#
#
# Elastic Constant Matrix: (Units=GPa)
#
#
# Indices 1 2 3 4 5 6 
#
# 1 122.2423 34.6206 48.5502 0.0000 5.7098 0.0000
# 2 34.6206 56.2616 18.0073 0.0000 1.1247 0.0000
# 3 48.5502 18.0073 57.6186 0.0000 -2.0279 0.0000
# 4 0.0000 0.0000 0.0000 16.9727 0.0000 -1.8788
# 5 5.7098 1.1247 -2.0279 0.0000 9.3980 0.0000
# 6 0.0000 0.0000 0.0000 -1.8788 0.0000 23.0860
#
#
#
# Elastic Compliance Matrix: (Units=1/GPa)
#
#
# Indices 1 2 3 4 5 6 
#
# 1 0.014502 -0.005203 -0.010965 0.000000 -0.010554 0.000000
# 2 -0.005203 0.021747 -0.002411 0.000000 0.000039 0.000000
# 3 -0.010965 -0.002411 0.027804 0.000000 0.012950 0.000000
# 4 0.000000 0.000000 0.000000 0.059454 0.000000 0.004839
# 5 -0.010554 0.000039 0.012950 0.000000 0.115608 0.000000
# 6 0.000000 0.000000 0.000000 0.004839 0.000000 0.043710
#
#
# Mechanical properties :
#
#
# Convention : Reuss Voigt Hill
#
# Bulk Modulus (GPa) = 37.18181 48.71986 42.95083
# Shear Modulus (GPa) = 15.20003 18.88761 17.04382
#
# Velocity S-wave (km/s) = 3.15358 3.51537 3.33938
# Velocity P-wave (km/s) = 6.13086 6.95367 6.55519
#
# Compressibility (1/GPa) = 0.02689487
#
# Stress axis : x y z
#
# Youngs Moduli (GPa) = 68.95640 45.98381 35.96635
#
# Poissons Ratio (x) = 0.23927 0.39436
# Poissons Ratio (y) = 0.35880 0.08670
# Poissons Ratio (z) = 0.75609 0.11085
#
# Static dielectric constant tensor:
#      x y z
#    x 1.565530 0.000000 -0.016300 
#    y 0.000000 1.511130 0.000000 
#    z -0.016300 0.000000 1.481800 
# 
# From -- ./inp_files/69420.got.cif
#   From: 2010.05.17/outbox.cif.g08.bks.cpg/sg11_35_cif.got.tgz:69420.got - 2010.06.03 12:22:45.
