data_PCOD9155706
_publ_section_title
;
Structure prediction by ZEFSAII (Michael W. Deem and Ramdas Pophale) SiO2 
 PCOD9155706
Probable space group: P 2/M
;
_chemical_formula_sum "Si O2"
_cell_formula_units_Z 28
_cell_length_a 9.000000
_cell_length_b 15.000000
_cell_length_c 12.000000
_cell_angle_alpha 90.000000
_cell_angle_beta 110.000000
_cell_angle_gamma 90.000000
_cell_volume 1522.302046
_symmetry_space_group_name_H-M "P 2/M"
_symmetry_group_IT_number 10
_symmetry_cell_setting 'monoclinic'
loop_
_space_group_symop_operation_xyz
x,y,z
-x,y,-z
-x,-y,-z
x,-y,z
loop_
_atom_site_type_symbol
_atom_site_label
_atom_site_fract_x
_atom_site_fract_y
_atom_site_fract_z
Si Si1 0.404368 0.342459 0.709867
Si Si2 0.483980 0.000000 0.204181
Si Si3 0.227681 0.278084 0.879647
Si Si4 0.733140 0.602210 0.894735
Si Si5 0.557669 0.834314 0.642289
Si Si6 0.500000 0.862897 0.000000
Si Si7 0.841154 0.401692 0.532944
Si Si8 0.129616 0.267623 0.255323
O O1 0.284055 0.318707 0.777324
O O2 0.551310 0.392453 0.805308
O O3 0.473465 0.251634 0.675602
O O4 0.309082 0.390719 0.586986
O O5 0.483617 0.921764 0.300020
O O6 0.482662 0.922694 0.105002
O O7 0.348006 0.200581 0.946286
O O8 0.050884 0.242108 0.815355
O O9 0.242759 0.353715 0.978189
O O10 0.785640 0.500000 0.906690
O O11 0.824466 0.665792 0.832676
O O12 0.500000 0.840232 0.500000
O O13 0.745014 0.812428 0.702796
O O14 0.834414 0.500000 0.584804
O O15 0.849889 0.325072 0.626924
O O16 0.000000 0.397131 0.500000
#
# Coordination Sequence:
#
# PCOD9155706 Si02
#       8
#     4   2   4   4   4   2   4   4
#     4  11  21  40  63  89 123 166 212 253 303 370
#     4  11  23  40  71  95 117 153 205 257 308 381
#     4  12  22  42  65  88 126 168 210 249 311 367
#     4  11  24  38  57  90 127 168 213 258 302 351
#     4  11  22  42  67  92 124 158 198 249 320 380
#     4  11  22  44  65  92 120 158 205 258 308 375
#     4  11  22  36  59  92 126 169 215 258 298 344
#     4  11  24  40  63  91 128 167 203 256 310 368
#
# _framework density 18.393196
#
# number of rings (size 3 to 8) (size 9 to 14) (size 15 to 20)
#    0.000    0.857    5.714    2.357    0.000    3.429 
#    0.000    4.286    0.000    0.857    0.000    0.000 
#    0.000    0.000    0.000    0.000    0.000    0.000 
#
# Total GULP energy -155912.796118 kJ/mol
# GULP energy per Si atom -5568.314147 kJ/mol
# Density = 1.835133 g / cm^3
# Si number density = 18.393196 Si / 1000 Ang^3
#
#
#
# Elastic Constant Matrix: (Units=GPa)
#
#
# Indices 1 2 3 4 5 6 
#
# 1 72.7178 5.6431 31.4194 0.0000 20.7244 0.0000
# 2 5.6431 82.3326 33.0967 0.0000 -2.1635 0.0000
# 3 31.4194 33.0967 126.7760 0.0000 -2.9023 0.0000
# 4 0.0000 0.0000 0.0000 2.8812 0.0000 -4.1388
# 5 20.7244 -2.1635 -2.9023 0.0000 39.1357 0.0000
# 6 0.0000 0.0000 0.0000 -4.1388 0.0000 -1.8141
#
#
#
# Elastic Compliance Matrix: (Units=1/GPa)
#
#
# Indices 1 2 3 4 5 6 
#
# 1 0.018826 0.000457 -0.005021 0.000000 -0.010316 0.000000
# 2 0.000457 0.013590 -0.003656 0.000000 0.000238 0.000000
# 3 -0.005021 -0.003656 0.010160 0.000000 0.003210 0.000000
# 4 0.000000 0.000000 0.000000 0.081144 0.000000 -0.185128
# 5 -0.010316 0.000238 0.003210 0.000000 0.031267 0.000000
# 6 0.000000 0.000000 0.000000 -0.185128 0.000000 -0.128874
#
#
# Mechanical properties :
#
#
# Convention : Reuss Voigt Hill
#
# Bulk Modulus (GPa) = 38.26039 46.90498 42.58269
# Shear Modulus (GPa) = 97.53221 22.15169 59.84195
#
# Velocity S-wave (km/s) = 7.28981 3.47413 5.71012
# Velocity P-wave (km/s) = 9.57610 6.45363 8.16551
#
# Compressibility (1/GPa) = 0.02613669
#
# Stress axis : x y z
#
# Youngs Moduli (GPa) = 53.11799 73.58156 98.42281
#
# Poissons Ratio (x) = -0.03363 0.49420
# Poissons Ratio (y) = -0.02428 0.35981
# Poissons Ratio (z) = 0.26672 0.26900
#
# Static dielectric constant tensor:
#      x y z
#    x 1.666100 0.000000 0.000420 
#    y 0.000000 1.594150 0.000000 
#    z 0.000420 0.000000 1.628950 
# 
# From -- ./inp_files/42782.got.cif
#   From: 2010.05.17/outbox.ucp.g08.bks.cvg/sg10_22_cif.got.tgz:42782.got - 2010.06.11 11:31:16.
