data_PCOD9155438
_publ_section_title
;
Structure prediction by ZEFSAII (Michael W. Deem and Ramdas Pophale) SiO2 
 PCOD9155438
Probable space group: P 2/M
;
_chemical_formula_sum "Si O2"
_cell_formula_units_Z 32
_cell_length_a 21.000000
_cell_length_b 9.000000
_cell_length_c 27.000000
_cell_angle_alpha 90.000000
_cell_angle_beta 160.000000
_cell_angle_gamma 90.000000
_cell_volume 1745.328791
_symmetry_space_group_name_H-M "P 2/M"
_symmetry_group_IT_number 10
_symmetry_cell_setting 'monoclinic'
loop_
_space_group_symop_operation_xyz
x,y,z
-x,y,-z
-x,-y,-z
x,-y,z
loop_
_atom_site_type_symbol
_atom_site_label
_atom_site_fract_x
_atom_site_fract_y
_atom_site_fract_z
Si Si1 0.325344 0.678036 0.131362
Si Si2 0.062857 0.674303 0.102378
Si Si3 0.401795 0.820912 0.587921
Si Si4 0.153210 0.829894 0.569330
Si Si5 0.472137 0.676894 0.133853
Si Si6 0.017431 0.176160 0.358962
Si Si7 0.367654 0.679077 0.948139
Si Si8 0.554479 0.178007 0.594369
O O1 0.359177 0.500000 0.157923
O O2 0.456707 0.752256 0.268618
O O3 0.364774 0.732361 0.104390
O O4 0.113338 0.703513 0.991792
O O5 0.115424 0.500000 0.144989
O O6 0.234596 0.776188 0.241347
O O7 0.000000 0.699529 0.000000
O O8 0.194763 0.785269 0.454948
O O9 0.442314 0.769632 0.561326
O O10 0.422993 0.000000 0.605088
O O11 0.315493 0.717100 0.700458
O O12 0.069668 0.798321 0.454428
O O13 0.000000 0.822944 0.500000
O O14 0.227221 0.000000 0.621944
O O15 0.444241 0.500000 0.111904
O O16 0.420943 0.735501 0.041971
O O17 0.839477 0.269950 0.214694
O O18 0.979260 0.000000 0.325379
O O19 0.380243 0.500000 0.957962
O O20 0.500000 0.732574 0.000000
O O21 0.500000 0.235667 0.500000
O O22 0.534317 0.000000 0.578485
#
# Coordination Sequence:
#
# PCOD9155438 Si02
#       8
#     4   4   4   4   4   4   4   4
#     4  10  20  35  56  82 111 141 181 231 277 323
#     4  10  20  35  56  82 111 145 186 229 274 326
#     4  10  20  36  57  80 111 145 180 225 274 326
#     4  10  20  34  54  81 110 139 177 224 270 321
#     4  10  21  36  55  80 108 140 181 226 270 320
#     4  10  21  36  55  81 109 142 183 222 270 327
#     4  10  22  39  56  78 111 147 182 222 270 326
#     4  10  22  38  56  82 115 148 185 227 271 325
#
# _framework density 18.334654
#
# number of rings (size 3 to 8) (size 9 to 14) (size 15 to 20)
#    0.000    2.000    2.500    0.750    0.000    4.000 
#    0.000    0.000    0.000    0.000    0.000    0.000 
#    0.000    0.000    0.000    0.000    0.000    0.000 
#
# Total GULP energy -178491.788557 kJ/mol
# GULP energy per Si atom -5577.868392 kJ/mol
# Density = 1.829292 g / cm^3
# Si number density = 18.334654 Si / 1000 Ang^3
#
#
#
# Elastic Constant Matrix: (Units=GPa)
#
#
# Indices 1 2 3 4 5 6 
#
# 1 190.3635 24.8942 63.7195 0.0000 -6.8683 0.0000
# 2 24.8942 -13.0367 5.7783 0.0000 -0.3024 0.0000
# 3 63.7195 5.7783 50.2404 0.0000 -0.7327 0.0000
# 4 0.0000 0.0000 0.0000 25.9080 0.0000 -5.1777
# 5 -6.8683 -0.3024 -0.7327 0.0000 23.9755 0.0000
# 6 0.0000 0.0000 0.0000 -5.1777 0.0000 17.3921
#
#
#
# Elastic Compliance Matrix: (Units=1/GPa)
#
#
# Indices 1 2 3 4 5 6 
#
# 1 0.007665 0.009796 -0.010820 0.000000 0.001989 0.000000
# 2 0.009796 -0.060457 -0.005443 0.000000 0.001877 0.000000
# 3 -0.010820 -0.005443 0.034222 0.000000 -0.002122 0.000000
# 4 0.000000 0.000000 0.000000 0.041040 0.000000 0.012218
# 5 0.001989 0.001877 -0.002122 0.000000 0.042238 0.000000
# 6 0.000000 0.000000 0.000000 0.012218 0.000000 0.061134
#
#
# Mechanical properties :
#
#
# Convention : Reuss Voigt Hill
#
# Bulk Modulus (GPa) = -31.74200 46.26122 7.25961
# Shear Modulus (GPa) = 38.97865 22.33348 30.65607
#
# Velocity S-wave (km/s) = 4.61581 3.49392 4.09348
# Velocity P-wave (km/s) = 3.32527 6.44693 5.12935
#
# Compressibility (1/GPa) = -0.03150400
#
# Stress axis : x y z
#
# Youngs Moduli (GPa) = 130.45498 -16.54065 29.22100
#
# Poissons Ratio (x) = 0.16203 0.31616
# Poissons Ratio (y) = -1.27791 0.15906
# Poissons Ratio (z) = 1.41148 -0.09004
#
# Static dielectric constant tensor:
#      x y z
#    x 1.553960 0.000000 -0.023100 
#    y 0.000000 1.630570 0.000000 
#    z -0.023100 0.000000 1.581920 
# 
# From -- ./inp_files/86932.got.cif
#   From: 2010.05.17/outbox.ucp.g08.bks.cvg/sg10_44_cif.got.tgz:86932.got - 2010.06.11 11:31:16.
