data_PCOD9155283
_publ_section_title
;
Structure prediction by ZEFSAII (Michael W. Deem and Ramdas Pophale) SiO2 
 PCOD9155283
Probable space group: P 2/M
;
_chemical_formula_sum "Si O2"
_cell_formula_units_Z 32
_cell_length_a 21.000000
_cell_length_b 9.000000
_cell_length_c 27.000000
_cell_angle_alpha 90.000000
_cell_angle_beta 20.000000
_cell_angle_gamma 90.000000
_cell_volume 1745.328791
_symmetry_space_group_name_H-M "P 2/M"
_symmetry_group_IT_number 10
_symmetry_cell_setting 'monoclinic'
loop_
_space_group_symop_operation_xyz
x,y,z
-x,y,-z
-x,-y,-z
x,-y,z
loop_
_atom_site_type_symbol
_atom_site_label
_atom_site_fract_x
_atom_site_fract_y
_atom_site_fract_z
Si Si1 0.676773 0.833499 0.142857
Si Si2 0.053419 0.675681 0.515087
Si Si3 0.994065 0.680086 0.668390
Si Si4 0.957823 0.325693 0.875121
Si Si5 0.298566 0.674561 0.034955
Si Si6 0.420436 0.166089 0.232968
Si Si7 0.634157 0.320621 0.448118
Si Si8 0.635580 0.179741 0.553421
O O1 0.561741 0.841636 0.175567
O O2 0.535349 0.772212 0.286628
O O3 0.728817 0.000000 0.119760
O O4 0.856060 0.742998 0.996394
O O5 0.015520 0.500000 0.541390
O O6 0.973097 0.729660 0.626445
O O7 0.270313 0.713282 0.358715
O O8 0.000000 0.738566 0.500000
O O9 0.019552 0.500000 0.650614
O O10 0.173941 0.753507 0.562863
O O11 0.813610 0.712790 0.833603
O O12 0.971350 0.500000 0.873631
O O13 0.162162 0.266323 0.716767
O O14 0.842825 0.306836 0.908073
O O15 0.352405 0.500000 0.997287
O O16 0.472636 0.776377 0.893644
O O17 0.341922 0.000000 0.283766
O O18 0.500000 0.292200 0.500000
O O19 0.638022 0.500000 0.453919
O O20 0.595663 0.240163 0.527919
O O21 0.648401 0.000000 0.545151
#
# Coordination Sequence:
#
# PCOD9155283 Si02
#       8
#     4   4   4   4   4   4   4   4
#     4   9  19  33  50  77 108 137 173 219 265 312
#     4  10  21  36  55  80 109 143 181 220 268 323
#     4  10  19  34  56  80 107 138 178 224 268 312
#     4   9  17  31  52  78 103 134 176 217 261 312
#     4   9  17  31  52  78 104 132 174 223 265 311
#     4  10  19  33  52  77 108 141 176 216 267 319
#     4  10  21  38  57  79 110 144 179 220 266 319
#     4  11  21  34  54  81 110 137 177 223 265 316
#
# _framework density 18.334654
#
# number of rings (size 3 to 8) (size 9 to 14) (size 15 to 20)
#    0.000    2.250    2.500    0.750    0.000    3.000 
#    0.000    1.250    0.000    7.500    0.000    0.000 
#    0.000    0.000    0.000    0.000    0.000    0.000 
#
# Total GULP energy -178203.329635 kJ/mol
# GULP energy per Si atom -5568.854051 kJ/mol
# Density = 1.829292 g / cm^3
# Si number density = 18.334654 Si / 1000 Ang^3
#
#
#
# Elastic Constant Matrix: (Units=GPa)
#
#
# Indices 1 2 3 4 5 6 
#
# 1 79.3827 46.0981 37.8607 0.0000 51.3978 0.0000
# 2 46.0981 31.0028 33.8124 0.0000 34.3112 0.0000
# 3 37.8607 33.8124 85.9142 0.0000 66.3703 0.0000
# 4 0.0000 0.0000 0.0000 -305.8388 0.0000 62.7380
# 5 51.3978 34.3112 66.3703 0.0000 47.0403 0.0000
# 6 0.0000 0.0000 0.0000 62.7380 0.0000 3.0147
#
#
#
# Elastic Compliance Matrix: (Units=1/GPa)
#
#
# Indices 1 2 3 4 5 6 
#
# 1 0.066204 -0.146165 -0.020797 0.000000 0.063619 0.000000
# 2 -0.146165 0.352512 -0.010384 0.000000 -0.082767 0.000000
# 3 -0.020797 -0.010384 -0.016515 0.000000 0.053599 0.000000
# 4 0.000000 0.000000 0.000000 -0.000621 0.000000 0.012914
# 5 0.063619 -0.082767 0.053599 0.000000 -0.063507 0.000000
# 6 0.000000 0.000000 0.000000 0.012914 0.000000 0.062955
#
#
# Mechanical properties :
#
#
# Convention : Reuss Voigt Hill
#
# Bulk Modulus (GPa) = 21.04843 47.98245 34.51544
# Shear Modulus (GPa) = 6.48041 -45.92151 -19.72055
#
# Velocity S-wave (km/s) = 1.88207 -5.01006 -3.28318
# Velocity P-wave (km/s) = 4.02840 2.69080 2.11986
#
# Compressibility (1/GPa) = 0.04750949
#
# Stress axis : x y z
#
# Youngs Moduli (GPa) = 15.10480 2.83678 -60.55080
#
# Poissons Ratio (x) = 0.41464 -1.25927
# Poissons Ratio (y) = 2.20780 -0.62874
# Poissons Ratio (z) = 0.31413 0.02946
#
# Static dielectric constant tensor:
#      x y z
#    x 1.621420 0.000000 -0.034180 
#    y 0.000000 0.049860 0.000000 
#    z -0.034180 0.000000 1.606880 
# 
# From -- ./inp_files/86164.got.cif
#   From: 2010.05.17/outbox.ucp.g08.bks.cvg/sg10_44_cif.got.tgz:86164.got - 2010.06.11 11:31:16.
