data_PCOD9155603
_publ_section_title
;
Structure prediction by ZEFSAII (Michael W. Deem and Ramdas Pophale) SiO2 
 PCOD9155603
Probable space group: P 2/M
;
_chemical_formula_sum "Si O2"
_cell_formula_units_Z 32
_cell_length_a 15.000000
_cell_length_b 9.000000
_cell_length_c 24.000000
_cell_angle_alpha 90.000000
_cell_angle_beta 30.000000
_cell_angle_gamma 90.000000
_cell_volume 1620.000000
_symmetry_space_group_name_H-M "P 2/M"
_symmetry_group_IT_number 10
_symmetry_cell_setting 'monoclinic'
loop_
_space_group_symop_operation_xyz
x,y,z
-x,y,-z
-x,-y,-z
x,-y,z
loop_
_atom_site_type_symbol
_atom_site_label
_atom_site_fract_x
_atom_site_fract_y
_atom_site_fract_z
Si Si1 0.069190 0.328503 0.715794
Si Si2 0.550206 0.678626 0.909896
Si Si3 0.336857 0.670403 0.675718
Si Si4 0.056479 0.176719 0.906101
Si Si5 0.689604 0.175685 0.504420
Si Si6 0.207358 0.824642 0.054639
Si Si7 0.230024 0.320905 0.426678
Si Si8 0.186481 0.679294 0.326333
O O1 0.013514 0.500000 0.735704
O O2 0.217466 0.329026 0.684571
O O3 0.154217 0.258139 0.614557
O O4 0.911803 0.234152 0.829127
O O5 0.561512 0.500000 0.907558
O O6 0.722604 0.731571 0.780602
O O7 0.500000 0.732376 0.000000
O O8 0.386011 0.729681 0.960578
O O9 0.395265 0.500000 0.653847
O O10 0.217854 0.729906 0.791693
O O11 0.504504 0.776439 0.576386
O O12 0.898315 0.197173 0.946257
O O13 0.101509 0.000000 0.881685
O O14 0.000000 0.216599 0.000000
O O15 0.670768 0.237052 0.577563
O O16 0.717200 0.000000 0.488709
O O17 0.241956 0.000000 0.042158
O O18 0.253375 0.500000 0.418088
O O19 0.271004 0.274553 0.340577
O O20 0.022154 0.287039 0.553074
O O21 0.199404 0.500000 0.318582
#
# Coordination Sequence:
#
# PCOD9155603 Si02
#       8
#     4   4   4   4   4   4   4   4
#     4  10  21  38  59  80 109 147 188 231 277 334
#     4  10  21  36  57  85 115 150 194 239 288 341
#     4  10  21  37  56  81 110 145 190 235 277 325
#     4   9  19  37  59  82 114 154 189 227 284 346
#     4  12  24  35  53  84 116 146 183 227 282 341
#     4  10  21  37  56  83 116 149 187 232 287 343
#     4   9  18  36  60  81 107 147 193 236 281 334
#     4   8  17  36  59  82 109 145 190 239 285 330
#
# _framework density 19.753086
#
# number of rings (size 3 to 8) (size 9 to 14) (size 15 to 20)
#    0.000    2.250    0.000    3.375    1.750    5.000 
#    0.000    5.000    0.000    0.000    0.000    0.000 
#    0.000    0.000    0.000    0.000    0.000    0.000 
#
# Total GULP energy -178553.345891 kJ/mol
# GULP energy per Si atom -5579.792059 kJ/mol
# Density = 1.970813 g / cm^3
# Si number density = 19.753086 Si / 1000 Ang^3
#
#
#
# Elastic Constant Matrix: (Units=GPa)
#
#
# Indices 1 2 3 4 5 6 
#
# 1 47.2483 15.0913 19.2136 0.0000 19.4446 0.0000
# 2 15.0913 43.8118 3.6904 0.0000 14.2301 0.0000
# 3 19.2136 3.6904 76.7820 0.0000 25.7841 0.0000
# 4 0.0000 0.0000 0.0000 23.4451 0.0000 0.8110
# 5 19.4446 14.2301 25.7841 0.0000 34.6500 0.0000
# 6 0.0000 0.0000 0.0000 0.8110 0.0000 19.5735
#
#
#
# Elastic Compliance Matrix: (Units=1/GPa)
#
#
# Indices 1 2 3 4 5 6 
#
# 1 0.029103 -0.006013 -0.003118 0.000000 -0.011543 0.000000
# 2 -0.006013 0.028167 0.003869 0.000000 -0.011072 0.000000
# 3 -0.003118 0.003869 0.018083 0.000000 -0.013295 0.000000
# 4 0.000000 0.000000 0.000000 0.042714 0.000000 -0.001770
# 5 -0.011543 -0.011072 -0.013295 0.000000 0.049778 0.000000
# 6 0.000000 0.000000 0.000000 -0.001770 0.000000 0.051163
#
#
# Mechanical properties :
#
#
# Convention : Reuss Voigt Hill
#
# Bulk Modulus (GPa) = 15.42517 27.09254 21.25885
# Shear Modulus (GPa) = 19.90912 24.19016 22.04964
#
# Velocity S-wave (km/s) = 3.17819 3.50326 3.34468
# Velocity P-wave (km/s) = 4.61452 5.48718 5.06966
#
# Compressibility (1/GPa) = 0.06482912
#
# Stress axis : x y z
#
# Youngs Moduli (GPa) = 34.36015 35.50314 55.30126
#
# Poissons Ratio (x) = 0.21349 0.17241
# Poissons Ratio (y) = 0.20662 -0.21396
# Poissons Ratio (z) = 0.10712 -0.13736
#
# Static dielectric constant tensor:
#      x y z
#    x 1.751400 0.000000 -0.036950 
#    y 0.000000 1.657100 0.000000 
#    z -0.036950 0.000000 1.718620 
# 
# From -- ./inp_files/89530.got.cif
#   From: 2010.05.17/outbox.ucp.g08.bks.cvg/sg10_45_cif.got.tgz:89530.got - 2010.06.11 11:31:16.
