data_PCOD9155308
_publ_section_title
;
Structure prediction by ZEFSAII (Michael W. Deem and Ramdas Pophale) SiO2 
 PCOD9155308
Probable space group: P 2/M
;
_chemical_formula_sum "Si O2"
_cell_formula_units_Z 32
_cell_length_a 15.000000
_cell_length_b 9.000000
_cell_length_c 12.000000
_cell_angle_alpha 90.000000
_cell_angle_beta 90.000000
_cell_angle_gamma 90.000000
_cell_volume 1620.000000
_symmetry_space_group_name_H-M "P 2/M"
_symmetry_group_IT_number 10
_symmetry_cell_setting 'monoclinic'
loop_
_space_group_symop_operation_xyz
x,y,z
-x,y,-z
-x,-y,-z
x,-y,z
loop_
_atom_site_type_symbol
_atom_site_label
_atom_site_fract_x
_atom_site_fract_y
_atom_site_fract_z
Si Si1 0.241743 0.170939 0.389321
Si Si2 0.899936 0.672210 0.993290
Si Si3 0.259007 0.830924 0.126501
Si Si4 0.399284 0.678959 0.978048
Si Si5 0.882679 0.670908 0.255444
Si Si6 0.599217 0.322451 0.476604
Si Si7 0.690263 0.679389 0.250857
Si Si8 0.957457 0.170951 0.622326
O O1 0.263310 0.169276 0.258754
O O2 0.320257 0.253546 0.453165
O O3 0.141507 0.237326 0.392815
O O4 0.236775 0.000000 0.430561
O O5 0.902806 0.500000 0.953815
O O6 0.870593 0.670872 0.121832
O O7 0.834243 0.765209 0.917288
O O8 0.000000 0.731331 0.000000
O O9 0.268478 0.000000 0.086109
O O10 0.336386 0.729733 0.077310
O O11 0.401799 0.500000 0.971318
O O12 0.350682 0.733865 0.865240
O O13 0.500000 0.731258 0.000000
O O14 0.891113 0.500000 0.293360
O O15 0.787119 0.737216 0.291309
O O16 0.971583 0.752009 0.296137
O O17 0.500000 0.265481 0.500000
O O18 0.600059 0.500000 0.496287
O O19 0.620484 0.294651 0.347842
O O20 0.702655 0.500000 0.239837
O O21 0.000000 0.170960 0.500000
O O22 0.945485 0.000000 0.660687
#
# Coordination Sequence:
#
# PCOD9155308 Si02
#       8
#     4   4   4   4   4   4   4   4
#     4  10  23  41  57  81 120 158 190 234 289 341
#     4  10  20  35  56  83 114 151 195 238 282 339
#     4  11  23  38  57  84 122 159 193 238 288 348
#     4  10  21  38  64  88 113 153 193 240 299 349
#     4  10  19  33  55  81 112 145 180 230 286 336
#     4  10  22  38  61  89 113 143 190 243 287 339
#     4   9  18  36  57  85 119 143 180 240 292 338
#     4  10  21  37  57  81 111 149 196 239 278 336
#
# _framework density 19.753086
#
# number of rings (size 3 to 8) (size 9 to 14) (size 15 to 20)
#    0.000    2.000    1.250    1.875    1.750    3.000 
#    0.000    0.625    0.000    0.000    0.000    0.000 
#    0.000    0.000    0.000    0.000    0.000    0.000 
#
# Total GULP energy -178487.004378 kJ/mol
# GULP energy per Si atom -5577.718887 kJ/mol
# Density = 1.970813 g / cm^3
# Si number density = 19.753086 Si / 1000 Ang^3
#
#
#
# Elastic Constant Matrix: (Units=GPa)
#
#
# Indices 1 2 3 4 5 6 
#
# 1 152.0041 18.6209 30.1648 0.0000 3.5783 0.0000
# 2 18.6209 16.2776 9.6146 0.0000 11.9573 0.0000
# 3 30.1648 9.6146 46.9090 0.0000 6.9949 0.0000
# 4 0.0000 0.0000 0.0000 -10.5334 0.0000 -59.0003
# 5 3.5783 11.9573 6.9949 0.0000 26.8526 0.0000
# 6 0.0000 0.0000 0.0000 -59.0003 0.0000 -110.6863
#
#
#
# Elastic Compliance Matrix: (Units=1/GPa)
#
#
# Indices 1 2 3 4 5 6 
#
# 1 0.008607 -0.011011 -0.003993 0.000000 0.004796 0.000000
# 2 -0.011011 0.113926 -0.009285 0.000000 -0.046845 0.000000
# 3 -0.003993 -0.009285 0.026107 0.000000 -0.002134 0.000000
# 4 0.000000 0.000000 0.000000 0.047810 0.000000 -0.025485
# 5 0.004796 -0.046845 -0.002134 0.000000 0.058017 0.000000
# 6 0.000000 0.000000 0.000000 -0.025485 0.000000 0.004550
#
#
# Mechanical properties :
#
#
# Convention : Reuss Voigt Hill
#
# Bulk Modulus (GPa) = 9.99375 36.88794 23.44085
# Shear Modulus (GPa) = 14.66496 -8.42073 3.12211
#
# Velocity S-wave (km/s) = 2.72768 -2.06694 1.25857
# Velocity P-wave (km/s) = 3.87178 3.60815 3.74228
#
# Compressibility (1/GPa) = 0.10006255
#
# Stress axis : x y z
#
# Youngs Moduli (GPa) = 116.18203 8.77762 38.30398
#
# Poissons Ratio (x) = 0.09665 0.15296
# Poissons Ratio (y) = 1.27928 0.35564
# Poissons Ratio (z) = 0.46394 0.08150
#
# Static dielectric constant tensor:
#      x y z
#    x 1.726000 0.000000 -0.059520 
#    y 0.000000 1.692900 0.000000 
#    z -0.059520 0.000000 1.661420 
# 
# From -- ./inp_files/49884.got.cif
#   From: 2010.05.17/outbox.ucp.g08.bks.cvg/sg10_25_cif.got.tgz:49884.got - 2010.06.11 11:31:16.
