data_PCOD9155756
_publ_section_title
;
Structure prediction by ZEFSAII (Michael W. Deem and Ramdas Pophale) SiO2 
 PCOD9155756
Probable space group: P 21/M
;
_chemical_formula_sum "Si O2"
_cell_formula_units_Z 32
_cell_length_a 12.471605
_cell_length_b 8.659790
_cell_length_c 24.739937
_cell_angle_alpha 90.000000
_cell_angle_beta 129.526169
_cell_angle_gamma 90.000000
_cell_volume 2060.965697
_symmetry_space_group_name_H-M "P 21/M"
_symmetry_group_IT_number 11
_symmetry_cell_setting 'monoclinic'
loop_
_space_group_symop_operation_xyz
x,y,z
-x,1/2+y,-z
-x,-y,-z
x,1/2-y,z
loop_
_atom_site_type_symbol
_atom_site_label
_atom_site_fract_x
_atom_site_fract_y
_atom_site_fract_z
Si Si1 0.888619 0.564414 0.803329
Si Si2 0.654749 0.935784 0.990869
Si Si3 0.360767 0.065804 0.888595
Si Si4 0.585792 0.065660 0.475757
Si Si5 0.954084 0.564081 0.042878
Si Si6 0.348042 0.934583 0.338578
Si Si7 0.823144 0.564619 0.613480
Si Si8 0.920468 0.064612 0.238657
O O1 0.878795 0.750000 0.800006
O O2 0.738717 0.492764 0.740652
O O3 0.949982 0.503158 0.878791
O O4 0.995530 0.518717 0.789129
O O5 0.645899 0.750000 0.987555
O O6 0.512103 0.002818 0.921652
O O7 0.663934 0.985838 0.056819
O O8 0.795065 0.981867 0.005535
O O9 0.362730 0.250000 0.888510
O O10 0.231821 0.006141 0.812486
O O11 0.578371 0.250000 0.473715
O O12 0.500000 0.000000 0.500000
O O13 0.503591 0.997887 0.398014
O O14 0.742793 0.009429 0.537194
O O15 0.961603 0.750000 0.046072
O O16 0.000000 0.500000 0.000000
O O17 0.347366 0.750000 0.341815
O O18 0.260653 0.006506 0.360544
O O19 0.812048 0.750000 0.607013
O O20 0.981695 0.522264 0.679012
O O21 0.909964 0.250000 0.234387
#
# Coordination Sequence:
#
# PCOD9155756 Si02
#       8
#     4   4   4   4   4   4   4   4
#     4  10  19  31  45  62  83 110 145 184 221 264
#     4   9  19  33  46  64  88 113 143 180 223 268
#     4  10  18  28  46  67  87 112 145 184 221 264
#     4  10  16  23  34  50  73 104 140 177 213 253
#     4  11  22  36  51  68  89 116 148 185 227 271
#     4  10  17  25  38  54  75 105 139 179 217 255
#     4   9  16  25  35  52  77 108 143 176 212 256
#     4   9  17  27  41  60  85 114 143 179 221 261
#
# _framework density 15.526702
#
# number of rings (size 3 to 8) (size 9 to 14) (size 15 to 20)
#    0.000    2.250    1.250    6.000    0.000    4.000 
#    0.000    0.000    0.000    0.000    0.000    0.000 
#    0.000    0.000    0.000    1.125    0.000   14.875 
#
# Total GULP energy -178285.881957 kJ/mol
# GULP energy per Si atom -5571.433811 kJ/mol
# Density = 1.549136 g / cm^3
# Si number density = 15.526702 Si / 1000 Ang^3
#
#
#
# Elastic Constant Matrix: (Units=GPa)
#
#
# Indices 1 2 3 4 5 6 
#
# 1 49.4929 19.2462 51.1305 0.0000 12.7306 0.0000
# 2 19.2462 55.1466 42.8485 0.0000 10.8625 0.0000
# 3 51.1305 42.8485 150.7577 0.0000 39.7807 0.0000
# 4 0.0000 0.0000 0.0000 29.5198 0.0000 5.0090
# 5 12.7306 10.8625 39.7807 0.0000 21.3724 0.0000
# 6 0.0000 0.0000 0.0000 5.0090 0.0000 14.1619
#
#
#
# Elastic Compliance Matrix: (Units=1/GPa)
#
#
# Indices 1 2 3 4 5 6 
#
# 1 0.031658 -0.003452 -0.010304 0.000000 0.002075 0.000000
# 2 -0.003452 0.023659 -0.005745 0.000000 0.000724 0.000000
# 3 -0.010304 -0.005745 0.018415 0.000000 -0.025219 0.000000
# 4 0.000000 0.000000 0.000000 0.036038 0.000000 -0.012747
# 5 0.002075 0.000724 -0.025219 0.000000 0.092126 0.000000
# 6 0.000000 0.000000 0.000000 -0.012747 0.000000 0.075121
#
#
# Mechanical properties :
#
#
# Convention : Reuss Voigt Hill
#
# Bulk Modulus (GPa) = 28.79191 53.53864 41.16527
# Shear Modulus (GPa) = 15.26279 22.48894 18.87586
#
# Velocity S-wave (km/s) = 3.13869 3.80992 3.49048
# Velocity P-wave (km/s) = 5.63195 7.34238 6.54329
#
# Compressibility (1/GPa) = 0.03473198
#
# Stress axis : x y z
#
# Youngs Moduli (GPa) = 31.58779 42.26693 54.30332
#
# Poissons Ratio (x) = 0.14589 0.55952
# Poissons Ratio (y) = 0.10903 0.31197
# Poissons Ratio (z) = 0.32547 0.24282
#
# Static dielectric constant tensor:
#      x y z
#    x 1.487600 0.000000 0.032590 
#    y 0.000000 1.516910 0.000000 
#    z 0.032590 0.000000 1.572000 
# 
# From -- ./inp_files/68336.got.cif
#   From: 2010.05.17/outbox.cif.g08.bks.cpg/sg11_35_cif.got.tgz:68336.got - 2010.06.03 12:22:45.
