data_PCOD9155807
_publ_section_title
;
Structure prediction by ZEFSAII (Michael W. Deem and Ramdas Pophale) SiO2 
 PCOD9155807
Probable space group: P 21/M
;
_chemical_formula_sum "Si O2"
_cell_formula_units_Z 20
_cell_length_a 8.837994
_cell_length_b 9.877715
_cell_length_c 21.211642
_cell_angle_alpha 90.000000
_cell_angle_beta 39.984912
_cell_angle_gamma 90.000000
_cell_volume 1189.914201
_symmetry_space_group_name_H-M "P 21/M"
_symmetry_group_IT_number 11
_symmetry_cell_setting 'monoclinic'
loop_
_space_group_symop_operation_xyz
x,y,z
-x,1/2+y,-z
-x,-y,-z
x,1/2-y,z
loop_
_atom_site_type_symbol
_atom_site_label
_atom_site_fract_x
_atom_site_fract_y
_atom_site_fract_z
Si Si1 0.203897 0.598265 0.053472
Si Si2 0.571094 0.410752 0.880991
Si Si3 0.954300 0.030777 0.658060
Si Si4 0.764271 0.750000 0.212921
Si Si5 0.272990 0.250000 0.624090
Si Si6 0.784205 0.250000 0.617545
Si Si7 0.824004 0.250000 0.454389
O O1 0.301093 0.750000 0.007687
O O2 0.280398 0.570703 0.101375
O O3 0.923255 0.622171 0.140026
O O4 0.326163 0.487409 0.971190
O O5 0.542707 0.250000 0.880224
O O6 0.722598 0.470407 0.775710
O O7 0.894889 0.118332 0.615069
O O8 0.145904 0.119405 0.635152
O O9 0.050143 0.884109 0.611054
O O10 0.767216 0.750000 0.287993
O O11 0.495584 0.750000 0.278822
O O12 0.549751 0.250000 0.522465
O O13 0.824511 0.250000 0.530267
#
# Coordination Sequence:
#
# PCOD9155807 Si02
#       7
#     4   4   4   2   2   2   2
#     4   8  16  29  52  79 105 130 172 209 259 308
#     4  10  16  30  53  78 104 139 164 213 263 314
#     4  11  20  37  56  79 105 140 180 216 264 318
#     4   9  16  35  56  78 104 148 172 211 261 316
#     4  10  18  38  56  80 109 136 170 216 279 318
#     4  10  22  38  58  67 108 149 181 208 271 316
#     4  11  24  33  58  81 103 135 181 231 261 304
#
# _framework density 16.807935000000001
#
# number of rings (size 3 to 8) (size 9 to 14) (size 15 to 20)
#    0.600    1.600    4.000    1.200    1.400    0.000 
#    0.000    1.000    2.200    0.000    0.000    0.000 
#    0.000    0.000    0.000    0.000    0.000    0.000 
#
# Total GULP energy -111425.908140 kJ/mol
# GULP energy per Si atom -5571.295407 kJ/mol
# Density = 1.676968 g / cm^3
# Si number density = 16.807935 Si / 1000 Ang^3
#
#
#
# Elastic Constant Matrix: (Units=GPa)
#
#
# Indices 1 2 3 4 5 6 
#
# 1 51.0261 30.1679 21.7525 0.0000 -6.9192 0.0000
# 2 30.1679 100.7793 72.0630 0.0000 -9.1560 0.0000
# 3 21.7525 72.0630 113.8164 0.0000 -4.0841 0.0000
# 4 0.0000 0.0000 0.0000 36.3130 0.0000 -1.5953
# 5 -6.9192 -9.1560 -4.0841 0.0000 19.1410 0.0000
# 6 0.0000 0.0000 0.0000 -1.5953 0.0000 1.5420
#
#
#
# Elastic Compliance Matrix: (Units=1/GPa)
#
#
# Indices 1 2 3 4 5 6 
#
# 1 0.024371 -0.006577 -0.000292 0.000000 0.005601 0.000000
# 2 -0.006577 0.020686 -0.011660 0.000000 0.005030 0.000000
# 3 -0.000292 -0.011660 0.016144 0.000000 -0.002238 0.000000
# 4 0.000000 0.000000 0.000000 0.028850 0.000000 0.029848
# 5 0.005601 0.005030 -0.002238 0.000000 0.056197 0.000000
# 6 0.000000 0.000000 0.000000 0.029848 0.000000 0.679394
#
#
# Mechanical properties :
#
#
# Convention : Reuss Voigt Hill
#
# Bulk Modulus (GPa) = 41.42201 57.06538 49.24369
# Shear Modulus (GPa) = 5.74219 20.84175 13.29197
#
# Velocity S-wave (km/s) = 1.85034 3.52518 2.81519
# Velocity P-wave (km/s) = 5.40951 7.11297 6.31891
#
# Compressibility (1/GPa) = 0.02414176
#
# Stress axis : x y z
#
# Youngs Moduli (GPa) = 41.03297 48.34197 61.94244
#
# Poissons Ratio (x) = 0.31797 0.01810
# Poissons Ratio (y) = 0.26989 0.72224
# Poissons Ratio (z) = 0.01199 0.56366
#
# Static dielectric constant tensor:
#      x y z
#    x 1.570240 0.000000 -0.001460 
#    y 0.000000 1.541390 0.000000 
#    z -0.001460 0.000000 1.562410 
# 
# From -- ./inp_files/63152.got.cif
#   From: 2010.05.17/outbox.cif.g08.bks.cpg/sg11_32_cif.got.tgz:63152.got - 2010.06.03 12:22:45.
