data_PCOD9155556
_publ_section_title
;
Structure prediction by ZEFSAII (Michael W. Deem and Ramdas Pophale) SiO2 
 PCOD9155556
Probable space group: P 2/M
;
_chemical_formula_sum "Si O2"
_cell_formula_units_Z 28
_cell_length_a 21.000000
_cell_length_b 9.000000
_cell_length_c 9.000000
_cell_angle_alpha 90.000000
_cell_angle_beta 130.000000
_cell_angle_gamma 90.000000
_cell_volume 1303.041598
_symmetry_space_group_name_H-M "P 2/M"
_symmetry_group_IT_number 10
_symmetry_cell_setting 'monoclinic'
loop_
_space_group_symop_operation_xyz
x,y,z
-x,y,-z
-x,-y,-z
x,-y,z
loop_
_atom_site_type_symbol
_atom_site_label
_atom_site_fract_x
_atom_site_fract_y
_atom_site_fract_z
Si Si1 0.596422 0.171734 0.916000
Si Si2 0.708437 0.674107 0.871541
Si Si3 0.421997 0.172163 0.531216
Si Si4 0.631353 0.674200 0.255812
Si Si5 0.862744 0.824568 0.952818
Si Si6 0.808182 0.176662 0.528539
Si Si7 0.975082 0.819868 0.626294
O O1 0.681789 0.220797 0.967212
O O2 0.522089 0.185852 0.684061
O O3 0.597369 0.000000 0.965529
O O4 0.586010 0.285117 0.034658
O O5 0.705856 0.500000 0.904224
O O6 0.637526 0.714589 0.644077
O O7 0.795782 0.725348 0.937609
O O8 0.402214 0.212375 0.671734
O O9 0.399617 0.000000 0.463382
O O10 0.622365 0.500000 0.279090
O O11 0.727865 0.721680 0.387251
O O12 0.844064 0.810548 0.750079
O O13 0.850255 0.000000 0.971136
O O14 0.954695 0.782380 0.146439
O O15 0.882935 0.225305 0.534056
O O16 0.788243 0.000000 0.475795
O O17 0.000000 0.766783 0.500000
O O18 0.972930 0.000000 0.619598
#
# Coordination Sequence:
#
# PCOD9155556 Si02
#       7
#     4   4   4   4   4   4   4
#     4  11  25  43  65  90 123 166 215 265 314 371
#     4  12  25  40  62  94 131 167 207 258 318 376
#     4  11  23  43  67  92 121 164 217 263 310 371
#     4  12  25  40  62  94 131 167 207 258 318 376
#     4  10  20  37  62  89 123 166 211 254 304 369
#     4  10  20  37  62  89 123 166 211 254 304 369
#     4   9  19  35  60  95 124 156 207 262 308 359
#
# _framework density 21.488185999999999
#
# number of rings (size 3 to 8) (size 9 to 14) (size 15 to 20)
#    0.000    1.286    1.429    4.714    2.000    7.429 
#    0.000    0.714    0.000    2.571    0.000    0.000 
#    0.000    0.000    0.000    0.000    0.000    0.000 
#
# Total GULP energy -156494.210844 kJ/mol
# GULP energy per Si atom -5589.078959 kJ/mol
# Density = 2.143928 g / cm^3
# Si number density = 21.488186 Si / 1000 Ang^3
#
#
#
# Elastic Constant Matrix: (Units=GPa)
#
#
# Indices 1 2 3 4 5 6 
#
# 1 73.5803 1.8145 -17.2657 0.0000 17.9543 0.0000
# 2 1.8145 66.0231 0.2974 0.0000 14.2752 0.0000
# 3 -17.2657 0.2974 51.4187 0.0000 9.9532 0.0000
# 4 0.0000 0.0000 0.0000 25.3959 0.0000 -5.5807
# 5 17.9543 14.2752 9.9532 0.0000 30.6278 0.0000
# 6 0.0000 0.0000 0.0000 -5.5807 0.0000 -2.0020
#
#
#
# Elastic Compliance Matrix: (Units=1/GPa)
#
#
# Indices 1 2 3 4 5 6 
#
# 1 0.019718 0.002887 0.009713 0.000000 -0.016061 0.000000
# 2 0.002887 0.017378 0.002950 0.000000 -0.010751 0.000000
# 3 0.009713 0.002950 0.025676 0.000000 -0.015413 0.000000
# 4 0.000000 0.000000 0.000000 0.024418 0.000000 -0.068069
# 5 -0.016061 -0.010751 -0.015413 0.000000 0.052084 0.000000
# 6 0.000000 0.000000 0.000000 -0.068069 0.000000 -0.309762
#
#
# Mechanical properties :
#
#
# Convention : Reuss Voigt Hill
#
# Bulk Modulus (GPa) = 10.65289 17.85717 14.25503
# Shear Modulus (GPa) = -29.36042 24.54942 -2.40550
#
# Velocity S-wave (km/s) = -3.70043 3.38370 -1.05919
# Velocity P-wave (km/s) = 3.64544 4.85738 2.26990
#
# Compressibility (1/GPa) = 0.09387123
#
# Stress axis : x y z
#
# Youngs Moduli (GPa) = 50.71636 57.54391 38.94672
#
# Poissons Ratio (x) = -0.16612 -0.37829
# Poissons Ratio (y) = -0.14641 -0.11489
# Poissons Ratio (z) = -0.49261 -0.16975
#
# Static dielectric constant tensor:
#      x y z
#    x 1.856260 0.000000 -0.034260 
#    y 0.000000 1.692370 0.000000 
#    z -0.034260 0.000000 1.785810 
# 
# From -- ./inp_files/34312.got.cif
#   From: 2010.05.17/outbox.ucp.g08.bks.cvg/sg10_18_cif.got.tgz:34312.got - 2010.06.11 11:31:16.
