data_PCOD9155363
_publ_section_title
;
Structure prediction by ZEFSAII (Michael W. Deem and Ramdas Pophale) SiO2 
 PCOD9155363
Probable space group: P 2/M
;
_chemical_formula_sum "Si O2"
_cell_formula_units_Z 32
_cell_length_a 12.000000
_cell_length_b 9.000000
_cell_length_c 30.000000
_cell_angle_alpha 90.000000
_cell_angle_beta 30.000000
_cell_angle_gamma 90.000000
_cell_volume 1620.000000
_symmetry_space_group_name_H-M "P 2/M"
_symmetry_group_IT_number 10
_symmetry_cell_setting 'monoclinic'
loop_
_space_group_symop_operation_xyz
x,y,z
-x,y,-z
-x,-y,-z
x,-y,z
loop_
_atom_site_type_symbol
_atom_site_label
_atom_site_fract_x
_atom_site_fract_y
_atom_site_fract_z
Si Si1 0.058342 0.677348 0.060233
Si Si2 0.086338 0.672142 0.146628
Si Si3 0.262756 0.827479 0.408457
Si Si4 0.713278 0.825408 0.398077
Si Si5 0.598145 0.167676 0.214105
Si Si6 0.573826 0.169678 0.118404
Si Si7 0.398425 0.667832 0.651168
Si Si8 0.841667 0.677407 0.779380
O O1 0.087627 0.500000 0.046165
O O2 0.799304 0.718440 0.150012
O O3 0.155122 0.731256 0.074757
O O4 0.187400 0.764090 0.977255
O O5 0.159557 0.500000 0.121581
O O6 0.154749 0.736160 0.170636
O O7 0.816689 0.673593 0.242305
O O8 0.384782 0.805185 0.318908
O O9 0.380834 0.712632 0.400096
O O10 0.000000 0.807381 0.500000
O O11 0.307517 0.000000 0.406216
O O12 0.500000 0.771799 0.500000
O O13 0.645344 0.788530 0.371280
O O14 0.950591 0.744233 0.320132
O O15 0.742652 0.000000 0.396218
O O16 0.536730 0.169488 0.183842
O O17 0.681066 0.000000 0.196496
O O18 0.389485 0.274318 0.160898
O O19 0.554395 0.000000 0.109139
O O20 0.404672 0.500000 0.630519
O O21 0.869100 0.500000 0.771423
#
# Coordination Sequence:
#
# PCOD9155363 Si02
#       8
#     4   4   4   4   4   4   4   4
#     4  11  21  37  62  88 113 149 199 247 298 355
#     4   8  17  34  57  83 112 145 181 236 295 344
#     4  10  21  37  58  85 114 150 195 241 296 357
#     4  10  21  37  59  86 116 154 196 237 288 350
#     4  10  22  40  59  81 116 157 195 243 296 354
#     4  11  24  40  56  82 122 162 198 240 297 357
#     4  10  19  35  57  83 114 148 188 240 295 344
#     4  10  21  39  60  85 118 153 195 244 298 349
#
# _framework density 19.753086
#
# number of rings (size 3 to 8) (size 9 to 14) (size 15 to 20)
#    0.000    2.000    1.250    3.000    0.000    5.250 
#    0.000    6.875    0.000    0.000    0.000    0.000 
#    0.000    0.000    0.000    0.000    0.000    0.000 
#
# Total GULP energy -178354.289270 kJ/mol
# GULP energy per Si atom -5573.571540 kJ/mol
# Density = 1.970813 g / cm^3
# Si number density = 19.753086 Si / 1000 Ang^3
#
#
#
# Elastic Constant Matrix: (Units=GPa)
#
#
# Indices 1 2 3 4 5 6 
#
# 1 37.4346 7.3782 15.0403 0.0000 -16.6331 0.0000
# 2 7.3782 33.9606 18.9322 0.0000 -7.7619 0.0000
# 3 15.0403 18.9322 74.9111 0.0000 -19.2340 0.0000
# 4 0.0000 0.0000 0.0000 5.9447 0.0000 -8.4379
# 5 -16.6331 -7.7619 -19.2340 0.0000 -25.8919 0.0000
# 6 0.0000 0.0000 0.0000 -8.4379 0.0000 18.6938
#
#
#
# Elastic Compliance Matrix: (Units=1/GPa)
#
#
# Indices 1 2 3 4 5 6 
#
# 1 0.025687 -0.004168 -0.006735 0.000000 -0.010249 0.000000
# 2 -0.004168 0.034634 -0.008309 0.000000 -0.001532 0.000000
# 3 -0.006735 -0.008309 0.015580 0.000000 -0.004756 0.000000
# 4 0.000000 0.000000 0.000000 0.468158 0.000000 0.211314
# 5 -0.010249 -0.001532 -0.004756 0.000000 -0.028046 0.000000
# 6 0.000000 0.000000 0.000000 0.211314 0.000000 0.148875
#
#
# Mechanical properties :
#
#
# Convention : Reuss Voigt Hill
#
# Bulk Modulus (GPa) = 26.68446 25.44530 26.06488
# Shear Modulus (GPa) = 6.98513 6.74636 6.86574
#
# Velocity S-wave (km/s) = 1.88252 1.85007 1.86637
# Velocity P-wave (km/s) = 4.27359 4.18011 4.22711
#
# Compressibility (1/GPa) = 0.03747500
#
# Stress axis : x y z
#
# Youngs Moduli (GPa) = 38.92991 28.87368 64.18367
#
# Poissons Ratio (x) = 0.12036 0.43230
# Poissons Ratio (y) = 0.16227 0.53333
# Poissons Ratio (z) = 0.26221 0.23992
#
# Static dielectric constant tensor:
#      x y z
#    x 1.734460 0.000000 0.015720 
#    y 0.000000 1.690020 0.000000 
#    z 0.015720 0.000000 1.715670 
# 
# From -- ./inp_files/94952.got.cif
#   From: 2010.05.17/outbox.ucp.g08.bks.cvg/sg10_48_cif.got.tgz:94952.got - 2010.06.11 11:31:16.
