data_PCOD9155761
_publ_section_title
;
Structure prediction by ZEFSAII (Michael W. Deem and Ramdas Pophale) SiO2 
 PCOD9155761
Probable space group: P 21/M
;
_chemical_formula_sum "Si O2"
_cell_formula_units_Z 24
_cell_length_a 17.104523
_cell_length_b 8.605152
_cell_length_c 14.326157
_cell_angle_alpha 90.000000
_cell_angle_beta 27.348614
_cell_angle_gamma 90.000000
_cell_volume 968.709113
_symmetry_space_group_name_H-M "P 21/M"
_symmetry_group_IT_number 11
_symmetry_cell_setting 'monoclinic'
loop_
_space_group_symop_operation_xyz
x,y,z
-x,1/2+y,-z
-x,-y,-z
x,1/2-y,z
loop_
_atom_site_type_symbol
_atom_site_label
_atom_site_fract_x
_atom_site_fract_y
_atom_site_fract_z
Si Si1 0.383131 0.432659 0.883029
Si Si2 0.910869 0.066821 0.299149
Si Si3 0.832119 0.932013 0.724432
Si Si4 0.693517 0.426403 0.702049
Si Si5 0.616109 0.930853 0.483907
Si Si6 0.148416 0.565490 0.911621
O O1 0.354279 0.250000 0.891129
O O2 0.540885 0.435902 0.790104
O O3 0.453670 0.518209 0.717019
O O4 0.234793 0.498968 0.106647
O O5 0.884697 0.250000 0.304511
O O6 0.861164 0.048486 0.459489
O O7 0.772723 0.965361 0.389447
O O8 0.094452 0.016731 0.065585
O O9 0.853082 0.750000 0.717787
O O10 0.694017 0.959577 0.788599
O O11 0.000000 0.000000 0.500000
O O12 0.699763 0.250000 0.731976
O O13 0.608618 0.750000 0.469185
O O14 0.678041 0.023712 0.326573
O O15 0.135471 0.750000 0.934739
O O16 0.000000 0.500000 0.000000
#
# Coordination Sequence:
#
# PCOD9155761 Si02
#       6
#     4   4   4   4   4   4
#     4   9  19  35  52  73 100 132 166 206 251 295
#     4   9  16  27  42  64  96 130 162 200 243 290
#     4  11  23  37  54  74 100 131 166 206 251 300
#     4   9  18  33  53  75 101 130 165 207 251 294
#     4  10  17  25  41  66  95 128 163 201 243 291
#     4  10  16  23  37  60  94 131 163 198 239 288
#
# _framework density 24.775241000000001
#
# number of rings (size 3 to 8) (size 9 to 14) (size 15 to 20)
#    0.000    2.333    0.000    7.500    0.000    4.667 
#    0.000    0.000    0.000    0.000    0.000    1.167 
#    0.000    0.000    0.000    0.000    0.000    0.000 
#
# Total GULP energy -134248.963424 kJ/mol
# GULP energy per Si atom -5593.706809 kJ/mol
# Density = 2.471885 g / cm^3
# Si number density = 24.775241 Si / 1000 Ang^3
#
#
#
# Elastic Constant Matrix: (Units=GPa)
#
#
# Indices 1 2 3 4 5 6 
#
# 1 79.5756 15.0039 20.0481 0.0000 24.8173 0.0000
# 2 15.0039 100.1134 43.6863 0.0000 25.3387 0.0000
# 3 20.0481 43.6863 187.9207 0.0000 21.1301 0.0000
# 4 0.0000 0.0000 0.0000 38.9273 0.0000 6.7219
# 5 24.8173 25.3387 21.1301 0.0000 55.2214 0.0000
# 6 0.0000 0.0000 0.0000 6.7219 0.0000 25.0627
#
#
#
# Elastic Compliance Matrix: (Units=1/GPa)
#
#
# Indices 1 2 3 4 5 6 
#
# 1 0.014756 -0.000292 -0.000811 0.000000 -0.006187 0.000000
# 2 -0.000292 0.012192 -0.002287 0.000000 -0.004588 0.000000
# 3 -0.000811 -0.002287 0.006041 0.000000 -0.000898 0.000000
# 4 0.000000 0.000000 0.000000 0.026936 0.000000 -0.007224
# 5 -0.006187 -0.004588 -0.000898 0.000000 0.023338 0.000000
# 6 0.000000 0.000000 0.000000 -0.007224 0.000000 0.041838
#
#
# Mechanical properties :
#
#
# Convention : Reuss Voigt Hill
#
# Bulk Modulus (GPa) = 38.15535 58.34292 48.24913
# Shear Modulus (GPa) = 35.55806 43.10038 39.32922
#
# Velocity S-wave (km/s) = 3.79255 4.17544 3.98859
# Velocity P-wave (km/s) = 5.88319 6.84440 6.38192
#
# Compressibility (1/GPa) = 0.02620864
#
# Stress axis : x y z
#
# Youngs Moduli (GPa) = 67.77121 82.02324 165.54881
#
# Poissons Ratio (x) = 0.02392 0.13420
# Poissons Ratio (y) = 0.01976 0.37865
# Poissons Ratio (z) = 0.05494 0.18761
#
# Static dielectric constant tensor:
#      x y z
#    x 2.071300 0.000000 -0.086370 
#    y 0.000000 1.815590 0.000000 
#    z -0.086370 0.000000 2.055280 
# 
# From -- ./inp_files/20526.got.cif
#   From: 2010.05.17/outbox.cif.g08.bks.cpg/sg11_11_cif.got.tgz:20526.got - 2010.06.03 12:22:45.
