data_PCOD9155924
_publ_section_title
;
Structure prediction by ZEFSAII (Michael W. Deem and Ramdas Pophale) SiO2 
 PCOD9155924
Probable space group: P 21/M
;
_chemical_formula_sum "Si O2"
_cell_formula_units_Z 24
_cell_length_a 12.534889
_cell_length_b 8.733692
_cell_length_c 14.715379
_cell_angle_alpha 90.000000
_cell_angle_beta 70.341509
_cell_angle_gamma 90.000000
_cell_volume 1517.082085
_symmetry_space_group_name_H-M "P 21/M"
_symmetry_group_IT_number 11
_symmetry_cell_setting 'monoclinic'
loop_
_space_group_symop_operation_xyz
x,y,z
-x,1/2+y,-z
-x,-y,-z
x,1/2-y,z
loop_
_atom_site_type_symbol
_atom_site_label
_atom_site_fract_x
_atom_site_fract_y
_atom_site_fract_z
Si Si1 0.077818 0.933397 0.556613
Si Si2 0.752378 0.066470 0.171376
Si Si3 0.102085 0.565980 0.031026
Si Si4 0.567609 0.567550 0.343341
Si Si5 0.957808 0.565762 0.234732
Si Si6 0.336908 0.934228 0.496976
O O1 0.070427 0.750000 0.559053
O O2 0.210169 0.975807 0.505012
O O3 0.042442 0.996515 0.665242
O O4 0.000000 0.000000 0.500000
O O5 0.757844 0.250000 0.178253
O O6 0.632020 0.008412 0.241026
O O7 0.848413 0.995540 0.210454
O O8 0.786497 0.022068 0.058174
O O9 0.096797 0.750000 0.030319
O O10 0.068789 0.521361 0.143015
O O11 0.000000 0.500000 0.000000
O O12 0.576633 0.750000 0.333530
O O13 0.630835 0.512608 0.417057
O O14 0.436073 0.526072 0.397329
O O15 0.950780 0.750000 0.241697
O O16 0.341151 0.750000 0.509661
#
# Coordination Sequence:
#
# PCOD9155924 Si02
#       6
#     4   4   4   4   4   4
#     4  11  22  35  50  68  92 124 159 195 234 276
#     4  10  17  27  43  67  97 127 152 183 230 280
#     4   8  16  27  41  62  91 122 152 184 226 276
#     4  10  18  28  46  69  93 123 155 188 228 277
#     4  10  18  30  46  66  91 122 158 195 229 271
#     4   9  19  33  46  64  92 123 155 191 233 276
#
# _framework density 15.819843000000001
#
# number of rings (size 3 to 8) (size 9 to 14) (size 15 to 20)
#    0.000    2.333    1.667    2.000    0.000    2.667 
#    0.000    0.000    0.000    0.000    0.000    1.167 
#    0.000    0.000    0.000    0.000    0.000    0.000 
#
# Total GULP energy -133686.147463 kJ/mol
# GULP energy per Si atom -5570.256144 kJ/mol
# Density = 1.578384 g / cm^3
# Si number density = 15.819843 Si / 1000 Ang^3
#
#
#
# Elastic Constant Matrix: (Units=GPa)
#
#
# Indices 1 2 3 4 5 6 
#
# 1 82.1411 32.5051 71.3503 0.0000 -13.8889 0.0000
# 2 32.5051 35.5096 40.8101 0.0000 -9.5653 0.0000
# 3 71.3503 40.8101 149.7368 0.0000 -33.8785 0.0000
# 4 0.0000 0.0000 0.0000 23.2491 0.0000 -4.3852
# 5 -13.8889 -9.5653 -33.8785 0.0000 27.2581 0.0000
# 6 0.0000 0.0000 0.0000 -4.3852 0.0000 18.3497
#
#
#
# Elastic Compliance Matrix: (Units=1/GPa)
#
#
# Indices 1 2 3 4 5 6 
#
# 1 0.024481 -0.013151 -0.008769 0.000000 -0.003040 0.000000
# 2 -0.013151 0.048079 -0.006311 0.000000 0.002327 0.000000
# 3 -0.008769 -0.006311 0.015394 0.000000 0.012450 0.000000
# 4 0.000000 0.000000 0.000000 0.045043 0.000000 0.010764
# 5 -0.003040 0.002327 0.012450 0.000000 0.051428 0.000000
# 6 0.000000 0.000000 0.000000 0.010764 0.000000 0.057069
#
#
# Mechanical properties :
#
#
# Convention : Reuss Voigt Hill
#
# Bulk Modulus (GPa) = 31.75299 61.85761 46.80530
# Shear Modulus (GPa) = 16.20995 21.95285 19.08140
#
# Velocity S-wave (km/s) = 3.20450 3.72920 3.47676
# Velocity P-wave (km/s) = 5.81438 7.59794 6.76519
#
# Compressibility (1/GPa) = 0.03149310
#
# Stress axis : x y z
#
# Youngs Moduli (GPa) = 40.84751 20.79903 64.96193
#
# Poissons Ratio (x) = 0.27352 0.56965
# Poissons Ratio (y) = 0.53717 0.40996
# Poissons Ratio (z) = 0.35819 0.13126
#
# Static dielectric constant tensor:
#      x y z
#    x 1.501220 0.000000 -0.051280 
#    y 0.000000 1.529780 0.000000 
#    z -0.051280 0.000000 1.567130 
# 
# From -- ./inp_files/36980.got.cif
#   From: 2010.05.17/outbox.cif.g08.bks.cpg/sg11_19_cif.got.tgz:36980.got - 2010.06.03 12:22:45.
