data_PCOD9155370
_publ_section_title
;
Structure prediction by ZEFSAII (Michael W. Deem and Ramdas Pophale) SiO2 
 PCOD9155370
Probable space group: P 2/M
;
_chemical_formula_sum "Si O2"
_cell_formula_units_Z 28
_cell_length_a 27.000000
_cell_length_b 9.000000
_cell_length_c 9.000000
_cell_angle_alpha 90.000000
_cell_angle_beta 140.000000
_cell_angle_gamma 90.000000
_cell_volume 1405.776502
_symmetry_space_group_name_H-M "P 2/M"
_symmetry_group_IT_number 10
_symmetry_cell_setting 'monoclinic'
loop_
_space_group_symop_operation_xyz
x,y,z
-x,y,-z
-x,-y,-z
x,-y,z
loop_
_atom_site_type_symbol
_atom_site_label
_atom_site_fract_x
_atom_site_fract_y
_atom_site_fract_z
Si Si1 0.854240 0.336471 0.279055
Si Si2 0.722437 0.825782 0.461730
Si Si3 0.574034 0.320018 0.263056
Si Si4 0.418519 0.330892 0.389097
Si Si5 0.857941 0.326460 0.940879
Si Si6 0.992860 0.831678 0.664173
Si Si7 0.700546 0.668893 0.108229
O O1 0.893137 0.500000 0.368133
O O2 0.841811 0.297970 0.078467
O O3 0.774020 0.346954 0.174290
O O4 0.906702 0.222284 0.488394
O O5 0.652532 0.737959 0.376163
O O6 0.720372 0.772185 0.289072
O O7 0.711938 0.000000 0.454119
O O8 0.801376 0.772588 0.716090
O O9 0.572544 0.500000 0.259308
O O10 0.571967 0.265427 0.427387
O O11 0.500000 0.269627 0.000000
O O12 0.500000 0.342738 0.500000
O O13 0.386772 0.500000 0.336434
O O14 0.363664 0.258555 0.143244
O O15 0.845855 0.500000 0.882161
O O16 0.945801 0.277238 0.122534
O O17 0.000000 0.822445 0.500000
O O18 0.007373 0.000000 0.742420
O O19 0.676839 0.500000 0.104374
#
# Coordination Sequence:
#
# PCOD9155370 Si02
#       7
#     4   4   4   4   4   4   4
#     4   9  18  33  56  83 108 140 185 234 278 325
#     4  12  25  38  53  78 114 150 185 226 275 328
#     4  10  20  37  63  89 112 143 183 225 271 324
#     4   9  17  32  58  89 113 137 178 229 273 316
#     4  10  19  35  59  83 108 141 185 231 275 326
#     4   9  17  30  51  81 115 146 177 219 275 335
#     4  10  20  36  56  78 108 145 187 231 273 322
#
# _framework density 19.917818
#
# number of rings (size 3 to 8) (size 9 to 14) (size 15 to 20)
#    0.000    2.143    0.000    3.857    0.000    7.714 
#    0.000    2.857    0.000    6.000    0.000    0.000 
#    0.000    0.000    0.000    0.000    0.000    0.000 
#
# Total GULP energy -156041.185605 kJ/mol
# GULP energy per Si atom -5572.899486 kJ/mol
# Density = 1.987248 g / cm^3
# Si number density = 19.917818 Si / 1000 Ang^3
#
#
#
# Elastic Constant Matrix: (Units=GPa)
#
#
# Indices 1 2 3 4 5 6 
#
# 1 34.3705 13.6674 43.3020 0.0000 3.3245 0.0000
# 2 13.6674 -11.3262 11.1793 0.0000 -8.0075 0.0000
# 3 43.3020 11.1793 80.5986 0.0000 3.2955 0.0000
# 4 0.0000 0.0000 0.0000 3.9671 0.0000 10.9660
# 5 3.3245 -8.0075 3.2955 0.0000 16.1980 0.0000
# 6 0.0000 0.0000 0.0000 10.9660 0.0000 26.9459
#
#
#
# Elastic Compliance Matrix: (Units=1/GPa)
#
#
# Indices 1 2 3 4 5 6 
#
# 1 0.066208 0.032384 -0.040498 0.000000 0.010660 0.000000
# 2 0.032384 -0.041839 -0.010566 0.000000 -0.025180 0.000000
# 3 -0.040498 -0.010566 0.035802 0.000000 -0.004195 0.000000
# 4 0.000000 0.000000 0.000000 -2.017245 0.000000 0.820948
# 5 0.010660 -0.025180 -0.004195 0.000000 0.047954 0.000000
# 6 0.000000 0.000000 0.000000 0.820948 0.000000 -0.296985
#
#
# Mechanical properties :
#
#
# Convention : Reuss Voigt Hill
#
# Bulk Modulus (GPa) = 43.83741 26.66004 35.24873
# Shear Modulus (GPa) = -2.31359 11.78848 4.73744
#
# Velocity S-wave (km/s) = -1.07893 2.43545 1.54391
# Velocity P-wave (km/s) = 4.52822 4.61764 4.57315
#
# Compressibility (1/GPa) = 0.02281157
#
# Stress axis : x y z
#
# Youngs Moduli (GPa) = 15.10386 -23.90111 27.93127
#
# Poissons Ratio (x) = 0.77402 1.13117
# Poissons Ratio (y) = -0.48913 0.29512
# Poissons Ratio (z) = 0.61168 -0.25254
#
# Static dielectric constant tensor:
#      x y z
#    x 1.669660 0.000000 -0.007750 
#    y 0.000000 1.702720 0.000000 
#    z -0.007750 0.000000 1.694190 
# 
# From -- ./inp_files/36829.got.cif
#   From: 2010.05.17/outbox.ucp.g08.bks.cvg/sg10_19_cif.got.tgz:36829.got - 2010.06.11 11:31:16.
