data_PCOD9155111
_publ_section_title
;
Structure prediction by ZEFSAII (Michael W. Deem and Ramdas Pophale) SiO2 
 PCOD9155111
Probable space group: P 2/M
;
_chemical_formula_sum "Si O2"
_cell_formula_units_Z 24
_cell_length_a 21.000000
_cell_length_b 9.000000
_cell_length_c 12.000000
_cell_angle_alpha 90.000000
_cell_angle_beta 40.000000
_cell_angle_gamma 90.000000
_cell_volume 1457.842299
_symmetry_space_group_name_H-M "P 2/M"
_symmetry_group_IT_number 10
_symmetry_cell_setting 'monoclinic'
loop_
_space_group_symop_operation_xyz
x,y,z
-x,y,-z
-x,-y,-z
x,-y,z
loop_
_atom_site_type_symbol
_atom_site_label
_atom_site_fract_x
_atom_site_fract_y
_atom_site_fract_z
Si Si1 0.488839 0.823546 0.835616
Si Si2 0.333507 0.176110 0.225061
Si Si3 0.772765 0.824553 0.265167
Si Si4 0.430394 0.330284 0.486691
Si Si5 0.166746 0.677930 0.581388
Si Si6 0.956796 0.670699 0.931296
O O1 0.582702 0.801504 0.792028
O O2 0.509030 0.730240 0.699525
O O3 0.484978 0.000000 0.816453
O O4 0.389644 0.782646 0.035990
O O5 0.236209 0.264894 0.389595
O O6 0.312087 0.000000 0.251145
O O7 0.666380 0.769560 0.368144
O O8 0.792187 0.749726 0.359615
O O9 0.775139 0.000000 0.275848
O O10 0.860038 0.770994 0.066275
O O11 0.500000 0.325624 0.500000
O O12 0.398296 0.500000 0.509185
O O13 0.171408 0.500000 0.585187
O O14 0.050231 0.718490 0.731387
O O15 0.930151 0.500000 0.941549
O O16 0.000000 0.672090 0.000000
#
# Coordination Sequence:
#
# PCOD9155111 Si02
#       6
#     4   4   4   4   4   4
#     4   9  18  32  48  69  96 126 159 195 237 282
#     4   9  17  29  47  71  99 127 155 192 237 283
#     4  11  20  30  46  67  93 125 160 198 237 281
#     4  11  23  36  50  69  94 126 164 202 238 279
#     4  10  18  28  45  70  98 128 158 189 233 285
#     4   8  16  29  43  63  94 126 155 190 232 281
#
# _framework density 16.462686000000001
#
# number of rings (size 3 to 8) (size 9 to 14) (size 15 to 20)
#    0.000    2.333    1.667    4.500    0.000    5.667 
#    0.000    1.667    0.000    0.000    0.000    1.167 
#    0.000    9.333    0.000    0.000    0.000    0.000 
#
# Total GULP energy -133786.854277 kJ/mol
# GULP energy per Si atom -5574.452262 kJ/mol
# Density = 1.642522 g / cm^3
# Si number density = 16.462686 Si / 1000 Ang^3
#
#
#
# Elastic Constant Matrix: (Units=GPa)
#
#
# Indices 1 2 3 4 5 6 
#
# 1 25.2868 26.3233 27.3420 0.0000 -3.1798 0.0000
# 2 26.3233 69.3465 67.7191 0.0000 -6.9084 0.0000
# 3 27.3420 67.7191 146.0239 0.0000 -23.7933 0.0000
# 4 0.0000 0.0000 0.0000 32.5986 0.0000 6.1449
# 5 -3.1798 -6.9084 -23.7933 0.0000 10.8478 0.0000
# 6 0.0000 0.0000 0.0000 6.1449 0.0000 -95.9255
#
#
#
# Elastic Compliance Matrix: (Units=1/GPa)
#
#
# Indices 1 2 3 4 5 6 
#
# 1 0.065554 -0.023800 -0.000896 0.000000 0.002094 0.000000
# 2 -0.023800 0.036810 -0.015455 0.000000 -0.017433 0.000000
# 3 -0.000896 -0.015455 0.019509 0.000000 0.032685 0.000000
# 4 0.000000 0.000000 0.000000 0.030310 0.000000 0.001942
# 5 0.002094 -0.017433 0.032685 0.000000 0.153388 0.000000
# 6 0.000000 0.000000 0.000000 0.001942 0.000000 -0.010300
#
#
# Mechanical properties :
#
#
# Convention : Reuss Voigt Hill
#
# Bulk Modulus (GPa) = 24.05510 53.71398 38.88454
# Shear Modulus (GPa) = 12.83926 -2.54428 5.14749
#
# Velocity S-wave (km/s) = 2.79570 -1.24452 1.77018
# Velocity P-wave (km/s) = 5.00648 5.53475 5.27723
#
# Compressibility (1/GPa) = 0.04157123
#
# Stress axis : x y z
#
# Youngs Moduli (GPa) = 15.25453 27.16627 51.25832
#
# Poissons Ratio (x) = 0.64657 0.04592
# Poissons Ratio (y) = 0.36306 0.79219
# Poissons Ratio (z) = 0.01367 0.41985
#
# Static dielectric constant tensor:
#      x y z
#    x 1.524510 0.000000 -0.008670 
#    y 0.000000 1.552710 0.000000 
#    z -0.008670 0.000000 1.585440 
# 
# From -- ./inp_files/45144.got.cif
#   From: 2010.05.17/outbox.ucp.g08.bks.cvg/sg10_23_cif.got.tgz:45144.got - 2010.06.11 11:31:16.
