data_PCOD9155943
_publ_section_title
;
Structure prediction by ZEFSAII (Michael W. Deem and Ramdas Pophale) SiO2 
 PCOD9155943
Probable space group: P 21/M
;
_chemical_formula_sum "Si O2"
_cell_formula_units_Z 24
_cell_length_a 9.628341
_cell_length_b 18.266556
_cell_length_c 16.502690
_cell_angle_alpha 90.000000
_cell_angle_beta 20.744010
_cell_angle_gamma 90.000000
_cell_volume 1028.023837
_symmetry_space_group_name_H-M "P 21/M"
_symmetry_group_IT_number 11
_symmetry_cell_setting 'monoclinic'
loop_
_space_group_symop_operation_xyz
x,y,z
-x,1/2+y,-z
-x,-y,-z
x,1/2-y,z
loop_
_atom_site_type_symbol
_atom_site_label
_atom_site_fract_x
_atom_site_fract_y
_atom_site_fract_z
Si Si1 0.826040 0.661558 0.750594
Si Si2 0.924121 0.413400 0.538138
Si Si3 0.435734 0.416776 0.564904
Si Si4 0.284284 0.665502 0.735186
Si Si5 0.594808 0.334564 0.863253
Si Si6 0.932670 0.917974 0.067118
O O1 0.897570 0.750000 0.709613
O O2 0.793389 0.628407 0.678794
O O3 0.185773 0.617645 0.595807
O O4 0.467559 0.648699 0.008049
O O5 0.874940 0.383322 0.655395
O O6 0.497706 0.397991 0.731485
O O7 0.000000 0.500000 0.500000
O O8 0.500000 0.500000 0.500000
O O9 0.423329 0.370260 0.489267
O O10 0.103292 0.414350 0.816051
O O11 0.373524 0.750000 0.695505
O O12 0.848380 0.659045 0.932232
O O13 0.236865 0.628897 0.848673
O O14 0.707561 0.250000 0.792513
O O15 0.000000 0.000000 0.000000
#
# Coordination Sequence:
#
# PCOD9155943 Si02
#       6
#     4   4   4   4   4   4
#     4   9  18  32  51  76 101 132 179 221 251 302
#     4  10  20  31  49  78 105 128 167 215 261 299
#     4  10  17  27  48  76 106 131 164 214 265 298
#     4   9  17  29  47  73 101 129 171 218 255 299
#     4   8  15  29  49  71  97 128 166 212 252 293
#     4  10  19  32  50  72 102 139 170 204 260 313
#
# _framework density 23.345762000000001
#
# number of rings (size 3 to 8) (size 9 to 14) (size 15 to 20)
#    0.000    2.667    1.667    2.000    0.000    5.333 
#    0.000    0.000    0.000    2.000    0.000    0.000 
#    0.000    0.000    0.000    0.000    0.000    0.000 
#
# Total GULP energy -134032.565817 kJ/mol
# GULP energy per Si atom -5584.690242 kJ/mol
# Density = 2.329263 g / cm^3
# Si number density = 23.345762 Si / 1000 Ang^3
#
#
#
# Elastic Constant Matrix: (Units=GPa)
#
#
# Indices 1 2 3 4 5 6 
#
# 1 130.3238 56.4878 72.1547 0.0000 38.2239 0.0000
# 2 56.4878 177.8992 102.3045 0.0000 70.9098 0.0000
# 3 72.1547 102.3045 204.6773 0.0000 66.1969 0.0000
# 4 0.0000 0.0000 0.0000 45.1209 0.0000 17.0035
# 5 38.2239 70.9098 66.1969 0.0000 66.1401 0.0000
# 6 0.0000 0.0000 0.0000 17.0035 0.0000 29.6341
#
#
#
# Elastic Compliance Matrix: (Units=1/GPa)
#
#
# Indices 1 2 3 4 5 6 
#
# 1 0.010072 -0.000832 -0.002278 0.000000 -0.002648 0.000000
# 2 -0.000832 0.010619 -0.002200 0.000000 -0.008702 0.000000
# 3 -0.002278 -0.002200 0.008280 0.000000 -0.004612 0.000000
# 4 0.000000 0.000000 0.000000 0.028277 0.000000 -0.016225
# 5 -0.002648 -0.008702 -0.004612 0.000000 0.030596 0.000000
# 6 0.000000 0.000000 0.000000 -0.016225 0.000000 0.043054
#
#
# Mechanical properties :
#
#
# Convention : Reuss Voigt Hill
#
# Bulk Modulus (GPa) = 54.49481 108.31048 81.40264
# Shear Modulus (GPa) = 33.86712 46.97591 40.42152
#
# Velocity S-wave (km/s) = 3.81291 4.49060 4.16556
# Velocity P-wave (km/s) = 6.54045 8.56634 7.62101
#
# Compressibility (1/GPa) = 0.01835037
#
# Stress axis : x y z
#
# Youngs Moduli (GPa) = 99.28467 94.16871 120.77223
#
# Poissons Ratio (x) = 0.07839 0.27513
# Poissons Ratio (y) = 0.08265 0.26569
# Poissons Ratio (z) = 0.22618 0.20716
#
# Static dielectric constant tensor:
#      x y z
#    x 1.890760 0.000000 -0.008930 
#    y 0.000000 1.782290 0.000000 
#    z -0.008930 0.000000 1.897070 
# 
# From -- ./inp_files/18208.got.cif
#   From: 2010.05.17/outbox.cif.g08.bks.cpg/sg11_10_cif.got.tgz:18208.got - 2010.06.03 12:22:45.
