data_PCOD9155173
_publ_section_title
;
Structure prediction by ZEFSAII (Michael W. Deem and Ramdas Pophale) SiO2 
 PCOD9155173
Probable space group: P 2/M
;
_chemical_formula_sum "Si O2"
_cell_formula_units_Z 32
_cell_length_a 27.000000
_cell_length_b 9.000000
_cell_length_c 21.000000
_cell_angle_alpha 90.000000
_cell_angle_beta 160.000000
_cell_angle_gamma 90.000000
_cell_volume 1745.328791
_symmetry_space_group_name_H-M "P 2/M"
_symmetry_group_IT_number 10
_symmetry_cell_setting 'monoclinic'
loop_
_space_group_symop_operation_xyz
x,y,z
-x,y,-z
-x,-y,-z
x,-y,z
loop_
_atom_site_type_symbol
_atom_site_label
_atom_site_fract_x
_atom_site_fract_y
_atom_site_fract_z
Si Si1 0.811324 0.170598 0.643717
Si Si2 0.165924 0.818672 0.190157
Si Si3 0.681364 0.676550 0.014431
Si Si4 0.364150 0.674928 0.672898
Si Si5 0.134742 0.819379 0.875295
Si Si6 0.159203 0.828754 0.046578
Si Si7 0.830224 0.170339 0.310438
Si Si8 0.815654 0.821605 0.440016
O O1 0.761250 0.215309 0.654321
O O2 0.753765 0.280771 0.521762
O O3 0.985809 0.167580 0.849662
O O4 0.764329 0.000000 0.574061
O O5 0.162671 0.000000 0.183003
O O6 0.220644 0.764414 0.187411
O O7 0.000000 0.768380 0.000000
O O8 0.688567 0.500000 0.012723
O O9 0.758228 0.759383 0.049063
O O10 0.759700 0.722124 0.174280
O O11 0.516088 0.722994 0.826394
O O12 0.369827 0.500000 0.690951
O O13 0.315557 0.754882 0.678571
O O14 0.176741 0.764854 0.997048
O O15 0.970405 0.775169 0.657478
O O16 0.136493 0.000000 0.877838
O O17 0.210221 0.000000 0.104406
O O18 0.810406 0.218160 0.359408
O O19 0.000000 0.165463 0.500000
O O20 0.774963 0.000000 0.236337
O O21 0.811170 0.000000 0.438735
#
# Coordination Sequence:
#
# PCOD9155173 Si02
#       8
#     4   4   4   4   4   4   4   4
#     4   9  15  28  51  76 104 138 175 214 259 312
#     4   7  11  20  41  75 107 132 162 208 265 311
#     4  11  25  40  53  75 108 145 181 214 256 313
#     4  11  24  38  51  74 111 147 179 217 257 305
#     4  10  18  33  57  82 107 135 173 221 266 311
#     4   8  13  24  47  80 109 130 163 216 269 311
#     4  10  20  38  61  83 107 132 167 218 267 313
#     4  10  20  36  60  85 105 131 172 218 264 315
#
# _framework density 18.334654
#
# number of rings (size 3 to 8) (size 9 to 14) (size 15 to 20)
#    0.000    2.500    2.500    2.250    0.000    3.750 
#    0.000    2.500    0.000    4.875    0.000    5.250 
#    0.000    0.000    0.000    0.000    0.000    0.000 
#
# Total GULP energy -178175.583496 kJ/mol
# GULP energy per Si atom -5567.986984 kJ/mol
# Density = 1.829292 g / cm^3
# Si number density = 18.334654 Si / 1000 Ang^3
#
#
#
# Elastic Constant Matrix: (Units=GPa)
#
#
# Indices 1 2 3 4 5 6 
#
# 1 157.9225 23.0578 19.3991 0.0000 -13.6073 0.0000
# 2 23.0578 -2.9921 3.2527 0.0000 4.4887 0.0000
# 3 19.3991 3.2527 5.7490 0.0000 6.6722 0.0000
# 4 0.0000 0.0000 0.0000 18.0771 0.0000 4.5467
# 5 -13.6073 4.4887 6.6722 0.0000 22.8549 0.0000
# 6 0.0000 0.0000 0.0000 4.5467 0.0000 17.9949
#
#
#
# Elastic Compliance Matrix: (Units=1/GPa)
#
#
# Indices 1 2 3 4 5 6 
#
# 1 0.022129 0.062703 -0.168099 0.000000 0.049935 0.000000
# 2 0.062703 -0.027831 -0.371311 0.000000 0.151198 0.000000
# 3 -0.168099 -0.371311 1.486366 0.000000 -0.461082 0.000000
# 4 0.000000 0.000000 0.000000 0.059073 0.000000 -0.014926
# 5 0.049935 0.151198 -0.461082 0.000000 0.178396 0.000000
# 6 0.000000 0.000000 0.000000 -0.014926 0.000000 0.059343
#
#
# Mechanical properties :
#
#
# Convention : Reuss Voigt Hill
#
# Bulk Modulus (GPa) = 1.89663 28.01096 14.95380
# Shear Modulus (GPa) = 1.72020 19.45004 10.58512
#
# Velocity S-wave (km/s) = 0.96967 3.26058 2.40537
# Velocity P-wave (km/s) = 1.51340 5.43010 3.98600
#
# Compressibility (1/GPa) = 0.52725011
#
# Stress axis : x y z
#
# Youngs Moduli (GPa) = 45.18977 -35.93094 0.67278
#
# Poissons Ratio (x) = 2.25298 0.11309
# Poissons Ratio (y) = -2.83353 0.24981
# Poissons Ratio (z) = 7.59636 -13.34154
#
# Static dielectric constant tensor:
#      x y z
#    x 1.658840 0.000000 -0.024460 
#    y 0.000000 1.614010 0.000000 
#    z -0.024460 0.000000 1.626270 
# 
# From -- ./inp_files/86990.got.cif
#   From: 2010.05.17/outbox.ucp.g08.bks.cvg/sg10_44_cif.got.tgz:86990.got - 2010.06.11 11:31:16.
