data_PCOD9155372
_publ_section_title
;
Structure prediction by ZEFSAII (Michael W. Deem and Ramdas Pophale) SiO2 
 PCOD9155372
Probable space group: P 2/M
;
_chemical_formula_sum "Si O2"
_cell_formula_units_Z 32
_cell_length_a 27.000000
_cell_length_b 9.000000
_cell_length_c 21.000000
_cell_angle_alpha 90.000000
_cell_angle_beta 160.000000
_cell_angle_gamma 90.000000
_cell_volume 1745.328791
_symmetry_space_group_name_H-M "P 2/M"
_symmetry_group_IT_number 10
_symmetry_cell_setting 'monoclinic'
loop_
_space_group_symop_operation_xyz
x,y,z
-x,y,-z
-x,-y,-z
x,-y,z
loop_
_atom_site_type_symbol
_atom_site_label
_atom_site_fract_x
_atom_site_fract_y
_atom_site_fract_z
Si Si1 0.603027 0.321434 0.810897
Si Si2 0.674215 0.828012 0.327229
Si Si3 0.153755 0.820826 0.214738
Si Si4 0.135771 0.828371 0.566695
Si Si5 0.702559 0.676773 0.493612
Si Si6 0.372171 0.673376 0.939828
Si Si7 0.169299 0.325066 0.816264
Si Si8 0.456334 0.178652 0.517342
O O1 0.607246 0.500000 0.810861
O O2 0.461397 0.284461 0.682303
O O3 0.568137 0.247552 0.702071
O O4 0.751499 0.273451 0.023655
O O5 0.799259 0.820980 0.425720
O O6 0.719876 0.736347 0.443921
O O7 0.650078 0.000000 0.315051
O O8 0.522338 0.761946 0.118197
O O9 0.188168 0.751318 0.324761
O O10 0.292605 0.778236 0.339198
O O11 0.152613 0.000000 0.218576
O O12 0.000000 0.773933 0.000000
O O13 0.250249 0.735665 0.745843
O O14 0.974589 0.763375 0.375055
O O15 0.136353 0.000000 0.588389
O O16 0.716612 0.500000 0.513010
O O17 0.401607 0.500000 0.963329
O O18 0.295266 0.686762 0.915624
O O19 0.131565 0.500000 0.775416
O O20 0.500000 0.226353 0.500000
O O21 0.463560 0.000000 0.529813
#
# Coordination Sequence:
#
# PCOD9155372 Si02
#       8
#     4   4   4   4   4   4   4   4
#     4   9  18  35  57  81 109 141 182 229 270 322
#     4  11  23  39  58  82 115 149 187 233 280 332
#     4   9  18  34  55  79 110 146 181 221 273 326
#     4  11  25  40  54  83 118 148 185 232 282 332
#     4  10  19  35  59  84 110 143 189 234 272 326
#     4  11  22  39  63  86 109 145 189 231 280 337
#     4  10  21  39  59  82 113 147 186 231 281 333
#     4   9  18  33  53  79 108 141 181 221 264 321
#
# _framework density 18.334654
#
# number of rings (size 3 to 8) (size 9 to 14) (size 15 to 20)
#    0.000    2.000    1.250    2.250    0.000    7.500 
#    2.250    0.000    0.000    0.000    0.000    0.000 
#    0.000    0.000    0.000    0.000    0.000    0.000 
#
# Total GULP energy -178602.726624 kJ/mol
# GULP energy per Si atom -5581.335207 kJ/mol
# Density = 1.829292 g / cm^3
# Si number density = 18.334654 Si / 1000 Ang^3
#
#
#
# Elastic Constant Matrix: (Units=GPa)
#
#
# Indices 1 2 3 4 5 6 
#
# 1 32.1347 2.8859 -2.7293 0.0000 -20.2118 0.0000
# 2 2.8859 14.6179 7.2037 0.0000 0.2725 0.0000
# 3 -2.7293 7.2037 62.3866 0.0000 -16.4355 0.0000
# 4 0.0000 0.0000 0.0000 29.8134 0.0000 2.9566
# 5 -20.2118 0.2725 -16.4355 0.0000 24.3530 0.0000
# 6 0.0000 0.0000 0.0000 2.9566 0.0000 26.8667
#
#
#
# Elastic Compliance Matrix: (Units=1/GPa)
#
#
# Indices 1 2 3 4 5 6 
#
# 1 0.126139 -0.050915 0.047589 0.000000 0.137377 0.000000
# 2 -0.050915 0.094348 -0.029837 0.000000 -0.063450 0.000000
# 3 0.047589 -0.029837 0.038980 0.000000 0.066137 0.000000
# 4 0.000000 0.000000 0.000000 0.033912 0.000000 -0.003732
# 5 0.137377 -0.063450 0.066137 0.000000 0.200424 0.000000
# 6 0.000000 0.000000 0.000000 -0.003732 0.000000 0.037632
#
#
# Mechanical properties :
#
#
# Convention : Reuss Voigt Hill
#
# Bulk Modulus (GPa) = 5.17762 13.76220 9.46991
# Shear Modulus (GPa) = 7.55125 22.99187 15.27156
#
# Velocity S-wave (km/s) = 2.03163 3.54504 2.88919
# Velocity P-wave (km/s) = 2.88677 4.92736 4.03809
#
# Compressibility (1/GPa) = 0.19313908
#
# Stress axis : x y z
#
# Youngs Moduli (GPa) = 7.92774 10.59910 25.65424
#
# Poissons Ratio (x) = 0.53966 -1.22085
# Poissons Ratio (y) = 0.40364 0.76545
# Poissons Ratio (z) = -0.37727 0.31625
#
# Static dielectric constant tensor:
#      x y z
#    x 1.659330 0.000000 -0.013210 
#    y 0.000000 1.615100 0.000000 
#    z -0.013210 0.000000 1.593010 
# 
# From -- ./inp_files/87055.got.cif
#   From: 2010.05.17/outbox.ucp.g08.bks.cvg/sg10_44_cif.got.tgz:87055.got - 2010.06.11 11:31:16.
