data_PCOD9155938
_publ_section_title
;
Structure prediction by ZEFSAII (Michael W. Deem and Ramdas Pophale) SiO2 
 PCOD9155938
Probable space group: P 21/M
;
_chemical_formula_sum "Si O2"
_cell_formula_units_Z 28
_cell_length_a 8.202176
_cell_length_b 22.372983
_cell_length_c 11.117112
_cell_angle_alpha 90.000000
_cell_angle_beta 38.390419
_cell_angle_gamma 90.000000
_cell_volume 1266.917259
_symmetry_space_group_name_H-M "P 21/M"
_symmetry_group_IT_number 11
_symmetry_cell_setting 'monoclinic'
loop_
_space_group_symop_operation_xyz
x,y,z
-x,1/2+y,-z
-x,-y,-z
x,1/2-y,z
loop_
_atom_site_type_symbol
_atom_site_label
_atom_site_fract_x
_atom_site_fract_y
_atom_site_fract_z
Si Si1 0.432421 0.571791 0.252454
Si Si2 0.982751 0.461489 0.131513
Si Si3 0.822124 0.429566 0.859303
Si Si4 0.552939 0.816936 0.618333
Si Si5 0.956458 0.185877 0.918068
Si Si6 0.539390 0.315114 0.613932
Si Si7 0.527969 0.939492 0.701415
O O1 0.350876 0.626601 0.384846
O O2 0.381555 0.508366 0.348533
O O3 0.744932 0.574845 0.034495
O O4 0.284208 0.573234 0.212192
O O5 0.698630 0.433691 0.271776
O O6 0.004418 0.511008 0.222291
O O7 0.000000 0.500000 0.000000
O O8 0.957666 0.369481 0.827692
O O9 0.590806 0.435685 0.093953
O O10 0.669975 0.750000 0.572532
O O11 0.286332 0.818109 0.851667
O O12 0.478459 0.818866 0.520487
O O13 0.691142 0.878827 0.582525
O O14 0.935474 0.250000 0.866355
O O15 0.231338 0.185712 0.827735
O O16 0.656328 0.250000 0.577608
#
# Coordination Sequence:
#
# PCOD9155938 Si02
#       7
#     4   4   4   4   4   4   4
#     4  10  17  27  46  74 104 130 161 200 247 301
#     4   8  14  26  45  69  95 124 160 198 235 279
#     4   9  16  27  46  73 102 129 159 203 251 290
#     4   9  18  32  51  75  98 121 163 213 244 279
#     4   9  17  32  53  72  93 129 171 204 242 293
#     4  10  20  33  51  74  99 129 164 204 246 288
#     4   9  16  29  50  72  97 131 166 204 244 286
#
# _framework density 22.10089
#
# number of rings (size 3 to 8) (size 9 to 14) (size 15 to 20)
#    0.000    3.143    0.000    5.143    0.000    1.143 
#    0.000    0.000    0.000   10.286    0.000   23.000 
#    0.000    0.000    0.000    0.000    0.000    0.000 
#
# Total GULP energy -155890.351677 kJ/mol
# GULP energy per Si atom -5567.512560 kJ/mol
# Density = 2.205059 g / cm^3
# Si number density = 22.100890 Si / 1000 Ang^3
#
#
#
# Elastic Constant Matrix: (Units=GPa)
#
#
# Indices 1 2 3 4 5 6 
#
# 1 65.9464 30.4112 14.8100 0.0000 17.4186 0.0000
# 2 30.4112 217.2697 33.3554 0.0000 25.1555 0.0000
# 3 14.8100 33.3554 73.6752 0.0000 10.4687 0.0000
# 4 0.0000 0.0000 0.0000 -3.8913 0.0000 1.1076
# 5 17.4186 25.1555 10.4687 0.0000 15.7728 0.0000
# 6 0.0000 0.0000 0.0000 1.1076 0.0000 7.7155
#
#
#
# Elastic Compliance Matrix: (Units=1/GPa)
#
#
# Indices 1 2 3 4 5 6 
#
# 1 0.021490 -0.000226 -0.000990 0.000000 -0.022715 0.000000
# 2 -0.000226 0.005783 -0.001433 0.000000 -0.008023 0.000000
# 3 -0.000990 -0.001433 0.015392 0.000000 -0.006838 0.000000
# 4 0.000000 0.000000 0.000000 -0.246893 0.000000 0.035443
# 5 -0.022715 -0.008023 -0.006838 0.000000 0.105819 0.000000
# 6 0.000000 0.000000 0.000000 0.035443 0.000000 0.124522
#
#
# Mechanical properties :
#
#
# Convention : Reuss Voigt Hill
#
# Bulk Modulus (GPa) = 26.76084 57.11607 41.93845
# Shear Modulus (GPa) = 113.98063 22.47369 68.22716
#
# Velocity S-wave (km/s) = 7.18922 3.19230 5.56218
# Velocity P-wave (km/s) = 9.00266 6.28388 7.76321
#
# Compressibility (1/GPa) = 0.03736804
#
# Stress axis : x y z
#
# Youngs Moduli (GPa) = 46.53292 172.91960 64.96724
#
# Poissons Ratio (x) = 0.03909 0.06431
# Poissons Ratio (y) = 0.01052 0.09308
# Poissons Ratio (z) = 0.04606 0.24776
#
# Static dielectric constant tensor:
#      x y z
#    x 1.792610 0.000000 -0.077240 
#    y 0.000000 1.954730 0.000000 
#    z -0.077240 0.000000 1.888860 
# 
# From -- ./inp_files/32919.got.cif
#   From: 2010.05.17/outbox.cif.g08.bks.cpg/sg11_17_cif.got.tgz:32919.got - 2010.06.03 12:22:45.
