data_PCOD9155437
_publ_section_title
;
Structure prediction by ZEFSAII (Michael W. Deem and Ramdas Pophale) SiO2 
 PCOD9155437
Probable space group: P 2/M
;
_chemical_formula_sum "Si O2"
_cell_formula_units_Z 32
_cell_length_a 15.000000
_cell_length_b 9.000000
_cell_length_c 24.000000
_cell_angle_alpha 90.000000
_cell_angle_beta 30.000000
_cell_angle_gamma 90.000000
_cell_volume 1620.000000
_symmetry_space_group_name_H-M "P 2/M"
_symmetry_group_IT_number 10
_symmetry_cell_setting 'monoclinic'
loop_
_space_group_symop_operation_xyz
x,y,z
-x,y,-z
-x,-y,-z
x,-y,z
loop_
_atom_site_type_symbol
_atom_site_label
_atom_site_fract_x
_atom_site_fract_y
_atom_site_fract_z
Si Si1 0.246531 0.320766 0.508792
Si Si2 0.963720 0.328637 0.150952
Si Si3 0.977697 0.319823 0.268357
Si Si4 0.596883 0.827159 0.783325
Si Si5 0.649364 0.321627 0.874285
Si Si6 0.224959 0.169964 0.927889
Si Si7 0.824664 0.167236 0.558643
Si Si8 0.629047 0.327921 0.260638
O O1 0.243561 0.500000 0.510971
O O2 0.179501 0.269007 0.605255
O O3 0.130330 0.260001 0.520618
O O4 0.440617 0.268957 0.383917
O O5 0.026232 0.500000 0.118628
O O6 0.983178 0.263128 0.202213
O O7 0.759857 0.325857 0.242407
O O8 0.067287 0.250604 0.045090
O O9 0.961754 0.500000 0.272593
O O10 0.160382 0.287304 0.201412
O O11 0.633606 0.748177 0.821657
O O12 0.388504 0.824173 0.882707
O O13 0.685565 0.764415 0.678411
O O14 0.656045 0.000000 0.755044
O O15 0.633494 0.500000 0.877086
O O16 0.500000 0.272770 0.000000
O O17 0.287850 0.243304 0.836487
O O18 0.179888 0.000000 0.941321
O O19 0.000000 0.154949 0.500000
O O20 0.763678 0.000000 0.575916
O O21 0.606867 0.500000 0.255473
#
# Coordination Sequence:
#
# PCOD9155437 Si02
#       8
#     4   4   4   4   4   4   4   4
#     4  10  20  35  56  82 112 144 184 230 275 327
#     4  10  21  38  59  81 110 146 185 230 279 333
#     4   9  19  36  56  81 113 147 185 230 276 326
#     4  10  21  35  52  78 108 141 179 220 271 325
#     4  10  20  34  54  80 109 145 186 224 270 325
#     4  11  22  37  57  82 114 146 182 230 282 334
#     4  10  20  35  54  77 107 144 183 222 271 326
#     4  10  21  36  57  85 111 143 186 230 280 333
#
# _framework density 19.753086
#
# number of rings (size 3 to 8) (size 9 to 14) (size 15 to 20)
#    0.000    2.000    1.250    2.250    0.000    5.500 
#    0.000    3.750    0.000    0.000    0.000    2.625 
#    0.000    0.000    0.000    0.000    0.000    0.000 
#
# Total GULP energy -178408.854811 kJ/mol
# GULP energy per Si atom -5575.276713 kJ/mol
# Density = 1.970813 g / cm^3
# Si number density = 19.753086 Si / 1000 Ang^3
#
#
#
# Elastic Constant Matrix: (Units=GPa)
#
#
# Indices 1 2 3 4 5 6 
#
# 1 55.4555 21.9633 30.4470 0.0000 4.4222 0.0000
# 2 21.9633 25.7466 23.1478 0.0000 3.2266 0.0000
# 3 30.4470 23.1478 100.0603 0.0000 19.0501 0.0000
# 4 0.0000 0.0000 0.0000 -3.1582 0.0000 -11.6414
# 5 4.4222 3.2266 19.0501 0.0000 17.9009 0.0000
# 6 0.0000 0.0000 0.0000 -11.6414 0.0000 -7.2456
#
#
#
# Elastic Compliance Matrix: (Units=1/GPa)
#
#
# Indices 1 2 3 4 5 6 
#
# 1 0.028364 -0.020694 -0.004038 0.000000 0.001020 0.000000
# 2 -0.020694 0.064373 -0.009229 0.000000 0.003331 0.000000
# 3 -0.004038 -0.009229 0.016116 0.000000 -0.014490 0.000000
# 4 0.000000 0.000000 0.000000 0.064325 0.000000 -0.103351
# 5 0.001020 0.003331 -0.014490 0.000000 0.070431 0.000000
# 6 0.000000 0.000000 0.000000 -0.103351 0.000000 0.028038
#
#
# Mechanical properties :
#
#
# Convention : Reuss Voigt Hill
#
# Bulk Modulus (GPa) = 24.43072 36.93098 30.68085
# Shear Modulus (GPa) = 14.15580 8.54638 11.35109
#
# Velocity S-wave (km/s) = 2.67991 2.08231 2.39978
# Velocity P-wave (km/s) = 4.68730 4.95159 4.82126
#
# Compressibility (1/GPa) = 0.04093207
#
# Stress axis : x y z
#
# Youngs Moduli (GPa) = 35.25633 15.53445 62.04871
#
# Poissons Ratio (x) = 0.32146 0.25053
# Poissons Ratio (y) = 0.72958 0.57267
# Poissons Ratio (z) = 0.14235 0.14337
#
# Static dielectric constant tensor:
#      x y z
#    x 1.692460 0.000000 -0.050600 
#    y 0.000000 1.701500 0.000000 
#    z -0.050600 0.000000 1.761230 
# 
# From -- ./inp_files/71629.got.cif
#   From: 2010.05.17/outbox.ucp.g08.bks.cvg/sg10_36_cif.got.tgz:71629.got - 2010.06.11 11:31:16.
