data_PCOD9155684
_publ_section_title
;
Structure prediction by ZEFSAII (Michael W. Deem and Ramdas Pophale) SiO2 
 PCOD9155684
Probable space group: P 2/M
;
_chemical_formula_sum "Si O2"
_cell_formula_units_Z 28
_cell_length_a 27.000000
_cell_length_b 9.000000
_cell_length_c 9.000000
_cell_angle_alpha 90.000000
_cell_angle_beta 40.000000
_cell_angle_gamma 90.000000
_cell_volume 1405.776502
_symmetry_space_group_name_H-M "P 2/M"
_symmetry_group_IT_number 10
_symmetry_cell_setting 'monoclinic'
loop_
_space_group_symop_operation_xyz
x,y,z
-x,y,-z
-x,-y,-z
x,-y,z
loop_
_atom_site_type_symbol
_atom_site_label
_atom_site_fract_x
_atom_site_fract_y
_atom_site_fract_z
Si Si1 0.573420 0.172355 0.221013
Si Si2 0.301429 0.179319 0.635756
Si Si3 0.728937 0.320810 0.980365
Si Si4 0.468407 0.667425 0.236934
Si Si5 0.010029 0.324723 0.301539
Si Si6 0.166391 0.678135 0.768887
Si Si7 0.866862 0.178460 0.471252
O O1 0.500000 0.176353 0.500000
O O2 0.646159 0.267180 0.107619
O O3 0.535835 0.244113 0.163731
O O4 0.596677 0.000000 0.150253
O O5 0.267322 0.247941 0.865642
O O6 0.388146 0.243412 0.425289
O O7 0.245284 0.242848 0.637952
O O8 0.302612 0.000000 0.636050
O O9 0.733712 0.500000 0.975059
O O10 0.797764 0.252572 0.724753
O O11 0.456653 0.500000 0.327312
O O12 0.500000 0.652624 0.000000
O O13 0.993555 0.500000 0.310247
O O14 0.000000 0.299237 0.500000
O O15 0.948058 0.226633 0.356562
O O16 0.097196 0.297309 0.046100
O O17 0.177943 0.500000 0.727913
O O18 0.139095 0.750547 0.678175
O O19 0.859210 0.000000 0.485294
#
# Coordination Sequence:
#
# PCOD9155684 Si02
#       7
#     4   4   4   4   4   4   4
#     4  11  23  41  66  96 129 166 215 272 330 384
#     4  12  25  43  66  96 132 169 216 272 329 385
#     4  12  25  43  68  94 128 171 220 269 323 393
#     4  11  25  43  65  93 128 172 222 267 322 391
#     4  10  22  43  71 100 131 171 217 264 319 385
#     4  11  24  43  68  97 134 176 219 264 318 386
#     4  12  26  43  66  98 135 172 215 270 327 380
#
# _framework density 19.917818
#
# number of rings (size 3 to 8) (size 9 to 14) (size 15 to 20)
#    0.000    0.714    1.429    6.429    2.000    6.000 
#    0.000    0.000    0.000    0.000    0.000    0.000 
#    0.000    0.000    0.000    0.000    0.000    0.000 
#
# Total GULP energy -156642.613870 kJ/mol
# GULP energy per Si atom -5594.379067 kJ/mol
# Density = 1.987248 g / cm^3
# Si number density = 19.917818 Si / 1000 Ang^3
#
#
#
# Elastic Constant Matrix: (Units=GPa)
#
#
# Indices 1 2 3 4 5 6 
#
# 1 75.7513 17.9002 -6.6954 0.0000 -2.8261 0.0000
# 2 17.9002 140.9435 17.7840 0.0000 -1.2070 0.0000
# 3 -6.6954 17.7840 45.4096 0.0000 3.6871 0.0000
# 4 0.0000 0.0000 0.0000 21.4179 0.0000 -12.0249
# 5 -2.8261 -1.2070 3.6871 0.0000 36.3796 0.0000
# 6 0.0000 0.0000 0.0000 -12.0249 0.0000 38.1811
#
#
#
# Elastic Compliance Matrix: (Units=1/GPa)
#
#
# Indices 1 2 3 4 5 6 
#
# 1 0.013982 -0.002127 0.002835 0.000000 0.000728 0.000000
# 2 -0.002127 0.007798 -0.003403 0.000000 0.000438 0.000000
# 3 0.002835 -0.003403 0.023961 0.000000 -0.002321 0.000000
# 4 0.000000 0.000000 0.000000 0.056719 0.000000 0.017863
# 5 0.000728 0.000438 -0.002321 0.000000 0.027794 0.000000
# 6 0.000000 0.000000 0.000000 0.017863 0.000000 0.031817
#
#
# Mechanical properties :
#
#
# Convention : Reuss Voigt Hill
#
# Bulk Modulus (GPa) = 24.78260 35.56467 30.17363
# Shear Modulus (GPa) = 27.63770 34.73674 31.18722
#
# Velocity S-wave (km/s) = 3.72907 4.18066 3.96131
# Velocity P-wave (km/s) = 5.56873 6.41859 6.00871
#
# Compressibility (1/GPa) = 0.04035089
#
# Stress axis : x y z
#
# Youngs Moduli (GPa) = 71.52284 128.23153 41.73410
#
# Poissons Ratio (x) = 0.27278 -0.11834
# Poissons Ratio (y) = 0.15215 0.14204
# Poissons Ratio (z) = -0.20280 0.43642
#
# Static dielectric constant tensor:
#      x y z
#    x 1.640720 0.000000 0.003340 
#    y 0.000000 1.672580 0.000000 
#    z 0.003340 0.000000 1.675980 
# 
# From -- ./inp_files/37060.got.cif
#   From: 2010.05.17/outbox.ucp.g08.bks.cvg/sg10_19_cif.got.tgz:37060.got - 2010.06.11 11:31:16.
