data_PCOD9155947
_publ_section_title
;
Structure prediction by ZEFSAII (Michael W. Deem and Ramdas Pophale) SiO2 
 PCOD9155947
Probable space group: P 21/M
;
_chemical_formula_sum "Si O2"
_cell_formula_units_Z 32
_cell_length_a 19.996739
_cell_length_b 8.873056
_cell_length_c 29.736538
_cell_angle_alpha 90.000000
_cell_angle_beta 156.077519
_cell_angle_gamma 90.000000
_cell_volume 2139.508241
_symmetry_space_group_name_H-M "P 21/M"
_symmetry_group_IT_number 11
_symmetry_cell_setting 'monoclinic'
loop_
_space_group_symop_operation_xyz
x,y,z
-x,1/2+y,-z
-x,-y,-z
x,1/2-y,z
loop_
_atom_site_type_symbol
_atom_site_label
_atom_site_fract_x
_atom_site_fract_y
_atom_site_fract_z
Si Si1 0.896290 0.071511 0.075077
Si Si2 0.391031 0.926932 0.326006
Si Si3 0.785037 0.426424 0.688791
Si Si4 0.272689 0.930500 0.449698
Si Si5 0.064082 0.430680 0.085538
Si Si6 0.673049 0.569663 0.008715
Si Si7 0.098747 0.067564 0.765776
Si Si8 0.598375 0.568911 0.102819
O O1 0.868701 0.250000 0.059385
O O2 0.944637 0.026115 0.053981
O O3 0.058441 0.028164 0.203414
O O4 0.746367 0.986990 0.006884
O O5 0.385797 0.750000 0.312562
O O6 0.342296 0.945905 0.348774
O O7 0.573061 0.992340 0.431670
O O8 0.246316 0.009809 0.209897
O O9 0.839025 0.250000 0.721996
O O10 0.717531 0.458961 0.597974
O O11 0.282793 0.750000 0.462512
O O12 0.089781 0.984550 0.351311
O O13 0.066897 0.250000 0.084908
O O14 0.000000 0.500000 0.000000
O O15 0.663028 0.750000 0.003822
O O16 0.496469 0.499200 0.912997
O O17 0.802545 0.521518 0.128112
O O18 0.092127 0.250000 0.764032
O O19 0.212592 0.028636 0.792903
O O20 0.584071 0.750000 0.094067
O O21 0.500000 0.500000 0.000000
#
# Coordination Sequence:
#
# PCOD9155947 Si02
#       8
#     4   4   4   4   4   4   4   4
#     4  10  19  29  45  69  91 113 148 189 227 268
#     4  10  20  31  44  66  89 115 150 187 225 266
#     4   9  17  29  43  58  86 122 152 184 223 262
#     4  10  17  28  43  60  87 123 156 187 220 260
#     4  10  21  37  54  70  89 115 145 184 232 278
#     4  10  17  28  43  60  86 120 155 189 226 267
#     4   8  15  26  40  57  83 120 156 187 223 260
#     4   9  16  26  39  58  83 116 156 194 229 265
#
# _framework density 14.956708000000001
#
# number of rings (size 3 to 8) (size 9 to 14) (size 15 to 20)
#    0.000    2.500    1.250    3.000    0.000    2.500 
#    0.000    1.250    0.000    0.000    0.000    0.000 
#    0.000    1.000    0.000    3.000    0.000    4.000 
#
# Total GULP energy -178264.375005 kJ/mol
# GULP energy per Si atom -5570.761719 kJ/mol
# Density = 1.492267 g / cm^3
# Si number density = 14.956708 Si / 1000 Ang^3
#
#
#
# Elastic Constant Matrix: (Units=GPa)
#
#
# Indices 1 2 3 4 5 6 
#
# 1 86.8893 42.3903 60.9131 0.0000 12.7059 0.0000
# 2 42.3903 44.7020 36.5528 0.0000 6.5567 0.0000
# 3 60.9131 36.5528 79.6713 0.0000 14.3535 0.0000
# 4 0.0000 0.0000 0.0000 22.2327 0.0000 3.1565
# 5 12.7059 6.5567 14.3535 0.0000 19.3937 0.0000
# 6 0.0000 0.0000 0.0000 3.1565 0.0000 20.9821
#
#
#
# Elastic Compliance Matrix: (Units=1/GPa)
#
#
# Indices 1 2 3 4 5 6 
#
# 1 0.030611 -0.015833 -0.015567 0.000000 -0.003181 0.000000
# 2 -0.015833 0.043990 -0.008385 0.000000 0.001706 0.000000
# 3 -0.015567 -0.008385 0.029945 0.000000 -0.009129 0.000000
# 4 0.000000 0.000000 0.000000 0.045960 0.000000 -0.006914
# 5 -0.003181 0.001706 -0.009129 0.000000 0.059827 0.000000
# 6 0.000000 0.000000 0.000000 -0.006914 0.000000 0.048700
#
#
# Mechanical properties :
#
#
# Convention : Reuss Voigt Hill
#
# Bulk Modulus (GPa) = 40.03609 54.55278 47.29444
# Shear Modulus (GPa) = 14.41215 17.28214 15.84715
#
# Velocity S-wave (km/s) = 3.10754 3.40292 3.25858
# Velocity P-wave (km/s) = 6.30094 7.21060 6.77107
#
# Compressibility (1/GPa) = 0.02497746
#
# Stress axis : x y z
#
# Youngs Moduli (GPa) = 32.66749 22.73226 33.39422
#
# Poissons Ratio (x) = 0.35991 0.51985
# Poissons Ratio (y) = 0.51721 0.28001
# Poissons Ratio (z) = 0.50854 0.19061
#
# Static dielectric constant tensor:
#      x y z
#    x 1.523670 0.000000 0.035160 
#    y 0.000000 1.501240 0.000000 
#    z 0.035160 0.000000 1.476540 
# 
# From -- ./inp_files/67456.got.cif
#   From: 2010.05.17/outbox.cif.g08.bks.cpg/sg11_34_cif.got.tgz:67456.got - 2010.06.03 12:22:45.
