data_PCOD9155227
_publ_section_title
;
Structure prediction by ZEFSAII (Michael W. Deem and Ramdas Pophale) SiO2 
 PCOD9155227
Probable space group: P 2/M
;
_chemical_formula_sum "Si O2"
_cell_formula_units_Z 32
_cell_length_a 15.000000
_cell_length_b 9.000000
_cell_length_c 15.000000
_cell_angle_alpha 90.000000
_cell_angle_beta 120.000000
_cell_angle_gamma 90.000000
_cell_volume 1753.701443
_symmetry_space_group_name_H-M "P 2/M"
_symmetry_group_IT_number 10
_symmetry_cell_setting 'monoclinic'
loop_
_space_group_symop_operation_xyz
x,y,z
-x,y,-z
-x,-y,-z
x,-y,z
loop_
_atom_site_type_symbol
_atom_site_label
_atom_site_fract_x
_atom_site_fract_y
_atom_site_fract_z
Si Si1 0.929229 0.179527 0.204077
Si Si2 0.730671 0.179756 0.429001
Si Si3 0.386755 0.675598 0.968226
Si Si4 0.705999 0.818789 0.757679
Si Si5 0.514238 0.180760 0.404556
Si Si6 0.839982 0.819270 0.660550
Si Si7 0.765838 0.821065 0.977430
Si Si8 0.783695 0.325386 0.269029
O O1 0.877505 0.245474 0.266165
O O2 0.046508 0.227146 0.255762
O O3 0.925380 0.000000 0.206654
O O4 0.861793 0.228095 0.085523
O O5 0.619028 0.227419 0.410087
O O6 0.810097 0.223930 0.546145
O O7 0.758195 0.252286 0.349871
O O8 0.730989 0.000000 0.420546
O O9 0.391195 0.500000 0.991863
O O10 0.312631 0.694038 0.846155
O O11 0.500000 0.728346 0.000000
O O12 0.335277 0.762420 0.023518
O O13 0.587152 0.773927 0.699700
O O14 0.758041 0.767806 0.692493
O O15 0.765685 0.770394 0.875553
O O16 0.707648 0.000000 0.757106
O O17 0.500000 0.229065 0.500000
O O18 0.517763 0.000000 0.409141
O O19 0.836756 0.000000 0.660214
O O20 0.764801 0.000000 0.977489
O O21 0.803594 0.500000 0.288337
#
# Coordination Sequence:
#
# PCOD9155227 Si02
#       8
#     4   4   4   4   4   4   4   4
#     4   9  18  34  52  72  99 130 165 206 245 285
#     4  10  19  31  51  77 100 129 167 203 239 287
#     4   9  19  35  51  67  93 131 168 198 238 296
#     4   9  16  27  45  75 106 128 157 198 245 293
#     4   9  15  26  45  71 103 131 157 196 243 289
#     4   9  17  30  50  74 101 132 165 200 241 291
#     4   9  18  30  48  75 102 125 157 203 247 284
#     4  10  21  36  52  71  98 131 164 204 251 293
#
# _framework density 18.247119999999999
#
# number of rings (size 3 to 8) (size 9 to 14) (size 15 to 20)
#    0.000    2.750    1.250    0.375    1.750    1.750 
#    0.000    5.625    0.000    1.875    0.000    3.500 
#    0.000    0.000    0.000    0.000    0.000    0.000 
#
# Total GULP energy -178311.376595 kJ/mol
# GULP energy per Si atom -5572.230519 kJ/mol
# Density = 1.820559 g / cm^3
# Si number density = 18.247120 Si / 1000 Ang^3
#
#
#
# Elastic Constant Matrix: (Units=GPa)
#
#
# Indices 1 2 3 4 5 6 
#
# 1 -2.2415 -5.5103 22.5748 0.0000 20.8844 0.0000
# 2 -5.5103 -3.0752 13.8592 0.0000 0.9883 0.0000
# 3 22.5748 13.8592 61.7045 0.0000 -14.5888 0.0000
# 4 0.0000 0.0000 0.0000 2.3491 0.0000 10.8240
# 5 20.8844 0.9883 -14.5888 0.0000 27.4520 0.0000
# 6 0.0000 0.0000 0.0000 10.8240 0.0000 -5.7032
#
#
#
# Elastic Compliance Matrix: (Units=1/GPa)
#
#
# Indices 1 2 3 4 5 6 
#
# 1 -0.175185 0.384373 0.006860 0.000000 0.123081 0.000000
# 2 0.384373 -0.987322 0.023334 0.000000 -0.244470 0.000000
# 3 0.006860 0.023334 0.008033 0.000000 -0.001790 0.000000
# 4 0.000000 0.000000 0.000000 0.043684 0.000000 0.082906
# 5 0.123081 -0.244470 -0.001790 0.000000 -0.049358 0.000000
# 6 0.000000 0.000000 0.000000 0.082906 0.000000 -0.017993
#
#
# Mechanical properties :
#
#
# Convention : Reuss Voigt Hill
#
# Bulk Modulus (GPa) = -3.07369 13.13722 5.03177
# Shear Modulus (GPa) = -2.36326 6.51719 2.07697
#
# Velocity S-wave (km/s) = -1.13928 1.89193 1.06804
# Velocity P-wave (km/s) = 1.84898 3.46233 2.06990
#
# Compressibility (1/GPa) = -0.32534145
#
# Stress axis : x y z
#
# Youngs Moduli (GPa) = -5.70825 -1.01284 124.49327
#
# Poissons Ratio (x) = 0.38931 -0.85400
# Poissons Ratio (y) = 2.19410 -2.90487
# Poissons Ratio (z) = 0.03916 0.02363
#
# Static dielectric constant tensor:
#      x y z
#    x 1.610810 0.000000 0.021650 
#    y 0.000000 1.610010 0.000000 
#    z 0.021650 0.000000 1.634370 
# 
# From -- ./inp_files/66479.got.cif
#   From: 2010.05.17/outbox.ucp.g08.bks.cvg/sg10_34_cif.got.tgz:66479.got - 2010.06.11 11:31:16.
