data_PCOD9155777
_publ_section_title
;
Structure prediction by ZEFSAII (Michael W. Deem and Ramdas Pophale) SiO2 
 PCOD9155777
Probable space group: P 21/M
;
_chemical_formula_sum "Si O2"
_cell_formula_units_Z 32
_cell_length_a 11.158750
_cell_length_b 21.116444
_cell_length_c 18.879122
_cell_angle_alpha 90.000000
_cell_angle_beta 156.349607
_cell_angle_gamma 90.000000
_cell_volume 1784.555925
_symmetry_space_group_name_H-M "P 21/M"
_symmetry_group_IT_number 11
_symmetry_cell_setting 'monoclinic'
loop_
_space_group_symop_operation_xyz
x,y,z
-x,1/2+y,-z
-x,-y,-z
x,1/2-y,z
loop_
_atom_site_type_symbol
_atom_site_label
_atom_site_fract_x
_atom_site_fract_y
_atom_site_fract_z
Si Si1 0.618608 0.820122 0.990561
Si Si2 0.247133 0.458412 0.901520
Si Si3 0.962291 0.678345 0.027713
Si Si4 0.000644 0.819538 0.571770
Si Si5 0.363116 0.871613 0.649253
Si Si6 0.422939 0.992840 0.785093
Si Si7 0.825157 0.027201 0.552901
Si Si8 0.490102 0.579378 0.299576
O O1 0.648191 0.750000 0.040023
O O2 0.285121 0.825602 0.777727
O O3 0.688124 0.883385 0.071607
O O4 0.829333 0.821216 0.035291
O O5 0.939931 0.473668 0.695377
O O6 0.500000 0.500000 0.000000
O O7 0.307070 0.476576 0.015440
O O8 0.072706 0.750000 0.072621
O O9 0.199290 0.622044 0.151260
O O10 0.682696 0.661977 0.825475
O O11 0.869818 0.750000 0.510802
O O12 0.765884 0.873482 0.459057
O O13 0.125283 0.826957 0.559371
O O14 0.268057 0.903086 0.524359
O O15 0.376551 0.931729 0.710527
O O16 0.496319 0.049748 0.771776
O O17 0.116377 0.007275 0.662185
O O18 0.558763 0.978883 0.389694
#
# Coordination Sequence:
#
# PCOD9155777 Si02
#       8
#     4   4   4   4   4   4   4   4
#     4   9  18  35  54  75 105 141 176 216 262 315
#     4  10  18  32  54  81 107 135 174 218 263 307
#     4  10  21  34  53  77 105 138 179 214 256 319
#     4  10  16  27  52  75  97 132 173 213 256 305
#     4  10  16  33  51  74 101 127 171 212 264 295
#     4  10  17  31  54  76 109 131 163 218 265 309
#     4  10  19  30  53  80 105 130 167 225 259 308
#     4  11  19  32  51  79 107 131 170 219 267 304
#
# _framework density 17.931632
#
# number of rings (size 3 to 8) (size 9 to 14) (size 15 to 20)
#    0.000    2.000    5.000    3.000    0.000    2.000 
#    0.000    1.875    0.000    0.000    0.000    0.000 
#    0.000    0.000    0.000    0.000    0.000    0.000 
#
# Total GULP energy -178313.467367 kJ/mol
# GULP energy per Si atom -5572.295855 kJ/mol
# Density = 1.789082 g / cm^3
# Si number density = 17.931632 Si / 1000 Ang^3
#
#
#
# Elastic Constant Matrix: (Units=GPa)
#
#
# Indices 1 2 3 4 5 6 
#
# 1 18.1097 9.6729 9.1404 0.0000 -8.6412 0.0000
# 2 9.6729 97.4980 6.1894 0.0000 -2.1559 0.0000
# 3 9.1404 6.1894 39.4573 0.0000 -8.2090 0.0000
# 4 0.0000 0.0000 0.0000 26.1435 0.0000 -5.0875
# 5 -8.6412 -2.1559 -8.2090 0.0000 24.2208 0.0000
# 6 0.0000 0.0000 0.0000 -5.0875 0.0000 18.7172
#
#
#
# Elastic Compliance Matrix: (Units=1/GPa)
#
#
# Indices 1 2 3 4 5 6 
#
# 1 0.075104 -0.006210 -0.011796 0.000000 0.022244 0.000000
# 2 -0.006210 0.010877 -0.000567 0.000000 -0.001440 0.000000
# 3 -0.011796 -0.000567 0.029349 0.000000 0.005688 0.000000
# 4 0.000000 0.000000 0.000000 0.040387 0.000000 0.010977
# 5 0.022244 -0.001440 0.005688 0.000000 0.051022 0.000000
# 6 0.000000 0.000000 0.000000 0.010977 0.000000 0.056411
#
#
# Mechanical properties :
#
#
# Convention : Reuss Voigt Hill
#
# Bulk Modulus (GPa) = 12.79062 22.78560 17.78811
# Shear Modulus (GPa) = 15.32068 22.48712 18.90390
#
# Velocity S-wave (km/s) = 2.92617 3.54510 3.25040
# Velocity P-wave (km/s) = 4.30873 5.43060 4.90187
#
# Compressibility (1/GPa) = 0.07818230
#
# Stress axis : x y z
#
# Youngs Moduli (GPa) = 13.31495 91.93773 34.07302
#
# Poissons Ratio (x) = 0.57097 0.40193
# Poissons Ratio (y) = 0.08269 0.01932
# Poissons Ratio (z) = 0.15706 0.05213
#
# Static dielectric constant tensor:
#      x y z
#    x 1.618190 0.000000 -0.007040 
#    y 0.000000 1.658020 0.000000 
#    z -0.007040 0.000000 1.636780 
# 
# From -- ./inp_files/19406.got.cif
#   From: 2010.05.17/outbox.cif.g08.bks.cpg/sg11_10_cif.got.tgz:19406.got - 2010.06.03 12:22:45.
