data_PCOD9155664
_publ_section_title
;
Structure prediction by ZEFSAII (Michael W. Deem and Ramdas Pophale) SiO2 
 PCOD9155664
Probable space group: P 2/M
;
_chemical_formula_sum "Si O2"
_cell_formula_units_Z 28
_cell_length_a 21.000000
_cell_length_b 15.000000
_cell_length_c 9.000000
_cell_angle_alpha 90.000000
_cell_angle_beta 150.000000
_cell_angle_gamma 90.000000
_cell_volume 1417.500000
_symmetry_space_group_name_H-M "P 2/M"
_symmetry_group_IT_number 10
_symmetry_cell_setting 'monoclinic'
loop_
_space_group_symop_operation_xyz
x,y,z
-x,y,-z
-x,-y,-z
x,-y,z
loop_
_atom_site_type_symbol
_atom_site_label
_atom_site_fract_x
_atom_site_fract_y
_atom_site_fract_z
Si Si1 0.352903 0.396738 0.140877
Si Si2 0.287586 0.891738 0.731119
Si Si3 0.883995 0.186855 0.871486
Si Si4 0.494540 0.395921 0.814561
Si Si5 0.947311 0.896093 0.547819
Si Si6 0.719643 0.726447 0.759409
Si Si7 0.451498 0.102170 0.572501
O O1 0.500000 0.390405 0.500000
O O2 0.312182 0.500000 0.077605
O O3 0.375723 0.375699 0.013545
O O4 0.270503 0.325042 0.064108
O O5 0.232170 0.848519 0.467157
O O6 0.186317 0.862670 0.654168
O O7 0.280196 0.000000 0.700412
O O8 0.430760 0.872626 0.079147
O O9 0.839262 0.263121 0.894040
O O10 0.000000 0.214856 0.000000
O O11 0.948032 0.113905 0.110457
O O12 0.466267 0.500000 0.723354
O O13 0.384282 0.332905 0.534698
O O14 0.500000 0.386071 0.000000
O O15 0.000000 0.855901 0.500000
O O16 0.923199 0.000000 0.469410
O O17 0.660145 0.825454 0.650367
O O18 0.500000 0.102308 0.500000
O O19 0.412543 0.000000 0.529279
#
# Coordination Sequence:
#
# PCOD9155664 Si02
#       7
#     4   4   4   4   4   4   4
#     4   8  15  32  54  79 109 138 177 220 268 330
#     4   9  19  36  53  69 102 145 186 241 286 326
#     4  10  22  37  51  75 105 142 192 243 283 329
#     4   9  18  33  56  87 117 142 177 222 271 335
#     4   9  18  34  56  74  92 134 197 249 284 319
#     4  11  21  33  55  79 110 152 186 225 282 334
#     4  10  22  35  50  80 117 150 184 224 282 349
#
# _framework density 19.753086
#
# number of rings (size 3 to 8) (size 9 to 14) (size 15 to 20)
#    0.000    2.571    0.000    3.000    4.000    2.857 
#    0.000    1.429    0.000    1.714    0.000    0.000 
#    0.000    5.714    0.000    0.000    0.000    0.000 
#
# Total GULP energy -156121.200640 kJ/mol
# GULP energy per Si atom -5575.757166 kJ/mol
# Density = 1.970813 g / cm^3
# Si number density = 19.753086 Si / 1000 Ang^3
#
#
#
# Elastic Constant Matrix: (Units=GPa)
#
#
# Indices 1 2 3 4 5 6 
#
# 1 138.9928 43.0611 11.5174 0.0000 -11.5910 0.0000
# 2 43.0611 53.4927 3.0531 0.0000 2.2118 0.0000
# 3 11.5174 3.0531 31.4077 0.0000 -7.7528 0.0000
# 4 0.0000 0.0000 0.0000 6.4287 0.0000 -5.4479
# 5 -11.5910 2.2118 -7.7528 0.0000 20.8957 0.0000
# 6 0.0000 0.0000 0.0000 -5.4479 0.0000 30.1033
#
#
#
# Elastic Compliance Matrix: (Units=1/GPa)
#
#
# Indices 1 2 3 4 5 6 
#
# 1 0.010508 -0.008630 -0.001486 0.000000 0.006191 0.000000
# 2 -0.008630 0.026051 -0.001354 0.000000 -0.008047 0.000000
# 3 -0.001486 -0.001354 0.035609 0.000000 0.012531 0.000000
# 4 0.000000 0.000000 0.000000 0.183728 0.000000 0.033250
# 5 0.006191 -0.008047 0.012531 0.000000 0.056792 0.000000
# 6 0.000000 0.000000 0.000000 0.033250 0.000000 0.039236
#
#
# Mechanical properties :
#
#
# Convention : Reuss Voigt Hill
#
# Bulk Modulus (GPa) = 20.31376 37.68404 28.99890
# Shear Modulus (GPa) = 12.77880 22.56966 17.67423
#
# Velocity S-wave (km/s) = 2.54624 3.38389 2.99450
# Velocity P-wave (km/s) = 4.35323 5.86401 5.16416
#
# Compressibility (1/GPa) = 0.04922773
#
# Stress axis : x y z
#
# Youngs Moduli (GPa) = 95.16972 38.38641 28.08266
#
# Poissons Ratio (x) = 0.33126 0.04174
# Poissons Ratio (y) = 0.82128 0.03803
# Poissons Ratio (z) = 0.14144 0.05198
#
# Static dielectric constant tensor:
#      x y z
#    x 1.798060 0.000000 -0.022230 
#    y 0.000000 1.699600 0.000000 
#    z -0.022230 0.000000 1.704400 
# 
# From -- ./inp_files/35302.got.cif
#   From: 2010.05.17/outbox.ucp.g08.bks.cvg/sg10_18_cif.got.tgz:35302.got - 2010.06.11 11:31:16.
