data_PCOD9155465
_publ_section_title
;
Structure prediction by ZEFSAII (Michael W. Deem and Ramdas Pophale) SiO2 
 PCOD9155465
Probable space group: P 2/M
;
_chemical_formula_sum "Si O2"
_cell_formula_units_Z 32
_cell_length_a 27.000000
_cell_length_b 9.000000
_cell_length_c 21.000000
_cell_angle_alpha 90.000000
_cell_angle_beta 160.000000
_cell_angle_gamma 90.000000
_cell_volume 1745.328791
_symmetry_space_group_name_H-M "P 2/M"
_symmetry_group_IT_number 10
_symmetry_cell_setting 'monoclinic'
loop_
_space_group_symop_operation_xyz
x,y,z
-x,y,-z
-x,-y,-z
x,-y,z
loop_
_atom_site_type_symbol
_atom_site_label
_atom_site_fract_x
_atom_site_fract_y
_atom_site_fract_z
Si Si1 0.149586 0.680026 0.876948
Si Si2 0.384542 0.677836 0.540004
Si Si3 0.125625 0.828935 0.292798
Si Si4 0.836779 0.171020 0.514079
Si Si5 0.368949 0.165130 0.390016
Si Si6 0.601443 0.319861 0.917110
Si Si7 0.458422 0.679259 0.878008
Si Si8 0.180543 0.676710 0.057664
O O1 0.135020 0.500000 0.858284
O O2 0.992066 0.755339 0.686773
O O3 0.247229 0.725170 0.934082
O O4 0.221109 0.718331 0.032868
O O5 0.390030 0.500000 0.540209
O O6 0.227172 0.738151 0.368589
O O7 0.419358 0.753942 0.515010
O O8 0.484988 0.720179 0.721562
O O9 0.187791 0.830993 0.439491
O O10 0.105937 0.000000 0.248662
O O11 0.977381 0.743004 0.123022
O O12 0.704782 0.265335 0.328023
O O13 0.835499 0.000000 0.490452
O O14 0.500000 0.147627 0.500000
O O15 0.263759 0.261640 0.219231
O O16 0.310583 0.000000 0.334703
O O17 0.603919 0.500000 0.923071
O O18 0.553635 0.269546 0.930670
O O19 0.463713 0.500000 0.883038
O O20 0.500000 0.727452 0.000000
O O21 0.183778 0.500000 0.063367
#
# Coordination Sequence:
#
# PCOD9155465 Si02
#       8
#     4   4   4   4   4   4   4   4
#     4   9  18  34  58  83 110 146 188 235 279 327
#     4  11  21  35  58  82 108 142 186 237 280 327
#     4  10  20  35  55  81 111 144 182 226 281 337
#     4  10  20  35  56  83 116 150 186 226 275 337
#     4  11  24  39  53  74 109 148 183 227 284 341
#     4   9  18  34  57  86 113 140 185 237 281 327
#     4  10  20  36  60  87 115 148 186 229 278 333
#     4  10  20  35  56  80 107 142 188 234 281 330
#
# _framework density 18.334654
#
# number of rings (size 3 to 8) (size 9 to 14) (size 15 to 20)
#    0.000    2.000    1.250    2.625    0.000    4.250 
#    0.000    5.000    0.000    3.750    0.000    0.000 
#    0.000    0.000    0.000    0.000    0.000    0.000 
#
# Total GULP energy -178240.578525 kJ/mol
# GULP energy per Si atom -5570.018079 kJ/mol
# Density = 1.829292 g / cm^3
# Si number density = 18.334654 Si / 1000 Ang^3
#
#
#
# Elastic Constant Matrix: (Units=GPa)
#
#
# Indices 1 2 3 4 5 6 
#
# 1 156.1472 37.5531 50.6550 0.0000 0.9564 0.0000
# 2 37.5531 44.2717 18.9158 0.0000 -5.4465 0.0000
# 3 50.6550 18.9158 59.4730 0.0000 -2.2172 0.0000
# 4 0.0000 0.0000 0.0000 60.3361 0.0000 16.3849
# 5 0.9564 -5.4465 -2.2172 0.0000 24.0551 0.0000
# 6 0.0000 0.0000 0.0000 16.3849 0.0000 29.8515
#
#
#
# Elastic Compliance Matrix: (Units=1/GPa)
#
#
# Indices 1 2 3 4 5 6 
#
# 1 0.010031 -0.005915 -0.006751 0.000000 -0.002360 0.000000
# 2 -0.005915 0.030285 -0.004345 0.000000 0.006692 0.000000
# 3 -0.006751 -0.004345 0.024002 0.000000 0.001497 0.000000
# 4 0.000000 0.000000 0.000000 0.019477 0.000000 -0.010690
# 5 -0.002360 0.006692 0.001497 0.000000 0.043318 0.000000
# 6 0.000000 0.000000 0.000000 -0.010690 0.000000 0.039367
#
#
# Mechanical properties :
#
#
# Convention : Reuss Voigt Hill
#
# Bulk Modulus (GPa) = 33.00667 52.68218 42.84442
# Shear Modulus (GPa) = 23.74180 33.03310 28.38745
#
# Velocity S-wave (km/s) = 3.60240 4.24922 3.93911
# Velocity P-wave (km/s) = 5.94512 7.27121 6.64135
#
# Compressibility (1/GPa) = 0.03029691
#
# Stress axis : x y z
#
# Youngs Moduli (GPa) = 99.69010 33.01994 41.66370
#
# Poissons Ratio (x) = 0.19531 0.28125
# Poissons Ratio (y) = 0.58966 0.18103
# Poissons Ratio (z) = 0.67296 0.14347
#
# Static dielectric constant tensor:
#      x y z
#    x 1.648510 0.000000 -0.027940 
#    y 0.000000 1.628080 0.000000 
#    z -0.027940 0.000000 1.662300 
# 
# From -- ./inp_files/87013.got.cif
#   From: 2010.05.17/outbox.ucp.g08.bks.cvg/sg10_44_cif.got.tgz:87013.got - 2010.06.11 11:31:16.
