data_PCOD9155211
_publ_section_title
;
Structure prediction by ZEFSAII (Michael W. Deem and Ramdas Pophale) SiO2 
 PCOD9155211
Probable space group: P 2/M
;
_chemical_formula_sum "Si O2"
_cell_formula_units_Z 26
_cell_length_a 30.000000
_cell_length_b 9.000000
_cell_length_c 30.000000
_cell_angle_alpha 90.000000
_cell_angle_beta 10.000000
_cell_angle_gamma 90.000000
_cell_volume 1406.550239
_symmetry_space_group_name_H-M "P 2/M"
_symmetry_group_IT_number 10
_symmetry_cell_setting 'monoclinic'
loop_
_space_group_symop_operation_xyz
x,y,z
-x,y,-z
-x,-y,-z
x,-y,z
loop_
_atom_site_type_symbol
_atom_site_label
_atom_site_fract_x
_atom_site_fract_y
_atom_site_fract_z
Si Si1 0.566309 0.679622 0.038561
Si Si2 0.734618 0.500000 0.235927
Si Si3 0.325268 0.179757 0.973907
Si Si4 0.959017 0.319320 0.490270
Si Si5 0.265123 0.178025 0.588131
Si Si6 0.801474 0.179845 0.447059
Si Si7 0.211992 0.331009 0.902007
O O1 0.564635 0.500000 0.044364
O O2 0.588936 0.752370 0.064183
O O3 0.808651 0.724294 0.770215
O O4 0.308964 0.727083 0.266892
O O5 0.500000 0.500000 0.500000
O O6 0.729863 0.360062 0.207173
O O7 0.000000 0.500000 0.000000
O O8 0.042136 0.231734 0.238993
O O9 0.324786 0.000000 0.977073
O O10 0.531535 0.226129 0.733631
O O11 0.956972 0.500000 0.493914
O O12 0.000000 0.265240 0.500000
O O13 0.173715 0.221963 0.628628
O O14 0.061424 0.254621 0.821396
O O15 0.258478 0.000000 0.599134
O O16 0.554124 0.236248 0.309114
O O17 0.805316 0.000000 0.444280
O O18 0.206916 0.500000 0.926138
#
# Coordination Sequence:
#
# PCOD9155211 Si02
#       7
#     4   2   4   4   4   4   4
#     4  10  19  31  49  71  97 121 159 206 253 301
#     4  10  20  38  64  84 112 160 202 226 270 352
#     4  10  19  34  51  71  97 135 177 204 245 311
#     4   9  17  30  49  71  92 121 157 200 249 308
#     4  11  20  37  60  86 116 149 190 242 291 326
#     4   9  19  33  53  74 101 141 180 212 252 320
#     4  10  22  36  59  88 115 149 195 234 279 342
#
# _framework density 18.484942
#
# number of rings (size 3 to 8) (size 9 to 14) (size 15 to 20)
#    0.462    1.692    0.000    4.154    0.000    4.308 
#    0.000    4.615    0.000   12.000    0.000    0.000 
#    0.000    0.000    0.000    0.000    0.000    0.000 
#
# Total GULP energy -144977.848616 kJ/mol
# GULP energy per Si atom -5576.071101 kJ/mol
# Density = 1.844287 g / cm^3
# Si number density = 18.484942 Si / 1000 Ang^3
#
#
#
# Elastic Constant Matrix: (Units=GPa)
#
#
# Indices 1 2 3 4 5 6 
#
# 1 61.5479 5.4799 -2.1908 0.0000 0.2211 0.0000
# 2 5.4799 36.0278 13.6664 0.0000 2.2172 0.0000
# 3 -2.1908 13.6664 84.4603 0.0000 -1.9012 0.0000
# 4 0.0000 0.0000 0.0000 -21.5882 0.0000 24.3721
# 5 0.2211 2.2172 -1.9012 0.0000 36.1833 0.0000
# 6 0.0000 0.0000 0.0000 24.3721 0.0000 -2.4863
#
#
#
# Elastic Compliance Matrix: (Units=1/GPa)
#
#
# Indices 1 2 3 4 5 6 
#
# 1 0.016534 -0.002862 0.000895 0.000000 0.000121 0.000000
# 2 -0.002862 0.030222 -0.005012 0.000000 -0.002098 0.000000
# 3 0.000895 -0.005012 0.012696 0.000000 0.000969 0.000000
# 4 0.000000 0.000000 0.000000 0.004602 0.000000 0.045107
# 5 0.000121 -0.002098 0.000969 0.000000 0.027816 0.000000
# 6 0.000000 0.000000 0.000000 0.045107 0.000000 0.039954
#
#
# Mechanical properties :
#
#
# Convention : Reuss Voigt Hill
#
# Bulk Modulus (GPa) = 21.98089 23.99413 22.98751
# Shear Modulus (GPa) = 31.06655 13.42710 22.24682
#
# Velocity S-wave (km/s) = 4.10401 2.69807 3.47293
# Velocity P-wave (km/s) = 5.86296 4.76599 5.34270
#
# Compressibility (1/GPa) = 0.04549407
#
# Stress axis : x y z
#
# Youngs Moduli (GPa) = 60.48256 33.08876 78.76612
#
# Poissons Ratio (x) = 0.09469 -0.07047
# Poissons Ratio (y) = 0.17308 0.39474
# Poissons Ratio (z) = -0.05411 0.16583
#
# Static dielectric constant tensor:
#      x y z
#    x 1.631580 0.000000 0.006660 
#    y 0.000000 1.389070 0.000000 
#    z 0.006660 0.000000 1.633110 
# 
# From -- ./inp_files/95956.got.cif
#   From: 2010.05.17/outbox.ucp.g08.bks.cvg/sg10_48_cif.got.tgz:95956.got - 2010.06.11 11:31:16.
