data_PCOD9155839
_publ_section_title
;
Structure prediction by ZEFSAII (Michael W. Deem and Ramdas Pophale) SiO2 
 PCOD9155839
Probable space group: P 21/M
;
_chemical_formula_sum "Si O2"
_cell_formula_units_Z 32
_cell_length_a 21.300445
_cell_length_b 8.864231
_cell_length_c 22.114489
_cell_angle_alpha 90.000000
_cell_angle_beta 27.878295
_cell_angle_gamma 90.000000
_cell_volume 1952.434616
_symmetry_space_group_name_H-M "P 21/M"
_symmetry_group_IT_number 11
_symmetry_cell_setting 'monoclinic'
loop_
_space_group_symop_operation_xyz
x,y,z
-x,1/2+y,-z
-x,-y,-z
x,1/2-y,z
loop_
_atom_site_type_symbol
_atom_site_label
_atom_site_fract_x
_atom_site_fract_y
_atom_site_fract_z
Si Si1 0.790480 0.570382 0.403741
Si Si2 0.086943 0.431405 0.371810
Si Si3 0.702301 0.075292 0.362353
Si Si4 0.511921 0.067997 0.691761
Si Si5 0.607779 0.925982 0.327067
Si Si6 0.387133 0.431414 0.280117
Si Si7 0.390523 0.068592 0.137301
Si Si8 0.890439 0.431066 0.432802
O O1 0.789609 0.750000 0.408687
O O2 0.792704 0.518020 0.332297
O O3 0.650008 0.502841 0.548570
O O4 0.896498 0.500057 0.360392
O O5 0.084499 0.250000 0.380362
O O6 0.240520 0.481966 0.246866
O O7 0.000000 0.500000 0.500000
O O8 0.016104 0.467918 0.368557
O O9 0.738831 0.250000 0.334842
O O10 0.547230 0.061774 0.517709
O O11 0.697243 0.018037 0.297894
O O12 0.523474 0.250000 0.683030
O O13 0.400021 0.028403 0.736770
O O14 0.505776 0.001499 0.764166
O O15 0.643986 0.750000 0.300121
O O16 0.382148 0.250000 0.291074
O O17 0.414456 0.469938 0.187267
O O18 0.241848 0.499419 0.422244
O O19 0.394362 0.250000 0.129509
O O20 0.500000 0.000000 0.000000
O O21 0.874900 0.250000 0.442323
#
# Coordination Sequence:
#
# PCOD9155839 Si02
#       8
#     4   4   4   4   4   4   4   4
#     4  10  17  24  35  52  78 109 141 181 224 267
#     4  10  20  34  52  73  96 121 155 197 239 284
#     4   9  15  22  32  46  69 102 141 180 217 265
#     4   9  16  25  37  54  77 105 143 183 222 270
#     4   8  14  22  31  46  69 100 138 179 217 260
#     4  10  18  29  45  64  89 115 147 191 231 275
#     4  10  22  37  51  71  97 125 158 195 238 288
#     4  10  18  28  45  66  87 114 148 188 232 276
#
# _framework density 16.389793999999998
#
# number of rings (size 3 to 8) (size 9 to 14) (size 15 to 20)
#    0.000    2.500    1.250    4.875    0.000    5.500 
#    0.000    0.000    0.000    0.000    0.000    0.000 
#    0.000    0.000    0.000    1.125    0.000   14.750 
#
# Total GULP energy -178201.675633 kJ/mol
# GULP energy per Si atom -5568.802364 kJ/mol
# Density = 1.635249 g / cm^3
# Si number density = 16.389794 Si / 1000 Ang^3
#
#
#
# Elastic Constant Matrix: (Units=GPa)
#
#
# Indices 1 2 3 4 5 6 
#
# 1 184.3998 69.6345 43.4335 0.0000 21.4489 0.0000
# 2 69.6345 68.2833 16.5082 0.0000 8.7658 0.0000
# 3 43.4335 16.5082 45.6651 0.0000 3.3287 0.0000
# 4 0.0000 0.0000 0.0000 13.9811 0.0000 5.9516
# 5 21.4489 8.7658 3.3287 0.0000 10.7776 0.0000
# 6 0.0000 0.0000 0.0000 5.9516 0.0000 29.2214
#
#
#
# Elastic Compliance Matrix: (Units=1/GPa)
#
#
# Indices 1 2 3 4 5 6 
#
# 1 0.012182 -0.008739 -0.007344 0.000000 -0.014869 0.000000
# 2 -0.008739 0.023848 -0.000167 0.000000 -0.001953 0.000000
# 3 -0.007344 -0.000167 0.028511 0.000000 0.005945 0.000000
# 4 0.000000 0.000000 0.000000 0.078315 0.000000 -0.015951
# 5 -0.014869 -0.001953 0.005945 0.000000 0.122128 0.000000
# 6 0.000000 0.000000 0.000000 -0.015951 0.000000 0.037470
#
#
# Mechanical properties :
#
#
# Convention : Reuss Voigt Hill
#
# Bulk Modulus (GPa) = 31.20980 61.94450 46.57715
# Shear Modulus (GPa) = 14.46613 22.04748 18.25681
#
# Velocity S-wave (km/s) = 2.97413 3.67167 3.34115
# Velocity P-wave (km/s) = 5.55675 7.47338 6.58517
#
# Compressibility (1/GPa) = 0.03204122
#
# Stress axis : x y z
#
# Youngs Moduli (GPa) = 82.08496 41.93206 35.07478
#
# Poissons Ratio (x) = 0.36646 0.25759
# Poissons Ratio (y) = 0.71737 0.00584
# Poissons Ratio (z) = 0.60283 0.00699
#
# Static dielectric constant tensor:
#      x y z
#    x 1.618200 0.000000 0.017720 
#    y 0.000000 1.549710 0.000000 
#    z 0.017720 0.000000 1.509840 
# 
# From -- ./inp_files/66416.got.cif
#   From: 2010.05.17/outbox.cif.g08.bks.cpg/sg11_34_cif.got.tgz:66416.got - 2010.06.03 12:22:45.
