data_PCOD9155065
_publ_section_title
;
Structure prediction by ZEFSAII (Michael W. Deem and Ramdas Pophale) SiO2 
 PCOD9155065
Probable space group: P 2/M
;
_chemical_formula_sum "Si O2"
_cell_formula_units_Z 20
_cell_length_a 10.333726
_cell_length_b 7.437687
_cell_length_c 24.144600
_cell_angle_alpha 90.000000
_cell_angle_beta 156.693194
_cell_angle_gamma 90.000000
_cell_volume 734.228222
_symmetry_space_group_name_H-M "P 2/M"
_symmetry_group_IT_number 10
_symmetry_cell_setting 'monoclinic'
loop_
_space_group_symop_operation_xyz
x,y,z
-x,y,-z
-x,-y,-z
x,-y,z
loop_
_atom_site_type_symbol
_atom_site_label
_atom_site_fract_x
_atom_site_fract_y
_atom_site_fract_z
Si Si1 0.833463 0.719210 0.601419
Si Si2 0.741520 0.799042 0.947414
Si Si3 0.212076 0.704500 0.653180
Si Si4 0.698974 0.706525 0.751233
Si Si5 0.844820 0.719663 0.161354
O O1 0.500000 0.775899 0.500000
O O2 0.820651 0.500000 0.592256
O O3 0.907839 0.785694 0.567936
O O4 0.103311 0.766715 0.754288
O O5 0.462819 0.699894 0.803494
O O6 0.649277 0.000000 0.929105
O O7 0.000000 0.821727 0.000000
O O8 0.959258 0.704780 0.079381
O O9 0.136771 0.500000 0.608934
O O10 0.411231 0.782773 0.678566
O O11 0.606224 0.500000 0.704193
O O12 0.841480 0.784860 0.750554
O O13 0.848207 0.500000 0.160179
O O14 0.500000 0.779113 0.000000
#
# Coordination Sequence:
#
# PCOD9155065 Si02
#       5
#     4   4   4   4   4
#     4   9  17  29  45  66  92 121 152 186 226 271
#     4   9  16  25  40  65  94 120 147 183 226 268
#     4   9  16  27  44  64  86 116 153 188 221 263
#     4   9  16  26  42  65  90 116 149 187 223 262
#     4   9  16  26  42  65  92 120 148 181 225 272
#
# _framework density 27.239487
#
# number of rings (size 3 to 8) (size 9 to 14) (size 15 to 20)
#    0.000    3.000    0.000    1.800    0.000    5.600 
#    0.000    1.000    0.000   12.000    0.000    0.000 
#    0.000    6.400    0.000    0.000    0.000    0.000 
#
# Total GULP energy -111570.986990 kJ/mol
# GULP energy per Si atom -5578.549350 kJ/mol
# Density = 2.717749 g / cm^3
# Si number density = 27.239487 Si / 1000 Ang^3
#
#
#
# Elastic Constant Matrix: (Units=GPa)
#
#
# Indices 1 2 3 4 5 6 
#
# 1 282.2307 9.4712 57.8042 0.0000 43.3339 0.0000
# 2 9.4712 99.5009 16.7456 0.0000 6.2549 0.0000
# 3 57.8042 16.7456 119.0641 0.0000 11.5094 0.0000
# 4 0.0000 0.0000 0.0000 -11.6787 0.0000 3.2829
# 5 43.3339 6.2549 11.5094 0.0000 55.6553 0.0000
# 6 0.0000 0.0000 0.0000 3.2829 0.0000 2.4499
#
#
#
# Elastic Compliance Matrix: (Units=1/GPa)
#
#
# Indices 1 2 3 4 5 6 
#
# 1 0.004386 0.000085 -0.001847 0.000000 -0.003042 0.000000
# 2 0.000085 0.010337 -0.001404 0.000000 -0.000937 0.000000
# 3 -0.001847 -0.001404 0.009529 0.000000 -0.000375 0.000000
# 4 0.000000 0.000000 0.000000 -0.062197 0.000000 0.083345
# 5 -0.003042 -0.000937 -0.000375 0.000000 0.020519 0.000000
# 6 0.000000 0.000000 0.000000 0.083345 0.000000 0.296491
#
#
# Mechanical properties :
#
#
# Convention : Reuss Voigt Hill
#
# Bulk Modulus (GPa) = 55.80714 74.31530 65.06122
# Shear Modulus (GPa) = 17.16017 37.07029 27.11523
#
# Velocity S-wave (km/s) = 2.51265 3.69304 3.15848
# Velocity P-wave (km/s) = 5.38052 6.74731 6.10230
#
# Compressibility (1/GPa) = 0.01791886
#
# Stress axis : x y z
#
# Youngs Moduli (GPa) = 228.00929 96.73633 104.93953
#
# Poissons Ratio (x) = -0.00819 0.19383
# Poissons Ratio (y) = -0.01930 0.14737
# Poissons Ratio (z) = 0.42115 0.13585
#
# Static dielectric constant tensor:
#      x y z
#    x 2.138840 0.000000 0.026530 
#    y 0.000000 2.043080 0.000000 
#    z 0.026530 0.000000 2.357800 
# 
# From -- ./inp_files/23573.got.cif
#   From: 2010.05.17/outbox.cif.g08.bks.cpg/sg10_12_cif.got.tgz:23573.got - 2010.06.03 11:33:40.
