data_PCOD9155568
_publ_section_title
;
Structure prediction by ZEFSAII (Michael W. Deem and Ramdas Pophale) SiO2 
 PCOD9155568
Probable space group: P 2/M
;
_chemical_formula_sum "Si O2"
_cell_formula_units_Z 32
_cell_length_a 15.000000
_cell_length_b 18.000000
_cell_length_c 12.000000
_cell_angle_alpha 90.000000
_cell_angle_beta 30.000000
_cell_angle_gamma 90.000000
_cell_volume 1620.000000
_symmetry_space_group_name_H-M "P 2/M"
_symmetry_group_IT_number 10
_symmetry_cell_setting 'monoclinic'
loop_
_space_group_symop_operation_xyz
x,y,z
-x,y,-z
-x,-y,-z
x,-y,z
loop_
_atom_site_type_symbol
_atom_site_label
_atom_site_fract_x
_atom_site_fract_y
_atom_site_fract_z
Si Si1 0.092623 0.363911 0.003836
Si Si2 0.213912 0.414184 0.278756
Si Si3 0.752704 0.667163 0.525833
Si Si4 0.005296 0.084027 0.360352
Si Si5 0.287731 0.213939 0.717748
Si Si6 0.309889 0.822547 0.929810
Si Si7 0.288243 0.837753 0.467441
Si Si8 0.368002 0.644653 0.879682
O O1 0.936239 0.349676 0.263386
O O2 0.173800 0.288376 0.860415
O O3 0.257327 0.393336 0.899656
O O4 0.000000 0.405020 0.000000
O O5 0.263387 0.500000 0.240380
O O6 0.261588 0.369535 0.338013
O O7 0.000000 0.409204 0.500000
O O8 0.303294 0.384842 0.069101
O O9 0.736988 0.755534 0.555684
O O10 0.581346 0.640195 0.640456
O O11 0.830313 0.107788 0.478842
O O12 0.000000 0.084601 0.500000
O O13 0.054133 0.000000 0.273697
O O14 0.154260 0.143757 0.169388
O O15 0.500000 0.232891 0.500000
O O16 0.261016 0.162011 0.853749
O O17 0.244067 0.175888 0.647085
O O18 0.501173 0.854844 0.757624
O O19 0.322811 0.733023 0.924977
#
# Coordination Sequence:
#
# PCOD9155568 Si02
#       8
#     4   4   4   4   4   4   4   4
#     4  11  20  32  56  88 125 158 191 247 297 353
#     4  11  24  42  64  92 126 163 202 251 308 360
#     4  11  22  36  61  93 121 158 202 245 303 354
#     4  11  26  42  57  81 118 165 204 242 302 365
#     4   9  18  35  59  92 123 151 193 249 311 360
#     4   9  21  37  61  90 119 149 198 256 295 353
#     4  10  20  38  62  90 117 152 200 250 301 355
#     4  10  22  38  60  91 122 158 201 248 301 358
#
# _framework density 19.753086
#
# number of rings (size 3 to 8) (size 9 to 14) (size 15 to 20)
#    0.000    1.750    2.500    2.625    1.750    2.000 
#    0.000    2.500    0.000    3.750    0.000    1.750 
#    0.000    0.000    0.000    0.000    0.000    0.000 
#
# Total GULP energy -178550.384042 kJ/mol
# GULP energy per Si atom -5579.699501 kJ/mol
# Density = 1.970813 g / cm^3
# Si number density = 19.753086 Si / 1000 Ang^3
#
#
#
# Elastic Constant Matrix: (Units=GPa)
#
#
# Indices 1 2 3 4 5 6 
#
# 1 118.7492 20.6024 2.7935 0.0000 6.0783 0.0000
# 2 20.6024 24.0116 -4.7686 0.0000 4.3899 0.0000
# 3 2.7935 -4.7686 45.5258 0.0000 -0.2473 0.0000
# 4 0.0000 0.0000 0.0000 -5.4061 0.0000 -14.8322
# 5 6.0783 4.3899 -0.2473 0.0000 26.0837 0.0000
# 6 0.0000 0.0000 0.0000 -14.8322 0.0000 -66.9554
#
#
#
# Elastic Compliance Matrix: (Units=1/GPa)
#
#
# Indices 1 2 3 4 5 6 
#
# 1 0.010019 -0.008740 -0.001535 0.000000 -0.000878 0.000000
# 2 -0.008740 0.051520 0.005897 0.000000 -0.006578 0.000000
# 3 -0.001535 0.005897 0.022675 0.000000 -0.000420 0.000000
# 4 0.000000 0.000000 0.000000 -0.471608 0.000000 0.104472
# 5 -0.000878 -0.006578 -0.000420 0.000000 0.039646 0.000000
# 6 0.000000 0.000000 0.000000 0.104472 0.000000 -0.038078
#
#
# Mechanical properties :
#
#
# Convention : Reuss Voigt Hill
#
# Bulk Modulus (GPa) = 13.25262 25.06013 19.15638
# Shear Modulus (GPa) = -14.20784 2.05508 -6.07638
#
# Velocity S-wave (km/s) = -2.68483 1.02110 -1.75580
# Velocity P-wave (km/s) = 1.69924 3.75559 2.36823
#
# Compressibility (1/GPa) = 0.07545675
#
# Stress axis : x y z
#
# Youngs Moduli (GPa) = 99.81434 19.41000 44.10106
#
# Poissons Ratio (x) = 0.16965 0.06770
# Poissons Ratio (y) = 0.87242 -0.26007
# Poissons Ratio (z) = 0.15322 -0.11446
#
# Static dielectric constant tensor:
#      x y z
#    x 1.745010 0.000000 -0.012890 
#    y 0.000000 1.668870 0.000000 
#    z -0.012890 0.000000 1.716550 
# 
# From -- ./inp_files/51961.got.cif
#   From: 2010.05.17/outbox.ucp.g08.bks.cvg/sg10_26_cif.got.tgz:51961.got - 2010.06.11 11:31:16.
