data_PCOD9155823
_publ_section_title
;
Structure prediction by ZEFSAII (Michael W. Deem and Ramdas Pophale) SiO2 
 PCOD9155823
Probable space group: P 21/M
;
_chemical_formula_sum "Si O2"
_cell_formula_units_Z 32
_cell_length_a 11.208365
_cell_length_b 17.036384
_cell_length_c 13.468079
_cell_angle_alpha 90.000000
_cell_angle_beta 33.672156
_cell_angle_gamma 90.000000
_cell_volume 1425.870031
_symmetry_space_group_name_H-M "P 21/M"
_symmetry_group_IT_number 11
_symmetry_cell_setting 'monoclinic'
loop_
_space_group_symop_operation_xyz
x,y,z
-x,1/2+y,-z
-x,-y,-z
x,1/2-y,z
loop_
_atom_site_type_symbol
_atom_site_label
_atom_site_fract_x
_atom_site_fract_y
_atom_site_fract_z
Si Si1 0.409991 0.950686 0.223705
Si Si2 0.631505 0.109926 0.109316
Si Si3 0.546710 0.341282 0.453234
Si Si4 0.230241 0.163402 0.502431
Si Si5 0.235437 0.836602 0.497365
Si Si6 0.850339 0.890092 0.890469
Si Si7 0.076938 0.912737 0.923058
Si Si8 0.857569 0.450681 0.776104
O O1 0.254531 0.904436 0.404186
O O2 0.279302 0.983155 0.220707
O O3 0.538470 0.020955 0.188056
O O4 0.594464 0.890853 0.057338
O O5 0.434798 0.160252 0.286904
O O6 0.841791 0.124977 0.031014
O O7 0.709442 0.109174 0.942409
O O8 0.616160 0.250000 0.383805
O O9 0.324162 0.349701 0.548892
O O10 0.577816 0.349714 0.548985
O O11 0.707160 0.403952 0.292804
O O12 0.132742 0.250000 0.564617
O O13 0.063020 0.095554 0.595568
O O14 0.262377 0.750000 0.435153
O O15 0.008867 0.839753 0.712886
O O16 0.903887 0.875044 0.968877
O O17 0.914833 0.979058 0.811694
O O18 0.000000 0.000000 0.000000
#
# Coordination Sequence:
#
# PCOD9155823 Si02
#       8
#     4   4   4   4   4   4   4   4
#     4  11  23  38  58  84 113 153 200 237 280 344
#     4  10  21  38  61  85 118 148 187 244 299 343
#     4   8  18  36  57  84 118 152 185 230 296 356
#     4  10  22  39  59  85 115 150 189 234 289 348
#     4  10  22  39  59  85 115 150 189 234 289 348
#     4  10  21  38  61  85 118 148 187 244 299 343
#     4  10  16  32  61  90 113 141 192 241 289 347
#     4  11  23  38  58  84 113 153 200 237 280 344
#
# _framework density 22.442437999999999
#
# number of rings (size 3 to 8) (size 9 to 14) (size 15 to 20)
#    0.000    2.000    2.500    2.250    0.000    6.500 
#    0.000    3.750    0.000    4.500    0.000    0.000 
#    0.000    0.000    0.000    0.000    0.000    0.000 
#
# Total GULP energy -178471.773951 kJ/mol
# GULP energy per Si atom -5577.242936 kJ/mol
# Density = 2.239136 g / cm^3
# Si number density = 22.442438 Si / 1000 Ang^3
#
#
#
# Elastic Constant Matrix: (Units=GPa)
#
#
# Indices 1 2 3 4 5 6 
#
# 1 76.4959 14.5989 5.6933 0.0000 -1.0696 0.0000
# 2 14.5989 52.7842 18.6741 0.0000 0.2675 0.0000
# 3 5.6933 18.6741 64.9555 0.0000 0.3498 0.0000
# 4 0.0000 0.0000 0.0000 20.2739 0.0000 0.8205
# 5 -1.0696 0.2675 0.3498 0.0000 27.1668 0.0000
# 6 0.0000 0.0000 0.0000 0.8205 0.0000 7.3823
#
#
#
# Elastic Compliance Matrix: (Units=1/GPa)
#
#
# Indices 1 2 3 4 5 6 
#
# 1 0.013811 -0.003778 -0.000128 0.000000 0.000583 0.000000
# 2 -0.003778 0.022124 -0.006028 0.000000 -0.000289 0.000000
# 3 -0.000128 -0.006028 0.017140 0.000000 -0.000166 0.000000
# 4 0.000000 0.000000 0.000000 0.049547 0.000000 -0.005507
# 5 0.000583 -0.000289 -0.000166 0.000000 0.036838 0.000000
# 6 0.000000 0.000000 0.000000 -0.005507 0.000000 0.136071
#
#
# Mechanical properties :
#
#
# Convention : Reuss Voigt Hill
#
# Bulk Modulus (GPa) = 30.11221 30.24092 30.17656
# Shear Modulus (GPa) = 16.31497 21.31590 18.81543
#
# Velocity S-wave (km/s) = 2.69916 3.08523 2.89863
# Velocity P-wave (km/s) = 4.81255 5.11817 4.96771
#
# Compressibility (1/GPa) = 0.03320912
#
# Stress axis : x y z
#
# Youngs Moduli (GPa) = 72.40501 45.20009 58.34255
#
# Poissons Ratio (x) = 0.17075 0.00745
# Poissons Ratio (y) = 0.27352 0.35167
# Poissons Ratio (z) = 0.00924 0.27245
#
# Static dielectric constant tensor:
#      x y z
#    x 1.848570 0.000000 0.000400 
#    y 0.000000 1.829020 0.000000 
#    z 0.000400 0.000000 1.855170 
# 
# From -- ./inp_files/50635.got.cif
#   From: 2010.05.17/outbox.cif.g08.bks.cpg/sg11_26_cif.got.tgz:50635.got - 2010.06.03 12:22:45.
