data_PCOD9155715
_publ_section_title
;
Structure prediction by ZEFSAII (Michael W. Deem and Ramdas Pophale) SiO2 
 PCOD9155715
Probable space group: P 2/M
;
_chemical_formula_sum "Si O2"
_cell_formula_units_Z 24
_cell_length_a 12.000000
_cell_length_b 9.000000
_cell_length_c 24.000000
_cell_angle_alpha 90.000000
_cell_angle_beta 30.000000
_cell_angle_gamma 90.000000
_cell_volume 1296.000000
_symmetry_space_group_name_H-M "P 2/M"
_symmetry_group_IT_number 10
_symmetry_cell_setting 'monoclinic'
loop_
_space_group_symop_operation_xyz
x,y,z
-x,y,-z
-x,-y,-z
x,-y,z
loop_
_atom_site_type_symbol
_atom_site_label
_atom_site_fract_x
_atom_site_fract_y
_atom_site_fract_z
Si Si1 0.094926 0.181694 0.294983
Si Si2 0.403018 0.820930 0.723720
Si Si3 0.870025 0.177286 0.957020
Si Si4 0.401087 0.318844 0.478689
Si Si5 0.490673 0.317825 0.201539
Si Si6 0.232700 0.672125 0.117366
O O1 0.278692 0.250998 0.258417
O O2 0.156546 0.240006 0.205819
O O3 0.847460 0.246920 0.414635
O O4 0.098064 0.000000 0.295811
O O5 0.473406 0.748667 0.632094
O O6 0.506787 0.744111 0.735197
O O7 0.136207 0.805724 0.849899
O O8 0.452993 0.000000 0.700463
O O9 0.831196 0.246390 0.912386
O O10 0.817893 0.000000 0.980471
O O11 0.709767 0.258593 0.071923
O O12 0.500000 0.288311 0.500000
O O13 0.395828 0.500000 0.475731
O O14 0.486567 0.500000 0.202967
O O15 0.149137 0.500000 0.155254
O O16 0.500000 0.666215 0.000000
#
# Coordination Sequence:
#
# PCOD9155715 Si02
#       6
#     4   4   4   4   4   4
#     4  12  25  42  67  96 131 171 215 267 322 380
#     4  11  25  44  66  95 130 170 218 265 318 382
#     4  11  23  40  65  96 132 172 215 267 322 381
#     4  11  25  46  71  98 130 167 212 264 319 381
#     4  12  25  42  65  95 131 171 217 266 322 384
#     4  11  22  37  61  94 130 167 210 262 317 376
#
# _framework density 18.518519000000001
#
# number of rings (size 3 to 8) (size 9 to 14) (size 15 to 20)
#    0.000    0.667    1.667    6.500    0.000   10.000 
#    0.000    3.333    0.000    0.000    0.000    0.000 
#    0.000    0.000    0.000    0.000    0.000    0.000 
#
# Total GULP energy -134037.522207 kJ/mol
# GULP energy per Si atom -5584.896759 kJ/mol
# Density = 1.847637 g / cm^3
# Si number density = 18.518519 Si / 1000 Ang^3
#
#
#
# Elastic Constant Matrix: (Units=GPa)
#
#
# Indices 1 2 3 4 5 6 
#
# 1 158.6477 72.4453 56.4804 0.0000 20.2882 0.0000
# 2 72.4453 196.6026 59.5607 0.0000 8.8724 0.0000
# 3 56.4804 59.5607 139.2440 0.0000 12.2610 0.0000
# 4 0.0000 0.0000 0.0000 44.4189 0.0000 7.9679
# 5 20.2882 8.8724 12.2610 0.0000 43.8434 0.0000
# 6 0.0000 0.0000 0.0000 7.9679 0.0000 39.1841
#
#
#
# Elastic Compliance Matrix: (Units=1/GPa)
#
#
# Indices 1 2 3 4 5 6 
#
# 1 0.008523 -0.002344 -0.002203 0.000000 -0.002853 0.000000
# 2 -0.002344 0.006499 -0.001854 0.000000 0.000288 0.000000
# 3 -0.002203 -0.001854 0.008966 0.000000 -0.001113 0.000000
# 4 0.000000 0.000000 0.000000 0.023365 0.000000 -0.004751
# 5 -0.002853 0.000288 -0.001113 0.000000 0.024382 0.000000
# 6 0.000000 0.000000 0.000000 -0.004751 0.000000 0.026487
#
#
# Mechanical properties :
#
#
# Convention : Reuss Voigt Hill
#
# Bulk Modulus (GPa) = 89.40683 96.82968 93.11825
# Shear Modulus (GPa) = 43.57141 45.88981 44.73061
#
# Velocity S-wave (km/s) = 4.85589 4.98340 4.92006
# Velocity P-wave (km/s) = 8.93443 9.24737 9.09225
#
# Compressibility (1/GPa) = 0.01118483
#
# Stress axis : x y z
#
# Youngs Moduli (GPa) = 117.32868 153.86837 111.52715
#
# Poissons Ratio (x) = 0.36073 0.24570
# Poissons Ratio (y) = 0.27507 0.20681
# Poissons Ratio (z) = 0.25848 0.28533
#
# Static dielectric constant tensor:
#      x y z
#    x 1.660880 0.000000 -0.018990 
#    y 0.000000 1.643490 0.000000 
#    z -0.018990 0.000000 1.641870 
# 
# From -- ./inp_files/88614.got.cif
#   From: 2010.05.17/outbox.ucp.g08.bks.cvg/sg10_45_cif.got.tgz:88614.got - 2010.06.11 11:31:16.
