data_PCOD9155155
_publ_section_title
;
Structure prediction by ZEFSAII (Michael W. Deem and Ramdas Pophale) SiO2 
 PCOD9155155
Probable space group: P 2/M
;
_chemical_formula_sum "Si O2"
_cell_formula_units_Z 32
_cell_length_a 30.000000
_cell_length_b 9.000000
_cell_length_c 12.000000
_cell_angle_alpha 90.000000
_cell_angle_beta 150.000000
_cell_angle_gamma 90.000000
_cell_volume 1620.000000
_symmetry_space_group_name_H-M "P 2/M"
_symmetry_group_IT_number 10
_symmetry_cell_setting 'monoclinic'
loop_
_space_group_symop_operation_xyz
x,y,z
-x,y,-z
-x,-y,-z
x,-y,z
loop_
_atom_site_type_symbol
_atom_site_label
_atom_site_fract_x
_atom_site_fract_y
_atom_site_fract_z
Si Si1 0.958392 0.165382 0.789567
Si Si2 0.698810 0.321657 0.430945
Si Si3 0.264123 0.169674 0.927511
Si Si4 0.253968 0.326090 0.137734
Si Si5 0.785852 0.673816 0.397216
Si Si6 0.529778 0.172734 0.682611
Si Si7 0.121462 0.674303 0.038895
Si Si8 0.592024 0.176637 0.386716
O O1 0.884324 0.290292 0.651743
O O2 0.036266 0.225984 0.878626
O O3 0.925338 0.000000 0.683241
O O4 0.000000 0.146527 0.000000
O O5 0.689209 0.500000 0.413425
O O6 0.715488 0.275151 0.339318
O O7 0.617634 0.250609 0.324193
O O8 0.792200 0.287186 0.697197
O O9 0.212351 0.235394 0.712231
O O10 0.242145 0.000000 0.908833
O O11 0.252649 0.273722 0.008785
O O12 0.365052 0.173050 0.100312
O O13 0.280236 0.500000 0.206041
O O14 0.325441 0.222828 0.355212
O O15 0.160382 0.309799 0.998649
O O16 0.770898 0.500000 0.345385
O O17 0.500000 0.244125 0.500000
O O18 0.491046 0.230336 0.716059
O O19 0.497186 0.000000 0.609082
O O20 0.101141 0.500000 0.014941
O O21 0.586307 0.000000 0.357039
#
# Coordination Sequence:
#
# PCOD9155155 Si02
#       8
#     4   4   4   4   4   4   4   4
#     4  11  22  35  56  88 116 140 184 237 275 320
#     4   9  19  35  54  79 112 148 184 226 278 333
#     4  11  22  38  59  82 113 149 188 235 280 330
#     4  10  20  35  54  82 116 148 185 225 277 337
#     4  11  23  40  59  79 113 155 188 223 280 344
#     4   9  17  33  55  82 113 145 185 229 281 335
#     4   9  18  34  56  81 110 146 183 225 275 330
#     4  10  18  31  56  84 110 144 186 234 280 323
#
# _framework density 19.753086
#
# number of rings (size 3 to 8) (size 9 to 14) (size 15 to 20)
#    0.000    2.000    2.500    2.625    0.000    4.000 
#    0.000    4.375    0.000    7.500    0.000    0.000 
#    0.000    0.000    0.000    0.000    0.000    0.000 
#
# Total GULP energy -178248.069724 kJ/mol
# GULP energy per Si atom -5570.252179 kJ/mol
# Density = 1.970813 g / cm^3
# Si number density = 19.753086 Si / 1000 Ang^3
#
#
#
# Elastic Constant Matrix: (Units=GPa)
#
#
# Indices 1 2 3 4 5 6 
#
# 1 94.5621 16.6484 -10.0247 0.0000 16.9475 0.0000
# 2 16.6484 23.5013 -5.5368 0.0000 7.4550 0.0000
# 3 -10.0247 -5.5368 5.0951 0.0000 -2.5710 0.0000
# 4 0.0000 0.0000 0.0000 -12.5909 0.0000 1.4683
# 5 16.9475 7.4550 -2.5710 0.0000 12.4839 0.0000
# 6 0.0000 0.0000 0.0000 1.4683 0.0000 29.1714
#
#
#
# Elastic Compliance Matrix: (Units=1/GPa)
#
#
# Indices 1 2 3 4 5 6 
#
# 1 0.016087 -0.000829 0.022298 0.000000 -0.016752 0.000000
# 2 -0.000829 0.064383 0.055241 0.000000 -0.025946 0.000000
# 3 0.022298 0.055241 0.299359 0.000000 -0.001608 0.000000
# 4 0.000000 0.000000 0.000000 -0.078959 0.000000 0.003974
# 5 -0.016752 -0.025946 -0.001608 0.000000 0.118007 0.000000
# 6 0.000000 0.000000 0.000000 0.003974 0.000000 0.034080
#
#
# Mechanical properties :
#
#
# Convention : Reuss Voigt Hill
#
# Bulk Modulus (GPa) = 1.87530 13.92584 7.90057
# Shear Modulus (GPa) = 10.47589 13.95099 12.21344
#
# Velocity S-wave (km/s) = 2.30541 2.66046 2.48927
# Velocity P-wave (km/s) = 2.83514 4.06234 3.50290
#
# Compressibility (1/GPa) = 0.53324927
#
# Stress axis : x y z
#
# Youngs Moduli (GPa) = 62.16144 15.53209 3.34047
#
# Poissons Ratio (x) = 0.01287 -0.07449
# Poissons Ratio (y) = 0.05153 -0.18453
# Poissons Ratio (z) = -1.38608 -0.85801
#
# Static dielectric constant tensor:
#      x y z
#    x 1.718800 0.000000 -0.035310 
#    y 0.000000 1.684680 0.000000 
#    z -0.035310 0.000000 1.816660 
# 
# From -- ./inp_files/58372.got.cif
#   From: 2010.05.17/outbox.ucp.g08.bks.cvg/sg10_30_cif.got.tgz:58372.got - 2010.06.11 11:31:16.
