data_PCOD9155488
_publ_section_title
;
Structure prediction by ZEFSAII (Michael W. Deem and Ramdas Pophale) SiO2 
 PCOD9155488
Probable space group: P 2/M
;
_chemical_formula_sum "Si O2"
_cell_formula_units_Z 32
_cell_length_a 30.000000
_cell_length_b 9.000000
_cell_length_c 12.000000
_cell_angle_alpha 90.000000
_cell_angle_beta 150.000000
_cell_angle_gamma 90.000000
_cell_volume 1620.000000
_symmetry_space_group_name_H-M "P 2/M"
_symmetry_group_IT_number 10
_symmetry_cell_setting 'monoclinic'
loop_
_space_group_symop_operation_xyz
x,y,z
-x,y,-z
-x,-y,-z
x,-y,z
loop_
_atom_site_type_symbol
_atom_site_label
_atom_site_fract_x
_atom_site_fract_y
_atom_site_fract_z
Si Si1 0.621219 0.329783 0.912854
Si Si2 0.528541 0.167969 0.280366
Si Si3 0.333773 0.168909 0.214422
Si Si4 0.764098 0.673356 0.409828
Si Si5 0.798225 0.672022 0.916898
Si Si6 0.016551 0.176461 0.667974
Si Si7 0.049747 0.177669 0.224274
Si Si8 0.337825 0.673917 0.585191
O O1 0.604232 0.500000 0.842818
O O2 0.711318 0.321144 0.179320
O O3 0.548002 0.275671 0.842438
O O4 0.625371 0.228814 0.811955
O O5 0.595452 0.164738 0.531493
O O6 0.581075 0.229773 0.287345
O O7 0.496484 0.000000 0.192113
O O8 0.300275 0.000000 0.126321
O O9 0.258713 0.279385 0.098569
O O10 0.789426 0.500000 0.484922
O O11 0.849430 0.775500 0.581964
O O12 0.702671 0.717130 0.382882
O O13 0.826073 0.500000 0.986160
O O14 0.881084 0.781231 0.090361
O O15 0.738019 0.686099 0.675274
O O16 0.973154 0.229402 0.695477
O O17 0.000000 0.228939 0.500000
O O18 0.999487 0.000000 0.627336
O O19 0.037139 0.000000 0.200323
O O20 0.000000 0.229509 0.000000
O O21 0.364212 0.500000 0.648330
#
# Coordination Sequence:
#
# PCOD9155488 Si02
#       8
#     4   4   4   4   4   4   4   4
#     4  11  23  37  55  83 118 153 191 238 288 341
#     4  10  21  37  58  85 113 149 195 238 285 342
#     4  10  21  37  58  82 114 153 192 236 286 344
#     4  10  23  40  59  85 116 151 191 235 289 345
#     4  10  20  35  59  87 111 144 190 236 284 340
#     4  10  22  38  56  83 118 154 190 235 297 354
#     4  10  22  40  62  87 116 154 200 244 289 349
#     4   9  19  38  60  82 112 149 189 234 285 340
#
# _framework density 19.753086
#
# number of rings (size 3 to 8) (size 9 to 14) (size 15 to 20)
#    0.000    2.000    0.000    2.625    1.750    6.500 
#    0.000    2.500    0.000    0.000    0.000    0.000 
#    0.000    0.000    0.000    0.000    0.000    0.000 
#
# Total GULP energy -178354.889917 kJ/mol
# GULP energy per Si atom -5573.590310 kJ/mol
# Density = 1.970813 g / cm^3
# Si number density = 19.753086 Si / 1000 Ang^3
#
#
#
# Elastic Constant Matrix: (Units=GPa)
#
#
# Indices 1 2 3 4 5 6 
#
# 1 104.2479 7.7713 16.5826 0.0000 -9.8246 0.0000
# 2 7.7713 21.7961 7.2997 0.0000 -9.7274 0.0000
# 3 16.5826 7.2997 21.1837 0.0000 -5.5019 0.0000
# 4 0.0000 0.0000 0.0000 20.9678 0.0000 5.6790
# 5 -9.8246 -9.7274 -5.5019 0.0000 24.3078 0.0000
# 6 0.0000 0.0000 0.0000 5.6790 0.0000 32.5185
#
#
#
# Elastic Compliance Matrix: (Units=1/GPa)
#
#
# Indices 1 2 3 4 5 6 
#
# 1 0.011119 -0.000113 -0.007979 0.000000 0.002643 0.000000
# 2 -0.000113 0.060242 -0.015322 0.000000 0.020594 0.000000
# 3 -0.007979 -0.015322 0.059818 0.000000 0.004183 0.000000
# 4 0.000000 0.000000 0.000000 0.050060 0.000000 -0.008742
# 5 0.002643 0.020594 0.004183 0.000000 0.051395 0.000000
# 6 0.000000 0.000000 0.000000 -0.008742 0.000000 0.032278
#
#
# Mechanical properties :
#
#
# Convention : Reuss Voigt Hill
#
# Bulk Modulus (GPa) = 11.85499 23.39278 17.62388
# Shear Modulus (GPa) = 14.71207 23.26377 18.98792
#
# Velocity S-wave (km/s) = 2.73206 3.43553 3.10379
# Velocity P-wave (km/s) = 3.99585 5.25409 4.66756
#
# Compressibility (1/GPa) = 0.08435270
#
# Stress axis : x y z
#
# Youngs Moduli (GPa) = 89.93463 16.59971 16.71737
#
# Poissons Ratio (x) = 0.00187 0.13338
# Poissons Ratio (y) = 0.01015 0.25614
# Poissons Ratio (z) = 0.71757 0.25434
#
# Static dielectric constant tensor:
#      x y z
#    x 1.686260 0.000000 -0.002540 
#    y 0.000000 1.680380 0.000000 
#    z -0.002540 0.000000 1.718850 
# 
# From -- ./inp_files/49891.got.cif
#   From: 2010.05.17/outbox.ucp.g08.bks.cvg/sg10_25_cif.got.tgz:49891.got - 2010.06.11 11:31:16.
