data_PCOD9155207
_publ_section_title
;
Structure prediction by ZEFSAII (Michael W. Deem and Ramdas Pophale) SiO2 
 PCOD9155207
Probable space group: P 2/M
;
_chemical_formula_sum "Si O2"
_cell_formula_units_Z 32
_cell_length_a 27.000000
_cell_length_b 9.000000
_cell_length_c 21.000000
_cell_angle_alpha 90.000000
_cell_angle_beta 20.000000
_cell_angle_gamma 90.000000
_cell_volume 1745.328791
_symmetry_space_group_name_H-M "P 2/M"
_symmetry_group_IT_number 10
_symmetry_cell_setting 'monoclinic'
loop_
_space_group_symop_operation_xyz
x,y,z
-x,y,-z
-x,-y,-z
x,-y,z
loop_
_atom_site_type_symbol
_atom_site_label
_atom_site_fract_x
_atom_site_fract_y
_atom_site_fract_z
Si Si1 0.161832 0.178396 0.890748
Si Si2 0.843359 0.820782 0.467525
Si Si3 0.395115 0.329245 0.689093
Si Si4 0.017813 0.678619 0.581764
Si Si5 0.235103 0.678566 0.205232
Si Si6 0.143261 0.818992 0.693521
Si Si7 0.636246 0.178789 0.472636
Si Si8 0.478333 0.821335 0.099686
O O1 0.253339 0.241654 0.839004
O O2 0.245991 0.218852 0.724505
O O3 0.163629 0.000000 0.891183
O O4 0.996591 0.228150 0.096912
O O5 0.951205 0.752551 0.388574
O O6 0.870723 0.771663 0.362290
O O7 0.680092 0.777710 0.684740
O O8 0.852540 0.000000 0.458902
O O9 0.500000 0.323408 0.500000
O O10 0.362908 0.500000 0.741707
O O11 0.486594 0.254172 0.634425
O O12 0.020719 0.500000 0.583696
O O13 0.144742 0.720750 0.378152
O O14 0.867016 0.720991 0.730517
O O15 0.247949 0.500000 0.190064
O O16 0.390981 0.752245 0.018478
O O17 0.291365 0.773662 0.548816
O O18 0.144292 0.000000 0.692933
O O19 0.618995 0.000000 0.492019
O O20 0.487901 0.000000 0.090887
O O21 0.500000 0.775235 0.000000
#
# Coordination Sequence:
#
# PCOD9155207 Si02
#       8
#     4   4   4   4   4   4   4   4
#     4   9  16  29  51  75  95 122 165 207 241 283
#     4  10  20  34  50  70 100 132 160 195 244 294
#     4   9  17  29  46  71 101 128 156 195 242 288
#     4   9  18  33  51  73  98 123 157 200 240 283
#     4   9  18  32  52  75  96 122 159 200 240 281
#     4   9  18  32  50  72  97 127 162 202 246 289
#     4   9  16  29  51  75  97 124 162 206 243 280
#     4  10  19  31  48  74 101 125 157 196 235 285
#
# _framework density 18.334654
#
# number of rings (size 3 to 8) (size 9 to 14) (size 15 to 20)
#    0.000    2.750    1.250    1.500    0.000    4.250 
#    0.000    4.375    0.000    9.000    0.000    0.000 
#    0.000    0.000    0.000    0.000    0.000    0.000 
#
# Total GULP energy -178373.182942 kJ/mol
# GULP energy per Si atom -5574.161967 kJ/mol
# Density = 1.829292 g / cm^3
# Si number density = 18.334654 Si / 1000 Ang^3
#
#
#
# Elastic Constant Matrix: (Units=GPa)
#
#
# Indices 1 2 3 4 5 6 
#
# 1 120.4734 17.5276 10.3303 0.0000 -20.9216 0.0000
# 2 17.5276 -4.9343 3.1660 0.0000 -0.9352 0.0000
# 3 10.3303 3.1660 17.0321 0.0000 -13.1274 0.0000
# 4 0.0000 0.0000 0.0000 10.5427 0.0000 -3.7128
# 5 -20.9216 -0.9352 -13.1274 0.0000 25.4442 0.0000
# 6 0.0000 0.0000 0.0000 -3.7128 0.0000 32.1735
#
#
#
# Elastic Compliance Matrix: (Units=1/GPa)
#
#
# Indices 1 2 3 4 5 6 
#
# 1 0.006515 0.019393 -0.004778 0.000000 0.003604 0.000000
# 2 0.019393 -0.118621 0.031905 0.000000 0.028047 0.000000
# 3 -0.004778 0.031905 0.088911 0.000000 0.043116 0.000000
# 4 0.000000 0.000000 0.000000 0.098870 0.000000 0.011410
# 5 0.003604 0.028047 0.043116 0.000000 0.065541 0.000000
# 6 0.000000 0.000000 0.000000 0.011410 0.000000 0.032398
#
#
# Mechanical properties :
#
#
# Convention : Reuss Voigt Hill
#
# Bulk Modulus (GPa) = 14.31745 21.62435 17.97090
# Shear Modulus (GPa) = 48.14293 20.40189 34.27241
#
# Velocity S-wave (km/s) = 5.12980 3.33941 4.32820
# Velocity P-wave (km/s) = 6.55076 5.16611 5.89920
#
# Compressibility (1/GPa) = 0.06984482
#
# Stress axis : x y z
#
# Youngs Moduli (GPa) = 153.49716 -8.43025 11.24715
#
# Poissons Ratio (x) = 0.16349 0.05374
# Poissons Ratio (y) = -2.97676 -0.35884
# Poissons Ratio (z) = 0.73345 0.26897
#
# Static dielectric constant tensor:
#      x y z
#    x 1.646290 0.000000 0.007620 
#    y 0.000000 1.615190 0.000000 
#    z 0.007620 0.000000 1.629760 
# 
# From -- ./inp_files/86724.got.cif
#   From: 2010.05.17/outbox.ucp.g08.bks.cvg/sg10_44_cif.got.tgz:86724.got - 2010.06.11 11:31:16.
