data_PCOD9155284
_publ_section_title
;
Structure prediction by ZEFSAII (Michael W. Deem and Ramdas Pophale) SiO2 
 PCOD9155284
Probable space group: P 2/M
;
_chemical_formula_sum "Si O2"
_cell_formula_units_Z 24
_cell_length_a 24.000000
_cell_length_b 9.000000
_cell_length_c 18.000000
_cell_angle_alpha 90.000000
_cell_angle_beta 160.000000
_cell_angle_gamma 90.000000
_cell_volume 1329.774317
_symmetry_space_group_name_H-M "P 2/M"
_symmetry_group_IT_number 10
_symmetry_cell_setting 'monoclinic'
loop_
_space_group_symop_operation_xyz
x,y,z
-x,y,-z
-x,-y,-z
x,-y,z
loop_
_atom_site_type_symbol
_atom_site_label
_atom_site_fract_x
_atom_site_fract_y
_atom_site_fract_z
Si Si1 0.333544 0.820712 0.007072
Si Si2 0.831027 0.331773 0.835613
Si Si3 0.030596 0.674236 0.709926
Si Si4 0.332742 0.826274 0.498219
Si Si5 0.000647 0.828936 0.826754
Si Si6 0.837484 0.829834 0.348382
O O1 0.508626 0.780407 0.257776
O O2 0.316669 0.000000 0.987437
O O3 0.191786 0.752427 0.879504
O O4 0.302476 0.776612 0.882687
O O5 0.799948 0.500000 0.821023
O O6 0.696155 0.271109 0.610736
O O7 0.863568 0.223386 0.944715
O O8 0.000000 0.331932 0.000000
O O9 0.048987 0.500000 0.726097
O O10 0.005219 0.725140 0.761675
O O11 0.880354 0.730371 0.471726
O O12 0.172553 0.815244 0.348694
O O13 0.348680 0.000000 0.497231
O O14 0.023921 0.000000 0.834015
O O15 0.000000 0.830198 0.500000
O O16 0.808360 0.000000 0.335288
#
# Coordination Sequence:
#
# PCOD9155284 Si02
#       6
#     4   4   4   4   4   4
#     4   9  18  34  54  75  99 127 163 205 245 289
#     4   9  17  30  49  73 101 131 161 196 241 293
#     4  11  21  32  49  74 102 131 164 202 245 292
#     4   9  18  33  54  77  98 126 165 204 243 289
#     4  10  19  33  53  74  98 130 167 204 241 286
#     4   8  15  30  51  71  94 128 166 201 239 287
#
# _framework density 18.048175000000001
#
# number of rings (size 3 to 8) (size 9 to 14) (size 15 to 20)
#    0.000    2.667    0.000    3.500    0.000    6.333 
#    0.000    1.667    0.000   10.000    0.000    0.000 
#    0.000    0.000    0.000    0.000    0.000    0.000 
#
# Total GULP energy -133763.887274 kJ/mol
# GULP energy per Si atom -5573.495303 kJ/mol
# Density = 1.800710 g / cm^3
# Si number density = 18.048175 Si / 1000 Ang^3
#
#
#
# Elastic Constant Matrix: (Units=GPa)
#
#
# Indices 1 2 3 4 5 6 
#
# 1 24.6555 9.1648 18.4252 0.0000 -20.6891 0.0000
# 2 9.1648 16.6287 37.4229 0.0000 -8.4156 0.0000
# 3 18.4252 37.4229 123.7668 0.0000 -34.8446 0.0000
# 4 0.0000 0.0000 0.0000 52.5135 0.0000 -37.8813
# 5 -20.6891 -8.4156 -34.8446 0.0000 19.0568 0.0000
# 6 0.0000 0.0000 0.0000 -37.8813 0.0000 44.5219
#
#
#
# Elastic Compliance Matrix: (Units=1/GPa)
#
#
# Indices 1 2 3 4 5 6 
#
# 1 -0.068210 0.101009 -0.059101 0.000000 -0.137511 0.000000
# 2 0.101009 0.057587 0.011507 0.000000 0.156131 0.000000
# 3 -0.059101 0.011507 -0.006667 0.000000 -0.071272 0.000000
# 4 0.000000 0.000000 0.000000 0.049304 0.000000 0.041950
# 5 -0.137511 0.156131 -0.071272 0.000000 -0.158184 0.000000
# 6 0.000000 0.000000 0.000000 0.041950 0.000000 0.058154
#
#
# Mechanical properties :
#
#
# Convention : Reuss Voigt Hill
#
# Bulk Modulus (GPa) = 11.16838 32.78630 21.97734
# Shear Modulus (GPa) = -34.48322 29.88763 -2.29779
#
# Velocity S-wave (km/s) = -4.37581 4.07380 -1.12956
# Velocity P-wave (km/s) = 4.39644 6.35085 3.24072
#
# Compressibility (1/GPa) = 0.08953852
#
# Stress axis : x y z
#
# Youngs Moduli (GPa) = -14.66055 17.36513 -150.00283
#
# Poissons Ratio (x) = -1.75403 -8.86535
# Poissons Ratio (y) = 1.48084 1.72605
# Poissons Ratio (z) = -0.86646 -0.19982
#
# Static dielectric constant tensor:
#      x y z
#    x 1.600320 0.000000 -0.020220 
#    y 0.000000 1.601470 0.000000 
#    z -0.020220 0.000000 1.633010 
# 
# From -- ./inp_files/45172.got.cif
#   From: 2010.05.17/outbox.ucp.g08.bks.cvg/sg10_23_cif.got.tgz:45172.got - 2010.06.11 11:31:16.
