data_PCOD9155901
_publ_section_title
;
Structure prediction by ZEFSAII (Michael W. Deem and Ramdas Pophale) SiO2 
 PCOD9155901
Probable space group: P 21/M
;
_chemical_formula_sum "Si O2"
_cell_formula_units_Z 32
_cell_length_a 17.083456
_cell_length_b 8.812897
_cell_length_c 14.516741
_cell_angle_alpha 90.000000
_cell_angle_beta 98.352336
_cell_angle_gamma 90.000000
_cell_volume 2162.382989
_symmetry_space_group_name_H-M "P 21/M"
_symmetry_group_IT_number 11
_symmetry_cell_setting 'monoclinic'
loop_
_space_group_symop_operation_xyz
x,y,z
-x,1/2+y,-z
-x,-y,-z
x,1/2-y,z
loop_
_atom_site_type_symbol
_atom_site_label
_atom_site_fract_x
_atom_site_fract_y
_atom_site_fract_z
Si Si1 0.391186 0.575036 0.054744
Si Si2 0.762260 0.932305 0.043932
Si Si3 0.024892 0.067273 0.716732
Si Si4 0.831661 0.068810 0.379760
Si Si5 0.057395 0.067450 0.933647
Si Si6 0.300464 0.430415 0.761560
Si Si7 0.927818 0.932113 0.548662
Si Si8 0.544675 0.075147 0.145574
O O1 0.386873 0.750000 0.081198
O O2 0.455978 0.488946 0.127027
O O3 0.304676 0.502362 0.032716
O O4 0.424421 0.568840 0.955233
O O5 0.758477 0.750000 0.036139
O O6 0.851444 0.983348 0.039442
O O7 0.739724 0.969195 0.146237
O O8 0.025702 0.250000 0.705527
O O9 0.030029 0.029725 0.825219
O O10 0.102342 0.999820 0.678962
O O11 0.948819 0.996092 0.652826
O O12 0.839788 0.250000 0.384573
O O13 0.747768 0.018120 0.324737
O O14 0.851651 0.996618 0.482674
O O15 0.057008 0.250000 0.940405
O O16 0.000000 0.000000 0.000000
O O17 0.293018 0.250000 0.747308
O O18 0.391713 0.479065 0.786362
O O19 0.929356 0.750000 0.547255
O O20 0.000000 0.000000 0.500000
O O21 0.546081 0.250000 0.174683
#
# Coordination Sequence:
#
# PCOD9155901 Si02
#       8
#     4   4   4   4   4   4   4   4
#     4   9  16  25  38  56  75 101 136 171 205 244
#     4   9  17  30  43  56  76 106 138 174 217 253
#     4  10  18  32  46  59  80 107 138 176 217 255
#     4  11  19  27  41  62  84 110 141 173 208 252
#     4  10  21  34  47  63  83 109 142 182 225 260
#     4  10  17  27  41  57  82 111 140 174 209 246
#     4  10  18  28  42  61  81 105 136 171 209 251
#     4   9  16  25  36  55  79 105 136 168 203 244
#
# _framework density 14.798489
#
# number of rings (size 3 to 8) (size 9 to 14) (size 15 to 20)
#    0.000    2.250    1.250    5.250    0.000    5.000 
#    0.000    0.000    0.000    0.000    0.000    0.000 
#    0.000    0.000    0.000    1.125    0.000   15.250 
#
# Total GULP energy -178328.706063 kJ/mol
# GULP energy per Si atom -5572.772064 kJ/mol
# Density = 1.476481 g / cm^3
# Si number density = 14.798489 Si / 1000 Ang^3
#
#
#
# Elastic Constant Matrix: (Units=GPa)
#
#
# Indices 1 2 3 4 5 6 
#
# 1 94.9589 38.8362 51.4607 0.0000 25.7068 0.0000
# 2 38.8362 80.3801 33.2096 0.0000 14.9103 0.0000
# 3 51.4607 33.2096 59.7854 0.0000 18.2126 0.0000
# 4 0.0000 0.0000 0.0000 19.6702 0.0000 7.5793
# 5 25.7068 14.9103 18.2126 0.0000 21.6478 0.0000
# 6 0.0000 0.0000 0.0000 7.5793 0.0000 25.2588
#
#
#
# Elastic Compliance Matrix: (Units=1/GPa)
#
#
# Indices 1 2 3 4 5 6 
#
# 1 0.022966 -0.002757 -0.014128 0.000000 -0.013487 0.000000
# 2 -0.002757 0.016858 -0.005985 0.000000 -0.003302 0.000000
# 3 -0.014128 -0.005985 0.034752 0.000000 -0.008338 0.000000
# 4 0.000000 0.000000 0.000000 0.057485 0.000000 -0.017249
# 5 -0.013487 -0.003302 -0.008338 0.000000 0.071499 0.000000
# 6 0.000000 0.000000 0.000000 -0.017249 0.000000 0.044766
#
#
# Mechanical properties :
#
#
# Convention : Reuss Voigt Hill
#
# Bulk Modulus (GPa) = 34.67982 53.57083 44.12532
# Shear Modulus (GPa) = 16.46476 20.75655 18.61066
#
# Velocity S-wave (km/s) = 3.33918 3.74921 3.55012
# Velocity P-wave (km/s) = 6.19293 7.41761 6.83276
#
# Compressibility (1/GPa) = 0.02883521
#
# Stress axis : x y z
#
# Youngs Moduli (GPa) = 43.54272 59.31743 28.77541
#
# Poissons Ratio (x) = 0.16356 0.40653
# Poissons Ratio (y) = 0.12006 0.17223
# Poissons Ratio (z) = 0.61516 0.35504
#
# Static dielectric constant tensor:
#      x y z
#    x 1.491890 0.000000 0.037230 
#    y 0.000000 1.495760 0.000000 
#    z 0.037230 0.000000 1.488070 
# 
# From -- ./inp_files/51342.got.cif
#   From: 2010.05.17/outbox.cif.g08.bks.cpg/sg11_26_cif.got.tgz:51342.got - 2010.06.03 12:22:45.
