data_PCOD9155751
_publ_section_title
;
Structure prediction by ZEFSAII (Michael W. Deem and Ramdas Pophale) SiO2 
 PCOD9155751
Probable space group: P 21/M
;
_chemical_formula_sum "Si O2"
_cell_formula_units_Z 28
_cell_length_a 21.125149
_cell_length_b 7.772314
_cell_length_c 7.864118
_cell_angle_alpha 90.000000
_cell_angle_beta 53.380564
_cell_angle_gamma 90.000000
_cell_volume 1036.352519
_symmetry_space_group_name_H-M "P 21/M"
_symmetry_group_IT_number 11
_symmetry_cell_setting 'monoclinic'
loop_
_space_group_symop_operation_xyz
x,y,z
-x,1/2+y,-z
-x,-y,-z
x,1/2-y,z
loop_
_atom_site_type_symbol
_atom_site_label
_atom_site_fract_x
_atom_site_fract_y
_atom_site_fract_z
Si Si1 0.085749 0.448596 0.748109
Si Si2 0.618218 0.961728 0.359401
Si Si3 0.187515 0.952446 0.259455
Si Si4 0.231156 0.047601 0.715307
Si Si5 0.482223 0.950951 0.810256
Si Si6 0.666072 0.459678 0.775723
Si Si7 0.946080 0.950551 0.748047
O O1 0.077709 0.250000 0.804308
O O2 0.135390 0.461126 0.491733
O O3 0.147768 0.528973 0.784207
O O4 0.999009 0.508562 0.828151
O O5 0.616954 0.750000 0.356928
O O6 0.707608 0.023662 0.244222
O O7 0.563966 0.022886 0.606230
O O8 0.574485 0.032578 0.265189
O O9 0.183260 0.750000 0.300518
O O10 0.276630 0.007532 0.156613
O O11 0.140698 0.979924 0.158474
O O12 0.218398 0.250000 0.773692
O O13 0.287361 0.035901 0.457922
O O14 0.493466 0.750000 0.826110
O O15 0.423254 0.023010 0.049058
O O16 0.664310 0.250000 0.765429
O O17 0.936949 0.750000 0.759880
O O18 0.000000 0.000000 0.500000
#
# Coordination Sequence:
#
# PCOD9155751 Si02
#       7
#     4   4   4   4   4   4   4
#     4   9  15  24  37  55  82 114 145 177 216 259
#     4   9  18  33  50  68  91 119 152 188 224 266
#     4   9  15  24  37  55  82 114 145 177 216 259
#     4   9  18  30  45  67  94 121 150 186 226 268
#     4   9  18  33  50  68  91 119 152 188 224 266
#     4   9  18  30  45  67  94 121 150 186 226 268
#     4  10  16  22  34  54  81 112 145 178 214 256
#
# _framework density 27.017835000000002
#
# number of rings (size 3 to 8) (size 9 to 14) (size 15 to 20)
#    0.000    2.857    0.000    3.857    0.000    2.857 
#    0.000    0.000    0.000    0.000    0.000    1.000 
#    0.000    0.000    0.000    0.000    0.000    0.000 
#
# Total GULP energy -156502.679745 kJ/mol
# GULP energy per Si atom -5589.381419 kJ/mol
# Density = 2.695634 g / cm^3
# Si number density = 27.017835 Si / 1000 Ang^3
#
#
#
# Elastic Constant Matrix: (Units=GPa)
#
#
# Indices 1 2 3 4 5 6 
#
# 1 175.2113 12.8809 31.9897 0.0000 -30.7658 0.0000
# 2 12.8809 78.1716 3.5548 0.0000 -12.3516 0.0000
# 3 31.9897 3.5548 112.6461 0.0000 -40.2918 0.0000
# 4 0.0000 0.0000 0.0000 11.8574 0.0000 1.9966
# 5 -30.7658 -12.3516 -40.2918 0.0000 78.6523 0.0000
# 6 0.0000 0.0000 0.0000 1.9966 0.0000 36.4919
#
#
#
# Elastic Compliance Matrix: (Units=1/GPa)
#
#
# Indices 1 2 3 4 5 6 
#
# 1 0.006275 -0.000704 -0.001128 0.000000 0.001766 0.000000
# 2 -0.000704 0.013211 0.000522 0.000000 0.002067 0.000000
# 3 -0.001128 0.000522 0.011084 0.000000 0.005319 0.000000
# 4 0.000000 0.000000 0.000000 0.085120 0.000000 -0.004657
# 5 0.001766 0.002067 0.005319 0.000000 0.016454 0.000000
# 6 0.000000 0.000000 0.000000 -0.004657 0.000000 0.027658
#
#
# Mechanical properties :
#
#
# Convention : Reuss Voigt Hill
#
# Bulk Modulus (GPa) = 35.77687 51.43109 43.60398
# Shear Modulus (GPa) = 29.11407 46.57389 37.84398
#
# Velocity S-wave (km/s) = 3.28622 4.15640 3.74666
# Velocity P-wave (km/s) = 5.26020 6.48934 5.90683
#
# Compressibility (1/GPa) = 0.02795102
#
# Stress axis : x y z
#
# Youngs Moduli (GPa) = 159.35673 75.69362 90.22307
#
# Poissons Ratio (x) = 0.05326 0.10178
# Poissons Ratio (y) = 0.11213 -0.04712
# Poissons Ratio (z) = 0.17977 -0.03953
#
# Static dielectric constant tensor:
#      x y z
#    x 2.246870 0.000000 0.052960 
#    y 0.000000 2.342770 0.000000 
#    z 0.052960 0.000000 2.205080 
# 
# From -- ./inp_files/42386.got.cif
#   From: 2010.05.17/outbox.cif.g08.bks.cpg/sg11_22_cif.got.tgz:42386.got - 2010.06.03 12:22:45.
