data_PCOD9155242
_publ_section_title
;
Structure prediction by ZEFSAII (Michael W. Deem and Ramdas Pophale) SiO2 
 PCOD9155242
Probable space group: P 2/M
;
_chemical_formula_sum "Si O2"
_cell_formula_units_Z 32
_cell_length_a 12.000000
_cell_length_b 9.000000
_cell_length_c 21.000000
_cell_angle_alpha 90.000000
_cell_angle_beta 50.000000
_cell_angle_gamma 90.000000
_cell_volume 1737.388797
_symmetry_space_group_name_H-M "P 2/M"
_symmetry_group_IT_number 10
_symmetry_cell_setting 'monoclinic'
loop_
_space_group_symop_operation_xyz
x,y,z
-x,y,-z
-x,-y,-z
x,-y,z
loop_
_atom_site_type_symbol
_atom_site_label
_atom_site_fract_x
_atom_site_fract_y
_atom_site_fract_z
Si Si1 0.817770 0.825112 0.332957
Si Si2 0.784973 0.323984 0.710870
Si Si3 0.873237 0.319936 0.816515
Si Si4 0.196117 0.680278 0.877068
Si Si5 0.318460 0.823641 0.374004
Si Si6 0.135656 0.680141 0.037537
Si Si7 0.395206 0.678405 0.686038
Si Si8 0.082648 0.826320 0.564515
O O1 0.689338 0.743690 0.343233
O O2 0.814989 0.811592 0.410676
O O3 0.969413 0.752867 0.253620
O O4 0.817244 0.000000 0.317918
O O5 0.760839 0.500000 0.714239
O O6 0.777908 0.282745 0.788646
O O7 0.686949 0.238722 0.695736
O O8 0.947465 0.279615 0.628612
O O9 0.889638 0.500000 0.810496
O O10 0.821012 0.273902 0.906622
O O11 0.200147 0.500000 0.877065
O O12 0.309647 0.727630 0.781849
O O13 0.033789 0.719713 0.912581
O O14 0.216091 0.731310 0.943105
O O15 0.444461 0.741810 0.366096
O O16 0.169389 0.795914 0.468021
O O17 0.341167 0.000000 0.365283
O O18 0.144053 0.500000 0.034383
O O19 0.394303 0.500000 0.683839
O O20 0.032380 0.000000 0.581466
#
# Coordination Sequence:
#
# PCOD9155242 Si02
#       8
#     4   4   4   4   4   4   4   4
#     4  10  19  32  50  73 101 132 164 198 244 298
#     4  10  20  33  53  80 103 124 159 211 257 290
#     4   9  16  29  51  77 104 129 159 202 248 289
#     4   8  14  24  45  74 102 129 159 196 237 287
#     4  11  23  38  53  69  94 134 175 206 244 296
#     4   8  12  23  46  76 102 127 159 194 238 287
#     4  11  21  34  51  73 103 133 165 205 247 292
#     4   9  20  37  55  73  96 129 168 207 245 293
#
# _framework density 18.418444999999998
#
# number of rings (size 3 to 8) (size 9 to 14) (size 15 to 20)
#    0.000    2.500    1.250    2.625    0.000    4.000 
#    0.000    2.500    0.000    3.000    0.000    5.250 
#    0.000    0.000    0.000    0.000    0.000    0.000 
#
# Total GULP energy -178360.656074 kJ/mol
# GULP energy per Si atom -5573.770502 kJ/mol
# Density = 1.837652 g / cm^3
# Si number density = 18.418445 Si / 1000 Ang^3
#
#
#
# Elastic Constant Matrix: (Units=GPa)
#
#
# Indices 1 2 3 4 5 6 
#
# 1 69.6069 22.3986 -1.1213 0.0000 23.9943 0.0000
# 2 22.3986 34.6956 6.2411 0.0000 8.0209 0.0000
# 3 -1.1213 6.2411 35.8194 0.0000 24.3601 0.0000
# 4 0.0000 0.0000 0.0000 7.8270 0.0000 14.3118
# 5 23.9943 8.0209 24.3601 0.0000 34.5825 0.0000
# 6 0.0000 0.0000 0.0000 14.3118 0.0000 8.6667
#
#
#
# Elastic Compliance Matrix: (Units=1/GPa)
#
#
# Indices 1 2 3 4 5 6 
#
# 1 0.037993 -0.020150 0.037335 0.000000 -0.047986 0.000000
# 2 -0.020150 0.041159 -0.020766 0.000000 0.019062 0.000000
# 3 0.037335 -0.020766 0.090309 0.000000 -0.084701 0.000000
# 4 0.000000 0.000000 0.000000 -0.063264 0.000000 0.104471
# 5 -0.047986 0.019062 -0.084701 0.000000 0.117453 0.000000
# 6 0.000000 0.000000 0.000000 0.104471 0.000000 -0.057134
#
#
# Mechanical properties :
#
#
# Convention : Reuss Voigt Hill
#
# Bulk Modulus (GPa) = 6.16149 21.68429 13.92289
# Shear Modulus (GPa) = 21.95112 17.72215 19.83664
#
# Velocity S-wave (km/s) = 3.45599 3.10529 3.28533
# Velocity P-wave (km/s) = 4.39064 4.96546 4.68687
#
# Compressibility (1/GPa) = 0.16229835
#
# Stress axis : x y z
#
# Youngs Moduli (GPa) = 26.32054 24.29602 11.07312
#
# Poissons Ratio (x) = 0.48956 -0.41341
# Poissons Ratio (y) = 0.53036 0.22995
# Poissons Ratio (z) = -0.98267 0.50453
#
# Static dielectric constant tensor:
#      x y z
#    x 1.664160 0.000000 0.023230 
#    y 0.000000 1.607520 0.000000 
#    z 0.023230 0.000000 1.644660 
# 
# From -- ./inp_files/54917.got.cif
#   From: 2010.05.17/outbox.ucp.g08.bks.cvg/sg10_28_cif.got.tgz:54917.got - 2010.06.11 11:31:16.
