data_PCOD9155428
_publ_section_title
;
Structure prediction by ZEFSAII (Michael W. Deem and Ramdas Pophale) SiO2 
 PCOD9155428
Probable space group: P 2/M
;
_chemical_formula_sum "Si O2"
_cell_formula_units_Z 28
_cell_length_a 18.000000
_cell_length_b 9.000000
_cell_length_c 21.000000
_cell_angle_alpha 90.000000
_cell_angle_beta 150.000000
_cell_angle_gamma 90.000000
_cell_volume 1701.000000
_symmetry_space_group_name_H-M "P 2/M"
_symmetry_group_IT_number 10
_symmetry_cell_setting 'monoclinic'
loop_
_space_group_symop_operation_xyz
x,y,z
-x,y,-z
-x,-y,-z
x,-y,z
loop_
_atom_site_type_symbol
_atom_site_label
_atom_site_fract_x
_atom_site_fract_y
_atom_site_fract_z
Si Si1 0.510842 0.678940 0.134482
Si Si2 0.341507 0.678615 0.139619
Si Si3 0.557211 0.681070 0.639737
Si Si4 0.279802 0.180863 0.360524
Si Si5 0.065426 0.821846 0.863961
Si Si6 0.230677 0.179788 0.853853
Si Si7 0.149124 0.679800 0.655044
O O1 0.496234 0.500000 0.115621
O O2 0.454675 0.716762 0.164927
O O3 0.686841 0.714638 0.254546
O O4 0.392816 0.755466 0.997431
O O5 0.326768 0.500000 0.128534
O O6 0.397336 0.718778 0.252916
O O7 0.183549 0.748293 0.000532
O O8 0.553558 0.500000 0.631501
O O9 0.671333 0.749597 0.671758
O O10 0.398020 0.749605 0.498960
O O11 0.107711 0.216366 0.250647
O O12 0.295814 0.000000 0.370818
O O13 0.121731 0.785584 0.833559
O O14 0.077931 0.000000 0.879773
O O15 0.166858 0.247690 0.739656
O O16 0.241424 0.000000 0.855626
O O17 0.140955 0.500000 0.656032
O O18 0.000000 0.720358 0.500000
#
# Coordination Sequence:
#
# PCOD9155428 Si02
#       7
#     4   4   4   4   4   4   4
#     4   9  18  35  55  74 100 134 170 205 246 301
#     4   9  19  34  53  76 101 131 167 208 253 299
#     4  10  20  34  52  77 105 132 167 210 253 296
#     4  10  20  35  53  73 100 137 174 204 246 303
#     4   9  20  36  53  75 102 132 169 210 249 297
#     4  10  20  35  54  76 102 132 168 209 253 298
#     4  10  21  35  52  76 104 134 169 207 248 298
#
# _framework density 16.460905
#
# number of rings (size 3 to 8) (size 9 to 14) (size 15 to 20)
#    0.000    2.429    0.000    2.571    0.000    7.143 
#    0.000    4.286    0.000    0.000    0.000    0.000 
#    0.000    0.000    0.000    0.000    0.000    0.000 
#
# Total GULP energy -155968.161360 kJ/mol
# GULP energy per Si atom -5570.291477 kJ/mol
# Density = 1.642344 g / cm^3
# Si number density = 16.460905 Si / 1000 Ang^3
#
#
#
# Elastic Constant Matrix: (Units=GPa)
#
#
# Indices 1 2 3 4 5 6 
#
# 1 135.5898 40.9323 103.7823 0.0000 -4.4209 0.0000
# 2 40.9323 62.6892 49.6440 0.0000 -3.9035 0.0000
# 3 103.7823 49.6440 184.4140 0.0000 -5.3521 0.0000
# 4 0.0000 0.0000 0.0000 34.3371 0.0000 -1.8958
# 5 -4.4209 -3.9035 -5.3521 0.0000 45.6294 0.0000
# 6 0.0000 0.0000 0.0000 -1.8958 0.0000 28.5308
#
#
#
# Elastic Compliance Matrix: (Units=1/GPa)
#
#
# Indices 1 2 3 4 5 6 
#
# 1 0.013560 -0.003561 -0.006666 0.000000 0.000227 0.000000
# 2 -0.003561 0.021264 -0.003690 0.000000 0.001041 0.000000
# 3 -0.006666 -0.003690 0.010174 0.000000 0.000232 0.000000
# 4 0.000000 0.000000 0.000000 0.029230 0.000000 0.001942
# 5 0.000227 0.001041 0.000232 0.000000 0.022054 0.000000
# 6 0.000000 0.000000 0.000000 0.001942 0.000000 0.035179
#
#
# Mechanical properties :
#
#
# Convention : Reuss Voigt Hill
#
# Bulk Modulus (GPa) = 58.26126 85.71225 71.98675
# Shear Modulus (GPa) = 30.30028 34.25508 32.27768
#
# Velocity S-wave (km/s) = 4.29504 4.56674 4.43297
# Velocity P-wave (km/s) = 7.75029 8.94372 8.36831
#
# Compressibility (1/GPa) = 0.01716406
#
# Stress axis : x y z
#
# Youngs Moduli (GPa) = 73.74854 47.02847 98.29045
#
# Poissons Ratio (x) = 0.16746 0.65518
# Poissons Ratio (y) = 0.26260 0.36270
# Poissons Ratio (z) = 0.49159 0.17354
#
# Static dielectric constant tensor:
#      x y z
#    x 1.578960 0.000000 0.008230 
#    y 0.000000 1.559460 0.000000 
#    z 0.008230 0.000000 1.546460 
# 
# From -- ./inp_files/85644.got.cif
#   From: 2010.05.17/outbox.ucp.g08.bks.cvg/sg10_43_cif.got.tgz:85644.got - 2010.06.11 11:31:16.
