data_PCOD9155439
_publ_section_title
;
Structure prediction by ZEFSAII (Michael W. Deem and Ramdas Pophale) SiO2 
 PCOD9155439
Probable space group: P 2/M
;
_chemical_formula_sum "Si O2"
_cell_formula_units_Z 32
_cell_length_a 15.000000
_cell_length_b 9.000000
_cell_length_c 21.000000
_cell_angle_alpha 90.000000
_cell_angle_beta 140.000000
_cell_angle_gamma 90.000000
_cell_volume 1822.302873
_symmetry_space_group_name_H-M "P 2/M"
_symmetry_group_IT_number 10
_symmetry_cell_setting 'monoclinic'
loop_
_space_group_symop_operation_xyz
x,y,z
-x,y,-z
-x,-y,-z
x,-y,z
loop_
_atom_site_type_symbol
_atom_site_label
_atom_site_fract_x
_atom_site_fract_y
_atom_site_fract_z
Si Si1 0.332053 0.828871 0.906003
Si Si2 0.358303 0.322056 0.786913
Si Si3 0.330912 0.179374 0.540974
Si Si4 0.161059 0.820584 0.068724
Si Si5 0.666994 0.830070 0.599979
Si Si6 0.636883 0.678175 0.714814
Si Si7 0.159945 0.178972 0.573000
Si Si8 0.688070 0.679200 0.970320
O O1 0.304710 0.745165 0.824670
O O2 0.283006 0.000000 0.878019
O O3 0.500000 0.831795 0.000000
O O4 0.283123 0.745431 0.943314
O O5 0.347433 0.500000 0.782625
O O6 0.523245 0.286934 0.867787
O O7 0.265255 0.254535 0.680071
O O8 0.281625 0.217876 0.442010
O O9 0.479047 0.258757 0.634682
O O10 0.218733 0.213420 0.534339
O O11 0.355050 0.000000 0.554078
O O12 0.263916 0.752049 0.178216
O O13 0.214689 0.751774 0.030820
O O14 0.175054 0.000000 0.074200
O O15 0.000000 0.787335 0.000000
O O16 0.500000 0.833765 0.500000
O O17 0.691225 0.727754 0.674427
O O18 0.712790 0.000000 0.638208
O O19 0.635627 0.500000 0.720266
O O20 0.000000 0.222474 0.500000
O O21 0.167771 0.000000 0.584847
O O22 0.703112 0.500000 0.978360
#
# Coordination Sequence:
#
# PCOD9155439 Si02
#       8
#     4   4   4   4   4   4   4   4
#     4   9  17  31  54  82 109 139 176 217 260 310
#     4  10  20  34  54  81 110 141 176 217 268 319
#     4   9  18  34  56  79 105 138 175 216 261 312
#     4  11  24  40  56  75 103 142 184 221 260 313
#     4   8  15  30  52  77 104 135 171 212 259 310
#     4  11  21  33  54  82 108 135 170 216 267 316
#     4  10  21  36  53  75 104 140 181 222 263 310
#     4  10  20  35  57  84 111 137 171 219 270 318
#
# _framework density 17.560198
#
# number of rings (size 3 to 8) (size 9 to 14) (size 15 to 20)
#    0.000    2.250    0.000    4.125    0.000    9.000 
#    0.000    1.250    0.000    6.000    0.000    0.000 
#    0.000    0.000    0.000    0.000    0.000    0.000 
#
# Total GULP energy -178513.850891 kJ/mol
# GULP energy per Si atom -5578.557840 kJ/mol
# Density = 1.752023 g / cm^3
# Si number density = 17.560198 Si / 1000 Ang^3
#
#
#
# Elastic Constant Matrix: (Units=GPa)
#
#
# Indices 1 2 3 4 5 6 
#
# 1 179.5368 63.8984 60.8579 0.0000 -21.9047 0.0000
# 2 63.8984 89.4448 29.2198 0.0000 -5.6089 0.0000
# 3 60.8579 29.2198 42.6904 0.0000 -10.6947 0.0000
# 4 0.0000 0.0000 0.0000 25.4745 0.0000 -4.4352
# 5 -21.9047 -5.6089 -10.6947 0.0000 29.6993 0.0000
# 6 0.0000 0.0000 0.0000 -4.4352 0.0000 23.8799
#
#
#
# Elastic Compliance Matrix: (Units=1/GPa)
#
#
# Indices 1 2 3 4 5 6 
#
# 1 0.011943 -0.003904 -0.013554 0.000000 0.003190 0.000000
# 2 -0.003904 0.015699 -0.005670 0.000000 -0.001956 0.000000
# 3 -0.013554 -0.005670 0.048203 0.000000 0.006290 0.000000
# 4 0.000000 0.000000 0.000000 0.040567 0.000000 0.007534
# 5 0.003190 -0.001956 0.006290 0.000000 0.037920 0.000000
# 6 0.000000 0.000000 0.000000 0.007534 0.000000 0.043276
#
#
# Mechanical properties :
#
#
# Convention : Reuss Voigt Hill
#
# Bulk Modulus (GPa) = 33.79610 68.84712 51.32161
# Shear Modulus (GPa) = 19.70630 26.32381 23.01506
#
# Velocity S-wave (km/s) = 3.35358 3.87597 3.62420
# Velocity P-wave (km/s) = 5.85517 7.70210 6.84125
#
# Compressibility (1/GPa) = 0.02958921
#
# Stress axis : x y z
#
# Youngs Moduli (GPa) = 83.73001 63.70006 20.74545
#
# Poissons Ratio (x) = 0.24869 0.28119
# Poissons Ratio (y) = 0.32689 0.11762
# Poissons Ratio (z) = 1.13490 0.36115
#
# Static dielectric constant tensor:
#      x y z
#    x 1.607600 0.000000 -0.018850 
#    y 0.000000 1.590670 0.000000 
#    z -0.018850 0.000000 1.583510 
# 
# From -- ./inp_files/84763.got.cif
#   From: 2010.05.17/outbox.ucp.g08.bks.cvg/sg10_43_cif.got.tgz:84763.got - 2010.06.11 11:31:16.
