data_PCOD9155768
_publ_section_title
;
Structure prediction by ZEFSAII (Michael W. Deem and Ramdas Pophale) SiO2 
 PCOD9155768
Probable space group: P 21/M
;
_chemical_formula_sum "Si O2"
_cell_formula_units_Z 32
_cell_length_a 26.475154
_cell_length_b 14.994629
_cell_length_c 10.325716
_cell_angle_alpha 90.000000
_cell_angle_beta 153.678322
_cell_angle_gamma 90.000000
_cell_volume 1817.607972
_symmetry_space_group_name_H-M "P 21/M"
_symmetry_group_IT_number 11
_symmetry_cell_setting 'monoclinic'
loop_
_space_group_symop_operation_xyz
x,y,z
-x,1/2+y,-z
-x,-y,-z
x,1/2-y,z
loop_
_atom_site_type_symbol
_atom_site_label
_atom_site_fract_x
_atom_site_fract_y
_atom_site_fract_z
Si Si1 0.749109 0.643656 0.800671
Si Si2 0.258136 0.643979 0.244995
Si Si3 0.009410 0.651463 0.713187
Si Si4 0.994613 0.591025 0.403423
Si Si5 0.433945 0.006052 0.714294
Si Si6 0.757739 0.643215 0.130659
Si Si7 0.767683 0.144604 0.124503
Si Si8 0.591013 0.495226 0.825516
O O1 0.742816 0.750000 0.765603
O O2 0.653455 0.588505 0.505636
O O3 0.875255 0.606653 0.059611
O O4 0.738690 0.626895 0.932653
O O5 0.269350 0.750000 0.295954
O O6 0.358717 0.583235 0.526775
O O7 0.135381 0.612210 0.020105
O O8 0.255925 0.632700 0.083911
O O9 0.012331 0.750000 0.778499
O O10 0.000940 0.659915 0.537426
O O11 0.886133 0.612066 0.463666
O O12 0.000000 0.500000 0.500000
O O13 0.104181 0.606816 0.567109
O O14 0.523403 0.013351 0.802848
O O15 0.500000 0.000000 0.000000
O O16 0.750285 0.750000 0.133172
O O17 0.665129 0.585530 0.991656
O O18 0.762901 0.250000 0.142499
O O19 0.676619 0.086454 0.992869
O O20 0.500000 0.500000 0.500000
#
# Coordination Sequence:
#
# PCOD9155768 Si02
#       8
#     4   4   4   4   4   4   4   4
#     4  10  19  34  56  82 112 148 185 227 279 338
#     4   9  17  33  57  82 108 139 178 227 280 332
#     4   8  14  26  48  81 110 128 160 213 276 330
#     4  10  16  26  52  85 119 141 168 220 288 338
#     4  12  26  40  52  74 109 152 197 232 270 331
#     4   9  17  31  56  87 112 133 168 228 289 335
#     4  10  19  32  55  87 115 140 177 232 287 337
#     4  12  22  36  54  78 109 147 190 226 276 331
#
# _framework density 17.605556
#
# number of rings (size 3 to 8) (size 9 to 14) (size 15 to 20)
#    0.000    2.000    2.500    5.625    0.000    2.000 
#    0.000    0.000    0.000    3.000    0.000    3.500 
#    0.000    0.000    0.000    0.000    0.000    0.000 
#
# Total GULP energy -178295.167332 kJ/mol
# GULP energy per Si atom -5571.723979 kJ/mol
# Density = 1.756549 g / cm^3
# Si number density = 17.605556 Si / 1000 Ang^3
#
#
#
# Elastic Constant Matrix: (Units=GPa)
#
#
# Indices 1 2 3 4 5 6 
#
# 1 80.8649 38.9686 77.9176 0.0000 23.5207 0.0000
# 2 38.9686 118.5038 69.0341 0.0000 15.5241 0.0000
# 3 77.9176 69.0341 137.3288 0.0000 28.5976 0.0000
# 4 0.0000 0.0000 0.0000 20.9515 0.0000 5.7390
# 5 23.5207 15.5241 28.5976 0.0000 30.1403 0.0000
# 6 0.0000 0.0000 0.0000 5.7390 0.0000 11.9235
#
#
#
# Elastic Compliance Matrix: (Units=1/GPa)
#
#
# Indices 1 2 3 4 5 6 
#
# 1 0.029026 0.000189 -0.014739 0.000000 -0.008764 0.000000
# 2 0.000189 0.011942 -0.005981 0.000000 -0.000624 0.000000
# 3 -0.014739 -0.005981 0.019459 0.000000 -0.003881 0.000000
# 4 0.000000 0.000000 0.000000 0.054978 0.000000 -0.026462
# 5 -0.008764 -0.000624 -0.003881 0.000000 0.044021 0.000000
# 6 0.000000 0.000000 0.000000 -0.026462 0.000000 0.096604
#
#
# Mechanical properties :
#
#
# Convention : Reuss Voigt Hill
#
# Bulk Modulus (GPa) = 51.63546 78.72646 65.18096
# Shear Modulus (GPa) = 16.47200 22.65487 19.56344
#
# Velocity S-wave (km/s) = 3.06210 3.59109 3.33710
# Velocity P-wave (km/s) = 6.47261 7.87455 7.20775
#
# Compressibility (1/GPa) = 0.01936654
#
# Stress axis : x y z
#
# Youngs Moduli (GPa) = 34.45209 83.73768 51.39051
#
# Poissons Ratio (x) = -0.01586 0.75743
# Poissons Ratio (y) = -0.00652 0.30735
# Poissons Ratio (z) = 0.50778 0.50081
#
# Static dielectric constant tensor:
#      x y z
#    x 1.586690 0.000000 0.047660 
#    y 0.000000 1.662130 0.000000 
#    z 0.047660 0.000000 1.624870 
# 
# From -- ./inp_files/27795.got.cif
#   From: 2010.05.17/outbox.cif.g08.bks.cpg/sg11_14_cif.got.tgz:27795.got - 2010.06.03 12:22:45.
