data_PCOD9155822
_publ_section_title
;
Structure prediction by ZEFSAII (Michael W. Deem and Ramdas Pophale) SiO2 
 PCOD9155822
Probable space group: P 21/M
;
_chemical_formula_sum "Si O2"
_cell_formula_units_Z 30
_cell_length_a 15.779932
_cell_length_b 15.033722
_cell_length_c 10.525347
_cell_angle_alpha 90.000000
_cell_angle_beta 154.316616
_cell_angle_gamma 90.000000
_cell_volume 1082.168076
_symmetry_space_group_name_H-M "P 21/M"
_symmetry_group_IT_number 11
_symmetry_cell_setting 'monoclinic'
loop_
_space_group_symop_operation_xyz
x,y,z
-x,1/2+y,-z
-x,-y,-z
x,1/2-y,z
loop_
_atom_site_type_symbol
_atom_site_label
_atom_site_fract_x
_atom_site_fract_y
_atom_site_fract_z
Si Si1 0.911570 0.148946 0.286085
Si Si2 0.884931 0.250000 0.732422
Si Si3 0.408718 0.650032 0.791050
Si Si4 0.254675 0.352202 0.587357
Si Si5 0.233527 0.876353 0.199130
Si Si6 0.300134 0.154459 0.142608
Si Si7 0.263834 0.069294 0.338623
Si Si8 0.647987 0.997856 0.961891
O O1 0.887857 0.250000 0.301853
O O2 0.138614 0.128238 0.560432
O O3 0.832397 0.147774 0.031890
O O4 0.804870 0.070813 0.217885
O O5 0.869339 0.324859 0.825863
O O6 0.818133 0.170184 0.535913
O O7 0.478965 0.750000 0.834687
O O8 0.515588 0.641868 0.070209
O O9 0.498209 0.564550 0.840465
O O10 0.215813 0.250000 0.501433
O O11 0.199225 0.411763 0.394094
O O12 0.463783 0.853022 0.529286
O O13 0.200833 0.979608 0.185809
O O14 0.239087 0.250000 0.010773
O O15 0.228912 0.148018 0.191562
O O16 0.240027 0.072676 0.975507
O O17 0.497172 0.054446 0.671288
#
# Coordination Sequence:
#
# PCOD9155822 Si02
#       8
#     4   2   4   4   4   4   4   4
#     4  11  22  36  55  80 118 147 179 223 281 336
#     4  10  16  32  60  84 102 148 180 234 264 328
#     4   9  18  37  59  79 113 147 187 219 265 333
#     4  10  24  40  51  76 115 160 182 209 273 343
#     4  11  17  32  55  85 111 132 181 231 282 314
#     4  11  17  29  53  86 114 134 172 237 286 317
#     4  11  20  32  54  84 111 135 185 234 275 316
#     4  11  19  34  58  88 104 138 189 238 271 308
#
# _framework density 27.722124000000001
#
# number of rings (size 3 to 8) (size 9 to 14) (size 15 to 20)
#    0.400    1.067    6.667    1.600    0.000    2.133 
#    0.000    0.000    0.000    0.000    1.733    0.000 
#    0.000    0.000    0.000    0.000    0.000    0.000 
#
# Total GULP energy -167253.560670 kJ/mol
# GULP energy per Si atom -5575.118689 kJ/mol
# Density = 2.765903 g / cm^3
# Si number density = 27.722124 Si / 1000 Ang^3
#
#
#
# Elastic Constant Matrix: (Units=GPa)
#
#
# Indices 1 2 3 4 5 6 
#
# 1 82.2137 41.6294 6.6423 0.0000 18.8805 0.0000
# 2 41.6294 122.8593 -13.5767 0.0000 9.1545 0.0000
# 3 6.6423 -13.5767 93.5689 0.0000 -3.7588 0.0000
# 4 0.0000 0.0000 0.0000 -12.4851 0.0000 -29.4645
# 5 18.8805 9.1545 -3.7588 0.0000 38.3860 0.0000
# 6 0.0000 0.0000 0.0000 -29.4645 0.0000 9.2048
#
#
#
# Elastic Compliance Matrix: (Units=1/GPa)
#
#
# Indices 1 2 3 4 5 6 
#
# 1 0.016713 -0.005379 -0.002254 0.000000 -0.007158 0.000000
# 2 -0.005379 0.010138 0.001869 0.000000 0.000411 0.000000
# 3 -0.002254 0.001869 0.011189 0.000000 0.001759 0.000000
# 4 0.000000 0.000000 0.000000 -0.009363 0.000000 -0.029972
# 5 -0.007158 0.000411 0.001759 0.000000 0.029646 0.000000
# 6 0.000000 0.000000 0.000000 -0.029972 0.000000 0.012700
#
#
# Mechanical properties :
#
#
# Convention : Reuss Voigt Hill
#
# Bulk Modulus (GPa) = 37.71819 40.89245 39.30532
# Shear Modulus (GPa) = 54.71144 24.61760 39.66452
#
# Velocity S-wave (km/s) = 4.44730 2.98319 3.78668
# Velocity P-wave (km/s) = 6.32508 5.16224 5.77302
#
# Compressibility (1/GPa) = 0.02651241
#
# Stress axis : x y z
#
# Youngs Moduli (GPa) = 59.83333 98.63997 89.37165
#
# Poissons Ratio (x) = 0.53056 0.20148
# Poissons Ratio (y) = 0.32183 -0.16706
# Poissons Ratio (z) = 0.13489 -0.18439
#
# Static dielectric constant tensor:
#      x y z
#    x 2.237360 0.000000 0.153780 
#    y 0.000000 2.139150 0.000000 
#    z 0.153780 0.000000 2.380330 
# 
# From -- ./inp_files/41566.got.cif
#   From: 2010.05.17/outbox.cif.g08.bks.cpg/sg11_21_cif.got.tgz:41566.got - 2010.06.03 12:22:45.
