data_PCOD9155290
_publ_section_title
;
Structure prediction by ZEFSAII (Michael W. Deem and Ramdas Pophale) SiO2 
 PCOD9155290
Probable space group: P 2/M
;
_chemical_formula_sum "Si O2"
_cell_formula_units_Z 32
_cell_length_a 30.000000
_cell_length_b 9.000000
_cell_length_c 12.000000
_cell_angle_alpha 90.000000
_cell_angle_beta 150.000000
_cell_angle_gamma 90.000000
_cell_volume 1620.000000
_symmetry_space_group_name_H-M "P 2/M"
_symmetry_group_IT_number 10
_symmetry_cell_setting 'monoclinic'
loop_
_space_group_symop_operation_xyz
x,y,z
-x,y,-z
-x,-y,-z
x,-y,z
loop_
_atom_site_type_symbol
_atom_site_label
_atom_site_fract_x
_atom_site_fract_y
_atom_site_fract_z
Si Si1 0.216510 0.830155 0.626396
Si Si2 0.413583 0.178243 0.550515
Si Si3 0.068352 0.325317 0.869271
Si Si4 0.160096 0.177630 0.263286
Si Si5 0.353870 0.322242 0.649299
Si Si6 0.102784 0.827450 0.603507
Si Si7 0.234079 0.675349 0.066672
Si Si8 0.403987 0.676362 0.011641
O O1 0.156239 0.796366 0.387604
O O2 0.153894 0.823740 0.596810
O O3 0.304736 0.730221 0.830593
O O4 0.249487 0.000000 0.682196
O O5 0.396105 0.234371 0.638590
O O6 0.329623 0.246507 0.298499
O O7 0.411882 0.000000 0.537673
O O8 0.514311 0.240532 0.749746
O O9 0.047921 0.500000 0.837668
O O10 0.992454 0.251437 0.626545
O O11 0.082332 0.244387 0.018045
O O12 0.166071 0.312435 0.023871
O O13 0.253463 0.260187 0.439689
O O14 0.166404 0.000000 0.256070
O O15 0.354161 0.500000 0.628089
O O16 0.401898 0.297601 0.872434
O O17 0.089436 0.000000 0.607732
O O18 0.172304 0.748007 0.837244
O O19 0.249233 0.500000 0.078103
O O20 0.413712 0.500000 0.049964
#
# Coordination Sequence:
#
# PCOD9155290 Si02
#       8
#     4   4   4   4   4   4   4   4
#     4   9  21  41  61  86 121 158 197 246 295 345
#     4  12  23  35  57  87 119 156 198 241 292 352
#     4  11  23  39  61  89 122 155 193 245 302 354
#     4  10  19  34  59  88 120 157 196 239 294 352
#     4  10  19  33  53  83 122 158 192 236 293 350
#     4  11  24  42  64  87 116 155 201 248 296 353
#     4  11  24  42  62  86 121 155 195 249 300 349
#     4  10  21  36  58  86 119 158 197 240 291 349
#
# _framework density 19.753086
#
# number of rings (size 3 to 8) (size 9 to 14) (size 15 to 20)
#    0.000    1.500    1.250    4.125    0.000    8.000 
#    0.000    3.125    0.000    3.750    0.000    0.000 
#    0.000    0.000    0.000    0.000    0.000    0.000 
#
# Total GULP energy -178682.903457 kJ/mol
# GULP energy per Si atom -5583.840733 kJ/mol
# Density = 1.970813 g / cm^3
# Si number density = 19.753086 Si / 1000 Ang^3
#
#
#
# Elastic Constant Matrix: (Units=GPa)
#
#
# Indices 1 2 3 4 5 6 
#
# 1 31.3963 13.6144 6.5055 0.0000 -10.1349 0.0000
# 2 13.6144 147.5034 83.1097 0.0000 -9.5642 0.0000
# 3 6.5055 83.1097 171.9683 0.0000 -12.5420 0.0000
# 4 0.0000 0.0000 0.0000 38.6695 0.0000 -6.7156
# 5 -10.1349 -9.5642 -12.5420 0.0000 21.3878 0.0000
# 6 0.0000 0.0000 0.0000 -6.7156 0.0000 15.6368
#
#
#
# Elastic Compliance Matrix: (Units=1/GPa)
#
#
# Indices 1 2 3 4 5 6 
#
# 1 0.038665 -0.003194 0.001372 0.000000 0.017698 0.000000
# 2 -0.003194 0.009633 -0.004524 0.000000 0.000141 0.000000
# 3 0.001372 -0.004524 0.008200 0.000000 0.003436 0.000000
# 4 0.000000 0.000000 0.000000 0.027944 0.000000 0.012001
# 5 0.017698 0.000141 0.003436 0.000000 0.057220 0.000000
# 6 0.000000 0.000000 0.000000 0.012001 0.000000 0.069106
#
#
# Mechanical properties :
#
#
# Convention : Reuss Voigt Hill
#
# Bulk Modulus (GPa) = 22.82875 61.92525 42.37700
# Shear Modulus (GPa) = 21.00292 31.64804 26.32548
#
# Velocity S-wave (km/s) = 3.26432 4.00707 3.65461
# Velocity P-wave (km/s) = 5.07838 7.26819 6.26963
#
# Compressibility (1/GPa) = 0.04380440
#
# Stress axis : x y z
#
# Youngs Moduli (GPa) = 25.86339 103.81461 121.94897
#
# Poissons Ratio (x) = 0.33159 -0.16728
# Poissons Ratio (y) = 0.08261 0.55172
# Poissons Ratio (z) = -0.03548 0.46967
#
# Static dielectric constant tensor:
#      x y z
#    x 1.742230 0.000000 -0.015140 
#    y 0.000000 1.680630 0.000000 
#    z -0.015140 0.000000 1.677900 
# 
# From -- ./inp_files/58347.got.cif
#   From: 2010.05.17/outbox.ucp.g08.bks.cvg/sg10_30_cif.got.tgz:58347.got - 2010.06.11 11:31:16.
