data_PCOD9155046
_publ_section_title
;
Structure prediction by ZEFSAII (Michael W. Deem and Ramdas Pophale) SiO2 
 PCOD9155046
Probable space group: P 2/M
;
_chemical_formula_sum "Si O2"
_cell_formula_units_Z 28
_cell_length_a 19.369125
_cell_length_b 7.408864
_cell_length_c 10.280568
_cell_angle_alpha 90.000000
_cell_angle_beta 66.729502
_cell_angle_gamma 90.000000
_cell_volume 1355.279223
_symmetry_space_group_name_H-M "P 2/M"
_symmetry_group_IT_number 10
_symmetry_cell_setting 'monoclinic'
loop_
_space_group_symop_operation_xyz
x,y,z
-x,y,-z
-x,-y,-z
x,-y,z
loop_
_atom_site_type_symbol
_atom_site_label
_atom_site_fract_x
_atom_site_fract_y
_atom_site_fract_z
Si Si1 0.999403 0.721072 0.151265
Si Si2 0.547825 0.779844 0.089656
Si Si3 0.296489 0.782499 0.128459
Si Si4 0.702027 0.217377 0.574484
Si Si5 0.874026 0.712050 0.445295
Si Si6 0.454553 0.779226 0.408955
Si Si7 0.124518 0.711854 0.259728
O O1 0.999491 0.500000 0.146051
O O2 0.070437 0.780987 0.186377
O O3 0.927711 0.780798 0.291036
O O4 0.000000 0.780589 0.000000
O O5 0.502491 0.721876 0.248939
O O6 0.548688 0.000000 0.090581
O O7 0.500000 0.725680 0.000000
O O8 0.634058 0.720445 0.010849
O O9 0.310294 0.722710 0.267071
O O10 0.211943 0.729025 0.157163
O O11 0.297826 0.000000 0.127840
O O12 0.786354 0.270139 0.475113
O O13 0.631875 0.279450 0.540866
O O14 0.700615 0.000000 0.576383
O O15 0.891104 0.500000 0.442784
O O16 0.884744 0.786782 0.585245
O O17 0.500000 0.719075 0.500000
O O18 0.453177 0.000000 0.411200
O O19 0.107055 0.500000 0.283349
#
# Coordination Sequence:
#
# PCOD9155046 Si02
#       7
#     4   4   4   4   4   4   4
#     4   9  17  31  50  69  89 117 151 182 216 265
#     4   9  14  24  43  63  84 116 154 184 212 254
#     4   9  16  27  46  70  92 116 149 186 223 262
#     4   9  16  28  46  68  93 118 147 184 225 265
#     4   9  17  30  50  71  88 113 150 187 220 259
#     4   9  16  26  41  63  89 117 151 187 218 253
#     4   9  17  30  49  70  91 114 147 187 221 259
#
# _framework density 20.659949999999998
#
# number of rings (size 3 to 8) (size 9 to 14) (size 15 to 20)
#    0.000    3.000    1.429    0.429    0.000    1.714 
#    2.571    0.714    0.000    6.000    0.000    0.000 
#    0.000    0.000    0.000    0.000    0.000    0.000 
#
# Total GULP energy -156145.314422 kJ/mol
# GULP energy per Si atom -5576.618372 kJ/mol
# Density = 2.061293 g / cm^3
# Si number density = 20.659950 Si / 1000 Ang^3
#
#
#
# Elastic Constant Matrix: (Units=GPa)
#
#
# Indices 1 2 3 4 5 6 
#
# 1 194.9692 0.9367 119.6078 0.0000 3.3130 0.0000
# 2 0.9367 65.0933 3.4217 0.0000 3.6248 0.0000
# 3 119.6078 3.4217 155.7281 0.0000 0.8984 0.0000
# 4 0.0000 0.0000 0.0000 2.3258 0.0000 -9.2736
# 5 3.3130 3.6248 0.8984 0.0000 27.2991 0.0000
# 6 0.0000 0.0000 0.0000 -9.2736 0.0000 13.8736
#
#
#
# Elastic Compliance Matrix: (Units=1/GPa)
#
#
# Indices 1 2 3 4 5 6 
#
# 1 0.009729 0.000307 -0.007473 0.000000 -0.000976 0.000000
# 2 0.000307 0.015503 -0.000565 0.000000 -0.002077 0.000000
# 3 -0.007473 -0.000565 0.012170 0.000000 0.000581 0.000000
# 4 0.000000 0.000000 0.000000 -0.258199 0.000000 -0.172589
# 5 -0.000976 -0.002077 0.000581 0.000000 0.037006 0.000000
# 6 0.000000 0.000000 0.000000 -0.172589 0.000000 -0.043285
#
#
# Mechanical properties :
#
#
# Convention : Reuss Voigt Hill
#
# Bulk Modulus (GPa) = 45.57640 73.74698 59.66169
# Shear Modulus (GPa) = -24.47390 28.15466 1.84038
#
# Velocity S-wave (km/s) = -3.44554 3.69557 0.94484
# Velocity P-wave (km/s) = 2.50582 7.34730 5.48917
#
# Compressibility (1/GPa) = 0.02194118
#
# Stress axis : x y z
#
# Youngs Moduli (GPa) = 102.78742 64.50159 82.16606
#
# Poissons Ratio (x) = -0.01981 0.61406
# Poissons Ratio (y) = -0.03157 0.04639
# Poissons Ratio (z) = 0.76817 0.03642
#
# Static dielectric constant tensor:
#      x y z
#    x 1.724640 0.000000 -0.001680 
#    y 0.000000 1.808760 0.000000 
#    z -0.001680 0.000000 1.722030 
# 
# From -- ./inp_files/28487.got.cif
#   From: 2010.05.17/outbox.cif.g08.bks.cpg/sg10_15_cif.got.tgz:28487.got - 2010.06.03 11:33:40.
