data_PCOD9155671
_publ_section_title
;
Structure prediction by ZEFSAII (Michael W. Deem and Ramdas Pophale) SiO2 
 PCOD9155671
Probable space group: P 2/M
;
_chemical_formula_sum "Si O2"
_cell_formula_units_Z 24
_cell_length_a 9.000000
_cell_length_b 9.000000
_cell_length_c 30.000000
_cell_angle_alpha 90.000000
_cell_angle_beta 30.000000
_cell_angle_gamma 90.000000
_cell_volume 1215.000000
_symmetry_space_group_name_H-M "P 2/M"
_symmetry_group_IT_number 10
_symmetry_cell_setting 'monoclinic'
loop_
_space_group_symop_operation_xyz
x,y,z
-x,y,-z
-x,-y,-z
x,-y,z
loop_
_atom_site_type_symbol
_atom_site_label
_atom_site_fract_x
_atom_site_fract_y
_atom_site_fract_z
Si Si1 0.531224 0.675816 0.789812
Si Si2 0.679305 0.823712 0.319005
Si Si3 0.581650 0.322458 0.529752
Si Si4 0.054779 0.829531 0.039519
Si Si5 0.337744 0.176943 0.149292
Si Si6 0.208324 0.821727 0.365783
O O1 0.572858 0.500000 0.776967
O O2 0.631428 0.737987 0.811903
O O3 0.701232 0.754255 0.705291
O O4 0.185643 0.723175 0.876348
O O5 0.642960 0.736977 0.374714
O O6 0.442550 0.779261 0.343254
O O7 0.011522 0.800078 0.215167
O O8 0.640821 0.000000 0.337929
O O9 0.500000 0.283307 0.500000
O O10 0.605782 0.500000 0.525990
O O11 0.890652 0.243893 0.460775
O O12 0.011956 0.000000 0.066042
O O13 0.397295 0.783106 0.953094
O O14 0.000000 0.828726 0.000000
O O15 0.374698 0.000000 0.149163
O O16 0.198648 0.000000 0.365455
#
# Coordination Sequence:
#
# PCOD9155671 Si02
#       6
#     4   4   4   4   4   4
#     4  11  21  33  53  82 113 145 183 226 273 323
#     4  10  22  39  59  83 109 142 183 224 269 320
#     4  11  24  40  59  85 113 141 176 219 269 324
#     4   8  15  30  53  79 107 142 183 226 271 316
#     4   9  18  35  58  82 109 142 183 229 272 318
#     4  11  23  39  58  80 109 145 184 224 268 321
#
# _framework density 19.753086
#
# number of rings (size 3 to 8) (size 9 to 14) (size 15 to 20)
#    0.000    2.000    0.000    5.000    0.000   11.000 
#    0.000    0.833    0.000    5.000    0.000    0.000 
#    0.000    0.000    0.000    0.000    0.000    0.000 
#
# Total GULP energy -134020.282324 kJ/mol
# GULP energy per Si atom -5584.178430 kJ/mol
# Density = 1.970813 g / cm^3
# Si number density = 19.753086 Si / 1000 Ang^3
#
#
#
# Elastic Constant Matrix: (Units=GPa)
#
#
# Indices 1 2 3 4 5 6 
#
# 1 36.3448 9.7982 -6.4903 0.0000 -27.0748 0.0000
# 2 9.7982 35.3815 3.1494 0.0000 -12.8939 0.0000
# 3 -6.4903 3.1494 64.0688 0.0000 -32.1963 0.0000
# 4 0.0000 0.0000 0.0000 -42.3234 0.0000 33.5668
# 5 -27.0748 -12.8939 -32.1963 0.0000 29.0508 0.0000
# 6 0.0000 0.0000 0.0000 33.5668 0.0000 -7.1309
#
#
#
# Elastic Compliance Matrix: (Units=1/GPa)
#
#
# Indices 1 2 3 4 5 6 
#
# 1 -0.021444 -0.014028 -0.033076 0.000000 -0.062868 0.000000
# 2 -0.014028 0.030370 -0.006117 0.000000 -0.006374 0.000000
# 3 -0.033076 -0.006117 -0.009698 0.000000 -0.044289 0.000000
# 4 0.000000 0.000000 0.000000 0.008644 0.000000 0.040691
# 5 -0.062868 -0.006374 -0.044289 0.000000 -0.076084 0.000000
# 6 0.000000 0.000000 0.000000 0.040691 0.000000 0.051306
#
#
# Mechanical properties :
#
#
# Convention : Reuss Voigt Hill
#
# Bulk Modulus (GPa) = -9.32705 16.52328 3.59812
# Shear Modulus (GPa) = 92.94055 4.54184 48.74119
#
# Velocity S-wave (km/s) = 6.86683 1.51799 4.97281
# Velocity P-wave (km/s) = 7.62489 3.38459 5.89892
#
# Compressibility (1/GPa) = -0.10721499
#
# Stress axis : x y z
#
# Youngs Moduli (GPa) = -46.63345 32.92750 -103.11030
#
# Poissons Ratio (x) = 0.46192 -3.41046
# Poissons Ratio (y) = -0.65419 -0.63075
# Poissons Ratio (z) = -1.54244 0.20143
#
# Static dielectric constant tensor:
#      x y z
#    x 1.684060 0.000000 -0.060100 
#    y 0.000000 1.655890 0.000000 
#    z -0.060100 0.000000 1.744680 
# 
# From -- ./inp_files/38097.got.cif
#   From: 2010.05.17/outbox.ucp.g08.bks.cvg/sg10_20_cif.got.tgz:38097.got - 2010.06.11 11:31:16.
