data_PCOD9155082
_publ_section_title
;
Structure prediction by ZEFSAII (Michael W. Deem and Ramdas Pophale) SiO2 
 PCOD9155082
Probable space group: P 2/M
;
_chemical_formula_sum "Si O2"
_cell_formula_units_Z 20
_cell_length_a 10.977717
_cell_length_b 13.185270
_cell_length_c 10.977710
_cell_angle_alpha 90.000000
_cell_angle_beta 49.889776
_cell_angle_gamma 90.000000
_cell_volume 1215.246429
_symmetry_space_group_name_H-M "P 2/M"
_symmetry_group_IT_number 10
_symmetry_cell_setting 'monoclinic'
loop_
_space_group_symop_operation_xyz
x,y,z
-x,y,-z
-x,-y,-z
x,-y,z
loop_
_atom_site_type_symbol
_atom_site_label
_atom_site_fract_x
_atom_site_fract_y
_atom_site_fract_z
Si Si1 0.248116 0.204807 0.094335
Si Si2 0.405665 0.795193 0.251885
Si Si3 0.852583 0.383957 0.005867
Si Si4 0.494133 0.383958 0.647418
Si Si5 0.247817 0.000000 0.415549
Si Si6 0.084451 0.000000 0.252183
O O1 0.292850 0.221840 0.207150
O O2 0.162216 0.301230 0.090479
O O3 0.145549 0.102531 0.150145
O O4 0.416524 0.190393 0.916524
O O5 0.409522 0.698770 0.337784
O O6 0.349855 0.897468 0.354452
O O7 0.868288 0.500000 0.950185
O O8 0.687981 0.378801 0.187981
O O9 0.000000 0.363262 0.000000
O O10 0.500000 0.363263 0.500000
O O11 0.549815 0.500000 0.631713
O O12 0.168528 0.000000 0.331473
O O13 0.103579 0.000000 0.603579
#
# Coordination Sequence:
#
# PCOD9155082 Si02
#       6
#     4   4   4   4   2   2
#     4   9  17  30  49  71  94 121 154 191 229 271
#     4   9  17  30  49  71  94 121 154 191 229 271
#     4   9  18  32  49  69  94 124 155 188 229 275
#     4   9  18  32  49  69  94 124 155 188 229 275
#     4   9  17  29  46  69  96 123 151 187 232 277
#     4   9  17  29  46  69  96 123 151 187 232 277
#
# _framework density 16.457567000000001
#
# number of rings (size 3 to 8) (size 9 to 14) (size 15 to 20)
#    0.000    3.000    0.000    0.600    0.000    4.800 
#    0.000    5.000    0.000    0.000    0.000   11.200 
#    0.000    0.000    0.000    0.000    0.000    0.000 
#
# Total GULP energy -111421.383086 kJ/mol
# GULP energy per Si atom -5571.069154 kJ/mol
# Density = 1.642011 g / cm^3
# Si number density = 16.457567 Si / 1000 Ang^3
#
#
#
# Elastic Constant Matrix: (Units=GPa)
#
#
# Indices 1 2 3 4 5 6 
#
# 1 74.0553 93.8768 32.9422 0.0000 -1.3055 0.0000
# 2 93.8768 183.1845 67.6391 0.0000 11.0080 0.0000
# 3 32.9422 67.6391 43.8041 0.0000 13.9969 0.0000
# 4 0.0000 0.0000 0.0000 16.6366 0.0000 -8.4118
# 5 -1.3055 11.0080 13.9969 0.0000 15.6917 0.0000
# 6 0.0000 0.0000 0.0000 -8.4118 0.0000 -3.4128
#
#
#
# Elastic Compliance Matrix: (Units=1/GPa)
#
#
# Indices 1 2 3 4 5 6 
#
# 1 0.045323 -0.020991 -0.010604 0.000000 0.027955 0.000000
# 2 -0.020991 0.024274 -0.021955 0.000000 0.000808 0.000000
# 3 -0.010604 -0.021955 0.084010 0.000000 -0.060416 0.000000
# 4 0.000000 0.000000 0.000000 0.026760 0.000000 -0.065956
# 5 0.027955 0.000808 -0.060416 0.000000 0.119377 0.000000
# 6 0.000000 0.000000 0.000000 -0.065956 0.000000 -0.130445
#
#
# Mechanical properties :
#
#
# Convention : Reuss Voigt Hill
#
# Bulk Modulus (GPa) = 21.50219 76.66222 49.08221
# Shear Modulus (GPa) = 17.12910 12.88881 15.00896
#
# Velocity S-wave (km/s) = 3.22965 2.80153 3.02318
# Velocity P-wave (km/s) = 5.19626 7.55960 6.48647
#
# Compressibility (1/GPa) = 0.04650689
#
# Stress axis : x y z
#
# Youngs Moduli (GPa) = 22.06400 41.19566 11.90337
#
# Poissons Ratio (x) = 0.86474 0.12622
# Poissons Ratio (y) = 0.46315 0.26134
# Poissons Ratio (z) = 0.23396 0.90445
#
# Static dielectric constant tensor:
#      x y z
#    x 1.529950 0.000000 -0.007630 
#    y 0.000000 1.547260 0.000000 
#    z -0.007630 0.000000 1.548140 
# 
# From -- ./inp_files/23499.got.cif
#   From: 2010.05.17/outbox.cif.g08.bks.cpg/sg10_12_cif.got.tgz:23499.got - 2010.06.03 11:33:40.
