data_PCOD9155218
_publ_section_title
;
Structure prediction by ZEFSAII (Michael W. Deem and Ramdas Pophale) SiO2 
 PCOD9155218
Probable space group: P 2/M
;
_chemical_formula_sum "Si O2"
_cell_formula_units_Z 32
_cell_length_a 30.000000
_cell_length_b 9.000000
_cell_length_c 12.000000
_cell_angle_alpha 90.000000
_cell_angle_beta 30.000000
_cell_angle_gamma 90.000000
_cell_volume 1620.000000
_symmetry_space_group_name_H-M "P 2/M"
_symmetry_group_IT_number 10
_symmetry_cell_setting 'monoclinic'
loop_
_space_group_symop_operation_xyz
x,y,z
-x,y,-z
-x,-y,-z
x,-y,z
loop_
_atom_site_type_symbol
_atom_site_label
_atom_site_fract_x
_atom_site_fract_y
_atom_site_fract_z
Si Si1 0.228875 0.833865 0.008304
Si Si2 0.665824 0.675106 0.393659
Si Si3 0.928270 0.662651 0.558708
Si Si4 0.693512 0.170954 0.925707
Si Si5 0.171599 0.678117 0.522117
Si Si6 0.982525 0.325138 0.873810
Si Si7 0.499818 0.820248 0.370813
Si Si8 0.217795 0.319187 0.660517
O O1 0.137599 0.793290 0.266149
O O2 0.299874 0.828701 0.954623
O O3 0.228642 0.000000 0.961200
O O4 0.252654 0.711921 0.866129
O O5 0.648218 0.500000 0.435903
O O6 0.581619 0.757468 0.523659
O O7 0.702969 0.731459 0.431494
O O8 0.881815 0.500000 0.652864
O O9 0.000000 0.654942 0.500000
O O10 0.980208 0.683973 0.331819
O O11 0.774105 0.262578 0.699814
O O12 0.704078 0.000000 0.866994
O O13 0.594663 0.225206 0.112224
O O14 0.165840 0.500000 0.527719
O O15 0.227087 0.718441 0.511302
O O16 0.069097 0.733352 0.753599
O O17 0.973262 0.500000 0.924818
O O18 0.882354 0.264453 0.093344
O O19 0.500000 0.770866 0.500000
O O20 0.496198 0.000000 0.379085
O O21 0.216837 0.500000 0.673880
#
# Coordination Sequence:
#
# PCOD9155218 Si02
#       8
#     4   4   4   4   4   4   4   4
#     4  11  21  35  54  77 111 151 185 220 274 339
#     4  11  22  36  57  85 115 144 181 231 283 332
#     4  10  19  31  49  78 114 147 183 232 282 326
#     4  10  21  37  57  80 110 143 177 227 282 327
#     4  10  19  34  59  84 108 144 193 233 264 320
#     4   9  16  29  52  81 109 143 186 225 268 321
#     4  10  20  39  61  81 109 146 183 223 279 339
#     4   9  19  35  54  81 115 147 180 229 282 321
#
# _framework density 19.753086
#
# number of rings (size 3 to 8) (size 9 to 14) (size 15 to 20)
#    0.000    2.000    2.500    1.875    0.000    5.000 
#    0.000    1.875    0.000    6.750    0.000    0.000 
#    0.000    0.000    0.000    0.000    0.000    0.000 
#
# Total GULP energy -178303.299995 kJ/mol
# GULP energy per Si atom -5571.978125 kJ/mol
# Density = 1.970813 g / cm^3
# Si number density = 19.753086 Si / 1000 Ang^3
#
#
#
# Elastic Constant Matrix: (Units=GPa)
#
#
# Indices 1 2 3 4 5 6 
#
# 1 117.9158 10.3839 11.7084 0.0000 -16.0627 0.0000
# 2 10.3839 10.7579 8.1650 0.0000 -6.6576 0.0000
# 3 11.7084 8.1650 39.4348 0.0000 -12.2297 0.0000
# 4 0.0000 0.0000 0.0000 31.4290 0.0000 -6.3541
# 5 -16.0627 -6.6576 -12.2297 0.0000 19.8718 0.0000
# 6 0.0000 0.0000 0.0000 -6.3541 0.0000 3.1938
#
#
#
# Elastic Compliance Matrix: (Units=1/GPa)
#
#
# Indices 1 2 3 4 5 6 
#
# 1 0.009805 -0.005840 0.000184 0.000000 0.006083 0.000000
# 2 -0.005840 0.128340 -0.016027 0.000000 0.028414 0.000000
# 3 0.000184 -0.016027 0.033372 0.000000 0.015318 0.000000
# 4 0.000000 0.000000 0.000000 0.053227 0.000000 0.105895
# 5 0.006083 0.028414 0.015318 0.000000 0.074186 0.000000
# 6 0.000000 0.000000 0.000000 0.105895 0.000000 0.523780
#
#
# Mechanical properties :
#
#
# Convention : Reuss Voigt Hill
#
# Bulk Modulus (GPa) = 7.80325 25.40256 16.60291
# Shear Modulus (GPa) = 5.50181 20.08901 12.79541
#
# Velocity S-wave (km/s) = 1.67073 3.19251 2.54789
# Velocity P-wave (km/s) = 2.77142 5.14563 4.13269
#
# Compressibility (1/GPa) = 0.12815174
#
# Stress axis : x y z
#
# Youngs Moduli (GPa) = 101.98690 7.79183 29.96484
#
# Poissons Ratio (x) = 0.04550 -0.00552
# Poissons Ratio (y) = 0.59559 0.48025
# Poissons Ratio (z) = -0.01880 0.12488
#
# Static dielectric constant tensor:
#      x y z
#    x 1.748680 0.000000 -0.004070 
#    y 0.000000 1.680330 0.000000 
#    z -0.004070 0.000000 1.712470 
# 
# From -- ./inp_files/58175.got.cif
#   From: 2010.05.17/outbox.ucp.g08.bks.cvg/sg10_30_cif.got.tgz:58175.got - 2010.06.11 11:31:16.
