data_PCOD9155786
_publ_section_title
;
Structure prediction by ZEFSAII (Michael W. Deem and Ramdas Pophale) SiO2 
 PCOD9155786
Probable space group: P 21/M
;
_chemical_formula_sum "Si O2"
_cell_formula_units_Z 32
_cell_length_a 14.721114
_cell_length_b 19.378780
_cell_length_c 7.182832
_cell_angle_alpha 90.000000
_cell_angle_beta 134.053662
_cell_angle_gamma 90.000000
_cell_volume 1472.664249
_symmetry_space_group_name_H-M "P 21/M"
_symmetry_group_IT_number 11
_symmetry_cell_setting 'monoclinic'
loop_
_space_group_symop_operation_xyz
x,y,z
-x,1/2+y,-z
-x,-y,-z
x,1/2-y,z
loop_
_atom_site_type_symbol
_atom_site_label
_atom_site_fract_x
_atom_site_fract_y
_atom_site_fract_z
Si Si1 0.084332 0.167983 0.468371
Si Si2 0.327290 0.408214 0.907718
Si Si3 0.664392 0.540410 0.513929
Si Si4 0.858456 0.325004 0.688735
Si Si5 0.807027 0.173738 0.058923
Si Si6 0.612496 0.055857 0.880209
Si Si7 0.937447 0.575143 0.937834
Si Si8 0.604914 0.394766 0.286449
O O1 0.102625 0.250000 0.452743
O O2 0.202776 0.138329 0.752541
O O3 0.942803 0.161908 0.349350
O O4 0.076184 0.120436 0.270925
O O5 0.325137 0.431671 0.685195
O O6 0.333285 0.478374 0.037276
O O7 0.463444 0.371713 0.137053
O O8 0.793271 0.564007 0.794106
O O9 0.654558 0.456996 0.488554
O O10 0.528954 0.562809 0.402171
O O11 0.903021 0.250000 0.692655
O O12 0.962931 0.382488 0.797232
O O13 0.717350 0.341029 0.420346
O O14 0.837985 0.324090 0.883350
O O15 0.758395 0.250000 0.042121
O O16 0.709720 0.112897 0.952275
O O17 0.590406 0.070131 0.066382
O O18 0.000000 0.500000 0.000000
#
# Coordination Sequence:
#
# PCOD9155786 Si02
#       8
#     4   4   4   4   4   4   4   4
#     4   9  18  32  49  71  99 133 171 205 246 303
#     4   8  16  29  50  74 101 123 159 210 251 288
#     4   8  15  29  47  74 100 125 154 206 251 287
#     4  10  20  32  48  73 102 131 170 210 249 300
#     4   9  19  34  48  67 101 138 167 203 245 296
#     4   9  17  31  52  74 101 128 165 207 247 299
#     4  10  16  28  52  70  94 132 167 202 249 289
#     4   9  16  30  50  75 100 124 159 208 256 294
#
# _framework density 21.729324999999999
#
# number of rings (size 3 to 8) (size 9 to 14) (size 15 to 20)
#    0.000    3.000    1.250    2.625    0.000    1.500 
#    0.000    8.125    0.000    0.000    0.000    0.000 
#    0.000    0.000    0.000    0.000    0.000    0.000 
#
# Total GULP energy -178371.386448 kJ/mol
# GULP energy per Si atom -5574.105827 kJ/mol
# Density = 2.167987 g / cm^3
# Si number density = 21.729325 Si / 1000 Ang^3
#
#
#
# Elastic Constant Matrix: (Units=GPa)
#
#
# Indices 1 2 3 4 5 6 
#
# 1 54.4624 38.1696 41.0326 0.0000 15.4610 0.0000
# 2 38.1696 129.5873 78.1492 0.0000 28.3116 0.0000
# 3 41.0326 78.1492 143.3306 0.0000 42.2499 0.0000
# 4 0.0000 0.0000 0.0000 28.2428 0.0000 6.9840
# 5 15.4610 28.3116 42.2499 0.0000 36.8842 0.0000
# 6 0.0000 0.0000 0.0000 6.9840 0.0000 28.1277
#
#
#
# Elastic Compliance Matrix: (Units=1/GPa)
#
#
# Indices 1 2 3 4 5 6 
#
# 1 0.025249 -0.004433 -0.004068 0.000000 -0.002521 0.000000
# 2 -0.004433 0.012428 -0.004896 0.000000 -0.002073 0.000000
# 3 -0.004068 -0.004896 0.013891 0.000000 -0.010448 0.000000
# 4 0.000000 0.000000 0.000000 0.037723 0.000000 -0.009367
# 5 -0.002521 -0.002073 -0.010448 0.000000 0.041728 0.000000
# 6 0.000000 0.000000 0.000000 -0.009367 0.000000 0.037878
#
#
# Mechanical properties :
#
#
# Convention : Reuss Voigt Hill
#
# Bulk Modulus (GPa) = 40.36554 71.34256 55.85405
# Shear Modulus (GPa) = 24.51595 29.98621 27.25108
#
# Velocity S-wave (km/s) = 3.36258 3.71885 3.54519
# Velocity P-wave (km/s) = 5.80455 7.16543 6.52059
#
# Compressibility (1/GPa) = 0.02477361
#
# Stress axis : x y z
#
# Youngs Moduli (GPa) = 39.60607 80.46300 71.98954
#
# Poissons Ratio (x) = 0.35668 0.29286
# Poissons Ratio (y) = 0.17557 0.35247
# Poissons Ratio (z) = 0.16112 0.39396
#
# Static dielectric constant tensor:
#      x y z
#    x 1.838460 0.000000 -0.037630 
#    y 0.000000 1.910950 0.000000 
#    z -0.037630 0.000000 1.874000 
# 
# From -- ./inp_files/43547.got.cif
#   From: 2010.05.17/outbox.cif.g08.bks.cpg/sg11_22_cif.got.tgz:43547.got - 2010.06.03 12:22:45.
