data_PCOD9155375
_publ_section_title
;
Structure prediction by ZEFSAII (Michael W. Deem and Ramdas Pophale) SiO2 
 PCOD9155375
Probable space group: P 2/M
;
_chemical_formula_sum "Si O2"
_cell_formula_units_Z 28
_cell_length_a 18.000000
_cell_length_b 12.000000
_cell_length_c 21.000000
_cell_angle_alpha 90.000000
_cell_angle_beta 160.000000
_cell_angle_gamma 90.000000
_cell_volume 1551.403370
_symmetry_space_group_name_H-M "P 2/M"
_symmetry_group_IT_number 10
_symmetry_cell_setting 'monoclinic'
loop_
_space_group_symop_operation_xyz
x,y,z
-x,y,-z
-x,-y,-z
x,-y,z
loop_
_atom_site_type_symbol
_atom_site_label
_atom_site_fract_x
_atom_site_fract_y
_atom_site_fract_z
Si Si1 0.418637 0.371947 0.864362
Si Si2 0.222485 0.206641 0.152446
Si Si3 0.000000 0.224540 0.500000
Si Si4 0.979721 0.130763 0.626678
Si Si5 0.500000 0.713152 0.500000
Si Si6 0.977430 0.370145 0.854509
Si Si7 0.218559 0.276763 0.926770
Si Si8 0.473324 0.873051 0.232088
O O1 0.348666 0.500000 0.814240
O O2 0.217840 0.298993 0.678071
O O3 0.500000 0.334063 0.000000
O O4 0.619710 0.362130 0.977793
O O5 0.387776 0.228943 0.345682
O O6 0.356836 0.143878 0.206167
O O7 0.000000 0.150950 0.000000
O O8 0.111683 0.307765 0.020105
O O9 0.004694 0.158908 0.571372
O O10 0.113513 0.205971 0.784399
O O11 0.728059 0.151051 0.441366
O O12 0.030887 0.000000 0.677196
O O13 0.282329 0.649957 0.348184
O O14 0.024529 0.500000 0.898209
O O15 0.052388 0.328510 0.844720
O O16 0.365343 0.200515 0.090667
O O17 0.447712 0.000000 0.191512
#
# Coordination Sequence:
#
# PCOD9155375 Si02
#       8
#     4   4   2   4   2   4   4   4
#     4  11  23  40  62  86 117 155 194 236 291 345
#     4   9  20  36  56  82 113 146 187 236 283 340
#     4  12  22  42  60  88 118 152 192 246 288 348
#     4  11  23  38  60  88 116 153 195 241 293 345
#     4  10  19  36  57  80 116 154 183 230 287 338
#     4  10  21  35  56  84 114 149 190 233 282 339
#     4  11  21  40  60  84 117 152 194 241 287 342
#     4  10  21  38  59  83 115 151 190 239 292 341
#
# _framework density 18.048175000000001
#
# number of rings (size 3 to 8) (size 9 to 14) (size 15 to 20)
#    0.000    1.571    2.857    2.357    0.000    3.429 
#    0.000    1.071    0.000    0.000    0.000    0.000 
#    0.000    0.000    0.000    0.000    0.000    0.000 
#
# Total GULP energy -155942.357157 kJ/mol
# GULP energy per Si atom -5569.369898 kJ/mol
# Density = 1.800710 g / cm^3
# Si number density = 18.048175 Si / 1000 Ang^3
#
#
#
# Elastic Constant Matrix: (Units=GPa)
#
#
# Indices 1 2 3 4 5 6 
#
# 1 112.7175 3.6247 23.2884 0.0000 0.9527 0.0000
# 2 3.6247 35.2118 36.3765 0.0000 3.2681 0.0000
# 3 23.2884 36.3765 56.1559 0.0000 -2.7994 0.0000
# 4 0.0000 0.0000 0.0000 15.5884 0.0000 -4.3018
# 5 0.9527 3.2681 -2.7994 0.0000 42.7346 0.0000
# 6 0.0000 0.0000 0.0000 -4.3018 0.0000 16.7183
#
#
#
# Elastic Compliance Matrix: (Units=1/GPa)
#
#
# Indices 1 2 3 4 5 6 
#
# 1 0.011046 0.011718 -0.012268 0.000000 -0.001946 0.000000
# 2 0.011718 0.102995 -0.072219 0.000000 -0.012869 0.000000
# 3 -0.012268 -0.072219 0.070195 0.000000 0.010395 0.000000
# 4 0.000000 0.000000 0.000000 0.069054 0.000000 0.017768
# 5 -0.001946 -0.012869 0.010395 0.000000 0.025109 0.000000
# 6 0.000000 0.000000 0.000000 0.017768 0.000000 0.064387
#
#
# Mechanical properties :
#
#
# Convention : Reuss Voigt Hill
#
# Bulk Modulus (GPa) = 25.84143 36.74048 31.29096
# Shear Modulus (GPa) = 9.97558 24.39463 17.18511
#
# Velocity S-wave (km/s) = 2.35355 3.68045 3.08909
# Velocity P-wave (km/s) = 4.66205 6.20178 5.48620
#
# Compressibility (1/GPa) = 0.03869754
#
# Stress axis : x y z
#
# Youngs Moduli (GPa) = 90.52947 9.70919 14.24599
#
# Poissons Ratio (x) = -0.11377 0.17478
# Poissons Ratio (y) = -1.06080 1.02883
# Poissons Ratio (z) = 1.11065 0.70119
#
# Static dielectric constant tensor:
#      x y z
#    x 1.624760 0.000000 0.015200 
#    y 0.000000 1.625610 0.000000 
#    z 0.015200 0.000000 1.615310 
# 
# From -- ./inp_files/79548.got.cif
#   From: 2010.05.17/outbox.ucp.g08.bks.cvg/sg10_40_cif.got.tgz:79548.got - 2010.06.11 11:31:16.
