data_PCOD9155632
_publ_section_title
;
Structure prediction by ZEFSAII (Michael W. Deem and Ramdas Pophale) SiO2 
 PCOD9155632
Probable space group: P 2/M
;
_chemical_formula_sum "Si O2"
_cell_formula_units_Z 24
_cell_length_a 12.000000
_cell_length_b 12.000000
_cell_length_c 18.000000
_cell_angle_alpha 90.000000
_cell_angle_beta 150.000000
_cell_angle_gamma 90.000000
_cell_volume 1296.000000
_symmetry_space_group_name_H-M "P 2/M"
_symmetry_group_IT_number 10
_symmetry_cell_setting 'monoclinic'
loop_
_space_group_symop_operation_xyz
x,y,z
-x,y,-z
-x,-y,-z
x,-y,z
loop_
_atom_site_type_symbol
_atom_site_label
_atom_site_fract_x
_atom_site_fract_y
_atom_site_fract_z
Si Si1 0.341282 0.741036 0.338835
Si Si2 0.695145 0.500000 0.919755
Si Si3 0.226794 0.873150 0.675832
Si Si4 0.114454 0.133900 0.917142
Si Si5 0.236103 0.500000 0.217430
Si Si6 0.370753 0.874753 0.209073
Si Si7 0.517695 0.703415 0.924019
O O1 0.500000 0.754312 0.500000
O O2 0.310358 0.612006 0.301212
O O3 0.413818 0.797300 0.303334
O O4 0.116925 0.806520 0.230450
O O5 0.665016 0.500000 0.811246
O O6 0.595675 0.607033 0.909287
O O7 0.965786 0.500000 0.072524
O O8 0.419175 0.876176 0.724552
O O9 0.295761 0.770636 0.769055
O O10 0.000000 0.854844 0.500000
O O11 0.220723 0.000000 0.705901
O O12 0.118081 0.000000 0.909019
O O13 0.175044 0.157318 0.038868
O O14 0.298234 0.198176 0.975017
O O15 0.325701 0.000000 0.210543
O O16 0.500000 0.664293 0.000000
#
# Coordination Sequence:
#
# PCOD9155632 Si02
#       7
#     4   2   4   4   2   4   4
#     4  12  24  37  57  89 123 154 192 253 309 354
#     4  11  23  42  69  88 105 157 213 248 295 351
#     4   9  19  37  60  87 121 162 202 234 287 358
#     4  10  21  38  60  89 122 160 204 236 283 358
#     4  11  23  42  66  82 113 155 206 253 290 362
#     4   9  19  36  59  85 119 161 202 243 285 350
#     4  11  22  39  63  92 122 152 197 252 299 349
#
# _framework density 18.518519000000001
#
# number of rings (size 3 to 8) (size 9 to 14) (size 15 to 20)
#    0.000    1.667    1.667    5.000    2.333    5.333 
#    0.000    2.083    0.000    0.000    0.000    0.000 
#    0.000    0.000    0.000    0.000    0.000    0.000 
#
# Total GULP energy -133767.349959 kJ/mol
# GULP energy per Si atom -5573.639582 kJ/mol
# Density = 1.847637 g / cm^3
# Si number density = 18.518519 Si / 1000 Ang^3
#
#
#
# Elastic Constant Matrix: (Units=GPa)
#
#
# Indices 1 2 3 4 5 6 
#
# 1 58.1628 29.7872 33.6294 0.0000 -3.8545 0.0000
# 2 29.7872 118.6191 57.7254 0.0000 -16.4541 0.0000
# 3 33.6294 57.7254 140.3727 0.0000 -12.8542 0.0000
# 4 0.0000 0.0000 0.0000 15.6064 0.0000 7.3690
# 5 -3.8545 -16.4541 -12.8542 0.0000 18.4074 0.0000
# 6 0.0000 0.0000 0.0000 7.3690 0.0000 23.8289
#
#
#
# Elastic Compliance Matrix: (Units=1/GPa)
#
#
# Indices 1 2 3 4 5 6 
#
# 1 0.021121 -0.003725 -0.003662 0.000000 -0.001464 0.000000
# 2 -0.003725 0.012067 -0.003369 0.000000 0.007654 0.000000
# 3 -0.003662 -0.003369 0.009658 0.000000 0.002966 0.000000
# 4 0.000000 0.000000 0.000000 0.075033 0.000000 -0.023204
# 5 -0.001464 0.007654 0.002966 0.000000 0.062932 0.000000
# 6 0.000000 0.000000 0.000000 -0.023204 0.000000 0.049141
#
#
# Mechanical properties :
#
#
# Convention : Reuss Voigt Hill
#
# Bulk Modulus (GPa) = 46.87322 62.15984 54.51653
# Shear Modulus (GPa) = 19.33663 24.63605 21.98634
#
# Velocity S-wave (km/s) = 3.23488 3.65135 3.44941
# Velocity P-wave (km/s) = 6.27049 7.17047 6.73553
#
# Compressibility (1/GPa) = 0.02133414
#
# Stress axis : x y z
#
# Youngs Moduli (GPa) = 47.34572 82.87135 103.53703
#
# Poissons Ratio (x) = 0.30867 0.37920
# Poissons Ratio (y) = 0.17635 0.34882
# Poissons Ratio (z) = 0.17340 0.27920
#
# Static dielectric constant tensor:
#      x y z
#    x 1.644550 0.000000 0.025240 
#    y 0.000000 1.660550 0.000000 
#    z 0.025240 0.000000 1.683980 
# 
# From -- ./inp_files/46561.got.cif
#   From: 2010.05.17/outbox.ucp.g08.bks.cvg/sg10_24_cif.got.tgz:46561.got - 2010.06.11 11:31:16.
