data_PCOD9155322
_publ_section_title
;
Structure prediction by ZEFSAII (Michael W. Deem and Ramdas Pophale) SiO2 
 PCOD9155322
Probable space group: P 2/M
;
_chemical_formula_sum "Si O2"
_cell_formula_units_Z 28
_cell_length_a 18.000000
_cell_length_b 9.000000
_cell_length_c 15.000000
_cell_angle_alpha 90.000000
_cell_angle_beta 140.000000
_cell_angle_gamma 90.000000
_cell_volume 1561.973892
_symmetry_space_group_name_H-M "P 2/M"
_symmetry_group_IT_number 10
_symmetry_cell_setting 'monoclinic'
loop_
_space_group_symop_operation_xyz
x,y,z
-x,y,-z
-x,-y,-z
x,-y,z
loop_
_atom_site_type_symbol
_atom_site_label
_atom_site_fract_x
_atom_site_fract_y
_atom_site_fract_z
Si Si1 0.025093 0.677940 0.420128
Si Si2 0.440657 0.178452 0.041001
Si Si3 0.129235 0.680033 0.156755
Si Si4 0.701960 0.180353 0.835918
Si Si5 0.215704 0.322036 0.903929
Si Si6 0.198360 0.320062 0.422292
Si Si7 0.468894 0.319802 0.694489
O O1 0.044493 0.500000 0.447838
O O2 0.128838 0.732401 0.448242
O O3 0.000000 0.732699 0.500000
O O4 0.908584 0.700186 0.255360
O O5 0.507821 0.255716 0.184827
O O6 0.434209 0.000000 0.049597
O O7 0.500000 0.204702 0.000000
O O8 0.313911 0.251540 0.930910
O O9 0.144025 0.500000 0.164340
O O10 0.226466 0.757676 0.183502
O O11 0.144086 0.722683 0.275506
O O12 0.000000 0.713910 0.000000
O O13 0.571004 0.246815 0.727503
O O14 0.698438 0.000000 0.832592
O O15 0.767385 0.242239 0.984923
O O16 0.233862 0.500000 0.931519
O O17 0.191140 0.500000 0.418523
O O18 0.335508 0.282595 0.548141
O O19 0.481578 0.500000 0.704689
#
# Coordination Sequence:
#
# PCOD9155322 Si02
#       7
#     4   4   4   4   4   4   4
#     4   9  18  32  53  84 117 143 175 228 288 335
#     4  10  21  35  52  75 109 149 187 232 281 330
#     4  10  20  37  62  87 113 147 189 233 279 335
#     4  11  22  37  57  81 115 150 186 232 283 336
#     4  10  19  33  57  84 108 141 186 232 278 332
#     4   9  19  34  54  84 117 146 180 232 287 333
#     4  10  20  35  57  82 112 146 189 234 277 334
#
# _framework density 17.926036
#
# number of rings (size 3 to 8) (size 9 to 14) (size 15 to 20)
#    0.000    2.143    0.000    5.143    2.000    4.286 
#    0.000    4.286    0.000    5.143    0.000    0.000 
#    0.000    0.000    0.000    0.000    0.000    0.000 
#
# Total GULP energy -156129.208379 kJ/mol
# GULP energy per Si atom -5576.043156 kJ/mol
# Density = 1.788524 g / cm^3
# Si number density = 17.926036 Si / 1000 Ang^3
#
#
#
# Elastic Constant Matrix: (Units=GPa)
#
#
# Indices 1 2 3 4 5 6 
#
# 1 176.0983 39.6370 65.3613 0.0000 -1.3249 0.0000
# 2 39.6370 81.5416 27.1320 0.0000 4.6471 0.0000
# 3 65.3613 27.1320 104.6183 0.0000 11.4790 0.0000
# 4 0.0000 0.0000 0.0000 8.8036 0.0000 -4.4008
# 5 -1.3249 4.6471 11.4790 0.0000 28.9434 0.0000
# 6 0.0000 0.0000 0.0000 -4.4008 0.0000 31.2704
#
#
#
# Elastic Compliance Matrix: (Units=1/GPa)
#
#
# Indices 1 2 3 4 5 6 
#
# 1 0.007973 -0.002486 -0.004621 0.000000 0.002597 0.000000
# 2 -0.002486 0.014215 -0.001956 0.000000 -0.001621 0.000000
# 3 -0.004621 -0.001956 0.013531 0.000000 -0.005264 0.000000
# 4 0.000000 0.000000 0.000000 0.122187 0.000000 0.017196
# 5 0.002597 -0.001621 -0.005264 0.000000 0.037017 0.000000
# 6 0.000000 0.000000 0.000000 0.017196 0.000000 0.034399
#
#
# Mechanical properties :
#
#
# Convention : Reuss Voigt Hill
#
# Bulk Modulus (GPa) = 56.84194 69.61320 63.22757
# Shear Modulus (GPa) = 19.73852 29.14534 24.44193
#
# Velocity S-wave (km/s) = 3.32190 4.03658 3.69655
# Velocity P-wave (km/s) = 6.81845 7.78737 7.31896
#
# Compressibility (1/GPa) = 0.01759264
#
# Stress axis : x y z
#
# Youngs Moduli (GPa) = 125.42245 70.34749 73.90647
#
# Poissons Ratio (x) = 0.17488 0.34156
# Poissons Ratio (y) = 0.31179 0.14454
# Poissons Ratio (z) = 0.57964 0.13758
#
# Static dielectric constant tensor:
#      x y z
#    x 1.629850 0.000000 0.006600 
#    y 0.000000 1.596450 0.000000 
#    z 0.006600 0.000000 1.624140 
# 
# From -- ./inp_files/68712.got.cif
#   From: 2010.05.17/outbox.ucp.g08.bks.cvg/sg10_35_cif.got.tgz:68712.got - 2010.06.11 11:31:16.
