data_PCOD9155507
_publ_section_title
;
Structure prediction by ZEFSAII (Michael W. Deem and Ramdas Pophale) SiO2 
 PCOD9155507
Probable space group: P 2/M
;
_chemical_formula_sum "Si O2"
_cell_formula_units_Z 28
_cell_length_a 9.000000
_cell_length_b 9.000000
_cell_length_c 27.000000
_cell_angle_alpha 90.000000
_cell_angle_beta 40.000000
_cell_angle_gamma 90.000000
_cell_volume 1405.776502
_symmetry_space_group_name_H-M "P 2/M"
_symmetry_group_IT_number 10
_symmetry_cell_setting 'monoclinic'
loop_
_space_group_symop_operation_xyz
x,y,z
-x,y,-z
-x,-y,-z
x,-y,z
loop_
_atom_site_type_symbol
_atom_site_label
_atom_site_fract_x
_atom_site_fract_y
_atom_site_fract_z
Si Si1 0.609129 0.320893 0.525230
Si Si2 0.502934 0.675878 0.334959
Si Si3 0.183853 0.176625 0.245558
Si Si4 0.656250 0.321211 0.109118
Si Si5 0.967202 0.323312 0.819343
Si Si6 0.084750 0.821528 0.381881
Si Si7 0.868479 0.321375 0.953320
O O1 0.500000 0.272237 0.500000
O O2 0.622621 0.500000 0.519825
O O3 0.486612 0.282337 0.608972
O O4 0.861647 0.249854 0.464104
O O5 0.445637 0.500000 0.347644
O O6 0.756307 0.694891 0.246990
O O7 0.311404 0.762828 0.352445
O O8 0.447056 0.229005 0.183811
O O9 0.072369 0.222913 0.326626
O O10 0.101705 0.249491 0.215054
O O11 0.161822 0.000000 0.246936
O O12 0.615063 0.500000 0.120833
O O13 0.883409 0.293270 0.084155
O O14 0.693500 0.276160 0.041819
O O15 0.916944 0.500000 0.827918
O O16 0.856641 0.266806 0.899592
O O17 0.079610 0.000000 0.385557
O O18 0.846787 0.500000 0.955317
#
# Coordination Sequence:
#
# PCOD9155507 Si02
#       7
#     4   4   4   4   4   4   4
#     4  10  21  38  60  86 114 141 175 222 270 316
#     4  10  21  37  60  87 110 137 179 226 268 316
#     4  11  24  38  51  76 112 146 183 224 267 318
#     4   9  17  34  59  82 106 139 178 222 271 321
#     4  10  20  36  58  82 108 141 180 222 271 322
#     4  11  24  39  56  79 110 148 185 221 265 320
#     4   8  16  32  57  86 108 132 177 228 268 317
#
# _framework density 19.917818
#
# number of rings (size 3 to 8) (size 9 to 14) (size 15 to 20)
#    0.000    2.143    0.000    3.857    0.000    8.286 
#    0.000    5.714    0.000    0.000    0.000    0.000 
#    0.000    0.000    0.000    0.000    0.000    0.000 
#
# Total GULP energy -156233.412085 kJ/mol
# GULP energy per Si atom -5579.764717 kJ/mol
# Density = 1.987248 g / cm^3
# Si number density = 19.917818 Si / 1000 Ang^3
#
#
#
# Elastic Constant Matrix: (Units=GPa)
#
#
# Indices 1 2 3 4 5 6 
#
# 1 49.7570 4.8399 -16.7345 0.0000 22.5030 0.0000
# 2 4.8399 5.6541 3.5737 0.0000 6.6145 0.0000
# 3 -16.7345 3.5737 60.4440 0.0000 23.6633 0.0000
# 4 0.0000 0.0000 0.0000 99.7635 0.0000 -166.9130
# 5 22.5030 6.6145 23.6633 0.0000 38.3707 0.0000
# 6 0.0000 0.0000 0.0000 -166.9130 0.0000 384.8857
#
#
#
# Elastic Compliance Matrix: (Units=1/GPa)
#
#
# Indices 1 2 3 4 5 6 
#
# 1 0.062362 -0.008621 0.041541 0.000000 -0.060705 0.000000
# 2 -0.008621 0.223005 -0.003297 0.000000 -0.031353 0.000000
# 3 0.041541 -0.003297 0.049508 0.000000 -0.054326 0.000000
# 4 0.000000 0.000000 0.000000 0.036525 0.000000 0.015840
# 5 -0.060705 -0.031353 -0.054326 0.000000 0.100570 0.000000
# 6 0.000000 0.000000 0.000000 0.015840 0.000000 0.009467
#
#
# Mechanical properties :
#
#
# Convention : Reuss Voigt Hill
#
# Bulk Modulus (GPa) = 2.53730 11.02369 6.78050
# Shear Modulus (GPa) = 9.03235 112.88239 60.95737
#
# Velocity S-wave (km/s) = 2.13182 7.53639 5.53813
# Velocity P-wave (km/s) = 2.70854 9.01533 6.65629
#
# Compressibility (1/GPa) = 0.39411932
#
# Stress axis : x y z
#
# Youngs Moduli (GPa) = 16.03544 4.48421 20.19869
#
# Poissons Ratio (x) = 0.03866 -0.83907
# Poissons Ratio (y) = 0.13824 0.06660
# Poissons Ratio (z) = -0.66612 0.01479
#
# Static dielectric constant tensor:
#      x y z
#    x 1.704500 0.000000 0.007170 
#    y 0.000000 1.662070 0.000000 
#    z 0.007170 0.000000 1.749340 
# 
# From -- ./inp_files/37128.got.cif
#   From: 2010.05.17/outbox.ucp.g08.bks.cvg/sg10_19_cif.got.tgz:37128.got - 2010.06.11 11:31:16.
