data_PCOD9155902
_publ_section_title
;
Structure prediction by ZEFSAII (Michael W. Deem and Ramdas Pophale) SiO2 
 PCOD9155902
Probable space group: P 21/M
;
_chemical_formula_sum "Si O2"
_cell_formula_units_Z 32
_cell_length_a 20.959555
_cell_length_b 9.061773
_cell_length_c 12.493595
_cell_angle_alpha 90.000000
_cell_angle_beta 65.334004
_cell_angle_gamma 90.000000
_cell_volume 2156.403152
_symmetry_space_group_name_H-M "P 21/M"
_symmetry_group_IT_number 11
_symmetry_cell_setting 'monoclinic'
loop_
_space_group_symop_operation_xyz
x,y,z
-x,1/2+y,-z
-x,-y,-z
x,1/2-y,z
loop_
_atom_site_type_symbol
_atom_site_label
_atom_site_fract_x
_atom_site_fract_y
_atom_site_fract_z
Si Si1 0.381750 0.577518 0.898947
Si Si2 0.197198 0.073362 0.215370
Si Si3 0.666644 0.079186 0.817142
Si Si4 0.113618 0.925076 0.929328
Si Si5 0.999868 0.574259 0.837395
Si Si6 0.039298 0.072381 0.373693
Si Si7 0.758521 0.573217 0.058717
Si Si8 0.516280 0.071863 0.873125
O O1 0.387774 0.750000 0.867725
O O2 0.318515 0.498237 0.881262
O O3 0.456450 0.495079 0.839027
O O4 0.358688 0.569157 0.040784
O O5 0.198319 0.250000 0.218760
O O6 0.120586 0.023270 0.306580
O O7 0.262149 0.012133 0.238083
O O8 0.210683 0.033402 0.081221
O O9 0.681952 0.250000 0.784465
O O10 0.598259 0.034829 0.796087
O O11 0.123342 0.750000 0.935385
O O12 0.073578 0.952438 0.845274
O O13 0.186641 0.008157 0.895191
O O14 0.059482 0.985705 0.056598
O O15 0.983809 0.750000 0.859153
O O16 0.996986 0.537061 0.714681
O O17 0.038699 0.250000 0.385626
O O18 0.000000 0.000000 0.500000
O O19 0.754430 0.750000 0.067803
O O20 0.510428 0.250000 0.883737
O O21 0.500000 0.000000 0.000000
#
# Coordination Sequence:
#
# PCOD9155902 Si02
#       8
#     4   4   4   4   4   4   4   4
#     4   9  16  24  34  52  76 102 137 173 200 243
#     4   9  17  28  41  55  76 104 136 170 210 253
#     4   8  15  24  35  51  72  97 132 172 203 237
#     4  10  18  27  45  66  83 107 139 176 212 253
#     4   9  18  33  46  60  85 110 136 173 218 260
#     4  10  20  34  47  62  83 110 142 178 219 260
#     4  10  17  27  41  57  82 112 136 170 213 251
#     4   9  15  23  33  48  71 102 135 169 205 242
#
# _framework density 14.839525
#
# number of rings (size 3 to 8) (size 9 to 14) (size 15 to 20)
#    0.000    2.750    1.250    2.250    0.000    5.500 
#    0.000    0.000    0.000    0.000    0.000    0.000 
#    0.000    0.000    0.000    1.125    0.000   14.375 
#
# Total GULP energy -178139.058700 kJ/mol
# GULP energy per Si atom -5566.845584 kJ/mol
# Density = 1.480575 g / cm^3
# Si number density = 14.839525 Si / 1000 Ang^3
#
#
#
# Elastic Constant Matrix: (Units=GPa)
#
#
# Indices 1 2 3 4 5 6 
#
# 1 157.8895 60.4917 36.5658 0.0000 -8.1355 0.0000
# 2 60.4917 49.1859 18.6098 0.0000 -1.6708 0.0000
# 3 36.5658 18.6098 42.3776 0.0000 1.4343 0.0000
# 4 0.0000 0.0000 0.0000 14.0025 0.0000 -3.6923
# 5 -8.1355 -1.6708 1.4343 0.0000 10.2189 0.0000
# 6 0.0000 0.0000 0.0000 -3.6923 0.0000 31.1043
#
#
#
# Elastic Compliance Matrix: (Units=1/GPa)
#
#
# Indices 1 2 3 4 5 6 
#
# 1 0.013608 -0.014220 -0.005813 0.000000 0.009325 0.000000
# 2 -0.014220 0.039555 -0.004960 0.000000 -0.004158 0.000000
# 3 -0.005813 -0.004960 0.031123 0.000000 -0.009807 0.000000
# 4 0.000000 0.000000 0.000000 0.073724 0.000000 0.008751
# 5 0.009325 -0.004158 -0.009807 0.000000 0.105978 0.000000
# 6 0.000000 0.000000 0.000000 0.008751 0.000000 0.033189
#
#
# Mechanical properties :
#
#
# Convention : Reuss Voigt Hill
#
# Bulk Modulus (GPa) = 29.15365 53.42083 41.28724
# Shear Modulus (GPa) = 13.94325 19.98419 16.96372
#
# Velocity S-wave (km/s) = 3.06862 3.67370 3.38471
# Velocity P-wave (km/s) = 5.67836 7.35336 6.56947
#
# Compressibility (1/GPa) = 0.03430103
#
# Stress axis : x y z
#
# Youngs Moduli (GPa) = 73.48375 25.28106 32.13053
#
# Poissons Ratio (x) = 0.35951 0.18677
# Poissons Ratio (y) = 1.04496 0.15935
# Poissons Ratio (z) = 0.42716 0.12538
#
# Static dielectric constant tensor:
#      x y z
#    x 1.535260 0.000000 -0.001850 
#    y 0.000000 1.496790 0.000000 
#    z -0.001850 0.000000 1.447450 
# 
# From -- ./inp_files/42471.got.cif
#   From: 2010.05.17/outbox.cif.g08.bks.cpg/sg11_22_cif.got.tgz:42471.got - 2010.06.03 12:22:45.
