data_PCOD9155178
_publ_section_title
;
Structure prediction by ZEFSAII (Michael W. Deem and Ramdas Pophale) SiO2 
 PCOD9155178
Probable space group: P 2/M
;
_chemical_formula_sum "Si O2"
_cell_formula_units_Z 32
_cell_length_a 21.000000
_cell_length_b 9.000000
_cell_length_c 27.000000
_cell_angle_alpha 90.000000
_cell_angle_beta 160.000000
_cell_angle_gamma 90.000000
_cell_volume 1745.328791
_symmetry_space_group_name_H-M "P 2/M"
_symmetry_group_IT_number 10
_symmetry_cell_setting 'monoclinic'
loop_
_space_group_symop_operation_xyz
x,y,z
-x,y,-z
-x,-y,-z
x,-y,z
loop_
_atom_site_type_symbol
_atom_site_label
_atom_site_fract_x
_atom_site_fract_y
_atom_site_fract_z
Si Si1 0.514931 0.171252 0.345972
Si Si2 0.519895 0.673580 0.954959
Si Si3 0.800990 0.324591 0.839383
Si Si4 0.091415 0.178825 0.758414
Si Si5 0.214248 0.678890 0.649414
Si Si6 0.170012 0.178689 0.345707
Si Si7 0.714842 0.826507 0.673428
Si Si8 0.194863 0.175116 0.531270
O O1 0.343464 0.279340 0.223865
O O2 0.636139 0.199518 0.483944
O O3 0.648585 0.188523 0.396765
O O4 0.452925 0.000000 0.302364
O O5 0.556608 0.500000 0.969855
O O6 0.349286 0.721312 0.794186
O O7 0.500000 0.680252 0.000000
O O8 0.699832 0.773996 0.079297
O O9 0.808445 0.500000 0.840214
O O10 0.745794 0.257990 0.746450
O O11 0.000000 0.263538 0.000000
O O12 0.977901 0.236521 0.722968
O O13 0.993099 0.230426 0.634968
O O14 0.072993 0.000000 0.743587
O O15 0.217463 0.500000 0.649753
O O16 0.258274 0.742830 0.627255
O O17 0.000000 0.727052 0.500000
O O18 0.172829 0.235468 0.291990
O O19 0.145718 0.000000 0.324251
O O20 0.500000 0.820786 0.500000
O O21 0.761794 0.000000 0.715235
O O22 0.170543 0.000000 0.524861
#
# Coordination Sequence:
#
# PCOD9155178 Si02
#       8
#     4   4   4   4   4   4   4   4
#     4   9  17  35  59  79 103 138 183 224 264 320
#     4  10  21  37  56  79 108 142 181 221 259 309
#     4  11  24  38  50  74 113 148 178 222 275 321
#     4   9  18  34  56  81 111 140 171 216 271 321
#     4  10  21  37  57  80 108 146 186 221 260 313
#     4   8  15  31  55  82 106 131 171 224 268 311
#     4  10  18  33  60  83 101 135 183 229 270 315
#     4   9  19  35  58  85 109 137 176 225 270 316
#
# _framework density 18.334654
#
# number of rings (size 3 to 8) (size 9 to 14) (size 15 to 20)
#    0.000    2.500    1.250    2.625    0.000    4.250 
#    2.250    2.500    0.000    0.000    0.000    0.000 
#    0.000    0.000    0.000    0.000    0.000    0.000 
#
# Total GULP energy -178136.745711 kJ/mol
# GULP energy per Si atom -5566.773303 kJ/mol
# Density = 1.829292 g / cm^3
# Si number density = 18.334654 Si / 1000 Ang^3
#
#
#
# Elastic Constant Matrix: (Units=GPa)
#
#
# Indices 1 2 3 4 5 6 
#
# 1 71.4861 23.3598 42.2591 0.0000 -15.5177 0.0000
# 2 23.3598 11.3155 29.0146 0.0000 -5.4949 0.0000
# 3 42.2591 29.0146 57.2280 0.0000 -47.0781 0.0000
# 4 0.0000 0.0000 0.0000 27.0907 0.0000 -0.5937
# 5 -15.5177 -5.4949 -47.0781 0.0000 -2.3066 0.0000
# 6 0.0000 0.0000 0.0000 -0.5937 0.0000 27.1489
#
#
#
# Elastic Compliance Matrix: (Units=1/GPa)
#
#
# Indices 1 2 3 4 5 6 
#
# 1 0.038075 -0.083149 -0.001896 0.000000 -0.019372 0.000000
# 2 -0.083149 0.388532 -0.024554 0.000000 0.134970 0.000000
# 3 -0.001896 -0.024554 0.005055 0.000000 -0.031931 0.000000
# 4 0.000000 0.000000 0.000000 0.036931 0.000000 0.000808
# 5 -0.019372 0.134970 -0.031931 0.000000 0.026978 0.000000
# 6 0.000000 0.000000 0.000000 0.000808 0.000000 0.036852
#
#
# Mechanical properties :
#
#
# Convention : Reuss Voigt Hill
#
# Bulk Modulus (GPa) = 4.70668 36.58853 20.64760
# Shear Modulus (GPa) = 6.07945 13.41300 9.74622
#
# Velocity S-wave (km/s) = 1.82292 2.70768 2.30809
# Velocity P-wave (km/s) = 2.64639 5.45661 4.28824
#
# Compressibility (1/GPa) = 0.21246417
#
# Stress axis : x y z
#
# Youngs Moduli (GPa) = 26.26369 2.57379 197.80815
#
# Poissons Ratio (x) = 0.21401 0.37507
# Poissons Ratio (y) = 2.18379 4.85705
# Poissons Ratio (z) = 0.04980 0.06320
#
# Static dielectric constant tensor:
#      x y z
#    x 1.668530 0.000000 0.042900 
#    y 0.000000 1.619920 0.000000 
#    z 0.042900 0.000000 1.637040 
# 
# From -- ./inp_files/93818.got.cif
#   From: 2010.05.17/outbox.ucp.g08.bks.cvg/sg10_47_cif.got.tgz:93818.got - 2010.06.11 11:31:16.
