data_PCOD9155953
_publ_section_title
;
Structure prediction by ZEFSAII (Michael W. Deem and Ramdas Pophale) SiO2 
 PCOD9155953
Probable space group: P 21/M
;
_chemical_formula_sum "Si O2"
_cell_formula_units_Z 28
_cell_length_a 15.178839
_cell_length_b 8.056831
_cell_length_c 13.792202
_cell_angle_alpha 90.000000
_cell_angle_beta 76.323121
_cell_angle_gamma 90.000000
_cell_volume 1638.867584
_symmetry_space_group_name_H-M "P 21/M"
_symmetry_group_IT_number 11
_symmetry_cell_setting 'monoclinic'
loop_
_space_group_symop_operation_xyz
x,y,z
-x,1/2+y,-z
-x,-y,-z
x,1/2-y,z
loop_
_atom_site_type_symbol
_atom_site_label
_atom_site_fract_x
_atom_site_fract_y
_atom_site_fract_z
Si Si1 0.273922 0.556702 0.144233
Si Si2 0.106233 0.052386 0.862172
Si Si3 0.296358 0.559339 0.770176
Si Si4 0.388614 0.058080 0.936882
Si Si5 0.436140 0.546754 0.219692
Si Si6 0.461580 0.448528 0.613335
Si Si7 0.902494 0.451844 0.911654
O O1 0.258544 0.750000 0.171039
O O2 0.190506 0.524901 0.783718
O O3 0.336685 0.543009 0.032170
O O4 0.176634 0.485357 0.138695
O O5 0.110195 0.250000 0.850649
O O6 0.004972 0.995557 0.860026
O O7 0.116693 0.008698 0.973426
O O8 0.308784 0.750000 0.795367
O O9 0.331644 0.451679 0.851755
O O10 0.362344 0.519551 0.663883
O O11 0.393775 0.250000 0.966435
O O12 0.488101 0.996457 0.879421
O O13 0.337323 0.013657 0.212897
O O14 0.435813 0.750000 0.218330
O O15 0.472925 0.495223 0.315138
O O16 0.500000 0.500000 0.500000
O O17 0.456004 0.250000 0.619589
O O18 0.900223 0.250000 0.913315
#
# Coordination Sequence:
#
# PCOD9155953 Si02
#       7
#     4   4   4   4   4   4   4
#     4  10  17  28  44  64  91 126 160 189 222 270
#     4  10  18  29  43  63  93 126 160 199 235 269
#     4  11  20  31  48  69  92 124 161 196 234 279
#     4  10  18  28  41  63  93 126 158 192 228 268
#     4   8  17  30  45  65  92 121 152 187 227 276
#     4  10  20  36  54  74  96 119 149 190 238 284
#     4   9  18  28  42  64  92 127 164 195 228 270
#
# _framework density 17.084966999999999
#
# number of rings (size 3 to 8) (size 9 to 14) (size 15 to 20)
#    0.000    2.286    1.429    3.857    0.000    0.571 
#    0.000    3.571    0.000    0.000    0.000    1.000 
#    0.000    0.000    0.000    0.000    0.000    0.000 
#
# Total GULP energy -156128.374284 kJ/mol
# GULP energy per Si atom -5576.013367 kJ/mol
# Density = 1.704608 g / cm^3
# Si number density = 17.084967 Si / 1000 Ang^3
#
#
#
# Elastic Constant Matrix: (Units=GPa)
#
#
# Indices 1 2 3 4 5 6 
#
# 1 163.5921 11.7676 50.2438 0.0000 4.6842 0.0000
# 2 11.7676 32.0771 1.3612 0.0000 -0.3647 0.0000
# 3 50.2438 1.3612 61.6969 0.0000 -7.2642 0.0000
# 4 0.0000 0.0000 0.0000 16.6810 0.0000 -5.3212
# 5 4.6842 -0.3647 -7.2642 0.0000 18.3792 0.0000
# 6 0.0000 0.0000 0.0000 -5.3212 0.0000 14.9116
#
#
#
# Elastic Compliance Matrix: (Units=1/GPa)
#
#
# Indices 1 2 3 4 5 6 
#
# 1 0.008878 -0.002987 -0.007801 0.000000 -0.005405 0.000000
# 2 -0.002987 0.032212 0.001979 0.000000 0.002183 0.000000
# 3 -0.007801 0.001979 0.023866 0.000000 0.011460 0.000000
# 4 0.000000 0.000000 0.000000 0.067649 0.000000 0.024141
# 5 -0.005405 0.002183 0.011460 0.000000 0.060360 0.000000
# 6 0.000000 0.000000 0.000000 0.024141 0.000000 0.075677
#
#
# Mechanical properties :
#
#
# Convention : Reuss Voigt Hill
#
# Bulk Modulus (GPa) = 21.12439 42.67905 31.90172
# Shear Modulus (GPa) = 16.55413 22.92723 19.74068
#
# Velocity S-wave (km/s) = 3.11614 3.66724 3.40287
# Velocity P-wave (km/s) = 5.03371 6.55486 5.84399
#
# Compressibility (1/GPa) = 0.04733865
#
# Stress axis : x y z
#
# Youngs Moduli (GPa) = 112.63523 31.04467 41.89976
#
# Poissons Ratio (x) = 0.09274 0.32684
# Poissons Ratio (y) = 0.33649 -0.08293
# Poissons Ratio (z) = 0.87862 -0.06144
#
# Static dielectric constant tensor:
#      x y z
#    x 1.640180 0.000000 0.025810 
#    y 0.000000 1.608690 0.000000 
#    z 0.025810 0.000000 1.546700 
# 
# From -- ./inp_files/42097.got.cif
#   From: 2010.05.17/outbox.cif.g08.bks.cpg/sg11_22_cif.got.tgz:42097.got - 2010.06.03 12:22:45.
