data_PCOD9155296
_publ_section_title
;
Structure prediction by ZEFSAII (Michael W. Deem and Ramdas Pophale) SiO2 
 PCOD9155296
Probable space group: P 2/M
;
_chemical_formula_sum "Si O2"
_cell_formula_units_Z 32
_cell_length_a 12.000000
_cell_length_b 9.000000
_cell_length_c 21.000000
_cell_angle_alpha 90.000000
_cell_angle_beta 50.000000
_cell_angle_gamma 90.000000
_cell_volume 1737.388797
_symmetry_space_group_name_H-M "P 2/M"
_symmetry_group_IT_number 10
_symmetry_cell_setting 'monoclinic'
loop_
_space_group_symop_operation_xyz
x,y,z
-x,y,-z
-x,-y,-z
x,-y,z
loop_
_atom_site_type_symbol
_atom_site_label
_atom_site_fract_x
_atom_site_fract_y
_atom_site_fract_z
Si Si1 0.926715 0.174482 0.128375
Si Si2 0.906477 0.677776 0.271075
Si Si3 0.863168 0.824844 0.593300
Si Si4 0.174199 0.678422 0.258286
Si Si5 0.771885 0.173819 0.053965
Si Si6 0.490257 0.323307 0.173040
Si Si7 0.605890 0.179334 0.402671
Si Si8 0.460488 0.823436 0.321928
O O1 0.904325 0.270240 0.198840
O O2 0.827232 0.215740 0.104524
O O3 0.898907 0.000000 0.152806
O O4 0.090985 0.189005 0.042635
O O5 0.899085 0.500000 0.277801
O O6 0.763381 0.749280 0.354470
O O7 0.054839 0.730439 0.251252
O O8 0.868020 0.731107 0.655723
O O9 0.713376 0.800363 0.610036
O O10 0.000000 0.790018 0.500000
O O11 0.866360 0.000000 0.609097
O O12 0.174027 0.500000 0.255382
O O13 0.342621 0.728225 0.192113
O O14 0.634621 0.269681 0.085262
O O15 0.732224 0.000000 0.070882
O O16 0.485979 0.500000 0.180016
O O17 0.498248 0.255432 0.241469
O O18 0.500000 0.219176 0.500000
O O19 0.541246 0.224742 0.356947
O O20 0.618184 0.000000 0.397146
O O21 0.488172 0.000000 0.304232
#
# Coordination Sequence:
#
# PCOD9155296 Si02
#       8
#     4   4   4   4   4   4   4   4
#     4   9  19  36  57  82 110 143 174 210 264 320
#     4  11  23  38  55  76 108 144 180 220 261 312
#     4   9  18  31  53  79  99 125 171 226 265 303
#     4   9  21  38  51  71 105 145 179 212 263 319
#     4   9  18  34  57  83 111 137 171 217 265 314
#     4  10  19  33  54  78 104 138 178 217 261 312
#     4  10  22  37  55  77 104 140 176 214 266 322
#     4   9  18  33  50  74 105 133 167 214 266 313
#
# _framework density 18.418444999999998
#
# number of rings (size 3 to 8) (size 9 to 14) (size 15 to 20)
#    0.000    2.500    0.000    2.250    1.750    6.500 
#    0.000    1.875    0.000    3.750    0.000    0.000 
#    0.000    0.000    0.000    0.000    0.000    0.000 
#
# Total GULP energy -178462.076068 kJ/mol
# GULP energy per Si atom -5576.939877 kJ/mol
# Density = 1.837652 g / cm^3
# Si number density = 18.418445 Si / 1000 Ang^3
#
#
#
# Elastic Constant Matrix: (Units=GPa)
#
#
# Indices 1 2 3 4 5 6 
#
# 1 62.6511 29.7141 47.5085 0.0000 -12.9022 0.0000
# 2 29.7141 12.6087 23.1038 0.0000 -9.0332 0.0000
# 3 47.5085 23.1038 45.3848 0.0000 -17.7388 0.0000
# 4 0.0000 0.0000 0.0000 28.8084 0.0000 0.5274
# 5 -12.9022 -9.0332 -17.7388 0.0000 25.8627 0.0000
# 6 0.0000 0.0000 0.0000 0.5274 0.0000 27.3267
#
#
#
# Elastic Compliance Matrix: (Units=1/GPa)
#
#
# Indices 1 2 3 4 5 6 
#
# 1 -0.040212 0.262439 -0.086784 0.000000 0.012079 0.000000
# 2 0.262439 -0.532613 -0.034324 0.000000 -0.078647 0.000000
# 3 -0.086784 -0.034324 0.148574 0.000000 0.046622 0.000000
# 4 0.000000 0.000000 0.000000 0.034724 0.000000 -0.000670
# 5 0.012079 -0.078647 0.046622 0.000000 0.049199 0.000000
# 6 0.000000 0.000000 0.000000 -0.000670 0.000000 0.036607
#
#
# Mechanical properties :
#
#
# Convention : Reuss Voigt Hill
#
# Bulk Modulus (GPa) = -7.06270 35.69970 14.31850
# Shear Modulus (GPa) = -7.89169 17.75409 4.93120
#
# Velocity S-wave (km/s) = -2.07219 3.10809 1.63803
# Velocity P-wave (km/s) = 3.09325 5.68375 3.37170
#
# Compressibility (1/GPa) = -0.14158887
#
# Stress axis : x y z
#
# Youngs Moduli (GPa) = -24.86827 -1.87754 6.73066
#
# Poissons Ratio (x) = 0.49274 0.58411
# Poissons Ratio (y) = 6.52640 0.23102
# Poissons Ratio (z) = -2.15816 -0.06444
#
# Static dielectric constant tensor:
#      x y z
#    x 1.635690 0.000000 -0.039870 
#    y 0.000000 1.621380 0.000000 
#    z -0.039870 0.000000 1.639880 
# 
# From -- ./inp_files/83533.got.cif
#   From: 2010.05.17/outbox.ucp.g08.bks.cvg/sg10_42_cif.got.tgz:83533.got - 2010.06.11 11:31:16.
