data_PCOD9155064
_publ_section_title
;
Structure prediction by ZEFSAII (Michael W. Deem and Ramdas Pophale) SiO2 
 PCOD9155064
Probable space group: P 2/M
;
_chemical_formula_sum "Si O2"
_cell_formula_units_Z 28
_cell_length_a 24.068865
_cell_length_b 7.520623
_cell_length_c 21.078188
_cell_angle_alpha 90.000000
_cell_angle_beta 160.438087
_cell_angle_gamma 90.000000
_cell_volume 1277.500062
_symmetry_space_group_name_H-M "P 2/M"
_symmetry_group_IT_number 10
_symmetry_cell_setting 'monoclinic'
loop_
_space_group_symop_operation_xyz
x,y,z
-x,y,-z
-x,-y,-z
x,-y,z
loop_
_atom_site_type_symbol
_atom_site_label
_atom_site_fract_x
_atom_site_fract_y
_atom_site_fract_z
Si Si1 0.656895 0.704004 0.860312
Si Si2 0.462362 0.782101 0.887082
Si Si3 0.890808 0.793385 0.542162
Si Si4 0.090930 0.295147 0.158661
Si Si5 0.953479 0.704005 0.750062
Si Si6 0.476800 0.704855 0.544531
Si Si7 0.260541 0.793383 0.911894
O O1 0.597963 0.500000 0.804114
O O2 0.561003 0.785737 0.697489
O O3 0.653437 0.785847 0.926317
O O4 0.849380 0.703559 0.048140
O O5 0.279192 0.718150 0.669252
O O6 0.459954 0.000000 0.879857
O O7 0.500000 0.735743 0.000000
O O8 0.610873 0.718152 0.000933
O O9 0.880554 0.785846 0.607675
O O10 0.072432 0.717011 0.717302
O O11 0.895085 0.000000 0.528089
O O12 0.024414 0.500000 0.092989
O O13 0.075482 0.214263 0.211967
O O14 0.282953 0.302710 0.348860
O O15 0.000000 0.213757 0.000000
O O16 0.891812 0.500000 0.685661
O O17 0.500000 0.786241 0.500000
O O18 0.544158 0.500000 0.612733
O O19 0.237914 0.000000 0.870917
#
# Coordination Sequence:
#
# PCOD9155064 Si02
#       7
#     4   4   4   4   4   4   4
#     4   9  17  29  46  68  93 122 156 195 236 279
#     4   9  18  32  51  75  99 123 157 199 237 279
#     4   9  18  32  50  72  97 125 156 192 236 282
#     4   9  16  25  39  61  89 120 154 194 236 275
#     4   9  17  29  46  68  93 122 156 195 236 279
#     4   9  16  25  39  61  89 120 154 194 236 275
#     4   9  18  32  50  72  97 125 156 192 236 282
#
# _framework density 21.917807
#
# number of rings (size 3 to 8) (size 9 to 14) (size 15 to 20)
#    0.000    3.000    0.000    0.857    2.000    4.000 
#    0.000    2.857    0.000    2.571    0.000    4.000 
#    0.000    0.000    0.000    0.000    0.000    0.000 
#
# Total GULP energy -156068.561561 kJ/mol
# GULP energy per Si atom -5573.877199 kJ/mol
# Density = 2.186792 g / cm^3
# Si number density = 21.917807 Si / 1000 Ang^3
#
#
#
# Elastic Constant Matrix: (Units=GPa)
#
#
# Indices 1 2 3 4 5 6 
#
# 1 193.8360 4.3620 94.3727 0.0000 -6.6240 0.0000
# 2 4.3620 54.4473 7.9258 0.0000 3.3758 0.0000
# 3 94.3727 7.9258 156.0942 0.0000 -29.1240 0.0000
# 4 0.0000 0.0000 0.0000 -1.1832 0.0000 -7.7453
# 5 -6.6240 3.3758 -29.1240 0.0000 24.9167 0.0000
# 6 0.0000 0.0000 0.0000 -7.7453 0.0000 6.9913
#
#
#
# Elastic Compliance Matrix: (Units=1/GPa)
#
#
# Indices 1 2 3 4 5 6 
#
# 1 0.007669 0.000460 -0.005488 0.000000 -0.004438 0.000000
# 2 0.000460 0.018954 -0.002170 0.000000 -0.004982 0.000000
# 3 -0.005488 -0.002170 0.012299 0.000000 0.013211 0.000000
# 4 0.000000 0.000000 0.000000 -0.102419 0.000000 -0.113464
# 5 -0.004438 -0.004982 0.013211 0.000000 0.055071 0.000000
# 6 0.000000 0.000000 0.000000 -0.113464 0.000000 0.017334
#
#
# Mechanical properties :
#
#
# Convention : Reuss Voigt Hill
#
# Bulk Modulus (GPa) = 40.77243 68.63316 54.70279
# Shear Modulus (GPa) = 158.82697 25.99274 92.40986
#
# Velocity S-wave (km/s) = 8.52186 3.44745 6.50027
# Velocity P-wave (km/s) = 10.74580 6.87229 9.01944
#
# Compressibility (1/GPa) = 0.02452638
#
# Stress axis : x y z
#
# Youngs Moduli (GPa) = 130.39696 52.75843 81.30437
#
# Poissons Ratio (x) = -0.02425 0.44619
# Poissons Ratio (y) = -0.05994 0.17642
# Poissons Ratio (z) = 0.71561 0.11448
#
# Static dielectric constant tensor:
#      x y z
#    x 1.790740 0.000000 -0.010220 
#    y 0.000000 1.886030 0.000000 
#    z -0.010220 0.000000 1.779960 
# 
# From -- ./inp_files/34660.got.cif
#   From: 2010.05.17/outbox.cif.g08.bks.cpg/sg10_18_cif.got.tgz:34660.got - 2010.06.03 11:33:40.
