data_PCOD9155500
_publ_section_title
;
Structure prediction by ZEFSAII (Michael W. Deem and Ramdas Pophale) SiO2 
 PCOD9155500
Probable space group: P 2/M
;
_chemical_formula_sum "Si O2"
_cell_formula_units_Z 28
_cell_length_a 9.000000
_cell_length_b 9.000000
_cell_length_c 27.000000
_cell_angle_alpha 90.000000
_cell_angle_beta 40.000000
_cell_angle_gamma 90.000000
_cell_volume 1405.776502
_symmetry_space_group_name_H-M "P 2/M"
_symmetry_group_IT_number 10
_symmetry_cell_setting 'monoclinic'
loop_
_space_group_symop_operation_xyz
x,y,z
-x,y,-z
-x,-y,-z
x,-y,z
loop_
_atom_site_type_symbol
_atom_site_label
_atom_site_fract_x
_atom_site_fract_y
_atom_site_fract_z
Si Si1 0.027800 0.679643 0.792377
Si Si2 0.497366 0.330060 0.073661
Si Si3 0.248684 0.680532 0.323892
Si Si4 0.519420 0.680727 0.631322
Si Si5 0.724387 0.318671 0.474622
Si Si6 0.936732 0.175003 0.916413
Si Si7 0.341233 0.329284 0.855523
O O1 0.026957 0.500000 0.791498
O O2 0.763201 0.730399 0.852028
O O3 0.060912 0.742942 0.838634
O O4 0.247775 0.726288 0.702942
O O5 0.480338 0.500000 0.059443
O O6 0.591410 0.337138 0.104838
O O7 0.684942 0.242374 0.993008
O O8 0.241447 0.500000 0.324233
O O9 0.356238 0.725237 0.349433
O O10 0.434837 0.721317 0.233907
O O11 0.979113 0.730135 0.390695
O O12 0.518755 0.500000 0.630651
O O13 0.663470 0.727958 0.546406
O O14 0.500000 0.273624 0.500000
O O15 0.730373 0.500000 0.472181
O O16 0.122960 0.220444 0.909741
O O17 0.918668 0.000000 0.913343
O O18 0.280347 0.500000 0.855023
#
# Coordination Sequence:
#
# PCOD9155500 Si02
#       7
#     4   4   4   4   4   4   4
#     4  10  20  36  57  81 109 145 186 227 270 323
#     4  10  22  36  56  81 109 143 184 228 277 328
#     4   9  16  28  47  71 105 145 178 210 259 320
#     4   9  16  28  47  71 105 145 178 210 259 320
#     4   9  17  25  41  75 115 142 166 211 268 322
#     4  12  24  38  56  79 108 143 186 230 280 330
#     4  10  20  36  57  81 109 145 186 227 270 323
#
# _framework density 19.917818
#
# number of rings (size 3 to 8) (size 9 to 14) (size 15 to 20)
#    0.000    2.143    1.429    2.571    2.000    6.286 
#    0.000    0.000    0.000    0.000    0.000    2.000 
#    0.000    1.143    0.000    0.000    0.000    0.000 
#
# Total GULP energy -156004.701102 kJ/mol
# GULP energy per Si atom -5571.596468 kJ/mol
# Density = 1.987248 g / cm^3
# Si number density = 19.917818 Si / 1000 Ang^3
#
#
#
# Elastic Constant Matrix: (Units=GPa)
#
#
# Indices 1 2 3 4 5 6 
#
# 1 49.6944 -11.8835 16.2403 0.0000 -14.9645 0.0000
# 2 -11.8835 -9.7746 10.1125 0.0000 -6.7988 0.0000
# 3 16.2403 10.1125 123.7365 0.0000 -26.9233 0.0000
# 4 0.0000 0.0000 0.0000 2.8518 0.0000 -0.3708
# 5 -14.9645 -6.7988 -26.9233 0.0000 41.8067 0.0000
# 6 0.0000 0.0000 0.0000 -0.3708 0.0000 -3.6116
#
#
#
# Elastic Compliance Matrix: (Units=1/GPa)
#
#
# Indices 1 2 3 4 5 6 
#
# 1 0.015830 -0.020759 0.000136 0.000000 0.002378 0.000000
# 2 -0.020759 -0.062149 0.004638 0.000000 -0.014551 0.000000
# 3 0.000136 0.004638 0.009140 0.000000 0.006689 0.000000
# 4 0.000000 0.000000 0.000000 0.346034 0.000000 -0.035524
# 5 0.002378 -0.014551 0.006689 0.000000 0.026712 0.000000
# 6 0.000000 0.000000 0.000000 -0.035524 0.000000 -0.273241
#
#
# Mechanical properties :
#
#
# Convention : Reuss Voigt Hill
#
# Bulk Modulus (GPa) = -14.46171 21.39943 3.46886
# Shear Modulus (GPa) = 70.17780 18.15518 44.16649
#
# Velocity S-wave (km/s) = 5.94224 3.02239 4.71407
# Velocity P-wave (km/s) = 6.30902 4.79030 5.60137
#
# Compressibility (1/GPa) = -0.06914812
#
# Stress axis : x y z
#
# Youngs Moduli (GPa) = 63.16923 -16.09042 109.40580
#
# Poissons Ratio (x) = -0.33402 -0.01491
# Poissons Ratio (y) = 1.31133 -0.50739
# Poissons Ratio (z) = -0.00861 0.07462
#
# Static dielectric constant tensor:
#      x y z
#    x 1.819410 0.000000 0.000240 
#    y 0.000000 1.681200 0.000000 
#    z 0.000240 0.000000 1.688830 
# 
# From -- ./inp_files/36670.got.cif
#   From: 2010.05.17/outbox.ucp.g08.bks.cvg/sg10_19_cif.got.tgz:36670.got - 2010.06.11 11:31:16.
