data_PCOD9155205
_publ_section_title
;
Structure prediction by ZEFSAII (Michael W. Deem and Ramdas Pophale) SiO2 
 PCOD9155205
Probable space group: P 2/M
;
_chemical_formula_sum "Si O2"
_cell_formula_units_Z 32
_cell_length_a 30.000000
_cell_length_b 9.000000
_cell_length_c 21.000000
_cell_angle_alpha 90.000000
_cell_angle_beta 160.000000
_cell_angle_gamma 90.000000
_cell_volume 1939.254213
_symmetry_space_group_name_H-M "P 2/M"
_symmetry_group_IT_number 10
_symmetry_cell_setting 'monoclinic'
loop_
_space_group_symop_operation_xyz
x,y,z
-x,y,-z
-x,-y,-z
x,-y,z
loop_
_atom_site_type_symbol
_atom_site_label
_atom_site_fract_x
_atom_site_fract_y
_atom_site_fract_z
Si Si1 0.309291 0.319328 0.702901
Si Si2 0.722485 0.677707 0.560558
Si Si3 0.185211 0.179775 0.056462
Si Si4 0.332319 0.821327 0.382863
Si Si5 0.629654 0.178901 0.810226
Si Si6 0.580142 0.678282 0.874535
Si Si7 0.901525 0.319939 0.682437
Si Si8 0.405189 0.319080 0.964774
O O1 0.308300 0.500000 0.701527
O O2 0.188576 0.271547 0.497998
O O3 0.316189 0.271052 0.785858
O O4 0.446423 0.276557 0.854193
O O5 0.731070 0.500000 0.579725
O O6 0.737558 0.754050 0.649072
O O7 0.575220 0.710448 0.338926
O O8 0.825682 0.722852 0.645409
O O9 0.266529 0.223907 0.228481
O O10 0.264095 0.224857 0.099107
O O11 0.176234 0.000000 0.044386
O O12 0.043151 0.250052 0.868624
O O13 0.484620 0.777458 0.591490
O O14 0.327434 0.000000 0.380094
O O15 0.646254 0.247233 0.902408
O O16 0.631588 0.000000 0.817308
O O17 0.594785 0.500000 0.889988
O O18 0.627183 0.729785 0.007285
O O19 0.909625 0.500000 0.692504
O O20 0.403618 0.500000 0.963709
#
# Coordination Sequence:
#
# PCOD9155205 Si02
#       8
#     4   4   4   4   4   4   4   4
#     4   8  13  23  42  69  97 124 150 179 217 266
#     4   9  17  29  45  69  99 124 144 178 231 279
#     4  10  21  35  49  65  87 120 160 195 229 269
#     4   9  18  33  52  69  85 112 154 200 235 269
#     4   9  18  33  51  68  87 115 153 197 238 271
#     4   9  15  26  47  74  98 117 144 187 232 271
#     4  10  19  31  47  68  98 128 153 181 220 274
#     4   8  12  21  43  72  97 119 148 183 221 263
#
# _framework density 16.501189
#
# number of rings (size 3 to 8) (size 9 to 14) (size 15 to 20)
#    0.000    3.000    1.250    1.125    0.000    3.500 
#    0.000    2.500    0.000    5.250    0.000    7.000 
#    0.000    0.000    0.000    0.000    0.000    0.000 
#
# Total GULP energy -178241.488917 kJ/mol
# GULP energy per Si atom -5570.046529 kJ/mol
# Density = 1.646363 g / cm^3
# Si number density = 16.501189 Si / 1000 Ang^3
#
#
#
# Elastic Constant Matrix: (Units=GPa)
#
#
# Indices 1 2 3 4 5 6 
#
# 1 179.6853 29.0753 64.3674 0.0000 -6.7875 0.0000
# 2 29.0753 0.9785 12.2580 0.0000 1.3110 0.0000
# 3 64.3674 12.2580 31.6201 0.0000 9.9645 0.0000
# 4 0.0000 0.0000 0.0000 103.9423 0.0000 -70.1156
# 5 -6.7875 1.3110 9.9645 0.0000 19.2336 0.0000
# 6 0.0000 0.0000 0.0000 -70.1156 0.0000 88.5254
#
#
#
# Elastic Compliance Matrix: (Units=1/GPa)
#
#
# Indices 1 2 3 4 5 6 
#
# 1 0.320176 -0.013047 -0.815783 0.000000 0.536520 0.000000
# 2 -0.013047 -0.238811 0.137988 0.000000 -0.059815 0.000000
# 3 -0.815783 0.137988 2.070509 0.000000 -1.369985 0.000000
# 4 0.000000 0.000000 0.000000 0.020658 0.000000 0.016362
# 5 0.536520 -0.059815 -1.369985 0.000000 0.955170 0.000000
# 6 0.000000 0.000000 0.000000 0.016362 0.000000 0.024255
#
#
# Mechanical properties :
#
#
# Convention : Reuss Voigt Hill
#
# Bulk Modulus (GPa) = 1.29838 47.07615 24.18727
# Shear Modulus (GPa) = 1.04376 49.44579 25.24477
#
# Velocity S-wave (km/s) = 0.79618 5.47997 3.91561
# Velocity P-wave (km/s) = 1.27819 8.28438 5.92725
#
# Compressibility (1/GPa) = 0.77018868
#
# Stress axis : x y z
#
# Youngs Moduli (GPa) = 3.12328 -4.18742 0.48297
#
# Poissons Ratio (x) = -0.05463 0.39400
# Poissons Ratio (y) = 0.04075 -0.06664
# Poissons Ratio (z) = 2.54792 0.57781
#
# Static dielectric constant tensor:
#      x y z
#    x 1.560150 0.000000 -0.021700 
#    y 0.000000 1.554120 0.000000 
#    z -0.021700 0.000000 1.543320 
# 
# From -- ./inp_files/38226.got.cif
#   From: 2010.05.17/outbox.ucp.g08.bks.cvg/sg10_20_cif.got.tgz:38226.got - 2010.06.11 11:31:16.
