data_PCOD9155454
_publ_section_title
;
Structure prediction by ZEFSAII (Michael W. Deem and Ramdas Pophale) SiO2 
 PCOD9155454
Probable space group: P 2/M
;
_chemical_formula_sum "Si O2"
_cell_formula_units_Z 30
_cell_length_a 12.000000
_cell_length_b 15.000000
_cell_length_c 18.000000
_cell_angle_alpha 90.000000
_cell_angle_beta 150.000000
_cell_angle_gamma 90.000000
_cell_volume 1620.000000
_symmetry_space_group_name_H-M "P 2/M"
_symmetry_group_IT_number 10
_symmetry_cell_setting 'monoclinic'
loop_
_space_group_symop_operation_xyz
x,y,z
-x,y,-z
-x,-y,-z
x,-y,z
loop_
_atom_site_type_symbol
_atom_site_label
_atom_site_fract_x
_atom_site_fract_y
_atom_site_fract_z
Si Si1 0.885164 0.287919 0.295640
Si Si2 0.551748 0.604477 0.203916
Si Si3 0.275498 0.889213 0.051399
Si Si4 0.809606 0.609225 0.775677
Si Si5 0.327213 0.601714 0.552762
Si Si6 0.000000 0.759927 0.000000
Si Si7 0.196600 0.101119 0.675206
Si Si8 0.833172 0.713842 0.098526
O O1 0.761462 0.350167 0.284327
O O2 0.859309 0.185188 0.305224
O O3 0.775969 0.295923 0.151637
O O4 0.137143 0.324257 0.435611
O O5 0.528401 0.500000 0.170104
O O6 0.580549 0.608124 0.309272
O O7 0.342145 0.662170 0.055246
O O8 0.547056 0.885686 0.205642
O O9 0.222410 0.000000 0.018966
O O10 0.180663 0.820225 0.931808
O O11 0.172668 0.830747 0.060887
O O12 0.867326 0.500000 0.819509
O O13 0.541714 0.611018 0.623353
O O14 0.882615 0.686614 0.878043
O O15 0.939938 0.655098 0.782353
O O16 0.237493 0.500000 0.491732
O O17 0.000000 0.103014 0.500000
O O18 0.191835 0.000000 0.705109
#
# Coordination Sequence:
#
# PCOD9155454 Si02
#       8
#     4   4   4   4   4   2   4   4
#     4  12  24  37  59  84 124 157 197 243 292 357
#     4  11  22  37  58  86 118 153 197 245 296 352
#     4  10  21  39  62  89 121 153 197 249 299 357
#     4  10  21  37  59  86 121 158 200 244 290 352
#     4  10  22  39  61  86 112 156 204 249 297 342
#     4  10  20  34  62  96 118 152 198 248 304 342
#     4  10  22  39  63  91 119 154 197 250 306 354
#     4  11  24  39  56  88 119 163 196 235 297 355
#
# _framework density 18.518519000000001
#
# number of rings (size 3 to 8) (size 9 to 14) (size 15 to 20)
#    0.000    1.467    1.333    4.400    1.867    5.867 
#    0.000    2.667    0.000    0.000    0.000    2.800 
#    0.000    0.000    0.000    0.000    0.000    0.000 
#
# Total GULP energy -167035.633078 kJ/mol
# GULP energy per Si atom -5567.854436 kJ/mol
# Density = 1.847637 g / cm^3
# Si number density = 18.518519 Si / 1000 Ang^3
#
#
#
# Elastic Constant Matrix: (Units=GPa)
#
#
# Indices 1 2 3 4 5 6 
#
# 1 68.4465 41.6875 36.1865 0.0000 16.8728 0.0000
# 2 41.6875 184.9662 39.8652 0.0000 15.7128 0.0000
# 3 36.1865 39.8652 51.9478 0.0000 18.0668 0.0000
# 4 0.0000 0.0000 0.0000 34.5177 0.0000 13.9645
# 5 16.8728 15.7128 18.0668 0.0000 32.9757 0.0000
# 6 0.0000 0.0000 0.0000 13.9645 0.0000 29.6412
#
#
#
# Elastic Compliance Matrix: (Units=1/GPa)
#
#
# Indices 1 2 3 4 5 6 
#
# 1 0.024185 -0.002136 -0.013909 0.000000 -0.003737 0.000000
# 2 -0.002136 0.006672 -0.003591 0.000000 -0.000119 0.000000
# 3 -0.013909 -0.003591 0.035362 0.000000 -0.010547 0.000000
# 4 0.000000 0.000000 0.000000 0.035793 0.000000 -0.016863
# 5 -0.003737 -0.000119 -0.010547 0.000000 0.038072 0.000000
# 6 0.000000 0.000000 0.000000 -0.016863 0.000000 0.041681
#
#
# Mechanical properties :
#
#
# Convention : Reuss Voigt Hill
#
# Bulk Modulus (GPa) = 37.10721 60.09321 48.60021
# Shear Modulus (GPa) = 21.73735 31.93501 26.83618
#
# Velocity S-wave (km/s) = 3.42982 4.15720 3.81090
# Velocity P-wave (km/s) = 5.98049 7.45412 6.75759
#
# Compressibility (1/GPa) = 0.02694894
#
# Stress axis : x y z
#
# Youngs Moduli (GPa) = 41.34763 149.88519 28.27863
#
# Poissons Ratio (x) = 0.32011 0.39332
# Poissons Ratio (y) = 0.08831 0.10155
# Poissons Ratio (z) = 0.57509 0.53822
#
# Static dielectric constant tensor:
#      x y z
#    x 1.700640 0.000000 0.004210 
#    y 0.000000 1.636250 0.000000 
#    z 0.004210 0.000000 1.661310 
# 
# From -- ./inp_files/76942.got.cif
#   From: 2010.05.17/outbox.ucp.g08.bks.cvg/sg10_39_cif.got.tgz:76942.got - 2010.06.11 11:31:16.
