data_PCOD9155976
_publ_section_title
;
Structure prediction by ZEFSAII (Michael W. Deem and Ramdas Pophale) SiO2 
 PCOD9155976
Probable space group: P 21/M
;
_chemical_formula_sum "Si O2"
_cell_formula_units_Z 32
_cell_length_a 20.344608
_cell_length_b 8.746659
_cell_length_c 29.995041
_cell_angle_alpha 90.000000
_cell_angle_beta 156.643370
_cell_angle_gamma 90.000000
_cell_volume 2116.083404
_symmetry_space_group_name_H-M "P 21/M"
_symmetry_group_IT_number 11
_symmetry_cell_setting 'monoclinic'
loop_
_space_group_symop_operation_xyz
x,y,z
-x,1/2+y,-z
-x,-y,-z
x,1/2-y,z
loop_
_atom_site_type_symbol
_atom_site_label
_atom_site_fract_x
_atom_site_fract_y
_atom_site_fract_z
Si Si1 0.283408 0.932224 0.187599
Si Si2 0.754231 0.068915 0.939712
Si Si3 0.901228 0.432530 0.838771
Si Si4 0.599681 0.066994 0.262577
Si Si5 0.819751 0.435557 0.485442
Si Si6 0.394543 0.568314 0.568247
Si Si7 0.886338 0.933665 0.389544
Si Si8 0.451079 0.566983 0.422048
O O1 0.321667 0.750000 0.215615
O O2 0.239124 0.964407 0.109262
O O3 0.143714 0.965806 0.137426
O O4 0.442803 0.028569 0.301377
O O5 0.738432 0.250000 0.935559
O O6 0.588426 0.989342 0.854269
O O7 0.927529 0.011276 0.067468
O O8 0.919836 0.250000 0.845948
O O9 0.736278 0.479793 0.709002
O O10 0.606518 0.250000 0.265998
O O11 0.693253 0.015258 0.366893
O O12 0.706605 0.001297 0.288065
O O13 0.811895 0.250000 0.480687
O O14 0.755949 0.486693 0.493951
O O15 0.006595 0.477227 0.587414
O O16 0.381928 0.750000 0.553749
O O17 0.426331 0.489658 0.540705
O O18 0.880386 0.750000 0.388554
O O19 0.000000 0.000000 0.500000
O O20 0.500000 0.500000 0.500000
O O21 0.454070 0.750000 0.425073
#
# Coordination Sequence:
#
# PCOD9155976 Si02
#       8
#     4   4   4   4   4   4   4   4
#     4   9  18  30  41  60  89 119 152 189 223 259
#     4  11  20  28  42  64  89 119 156 191 223 262
#     4   9  19  33  46  62  87 115 146 184 226 270
#     4  10  18  29  41  58  86 123 160 191 227 265
#     4   8  15  26  41  61  86 116 152 188 223 263
#     4  10  17  28  47  69  90 119 152 185 226 271
#     4   9  16  27  40  58  84 117 156 193 226 263
#     4  10  21  37  53  70  90 115 146 186 232 276
#
# _framework density 15.122277
#
# number of rings (size 3 to 8) (size 9 to 14) (size 15 to 20)
#    0.000    2.500    1.250    3.750    0.000    3.000 
#    0.000    1.875    0.000    0.000    0.000    0.000 
#    0.000    1.000    0.000    3.000    0.000    4.000 
#
# Total GULP energy -178250.385993 kJ/mol
# GULP energy per Si atom -5570.324562 kJ/mol
# Density = 1.508786 g / cm^3
# Si number density = 15.122277 Si / 1000 Ang^3
#
#
#
# Elastic Constant Matrix: (Units=GPa)
#
#
# Indices 1 2 3 4 5 6 
#
# 1 114.0099 41.1847 63.2787 0.0000 21.6315 0.0000
# 2 41.1847 35.6579 33.2972 0.0000 10.4161 0.0000
# 3 63.2787 33.2972 65.6492 0.0000 21.1723 0.0000
# 4 0.0000 0.0000 0.0000 21.7070 0.0000 4.2198
# 5 21.6315 10.4161 21.1723 0.0000 25.7936 0.0000
# 6 0.0000 0.0000 0.0000 4.2198 0.0000 21.4851
#
#
#
# Elastic Compliance Matrix: (Units=1/GPa)
#
#
# Indices 1 2 3 4 5 6 
#
# 1 0.020613 -0.010008 -0.014308 0.000000 -0.001500 0.000000
# 2 -0.010008 0.058152 -0.020375 0.000000 0.001634 0.000000
# 3 -0.014308 -0.020375 0.044657 0.000000 -0.016428 0.000000
# 4 0.000000 0.000000 0.000000 0.047897 0.000000 -0.009407
# 5 -0.001500 0.001634 -0.016428 0.000000 0.052852 0.000000
# 6 0.000000 0.000000 0.000000 -0.009407 0.000000 0.048391
#
#
# Mechanical properties :
#
#
# Convention : Reuss Voigt Hill
#
# Bulk Modulus (GPa) = 29.37869 54.53756 41.95813
# Shear Modulus (GPa) = 13.39433 18.96758 16.18095
#
# Velocity S-wave (km/s) = 2.97936 3.54542 3.27465
# Velocity P-wave (km/s) = 5.59509 7.27343 6.48875
#
# Compressibility (1/GPa) = 0.03403827
#
# Stress axis : x y z
#
# Youngs Moduli (GPa) = 48.51372 17.19617 22.39303
#
# Poissons Ratio (x) = 0.17210 0.32041
# Poissons Ratio (y) = 0.48553 0.45626
# Poissons Ratio (z) = 0.69416 0.35038
#
# Static dielectric constant tensor:
#      x y z
#    x 1.525290 0.000000 0.030280 
#    y 0.000000 1.506240 0.000000 
#    z 0.030280 0.000000 1.490230 
# 
# From -- ./inp_files/60706.got.cif
#   From: 2010.05.17/outbox.cif.g08.bks.cpg/sg11_31_cif.got.tgz:60706.got - 2010.06.03 12:22:45.
