data_PCOD9155016
_publ_section_title
;
Structure prediction by ZEFSAII (Michael W. Deem and Ramdas Pophale) SiO2 
 PCOD9155016
Probable space group: P 2/M
;
_chemical_formula_sum "Si O2"
_cell_formula_units_Z 32
_cell_length_a 20.501025
_cell_length_b 7.397692
_cell_length_c 21.740256
_cell_angle_alpha 90.000000
_cell_angle_beta 28.817887
_cell_angle_gamma 90.000000
_cell_volume 1589.307893
_symmetry_space_group_name_H-M "P 2/M"
_symmetry_group_IT_number 10
_symmetry_cell_setting 'monoclinic'
loop_
_space_group_symop_operation_xyz
x,y,z
-x,y,-z
-x,-y,-z
x,-y,z
loop_
_atom_site_type_symbol
_atom_site_label
_atom_site_fract_x
_atom_site_fract_y
_atom_site_fract_z
Si Si1 0.590888 0.279534 0.366673
Si Si2 0.017867 0.214057 0.304453
Si Si3 0.695830 0.220471 0.882213
Si Si4 0.897397 0.721081 0.137227
Si Si5 0.265101 0.213121 0.407210
Si Si6 0.593222 0.220552 0.833121
Si Si7 0.385384 0.282334 0.436401
Si Si8 0.099673 0.282870 0.727609
O O1 0.500000 0.224871 0.500000
O O2 0.592288 0.500000 0.365689
O O3 0.744658 0.221570 0.248181
O O4 0.516099 0.220819 0.366106
O O5 0.160412 0.285458 0.211249
O O6 0.880995 0.287601 0.449997
O O7 0.998741 0.236318 0.247149
O O8 0.018898 0.000000 0.315767
O O9 0.668395 0.272554 0.834142
O O10 0.696903 0.000000 0.882747
O O11 0.563487 0.276830 0.030279
O O12 0.898475 0.500000 0.136290
O O13 0.934560 0.779723 0.175662
O O14 0.000000 0.781001 0.000000
O O15 0.330618 0.285939 0.290698
O O16 0.366217 0.231752 0.381417
O O17 0.244678 0.000000 0.413844
O O18 0.592319 0.000000 0.832364
O O19 0.384760 0.500000 0.439294
O O20 0.249522 0.218990 0.583823
O O21 0.106225 0.500000 0.724524
#
# Coordination Sequence:
#
# PCOD9155016 Si02
#       8
#     4   4   4   4   4   4   4   4
#     4   9  14  24  43  62  78 105 145 178 204 243
#     4   9  17  28  44  66  88 111 140 174 210 249
#     4   8  14  26  44  64  85 112 145 173 204 250
#     4   9  16  26  41  62  85 106 136 181 219 241
#     4   9  17  28  43  65  91 112 135 175 217 246
#     4   8  14  26  44  64  86 112 141 175 210 245
#     4   9  16  27  45  65  85 112 144 174 207 253
#     4   9  16  28  45  63  86 115 141 170 212 257
#
# _framework density 20.134549
#
# number of rings (size 3 to 8) (size 9 to 14) (size 15 to 20)
#    0.000    3.250    1.250    0.750    0.000    0.500 
#    2.250    2.500    0.000    2.250    0.000    5.250 
#    0.000    0.000    0.000    0.000    0.000    0.000 
#
# Total GULP energy -178454.624619 kJ/mol
# GULP energy per Si atom -5576.707019 kJ/mol
# Density = 2.008872 g / cm^3
# Si number density = 20.134549 Si / 1000 Ang^3
#
#
#
# Elastic Constant Matrix: (Units=GPa)
#
#
# Indices 1 2 3 4 5 6 
#
# 1 184.7588 0.9801 133.1702 0.0000 -4.9175 0.0000
# 2 0.9801 66.6594 6.5863 0.0000 -0.0917 0.0000
# 3 133.1702 6.5863 167.3162 0.0000 9.2853 0.0000
# 4 0.0000 0.0000 0.0000 -3.5666 0.0000 3.4046
# 5 -4.9175 -0.0917 9.2853 0.0000 32.8896 0.0000
# 6 0.0000 0.0000 0.0000 3.4046 0.0000 16.7782
#
#
#
# Elastic Compliance Matrix: (Units=1/GPa)
#
#
# Indices 1 2 3 4 5 6 
#
# 1 0.013552 0.000905 -0.011108 0.000000 0.005165 0.000000
# 2 0.000905 0.015122 -0.001347 0.000000 0.000558 0.000000
# 3 -0.011108 -0.001347 0.015202 0.000000 -0.005956 0.000000
# 4 0.000000 0.000000 0.000000 -0.234881 0.000000 0.047662
# 5 0.005165 0.000558 -0.005956 0.000000 0.032860 0.000000
# 6 0.000000 0.000000 0.000000 0.047662 0.000000 0.049930
#
#
# Mechanical properties :
#
#
# Convention : Reuss Voigt Hill
#
# Bulk Modulus (GPa) = 48.13262 77.80084 62.96673
# Shear Modulus (GPa) = -63.94694 27.75341 -18.09676
#
# Velocity S-wave (km/s) = -5.64170 3.71671 -3.00124
# Velocity P-wave (km/s) = 4.29895 7.55929 4.39670
#
# Compressibility (1/GPa) = 0.02077593
#
# Stress axis : x y z
#
# Youngs Moduli (GPa) = 73.79060 66.12807 65.78205
#
# Poissons Ratio (x) = -0.05987 0.73074
# Poissons Ratio (y) = -0.06681 0.08860
# Poissons Ratio (z) = 0.81970 0.08907
#
# Static dielectric constant tensor:
#      x y z
#    x 1.688800 0.000000 -0.002510 
#    y 0.000000 1.794350 0.000000 
#    z -0.002510 0.000000 1.689650 
# 
# From -- ./inp_files/78932.got.cif
#   From: 2010.05.17/outbox.cif.g08.bks.cpg/sg10_40_cif.got.tgz:78932.got - 2010.06.03 11:33:40.
