data_PCOD9155997
_publ_section_title
;
Structure prediction by ZEFSAII (Michael W. Deem and Ramdas Pophale) SiO2 
 PCOD9155997
Probable space group: P 21/M
;
_chemical_formula_sum "Si O2"
_cell_formula_units_Z 28
_cell_length_a 17.921820
_cell_length_b 7.821343
_cell_length_c 15.274888
_cell_angle_alpha 90.000000
_cell_angle_beta 131.952467
_cell_angle_gamma 90.000000
_cell_volume 1592.351992
_symmetry_space_group_name_H-M "P 21/M"
_symmetry_group_IT_number 11
_symmetry_cell_setting 'monoclinic'
loop_
_space_group_symop_operation_xyz
x,y,z
-x,1/2+y,-z
-x,-y,-z
x,1/2-y,z
loop_
_atom_site_type_symbol
_atom_site_label
_atom_site_fract_x
_atom_site_fract_y
_atom_site_fract_z
Si Si1 0.439312 0.552492 0.829913
Si Si2 0.588357 0.046895 0.689412
Si Si3 0.115008 0.546334 0.576654
Si Si4 0.270893 0.048614 0.563140
Si Si5 0.281003 0.540110 0.844831
Si Si6 0.634637 0.956324 0.537137
Si Si7 0.647891 0.446524 0.921007
O O1 0.468690 0.750000 0.864942
O O2 0.353560 0.543185 0.688080
O O3 0.381656 0.488104 0.871121
O O4 0.535290 0.450727 0.872270
O O5 0.577201 0.250000 0.695267
O O6 0.475166 0.981431 0.582605
O O7 0.637762 0.974463 0.816446
O O8 0.647987 0.019521 0.646305
O O9 0.124052 0.750000 0.581599
O O10 0.164474 0.479198 0.525837
O O11 0.186337 0.484582 0.712429
O O12 0.000000 0.500000 0.500000
O O13 0.294950 0.250000 0.585949
O O14 0.285453 0.993815 0.474191
O O15 0.282216 0.750000 0.846371
O O16 0.285474 0.478428 0.948145
O O17 0.631395 0.750000 0.539555
O O18 0.680987 0.250000 0.936116
#
# Coordination Sequence:
#
# PCOD9155997 Si02
#       7
#     4   4   4   4   4   4   4
#     4  10  18  27  40  64  93 123 156 189 222 265
#     4   9  17  27  41  62  88 123 160 190 223 261
#     4  10  20  35  52  74  95 117 148 186 234 278
#     4  10  18  31  49  68  91 123 157 191 230 272
#     4   8  17  30  45  64  89 118 152 187 222 271
#     4   9  17  29  42  62  89 121 158 191 226 265
#     4  10  17  29  44  61  89 125 158 188 221 264
#
# _framework density 17.584050999999999
#
# number of rings (size 3 to 8) (size 9 to 14) (size 15 to 20)
#    0.000    2.571    1.429    2.571    0.000    1.714 
#    0.000    3.571    0.000    0.000    0.000    1.000 
#    0.000    0.000    0.000    0.000    0.000    0.000 
#
# Total GULP energy -156064.563954 kJ/mol
# GULP energy per Si atom -5573.734427 kJ/mol
# Density = 1.754403 g / cm^3
# Si number density = 17.584051 Si / 1000 Ang^3
#
#
#
# Elastic Constant Matrix: (Units=GPa)
#
#
# Indices 1 2 3 4 5 6 
#
# 1 97.7842 -2.3088 66.6502 0.0000 -23.1534 0.0000
# 2 -2.3088 31.7935 2.4034 0.0000 -3.0748 0.0000
# 3 66.6502 2.4034 100.6053 0.0000 -35.1960 0.0000
# 4 0.0000 0.0000 0.0000 10.3407 0.0000 -0.1847
# 5 -23.1534 -3.0748 -35.1960 0.0000 36.4940 0.0000
# 6 0.0000 0.0000 0.0000 -0.1847 0.0000 19.7618
#
#
#
# Elastic Compliance Matrix: (Units=1/GPa)
#
#
# Indices 1 2 3 4 5 6 
#
# 1 0.018815 0.002319 -0.012490 0.000000 0.000087 0.000000
# 2 0.002319 0.032002 -0.001272 0.000000 0.002941 0.000000
# 3 -0.012490 -0.001272 0.023294 0.000000 0.014435 0.000000
# 4 0.000000 0.000000 0.000000 0.096722 0.000000 0.000904
# 5 0.000087 0.002941 0.014435 0.000000 0.041626 0.000000
# 6 0.000000 0.000000 0.000000 0.000904 0.000000 0.050611
#
#
# Mechanical properties :
#
#
# Convention : Reuss Voigt Hill
#
# Bulk Modulus (GPa) = 19.52147 40.40808 29.96478
# Shear Modulus (GPa) = 16.49997 24.21519 20.35758
#
# Velocity S-wave (km/s) = 3.06657 3.71497 3.40623
# Velocity P-wave (km/s) = 4.86461 6.43671 5.70507
#
# Compressibility (1/GPa) = 0.05122564
#
# Stress axis : x y z
#
# Youngs Moduli (GPa) = 53.14906 31.24817 42.92873
#
# Poissons Ratio (x) = -0.07246 0.53617
# Poissons Ratio (y) = -0.12324 0.05460
# Poissons Ratio (z) = 0.66382 0.03974
#
# Static dielectric constant tensor:
#      x y z
#    x 1.596460 0.000000 -0.039220 
#    y 0.000000 1.659430 0.000000 
#    z -0.039220 0.000000 1.635470 
# 
# From -- ./inp_files/51021.got.cif
#   From: 2010.05.17/outbox.cif.g08.bks.cpg/sg11_26_cif.got.tgz:51021.got - 2010.06.03 12:22:45.
