data_PCOD9155494
_publ_section_title
;
Structure prediction by ZEFSAII (Michael W. Deem and Ramdas Pophale) SiO2 
 PCOD9155494
Probable space group: P 2/M
;
_chemical_formula_sum "Si O2"
_cell_formula_units_Z 24
_cell_length_a 9.000000
_cell_length_b 9.000000
_cell_length_c 21.000000
_cell_angle_alpha 90.000000
_cell_angle_beta 130.000000
_cell_angle_gamma 90.000000
_cell_volume 1303.041598
_symmetry_space_group_name_H-M "P 2/M"
_symmetry_group_IT_number 10
_symmetry_cell_setting 'monoclinic'
loop_
_space_group_symop_operation_xyz
x,y,z
-x,y,-z
-x,-y,-z
x,-y,z
loop_
_atom_site_type_symbol
_atom_site_label
_atom_site_fract_x
_atom_site_fract_y
_atom_site_fract_z
Si Si1 0.786950 0.179732 0.578965
Si Si2 0.474864 0.677781 0.588681
Si Si3 0.201787 0.324277 0.086828
Si Si4 0.447104 0.324862 0.915951
Si Si5 0.552885 0.173853 0.743673
Si Si6 0.201721 0.173806 0.746925
O O1 0.722002 0.252339 0.494504
O O2 0.641044 0.247020 0.591043
O O3 0.001314 0.222360 0.660265
O O4 0.769823 0.000000 0.571098
O O5 0.476165 0.500000 0.582422
O O6 0.512927 0.729121 0.670703
O O7 0.191127 0.500000 0.099870
O O8 0.368320 0.306089 0.079478
O O9 0.264120 0.232669 0.165830
O O10 0.000000 0.278314 0.000000
O O11 0.408993 0.500000 0.912502
O O12 0.267226 0.254663 0.829125
O O13 0.500000 0.263370 0.000000
O O14 0.371296 0.190818 0.741568
O O15 0.572983 0.000000 0.732578
O O16 0.183379 0.000000 0.756533
#
# Coordination Sequence:
#
# PCOD9155494 Si02
#       6
#     4   4   4   4   4   4
#     4  10  20  37  57  78 105 137 173 214 261 309
#     4  11  22  36  54  79 107 137 174 214 259 309
#     4   9  18  33  51  73 103 136 172 214 257 303
#     4   9  18  32  50  73 102 136 171 209 255 304
#     4  10  20  36  55  77 106 139 175 215 259 307
#     4   9  20  36  55  78 104 136 174 215 258 306
#
# _framework density 18.418444999999998
#
# number of rings (size 3 to 8) (size 9 to 14) (size 15 to 20)
#    0.000    2.333    0.000    3.500    0.000    4.667 
#    0.000    5.000    0.000    0.000    0.000    0.000 
#    0.000    0.000    0.000    0.000    0.000    0.000 
#
# Total GULP energy -133875.165886 kJ/mol
# GULP energy per Si atom -5578.131912 kJ/mol
# Density = 1.837652 g / cm^3
# Si number density = 18.418445 Si / 1000 Ang^3
#
#
#
# Elastic Constant Matrix: (Units=GPa)
#
#
# Indices 1 2 3 4 5 6 
#
# 1 -2.7507 27.6254 37.3066 0.0000 10.9597 0.0000
# 2 27.6254 77.5919 71.1515 0.0000 -1.7033 0.0000
# 3 37.3066 71.1515 188.2701 0.0000 12.3614 0.0000
# 4 0.0000 0.0000 0.0000 41.4143 0.0000 -9.2520
# 5 10.9597 -1.7033 12.3614 0.0000 34.7053 0.0000
# 6 0.0000 0.0000 0.0000 -9.2520 0.0000 50.0964
#
#
#
# Elastic Compliance Matrix: (Units=1/GPa)
#
#
# Indices 1 2 3 4 5 6 
#
# 1 -0.059163 0.018079 0.003692 0.000000 0.018255 0.000000
# 2 0.018079 0.014676 -0.009012 0.000000 -0.001779 0.000000
# 3 0.003692 -0.009012 0.008285 0.000000 -0.004559 0.000000
# 4 0.000000 0.000000 0.000000 0.025185 0.000000 0.004651
# 5 0.018255 -0.001779 -0.004559 0.000000 0.024586 0.000000
# 6 0.000000 0.000000 0.000000 0.004651 0.000000 0.020821
#
#
# Mechanical properties :
#
#
# Convention : Reuss Voigt Hill
#
# Bulk Modulus (GPa) = -93.60464 59.47536 -17.06464
# Shear Modulus (GPa) = 941.45448 33.71170 487.58309
#
# Velocity S-wave (km/s) = 22.63310 4.28287 16.28804
# Velocity P-wave (km/s) = 25.14117 7.53781 18.55932
#
# Compressibility (1/GPa) = -0.01068323
#
# Stress axis : x y z
#
# Youngs Moduli (GPa) = -16.90250 68.13717 120.69879
#
# Poissons Ratio (x) = -1.23184 -0.44567
# Poissons Ratio (y) = 0.30558 1.08775
# Poissons Ratio (z) = 0.06241 0.61406
#
# Static dielectric constant tensor:
#      x y z
#    x 1.630260 0.000000 0.011780 
#    y 0.000000 1.620570 0.000000 
#    z 0.011780 0.000000 1.647810 
# 
# From -- ./inp_files/33959.got.cif
#   From: 2010.05.17/outbox.ucp.g08.bks.cvg/sg10_17_cif.got.tgz:33959.got - 2010.06.11 11:31:16.
