data_PCOD9155810
_publ_section_title
;
Structure prediction by ZEFSAII (Michael W. Deem and Ramdas Pophale) SiO2 
 PCOD9155810
Probable space group: P 21/M
;
_chemical_formula_sum "Si O2"
_cell_formula_units_Z 26
_cell_length_a 14.030797
_cell_length_b 7.717718
_cell_length_c 12.562819
_cell_angle_alpha 90.000000
_cell_angle_beta 128.199140
_cell_angle_gamma 90.000000
_cell_volume 1069.071978
_symmetry_space_group_name_H-M "P 21/M"
_symmetry_group_IT_number 11
_symmetry_cell_setting 'monoclinic'
loop_
_space_group_symop_operation_xyz
x,y,z
-x,1/2+y,-z
-x,-y,-z
x,1/2-y,z
loop_
_atom_site_type_symbol
_atom_site_label
_atom_site_fract_x
_atom_site_fract_y
_atom_site_fract_z
Si Si1 0.464825 0.949283 0.745141
Si Si2 0.855547 0.950417 0.721674
Si Si3 0.213399 0.539590 0.785291
Si Si4 0.500000 0.500000 0.000000
Si Si5 0.814995 0.458308 0.464072
Si Si6 0.887544 0.462176 0.058068
Si Si7 0.675341 0.049381 0.754224
O O1 0.458397 0.750000 0.782385
O O2 0.521843 0.043375 0.886596
O O3 0.328546 0.002401 0.624647
O O4 0.552524 0.957889 0.704659
O O5 0.844009 0.750000 0.740767
O O6 0.974894 0.025590 0.861352
O O7 0.877036 0.965129 0.610484
O O8 0.731068 0.034986 0.675235
O O9 0.214058 0.750000 0.784991
O O10 0.151082 0.483269 0.631591
O O11 0.153605 0.481440 0.852847
O O12 0.353762 0.484611 0.879927
O O13 0.826618 0.250000 0.478119
O O14 0.891168 0.250000 0.058538
O O15 0.785288 0.517692 0.904615
O O16 0.654716 0.250000 0.764096
#
# Coordination Sequence:
#
# PCOD9155810 Si02
#       7
#     4   4   4   2   4   4   4
#     4  10  21  36  58  89 120 149 187 237 289 340
#     4  11  23  39  58  80 116 154 195 243 282 332
#     4   9  17  33  57  84 115 149 185 229 284 342
#     4  10  16  30  58  84 116 148 178 222 282 344
#     4   9  20  38  59  83 115 156 192 227 281 345
#     4   9  19  36  59  86 113 149 189 235 292 340
#     4  11  22  38  62  86 112 151 195 237 289 348
#
# _framework density 24.320157999999999
#
# number of rings (size 3 to 8) (size 9 to 14) (size 15 to 20)
#    0.000    2.154    1.538    2.769    0.000    2.462 
#    0.000    6.923    0.000    0.000    0.000    0.000 
#    0.000    0.000    0.000    0.000    0.000    0.000 
#
# Total GULP energy -144807.594709 kJ/mol
# GULP energy per Si atom -5569.522873 kJ/mol
# Density = 2.426480 g / cm^3
# Si number density = 24.320158 Si / 1000 Ang^3
#
#
#
# Elastic Constant Matrix: (Units=GPa)
#
#
# Indices 1 2 3 4 5 6 
#
# 1 67.7233 -3.1627 -14.7333 0.0000 -16.4428 0.0000
# 2 -3.1627 46.9603 -1.7011 0.0000 1.1625 0.0000
# 3 -14.7333 -1.7011 76.9098 0.0000 -8.7147 0.0000
# 4 0.0000 0.0000 0.0000 -3.1336 0.0000 10.9056
# 5 -16.4428 1.1625 -8.7147 0.0000 37.9774 0.0000
# 6 0.0000 0.0000 0.0000 10.9056 0.0000 -2.0392
#
#
#
# Elastic Compliance Matrix: (Units=1/GPa)
#
#
# Indices 1 2 3 4 5 6 
#
# 1 0.017909 0.001151 0.004446 0.000000 0.008739 0.000000
# 2 0.001151 0.021397 0.000694 0.000000 0.000003 0.000000
# 3 0.004446 0.000694 0.014461 0.000000 0.005222 0.000000
# 4 0.000000 0.000000 0.000000 0.018120 0.000000 0.096903
# 5 0.008739 0.000003 0.005222 0.000000 0.031313 0.000000
# 6 0.000000 0.000000 0.000000 0.096903 0.000000 0.027844
#
#
# Mechanical properties :
#
#
# Convention : Reuss Voigt Hill
#
# Bulk Modulus (GPa) = 15.07167 16.93324 16.00246
# Shear Modulus (GPa) = 35.56740 20.64028 28.10384
#
# Velocity S-wave (km/s) = 3.82837 2.91639 3.40307
# Velocity P-wave (km/s) = 5.07469 4.27997 4.69418
#
# Compressibility (1/GPa) = 0.06634965
#
# Stress axis : x y z
#
# Youngs Moduli (GPa) = 55.83849 46.73517 69.15099
#
# Poissons Ratio (x) = -0.05379 -0.30747
# Poissons Ratio (y) = -0.06426 -0.04799
# Poissons Ratio (z) = -0.24828 -0.03244
#
# Static dielectric constant tensor:
#      x y z
#    x 1.931810 0.000000 -0.042590 
#    y 0.000000 2.137860 0.000000 
#    z -0.042590 0.000000 1.942910 
# 
# From -- ./inp_files/37779.got.cif
#   From: 2010.05.17/outbox.cif.g08.bks.cpg/sg11_19_cif.got.tgz:37779.got - 2010.06.03 12:22:45.
