data_PCOD9155044
_publ_section_title
;
Structure prediction by ZEFSAII (Michael W. Deem and Ramdas Pophale) SiO2 
 PCOD9155044
Probable space group: P 2/M
;
_chemical_formula_sum "Si O2"
_cell_formula_units_Z 32
_cell_length_a 12.048973
_cell_length_b 9.281908
_cell_length_c 17.365478
_cell_angle_alpha 90.000000
_cell_angle_beta 84.342739
_cell_angle_gamma 90.000000
_cell_volume 1932.651646
_symmetry_space_group_name_H-M "P 2/M"
_symmetry_group_IT_number 10
_symmetry_cell_setting 'monoclinic'
loop_
_space_group_symop_operation_xyz
x,y,z
-x,y,-z
-x,-y,-z
x,-y,z
loop_
_atom_site_type_symbol
_atom_site_label
_atom_site_fract_x
_atom_site_fract_y
_atom_site_fract_z
Si Si1 0.379173 0.172492 0.234707
Si Si2 0.727136 0.828779 0.406517
Si Si3 0.865657 0.175166 0.713893
Si Si4 0.281833 0.334277 0.834769
Si Si5 0.458145 0.827667 0.918348
Si Si6 0.107184 0.171331 0.750085
Si Si7 0.122861 0.824422 0.463527
Si Si8 0.450124 0.665894 0.676051
O O1 0.250180 0.216038 0.238518
O O2 0.446901 0.203443 0.151987
O O3 0.441694 0.250267 0.300879
O O4 0.384531 0.000000 0.247149
O O5 0.821964 0.809529 0.333830
O O6 0.782238 0.779429 0.482699
O O7 0.617487 0.745018 0.386849
O O8 0.703570 0.000000 0.411762
O O9 0.860231 0.221767 0.625226
O O10 0.981121 0.222715 0.744426
O O11 0.871267 0.000000 0.712895
O O12 0.260493 0.500000 0.855494
O O13 0.347375 0.252833 0.897752
O O14 0.171941 0.253728 0.812749
O O15 0.365601 0.330829 0.755265
O O16 0.438705 0.000000 0.918846
O O17 0.500000 0.786159 0.000000
O O18 0.107303 0.000000 0.765868
O O19 0.000000 0.779508 0.500000
O O20 0.123412 0.000000 0.464890
O O21 0.473869 0.500000 0.656102
#
# Coordination Sequence:
#
# PCOD9155044 Si02
#       8
#     4   4   4   4   4   4   4   4
#     4   9  17  30  47  67  90 114 145 181 218 264
#     4   9  15  24  43  66  86 111 146 186 223 258
#     4   9  16  26  43  67  92 117 145 182 224 263
#     4   9  17  28  44  68  93 115 145 183 217 254
#     4   9  17  30  49  71  92 114 142 179 221 261
#     4   9  15  25  43  66  90 116 146 179 217 258
#     4   9  14  23  40  66  93 113 142 185 226 261
#     4   9  17  29  44  61  86 118 150 185 222 259
#
# _framework density 16.557562000000001
#
# number of rings (size 3 to 8) (size 9 to 14) (size 15 to 20)
#    0.000    3.000    1.250    0.750    0.000    3.250 
#    0.000    1.250    0.000    6.375    0.000    5.250 
#    0.000    0.000    0.000    0.000    0.000    0.000 
#
# Total GULP energy -178241.206418 kJ/mol
# GULP energy per Si atom -5570.037701 kJ/mol
# Density = 1.651988 g / cm^3
# Si number density = 16.557562 Si / 1000 Ang^3
#
#
#
# Elastic Constant Matrix: (Units=GPa)
#
#
# Indices 1 2 3 4 5 6 
#
# 1 127.9644 49.1392 59.5872 0.0000 33.4905 0.0000
# 2 49.1392 38.4320 37.5447 0.0000 17.1399 0.0000
# 3 59.5872 37.5447 79.8852 0.0000 36.3075 0.0000
# 4 0.0000 0.0000 0.0000 2.9556 0.0000 -5.0481
# 5 33.4905 17.1399 36.3075 0.0000 30.9995 0.0000
# 6 0.0000 0.0000 0.0000 -5.0481 0.0000 -0.3861
#
#
#
# Elastic Compliance Matrix: (Units=1/GPa)
#
#
# Indices 1 2 3 4 5 6 
#
# 1 0.016873 -0.017129 -0.001187 0.000000 -0.007369 0.000000
# 2 -0.017129 0.065496 -0.021291 0.000000 0.007228 0.000000
# 3 -0.001187 -0.021291 0.037369 0.000000 -0.030713 0.000000
# 4 0.000000 0.000000 0.000000 0.014503 0.000000 -0.189605
# 5 -0.007369 0.007228 -0.030713 0.000000 0.072195 0.000000
# 6 0.000000 0.000000 0.000000 -0.189605 0.000000 -0.111014
#
#
# Mechanical properties :
#
#
# Convention : Reuss Voigt Hill
#
# Bulk Modulus (GPa) = 24.67581 59.86932 42.27256
# Shear Modulus (GPa) = 26.57548 13.38117 19.97833
#
# Velocity S-wave (km/s) = 4.01064 2.84590 3.47738
# Velocity P-wave (km/s) = 6.03178 6.85825 6.45825
#
# Compressibility (1/GPa) = 0.04052552
#
# Stress axis : x y z
#
# Youngs Moduli (GPa) = 59.26523 15.26800 26.76050
#
# Poissons Ratio (x) = 0.26152 0.03176
# Poissons Ratio (y) = 1.01513 0.56976
# Poissons Ratio (z) = 0.07034 0.32507
#
# Static dielectric constant tensor:
#      x y z
#    x 1.558310 0.000000 -0.002640 
#    y 0.000000 1.548160 0.000000 
#    z -0.002640 0.000000 1.545130 
# 
# From -- ./inp_files/52762.got.cif
#   From: 2010.05.17/outbox.cif.g08.bks.cpg/sg10_27_cif.got.tgz:52762.got - 2010.06.03 11:33:40.
