data_PCOD9155050
_publ_section_title
;
Structure prediction by ZEFSAII (Michael W. Deem and Ramdas Pophale) SiO2 
 PCOD9155050
Probable space group: P 2/M
;
_chemical_formula_sum "Si O2"
_cell_formula_units_Z 24
_cell_length_a 5.299878
_cell_length_b 11.089387
_cell_length_c 26.800720
_cell_angle_alpha 90.000000
_cell_angle_beta 119.875112
_cell_angle_gamma 90.000000
_cell_volume 1365.826928
_symmetry_space_group_name_H-M "P 2/M"
_symmetry_group_IT_number 10
_symmetry_cell_setting 'monoclinic'
loop_
_space_group_symop_operation_xyz
x,y,z
-x,y,-z
-x,-y,-z
x,-y,z
loop_
_atom_site_type_symbol
_atom_site_label
_atom_site_fract_x
_atom_site_fract_y
_atom_site_fract_z
Si Si1 0.362824 0.852988 0.433878
Si Si2 0.289457 0.852659 0.234448
Si Si3 0.622157 0.144546 0.169546
Si Si4 0.693365 0.853110 0.366515
Si Si5 0.286042 0.866199 0.931602
Si Si6 0.853018 0.369019 0.039654
O O1 0.500000 0.814399 0.500000
O O2 0.551404 0.815024 0.404826
O O3 0.028004 0.814709 0.395529
O O4 0.364209 0.000000 0.434215
O O5 0.424723 0.810775 0.195257
O O6 0.495378 0.815254 0.300390
O O7 0.956289 0.813010 0.207911
O O8 0.284393 0.000000 0.234185
O O9 0.549144 0.162183 0.103854
O O10 0.625521 0.000000 0.176020
O O11 0.694178 0.000000 0.366273
O O12 0.085368 0.752200 0.923743
O O13 0.145435 0.000000 0.912086
O O14 0.500000 0.875577 0.000000
O O15 0.940849 0.500000 0.069620
O O16 0.500000 0.372032 0.000000
O O17 0.000000 0.359264 0.000000
#
# Coordination Sequence:
#
# PCOD9155050 Si02
#       6
#     4   4   4   4   4   4
#     4   9  15  21  29  43  61  80 108 149 193 231
#     4   9  16  26  37  49  67  93 124 155 193 241
#     4   9  17  27  38  53  73  95 122 159 199 241
#     4   9  15  22  32  43  58  84 114 145 187 235
#     4   9  18  31  47  67  89 112 139 175 223 271
#     4   9  18  32  48  65  86 112 140 169 206 258
#
# _framework density 17.571770999999998
#
# number of rings (size 3 to 8) (size 9 to 14) (size 15 to 20)
#    0.000    3.000    0.000    1.500    0.000    9.000 
#    0.000    5.000    0.000    0.000    0.000    0.000 
#    0.000    0.000    0.000    0.000    0.000    0.000 
#
# Total GULP energy -133625.218846 kJ/mol
# GULP energy per Si atom -5567.717452 kJ/mol
# Density = 1.753178 g / cm^3
# Si number density = 17.571771 Si / 1000 Ang^3
#
#
#
# Elastic Constant Matrix: (Units=GPa)
#
#
# Indices 1 2 3 4 5 6 
#
# 1 86.4838 9.1365 10.6951 0.0000 -6.6063 0.0000
# 2 9.1365 68.1454 3.1023 0.0000 -13.4848 0.0000
# 3 10.6951 3.1023 82.9620 0.0000 0.0579 0.0000
# 4 0.0000 0.0000 0.0000 0.7196 0.0000 -0.6728
# 5 -6.6063 -13.4848 0.0579 0.0000 29.4817 0.0000
# 6 0.0000 0.0000 0.0000 -0.6728 0.0000 2.0024
#
#
#
# Elastic Compliance Matrix: (Units=1/GPa)
#
#
# Indices 1 2 3 4 5 6 
#
# 1 0.012035 -0.001111 -0.001511 0.000000 0.002191 0.000000
# 2 -0.001111 0.016268 -0.000470 0.000000 0.007193 0.000000
# 3 -0.001511 -0.000470 0.012267 0.000000 -0.000578 0.000000
# 4 0.000000 0.000000 0.000000 2.026237 0.000000 0.680808
# 5 0.002191 0.007193 -0.000578 0.000000 0.037702 0.000000
# 6 0.000000 0.000000 0.000000 0.680808 0.000000 0.728147
#
#
# Mechanical properties :
#
#
# Convention : Reuss Voigt Hill
#
# Bulk Modulus (GPa) = 29.08318 31.49544 30.28931
# Shear Modulus (GPa) = 1.75420 20.75124 11.25272
#
# Velocity S-wave (km/s) = 1.00024 3.44021 2.53333
# Velocity P-wave (km/s) = 4.23332 5.80886 5.08251
#
# Compressibility (1/GPa) = 0.03438414
#
# Stress axis : x y z
#
# Youngs Moduli (GPa) = 83.09415 61.46949 81.52257
#
# Poissons Ratio (x) = 0.06830 0.12322
# Poissons Ratio (y) = 0.09232 0.03833
# Poissons Ratio (z) = 0.12559 0.02890
#
# Static dielectric constant tensor:
#      x y z
#    x 1.635860 0.000000 0.016700 
#    y 0.000000 1.606280 0.000000 
#    z 0.016700 0.000000 1.623640 
# 
# From -- ./inp_files/12152.got.cif
#   From: 2010.05.17/outbox.cif.g08.bks.cpg/sg10_7_cif.got.tgz:12152.got - 2010.06.03 11:33:40.
