data_PCOD9155748
_publ_section_title
;
Structure prediction by ZEFSAII (Michael W. Deem and Ramdas Pophale) SiO2 
 PCOD9155748
Probable space group: P 21/M
;
_chemical_formula_sum "Si O2"
_cell_formula_units_Z 28
_cell_length_a 24.713976
_cell_length_b 8.602035
_cell_length_c 7.195003
_cell_angle_alpha 90.000000
_cell_angle_beta 51.243664
_cell_angle_gamma 90.000000
_cell_volume 1192.796992
_symmetry_space_group_name_H-M "P 21/M"
_symmetry_group_IT_number 11
_symmetry_cell_setting 'monoclinic'
loop_
_space_group_symop_operation_xyz
x,y,z
-x,1/2+y,-z
-x,-y,-z
x,1/2-y,z
loop_
_atom_site_type_symbol
_atom_site_label
_atom_site_fract_x
_atom_site_fract_y
_atom_site_fract_z
Si Si1 0.632311 0.564124 0.930160
Si Si2 0.775574 0.438667 0.568417
Si Si3 0.509485 0.935600 0.691361
Si Si4 0.648619 0.434129 0.318307
Si Si5 0.213275 0.431869 0.033855
Si Si6 0.073994 0.574679 0.368410
Si Si7 0.924225 0.075130 0.192180
O O1 0.635492 0.750000 0.916024
O O2 0.697979 0.492274 0.679784
O O3 0.554173 0.507180 0.056185
O O4 0.641688 0.505332 0.124477
O O5 0.776398 0.250000 0.578775
O O6 0.781995 0.514067 0.760631
O O7 0.846662 0.488453 0.308885
O O8 0.504391 0.750000 0.702617
O O9 0.500000 0.000000 0.500000
O O10 0.587688 0.988280 0.568576
O O11 0.638117 0.250000 0.333487
O O12 0.727570 0.473517 0.200402
O O13 0.227319 0.250000 0.988440
O O14 0.134970 0.473599 0.150001
O O15 0.077783 0.750000 0.290352
O O16 0.082456 0.581730 0.571152
O O17 0.000000 0.500000 0.500000
O O18 0.928994 0.250000 0.108091
O O19 0.000000 0.000000 0.000000
#
# Coordination Sequence:
#
# PCOD9155748 Si02
#       7
#     4   4   4   4   4   4   4
#     4  10  16  22  32  48  68  96 133 171 210 256
#     4   9  16  27  39  55  78 106 139 178 216 259
#     4  10  16  22  30  43  65  95 130 169 209 252
#     4  10  16  23  33  47  69  98 132 172 210 252
#     4  10  17  26  40  58  78 106 140 176 216 263
#     4  10  20  34  49  69  92 119 152 190 229 272
#     4   9  19  32  48  68  92 118 151 188 228 272
#
# _framework density 23.474238
#
# number of rings (size 3 to 8) (size 9 to 14) (size 15 to 20)
#    0.000    2.286    0.000   10.286    0.000    3.429 
#    0.000    0.000    0.000    0.000    0.000    0.000 
#    0.000    0.000    0.000    1.286    0.000   18.857 
#
# Total GULP energy -156291.578697 kJ/mol
# GULP energy per Si atom -5581.842096 kJ/mol
# Density = 2.342081 g / cm^3
# Si number density = 23.474238 Si / 1000 Ang^3
#
#
#
# Elastic Constant Matrix: (Units=GPa)
#
#
# Indices 1 2 3 4 5 6 
#
# 1 62.6812 7.2596 60.4287 0.0000 -37.0630 0.0000
# 2 7.2596 159.5888 49.4975 0.0000 -29.6025 0.0000
# 3 60.4287 49.4975 175.6483 0.0000 -51.9735 0.0000
# 4 0.0000 0.0000 0.0000 29.9625 0.0000 -26.3488
# 5 -37.0630 -29.6025 -51.9735 0.0000 77.5591 0.0000
# 6 0.0000 0.0000 0.0000 -26.3488 0.0000 14.1212
#
#
#
# Elastic Compliance Matrix: (Units=1/GPa)
#
#
# Indices 1 2 3 4 5 6 
#
# 1 0.028971 0.002934 -0.007940 0.000000 0.009643 0.000000
# 2 0.002934 0.007337 -0.002287 0.000000 0.002670 0.000000
# 3 -0.007940 -0.002287 0.009590 0.000000 0.001759 0.000000
# 4 0.000000 0.000000 0.000000 -0.052078 0.000000 -0.097173
# 5 0.009643 0.002670 0.001759 0.000000 0.019699 0.000000
# 6 0.000000 0.000000 0.000000 -0.097173 0.000000 -0.110500
#
#
# Mechanical properties :
#
#
# Convention : Reuss Voigt Hill
#
# Bulk Modulus (GPa) = 31.93796 70.25441 51.09619
# Shear Modulus (GPa) = -69.48571 43.04405 -13.22083
#
# Velocity S-wave (km/s) = -5.44657 4.28678 -2.37577
# Velocity P-wave (km/s) = 5.09101 7.38209 3.78001
#
# Compressibility (1/GPa) = 0.03131070
#
# Stress axis : x y z
#
# Youngs Moduli (GPa) = 34.51758 136.29228 104.27728
#
# Poissons Ratio (x) = -0.39982 0.82798
# Poissons Ratio (y) = -0.10126 0.23847
# Poissons Ratio (z) = 0.27408 0.31168
#
# Static dielectric constant tensor:
#      x y z
#    x 2.115280 0.000000 -0.020640 
#    y 0.000000 1.794440 0.000000 
#    z -0.020640 0.000000 1.912450 
# 
# From -- ./inp_files/28993.got.cif
#   From: 2010.05.17/outbox.cif.g08.bks.cpg/sg11_15_cif.got.tgz:28993.got - 2010.06.03 12:22:45.
