data_PCOD9155834
_publ_section_title
;
Structure prediction by ZEFSAII (Michael W. Deem and Ramdas Pophale) SiO2 
 PCOD9155834
Probable space group: P 21/M
;
_chemical_formula_sum "Si O2"
_cell_formula_units_Z 22
_cell_length_a 9.376708
_cell_length_b 14.405399
_cell_length_c 19.531648
_cell_angle_alpha 90.000000
_cell_angle_beta 151.391750
_cell_angle_gamma 90.000000
_cell_volume 1263.238313
_symmetry_space_group_name_H-M "P 21/M"
_symmetry_group_IT_number 11
_symmetry_cell_setting 'monoclinic'
loop_
_space_group_symop_operation_xyz
x,y,z
-x,1/2+y,-z
-x,-y,-z
x,1/2-y,z
loop_
_atom_site_type_symbol
_atom_site_label
_atom_site_fract_x
_atom_site_fract_y
_atom_site_fract_z
Si Si1 0.597918 0.250000 0.532909
Si Si2 0.842029 0.856346 0.068534
Si Si3 0.791880 0.395519 0.244391
Si Si4 0.847952 0.750000 0.525686
Si Si5 0.003491 0.750000 0.782415
Si Si6 0.903010 0.597458 0.245300
Si Si7 0.574450 0.250000 0.915087
Si Si8 0.660340 0.250000 0.791150
O O1 0.411408 0.250000 0.525267
O O2 0.352657 0.250000 0.370463
O O3 0.805910 0.159884 0.619339
O O4 0.764571 0.750000 0.059686
O O5 0.566997 0.890469 0.907186
O O6 0.876034 0.915078 0.151693
O O7 0.148085 0.837707 0.157052
O O8 0.946528 0.339000 0.371011
O O9 0.887847 0.338250 0.216617
O O10 0.901525 0.499852 0.282569
O O11 0.668624 0.750000 0.379678
O O12 0.146906 0.750000 0.916713
O O13 0.626067 0.660020 0.152663
O O14 0.657775 0.250000 0.871047
#
# Coordination Sequence:
#
# PCOD9155834 Si02
#       8
#     2   4   4   2   2   4   2   2
#     4   9  18  33  50  79 113 127 168 220 266 307
#     4  10  16  35  54  75 105 139 178 205 262 309
#     4  10  19  31  60  82 102 134 178 226 256 304
#     4  10  18  35  51  81 107 137 179 206 269 313
#     4  10  19  33  51  86 107 128 179 223 263 303
#     4  11  18  34  56  83 105 134 177 221 263 301
#     4  11  21  36  54  79 105 141 178 214 261 311
#     4  10  20  37  56  69 110 151 166 213 261 318
#
# _framework density 17.415558999999998
#
# number of rings (size 3 to 8) (size 9 to 14) (size 15 to 20)
#    0.545    1.455    7.273    0.545    0.000    2.909 
#    0.000    5.455    0.000    0.000    0.000    0.000 
#    0.000    0.000    0.000    0.000    0.000    0.000 
#
# Total GULP energy -122583.211614 kJ/mol
# GULP energy per Si atom -5571.964164 kJ/mol
# Density = 1.737592 g / cm^3
# Si number density = 17.415559 Si / 1000 Ang^3
#
#
#
# Elastic Constant Matrix: (Units=GPa)
#
#
# Indices 1 2 3 4 5 6 
#
# 1 46.0883 -1.6013 23.3094 0.0000 -8.4361 0.0000
# 2 -1.6013 80.4765 21.0476 0.0000 0.8786 0.0000
# 3 23.3094 21.0476 142.0983 0.0000 -0.7866 0.0000
# 4 0.0000 0.0000 0.0000 3.6258 0.0000 0.7832
# 5 -8.4361 0.8786 -0.7866 0.0000 18.3851 0.0000
# 6 0.0000 0.0000 0.0000 0.7832 0.0000 1.2843
#
#
#
# Elastic Compliance Matrix: (Units=1/GPa)
#
#
# Indices 1 2 3 4 5 6 
#
# 1 0.026153 0.001558 -0.004456 0.000000 0.011736 0.000000
# 2 0.001558 0.013029 -0.002185 0.000000 -0.000001 0.000000
# 3 -0.004456 -0.002185 0.008083 0.000000 -0.001594 0.000000
# 4 0.000000 0.000000 0.000000 0.317644 0.000000 -0.193707
# 5 0.011736 -0.000001 -0.001594 0.000000 0.059709 0.000000
# 6 0.000000 0.000000 0.000000 -0.193707 0.000000 0.896752
#
#
# Mechanical properties :
#
#
# Convention : Reuss Voigt Hill
#
# Bulk Modulus (GPa) = 26.95569 39.35272 33.15420
# Shear Modulus (GPa) = 3.72051 19.71954 11.72002
#
# Velocity S-wave (km/s) = 1.46320 3.36861 2.59697
# Velocity P-wave (km/s) = 4.28557 6.14617 5.29818
#
# Compressibility (1/GPa) = 0.03709792
#
# Stress axis : x y z
#
# Youngs Moduli (GPa) = 38.23615 76.75460 123.71382
#
# Poissons Ratio (x) = -0.11956 0.55125
# Poissons Ratio (y) = -0.05956 0.27035
# Poissons Ratio (z) = 0.17037 0.16773
#
# Static dielectric constant tensor:
#      x y z
#    x 1.576110 0.000000 0.013660 
#    y 0.000000 1.593090 0.000000 
#    z 0.013660 0.000000 1.628830 
# 
# From -- ./inp_files/58057.got.cif
#   From: 2010.05.17/outbox.cif.g08.bks.cpg/sg11_30_cif.got.tgz:58057.got - 2010.06.03 12:22:45.
