data_PCOD9155944
_publ_section_title
;
Structure prediction by ZEFSAII (Michael W. Deem and Ramdas Pophale) SiO2 
 PCOD9155944
Probable space group: P 21/M
;
_chemical_formula_sum "Si O2"
_cell_formula_units_Z 32
_cell_length_a 9.359740
_cell_length_b 20.682345
_cell_length_c 18.228995
_cell_angle_alpha 90.000000
_cell_angle_beta 26.967554
_cell_angle_gamma 90.000000
_cell_volume 1600.258115
_symmetry_space_group_name_H-M "P 21/M"
_symmetry_group_IT_number 11
_symmetry_cell_setting 'monoclinic'
loop_
_space_group_symop_operation_xyz
x,y,z
-x,1/2+y,-z
-x,-y,-z
x,1/2-y,z
loop_
_atom_site_type_symbol
_atom_site_label
_atom_site_fract_x
_atom_site_fract_y
_atom_site_fract_z
Si Si1 0.791529 0.628455 0.628999
Si Si2 0.455546 0.822734 0.925504
Si Si3 0.701416 0.437926 0.494206
Si Si4 0.366745 0.450244 0.891289
Si Si5 0.649503 0.321188 0.714411
Si Si6 0.293641 0.177549 0.721272
Si Si7 0.330986 0.528878 0.762159
Si Si8 0.691578 0.541625 0.854416
O O1 0.600018 0.668535 0.777704
O O2 0.549984 0.583903 0.695856
O O3 0.052460 0.586432 0.554780
O O4 0.998071 0.669456 0.477620
O O5 0.528631 0.750000 0.917716
O O6 0.598854 0.883373 0.902847
O O7 0.079567 0.831831 0.100169
O O8 0.466928 0.377070 0.594201
O O9 0.500827 0.497328 0.615623
O O10 0.931361 0.458735 0.323457
O O11 0.548405 0.382418 0.809197
O O12 0.314463 0.471518 0.830795
O O13 0.561014 0.508064 0.839641
O O14 0.024529 0.447120 0.085158
O O15 0.610744 0.250000 0.765759
O O16 0.435149 0.323960 0.738825
O O17 0.354710 0.250000 0.664294
O O18 0.500000 0.500000 0.000000
#
# Coordination Sequence:
#
# PCOD9155944 Si02
#       8
#     4   4   4   4   4   4   4   4
#     4  10  17  27  48  79 111 139 164 211 261 329
#     4  10  19  33  53  77 106 139 175 221 268 311
#     4  10  18  30  51  77 107 139 171 215 263 314
#     4  11  20  33  55  76 110 141 176 217 265 319
#     4  10  19  30  48  79 115 144 172 211 269 333
#     4   9  17  29  49  80 113 137 164 211 274 328
#     4  11  18  30  54  84 106 137 170 214 274 322
#     4  11  24  39  54  77 106 143 187 226 261 312
#
# _framework density 19.996776000000001
#
# number of rings (size 3 to 8) (size 9 to 14) (size 15 to 20)
#    0.000    1.750    5.000    3.000    0.000    3.000 
#    0.000    3.750    0.000    0.000    0.000    0.000 
#    0.000    0.000    0.000    0.000    0.000    0.000 
#
# Total GULP energy -178533.606985 kJ/mol
# GULP energy per Si atom -5579.175218 kJ/mol
# Density = 1.995126 g / cm^3
# Si number density = 19.996776 Si / 1000 Ang^3
#
#
#
# Elastic Constant Matrix: (Units=GPa)
#
#
# Indices 1 2 3 4 5 6 
#
# 1 14.5096 15.4967 17.1256 0.0000 -2.7992 0.0000
# 2 15.4967 124.7050 66.4843 0.0000 2.9391 0.0000
# 3 17.1256 66.4843 153.3041 0.0000 -4.9610 0.0000
# 4 0.0000 0.0000 0.0000 29.7548 0.0000 -9.5609
# 5 -2.7992 2.9391 -4.9610 0.0000 13.9928 0.0000
# 6 0.0000 0.0000 0.0000 -9.5609 0.0000 7.4467
#
#
#
# Elastic Compliance Matrix: (Units=1/GPa)
#
#
# Indices 1 2 3 4 5 6 
#
# 1 0.087795 -0.008309 -0.005644 0.000000 0.017307 0.000000
# 2 -0.008309 0.011425 -0.004206 0.000000 -0.005553 0.000000
# 3 -0.005644 -0.004206 0.009074 0.000000 0.002971 0.000000
# 4 0.000000 0.000000 0.000000 0.057210 0.000000 0.073453
# 5 0.017307 -0.005553 0.002971 0.000000 0.077147 0.000000
# 6 0.000000 0.000000 0.000000 0.073453 0.000000 0.228596
#
#
# Mechanical properties :
#
#
# Convention : Reuss Voigt Hill
#
# Bulk Modulus (GPa) = 13.89371 54.52575 34.20973
# Shear Modulus (GPa) = 9.40634 23.13300 16.26967
#
# Velocity S-wave (km/s) = 2.17121 3.40492 2.85549
# Velocity P-wave (km/s) = 3.63986 6.54098 5.29306
#
# Compressibility (1/GPa) = 0.07197501
#
# Stress axis : x y z
#
# Youngs Moduli (GPa) = 11.39021 87.52932 110.20783
#
# Poissons Ratio (x) = 0.72726 0.62203
# Poissons Ratio (y) = 0.09464 0.46355
# Poissons Ratio (z) = 0.06429 0.36816
#
# Static dielectric constant tensor:
#      x y z
#    x 1.725210 0.000000 0.030710 
#    y 0.000000 1.712290 0.000000 
#    z 0.030710 0.000000 1.737510 
# 
# From -- ./inp_files/64914.got.cif
#   From: 2010.05.17/outbox.cif.g08.bks.cpg/sg11_33_cif.got.tgz:64914.got - 2010.06.03 12:22:45.
