data_PCOD9155212
_publ_section_title
;
Structure prediction by ZEFSAII (Michael W. Deem and Ramdas Pophale) SiO2 
 PCOD9155212
Probable space group: P 2/M
;
_chemical_formula_sum "Si O2"
_cell_formula_units_Z 32
_cell_length_a 21.000000
_cell_length_b 9.000000
_cell_length_c 12.000000
_cell_angle_alpha 90.000000
_cell_angle_beta 120.000000
_cell_angle_gamma 90.000000
_cell_volume 1964.145616
_symmetry_space_group_name_H-M "P 2/M"
_symmetry_group_IT_number 10
_symmetry_cell_setting 'monoclinic'
loop_
_space_group_symop_operation_xyz
x,y,z
-x,y,-z
-x,-y,-z
x,-y,z
loop_
_atom_site_type_symbol
_atom_site_label
_atom_site_fract_x
_atom_site_fract_y
_atom_site_fract_z
Si Si1 0.935746 0.823589 0.061474
Si Si2 0.806399 0.180993 0.525925
Si Si3 0.088274 0.319443 0.201800
Si Si4 0.652564 0.322373 0.297096
Si Si5 0.817700 0.175154 0.149993
Si Si6 0.505072 0.174564 0.869393
Si Si7 0.660769 0.676462 0.034799
Si Si8 0.088175 0.679319 0.570056
O O1 0.866309 0.814492 0.081593
O O2 0.009042 0.744234 0.175744
O O3 0.951278 0.000000 0.058469
O O4 0.915222 0.741145 0.928268
O O5 0.842524 0.248683 0.671127
O O6 0.724653 0.245523 0.419239
O O7 0.867172 0.238763 0.489665
O O8 0.803367 0.000000 0.526140
O O9 0.089633 0.500000 0.208367
O O10 0.651976 0.500000 0.322095
O O11 0.570284 0.250935 0.244503
O O12 0.661622 0.306915 0.170793
O O13 0.736103 0.242689 0.064000
O O14 0.865800 0.265822 0.282400
O O15 0.811979 0.000000 0.177481
O O16 0.507123 0.000000 0.839116
O O17 0.500000 0.180807 0.000000
O O18 0.584556 0.254067 0.919148
O O19 0.662699 0.500000 0.012376
O O20 0.094220 0.500000 0.562273
O O21 0.000000 0.714387 0.500000
#
# Coordination Sequence:
#
# PCOD9155212 Si02
#       8
#     4   4   4   4   4   4   4   4
#     4  10  21  38  57  78 103 133 174 221 266 309
#     4  12  23  35  53  75 104 138 174 215 261 309
#     4  11  22  37  57  78 101 133 175 221 267 311
#     4  10  19  32  49  73 104 137 174 212 255 306
#     4  11  22  34  52  76 104 137 173 213 258 309
#     4   9  17  29  47  70 100 136 174 210 251 303
#     4  10  19  31  49  72 104 139 173 213 254 303
#     4  11  23  36  50  71 102 138 174 211 255 311
#
# _framework density 16.292071
#
# number of rings (size 3 to 8) (size 9 to 14) (size 15 to 20)
#    0.000    1.500    1.250    6.000    0.000    7.500 
#    0.000    0.000    0.000    0.000    0.000    0.875 
#    0.000    7.000    0.000    0.000    0.000    0.000 
#
# Total GULP energy -178432.182016 kJ/mol
# GULP energy per Si atom -5576.005688 kJ/mol
# Density = 1.625499 g / cm^3
# Si number density = 16.292071 Si / 1000 Ang^3
#
#
#
# Elastic Constant Matrix: (Units=GPa)
#
#
# Indices 1 2 3 4 5 6 
#
# 1 100.9185 55.0976 42.3773 0.0000 38.1941 0.0000
# 2 55.0976 164.1055 53.8953 0.0000 31.0714 0.0000
# 3 42.3773 53.8953 95.9563 0.0000 37.6265 0.0000
# 4 0.0000 0.0000 0.0000 28.6582 0.0000 12.5312
# 5 38.1941 31.0714 37.6265 0.0000 41.1263 0.0000
# 6 0.0000 0.0000 0.0000 12.5312 0.0000 32.0632
#
#
#
# Elastic Compliance Matrix: (Units=1/GPa)
#
#
# Indices 1 2 3 4 5 6 
#
# 1 0.016550 -0.002947 -0.000780 0.000000 -0.012430 0.000000
# 2 -0.002947 0.008212 -0.003043 0.000000 -0.000683 0.000000
# 3 -0.000780 -0.003043 0.017605 0.000000 -0.013084 0.000000
# 4 0.000000 0.000000 0.000000 0.042086 0.000000 -0.016449
# 5 -0.012430 -0.000683 -0.013084 0.000000 0.048346 0.000000
# 6 0.000000 0.000000 0.000000 -0.016449 0.000000 0.037617
#
#
# Mechanical properties :
#
#
# Convention : Reuss Voigt Hill
#
# Bulk Modulus (GPa) = 34.68854 73.74675 54.21765
# Shear Modulus (GPa) = 25.83121 34.34354 30.08738
#
# Velocity S-wave (km/s) = 3.98616 4.59627 4.30204
# Velocity P-wave (km/s) = 6.52103 8.57504 7.61758
#
# Compressibility (1/GPa) = 0.02882796
#
# Stress axis : x y z
#
# Youngs Moduli (GPa) = 60.42456 121.77624 56.80085
#
# Poissons Ratio (x) = 0.35887 0.04428
# Poissons Ratio (y) = 0.17807 0.17284
# Poissons Ratio (z) = 0.04710 0.37055
#
# Static dielectric constant tensor:
#      x y z
#    x 1.563100 0.000000 -0.014420 
#    y 0.000000 1.557430 0.000000 
#    z -0.014420 0.000000 1.547310 
# 
# From -- ./inp_files/54889.got.cif
#   From: 2010.05.17/outbox.ucp.g08.bks.cvg/sg10_28_cif.got.tgz:54889.got - 2010.06.11 11:31:16.
