data_PCOD9155243
_publ_section_title
;
Structure prediction by ZEFSAII (Michael W. Deem and Ramdas Pophale) SiO2 
 PCOD9155243
Probable space group: P 2/M
;
_chemical_formula_sum "Si O2"
_cell_formula_units_Z 32
_cell_length_a 15.000000
_cell_length_b 9.000000
_cell_length_c 15.000000
_cell_angle_alpha 90.000000
_cell_angle_beta 120.000000
_cell_angle_gamma 90.000000
_cell_volume 1753.701443
_symmetry_space_group_name_H-M "P 2/M"
_symmetry_group_IT_number 10
_symmetry_cell_setting 'monoclinic'
loop_
_space_group_symop_operation_xyz
x,y,z
-x,y,-z
-x,-y,-z
x,-y,z
loop_
_atom_site_type_symbol
_atom_site_label
_atom_site_fract_x
_atom_site_fract_y
_atom_site_fract_z
Si Si1 0.646098 0.675192 0.915327
Si Si2 0.875942 0.322189 0.324692
Si Si3 0.153117 0.177219 0.048634
Si Si4 0.099200 0.325638 0.375945
Si Si5 0.019703 0.675803 0.136842
Si Si6 0.296608 0.826701 0.873426
Si Si7 0.239873 0.175238 0.569737
Si Si8 0.440262 0.171173 0.769749
O O1 0.664750 0.500000 0.921978
O O2 0.732395 0.763096 0.903633
O O3 0.534450 0.718123 0.823300
O O4 0.657210 0.736282 0.021481
O O5 0.867486 0.500000 0.311296
O O6 0.809494 0.243931 0.214345
O O7 0.825417 0.267076 0.390556
O O8 0.995896 0.283600 0.378295
O O9 0.097410 0.253151 0.104595
O O10 0.147467 0.000000 0.050700
O O11 0.087164 0.238250 0.931842
O O12 0.120824 0.500000 0.403240
O O13 0.066481 0.307589 0.257612
O O14 0.195147 0.227761 0.453803
O O15 0.003937 0.500000 0.112399
O O16 0.373802 0.820044 0.827696
O O17 0.283423 0.000000 0.891416
O O18 0.359302 0.203537 0.650617
O O19 0.223372 0.000000 0.576337
O O20 0.476632 0.000000 0.780373
#
# Coordination Sequence:
#
# PCOD9155243 Si02
#       8
#     4   4   4   4   4   4   4   4
#     4  12  23  34  53  79 104 137 178 217 261 311
#     4  10  19  32  50  75 109 144 178 214 255 307
#     4  11  22  37  57  81 109 140 172 210 260 315
#     4  10  21  34  52  77 105 139 175 214 260 308
#     4  10  20  37  58  82 112 139 169 213 261 312
#     4  10  20  34  52  76 108 142 175 215 261 311
#     4  10  21  35  52  74 104 141 179 220 261 302
#     4   9  20  37  52  72 104 140 176 217 263 306
#
# _framework density 18.247119999999999
#
# number of rings (size 3 to 8) (size 9 to 14) (size 15 to 20)
#    0.000    1.750    0.000    6.750    0.000    9.000 
#    0.000    0.000    0.000    0.750    0.000    5.250 
#    0.000    0.000    0.000    0.000    0.000    0.000 
#
# Total GULP energy -178727.048167 kJ/mol
# GULP energy per Si atom -5585.220255 kJ/mol
# Density = 1.820559 g / cm^3
# Si number density = 18.247120 Si / 1000 Ang^3
#
#
#
# Elastic Constant Matrix: (Units=GPa)
#
#
# Indices 1 2 3 4 5 6 
#
# 1 34.9927 18.7061 11.1627 0.0000 12.9850 0.0000
# 2 18.7061 94.8862 28.0164 0.0000 15.4133 0.0000
# 3 11.1627 28.0164 60.2452 0.0000 16.4634 0.0000
# 4 0.0000 0.0000 0.0000 29.4128 0.0000 10.1787
# 5 12.9850 15.4133 16.4634 0.0000 19.6002 0.0000
# 6 0.0000 0.0000 0.0000 10.1787 0.0000 17.3386
#
#
#
# Elastic Compliance Matrix: (Units=1/GPa)
#
#
# Indices 1 2 3 4 5 6 
#
# 1 0.039246 -0.004239 0.001160 0.000000 -0.023641 0.000000
# 2 -0.004239 0.013299 -0.004294 0.000000 -0.004043 0.000000
# 3 0.001160 -0.004294 0.022932 0.000000 -0.016653 0.000000
# 4 0.000000 0.000000 0.000000 0.042667 0.000000 -0.025048
# 5 -0.023641 -0.004043 -0.016653 0.000000 0.083849 0.000000
# 6 0.000000 0.000000 0.000000 -0.025048 0.000000 0.072380
#
#
# Mechanical properties :
#
#
# Convention : Reuss Voigt Hill
#
# Bulk Modulus (GPa) = 16.46629 33.98826 25.22728
# Shear Modulus (GPa) = 16.16217 22.08624 19.12420
#
# Velocity S-wave (km/s) = 2.97936 3.48285 3.24090
# Velocity P-wave (km/s) = 4.56937 5.90260 5.27825
#
# Compressibility (1/GPa) = 0.06073012
#
# Stress axis : x y z
#
# Youngs Moduli (GPa) = 25.48010 75.19132 43.60739
#
# Poissons Ratio (x) = 0.31877 -0.05059
# Poissons Ratio (y) = 0.10802 0.18727
# Poissons Ratio (z) = -0.02956 0.32291
#
# Static dielectric constant tensor:
#      x y z
#    x 1.633340 0.000000 -0.012830 
#    y 0.000000 1.602970 0.000000 
#    z -0.012830 0.000000 1.658810 
# 
# From -- ./inp_files/66604.got.cif
#   From: 2010.05.17/outbox.ucp.g08.bks.cvg/sg10_34_cif.got.tgz:66604.got - 2010.06.11 11:31:16.
