data_PCOD9155378
_publ_section_title
;
Structure prediction by ZEFSAII (Michael W. Deem and Ramdas Pophale) SiO2 
 PCOD9155378
Probable space group: P 2/M
;
_chemical_formula_sum "Si O2"
_cell_formula_units_Z 32
_cell_length_a 15.000000
_cell_length_b 9.000000
_cell_length_c 24.000000
_cell_angle_alpha 90.000000
_cell_angle_beta 30.000000
_cell_angle_gamma 90.000000
_cell_volume 1620.000000
_symmetry_space_group_name_H-M "P 2/M"
_symmetry_group_IT_number 10
_symmetry_cell_setting 'monoclinic'
loop_
_space_group_symop_operation_xyz
x,y,z
-x,y,-z
-x,-y,-z
x,-y,z
loop_
_atom_site_type_symbol
_atom_site_label
_atom_site_fract_x
_atom_site_fract_y
_atom_site_fract_z
Si Si1 0.957492 0.822177 0.459202
Si Si2 0.018471 0.678318 0.161469
Si Si3 0.546039 0.672340 0.219758
Si Si4 0.103637 0.173962 0.002350
Si Si5 0.408420 0.175533 0.398167
Si Si6 0.624623 0.176036 0.984136
Si Si7 0.619722 0.665719 0.381092
Si Si8 0.346026 0.827529 0.235220
O O1 0.786155 0.764343 0.517682
O O2 0.000000 0.770331 0.500000
O O3 0.143443 0.800704 0.325913
O O4 0.927066 0.000000 0.481142
O O5 0.043452 0.500000 0.141797
O O6 0.004307 0.763517 0.109947
O O7 0.188520 0.742379 0.103516
O O8 0.819692 0.707715 0.292139
O O9 0.539616 0.500000 0.237882
O O10 0.533397 0.778475 0.279412
O O11 0.391617 0.718793 0.260871
O O12 0.727096 0.719046 0.092154
O O13 0.151766 0.000000 0.984755
O O14 0.000000 0.184899 0.000000
O O15 0.508772 0.238084 0.397398
O O16 0.392812 0.000000 0.412785
O O17 0.662501 0.000000 0.955034
O O18 0.500000 0.227555 0.000000
O O19 0.494381 0.189972 0.107848
O O20 0.500000 0.659086 0.500000
O O21 0.637437 0.500000 0.346223
O O22 0.353843 0.000000 0.250831
#
# Coordination Sequence:
#
# PCOD9155378 Si02
#       8
#     4   4   4   4   4   4   4   4
#     4   9  17  32  56  85 118 158 201 247 305 362
#     4  11  23  40  64  91 121 161 205 253 308 367
#     4  12  23  35  56  87 124 160 199 247 305 370
#     4  11  23  38  59  88 121 159 202 252 309 368
#     4  11  22  38  63  93 123 161 210 260 307 361
#     4  10  22  39  62  91 123 161 205 253 305 362
#     4  10  24  46  66  87 123 167 206 252 312 365
#     4  10  19  36  59  82 117 161 202 247 302 360
#
# _framework density 19.753086
#
# number of rings (size 3 to 8) (size 9 to 14) (size 15 to 20)
#    0.000    1.500    2.500    3.000    0.000    5.500 
#    0.000    3.125    0.000    0.000    0.000    0.000 
#    0.000    0.000    0.000    0.000    0.000    0.000 
#
# Total GULP energy -178399.130894 kJ/mol
# GULP energy per Si atom -5574.972840 kJ/mol
# Density = 1.970813 g / cm^3
# Si number density = 19.753086 Si / 1000 Ang^3
#
#
#
# Elastic Constant Matrix: (Units=GPa)
#
#
# Indices 1 2 3 4 5 6 
#
# 1 108.0253 51.9899 38.3960 0.0000 -13.8788 0.0000
# 2 51.9899 40.9688 13.7358 0.0000 -21.0619 0.0000
# 3 38.3960 13.7358 99.1515 0.0000 -31.3926 0.0000
# 4 0.0000 0.0000 0.0000 32.0195 0.0000 -16.3180
# 5 -13.8788 -21.0619 -31.3926 0.0000 22.7621 0.0000
# 6 0.0000 0.0000 0.0000 -16.3180 0.0000 37.7333
#
#
#
# Elastic Compliance Matrix: (Units=1/GPa)
#
#
# Indices 1 2 3 4 5 6 
#
# 1 -0.047005 0.120829 0.049327 0.000000 0.151172 0.000000
# 2 0.120829 -0.252736 -0.110935 0.000000 -0.313181 0.000000
# 3 0.049327 -0.110935 -0.029512 0.000000 -0.113274 0.000000
# 4 0.000000 0.000000 0.000000 0.040060 0.000000 0.017324
# 5 0.151172 -0.313181 -0.113274 0.000000 -0.309902 0.000000
# 6 0.000000 0.000000 0.000000 0.017324 0.000000 0.033994
#
#
# Mechanical properties :
#
#
# Convention : Reuss Voigt Hill
#
# Bulk Modulus (GPa) = -4.74357 50.70988 22.98315
# Shear Modulus (GPa) = -6.63295 28.10458 10.73582
#
# Velocity S-wave (km/s) = -1.83445 3.77609 2.33384
# Velocity P-wave (km/s) = 2.62557 6.68875 4.35004
#
# Compressibility (1/GPa) = -0.21081151
#
# Stress axis : x y z
#
# Youngs Moduli (GPa) = -21.27429 -3.95670 -33.88498
#
# Poissons Ratio (x) = 0.47808 1.67143
# Poissons Ratio (y) = 2.57055 -3.75904
# Poissons Ratio (z) = 1.04939 -0.43894
#
# Static dielectric constant tensor:
#      x y z
#    x 1.767680 0.000000 0.026490 
#    y 0.000000 1.681330 0.000000 
#    z 0.026490 0.000000 1.780760 
# 
# From -- ./inp_files/89516.got.cif
#   From: 2010.05.17/outbox.ucp.g08.bks.cvg/sg10_45_cif.got.tgz:89516.got - 2010.06.11 11:31:16.
