data_PCOD9155340
_publ_section_title
;
Structure prediction by ZEFSAII (Michael W. Deem and Ramdas Pophale) SiO2 
 PCOD9155340
Probable space group: P 2/M
;
_chemical_formula_sum "Si O2"
_cell_formula_units_Z 24
_cell_length_a 24.000000
_cell_length_b 9.000000
_cell_length_c 18.000000
_cell_angle_alpha 90.000000
_cell_angle_beta 20.000000
_cell_angle_gamma 90.000000
_cell_volume 1329.774317
_symmetry_space_group_name_H-M "P 2/M"
_symmetry_group_IT_number 10
_symmetry_cell_setting 'monoclinic'
loop_
_space_group_symop_operation_xyz
x,y,z
-x,y,-z
-x,-y,-z
x,-y,z
loop_
_atom_site_type_symbol
_atom_site_label
_atom_site_fract_x
_atom_site_fract_y
_atom_site_fract_z
Si Si1 0.830326 0.320248 0.747225
Si Si2 0.149325 0.678653 0.105028
Si Si3 0.325007 0.821955 0.755422
Si Si4 0.508647 0.678283 0.900749
Si Si5 0.831331 0.178638 0.427559
Si Si6 0.012521 0.676029 0.072171
O O1 0.832298 0.500000 0.736092
O O2 0.826662 0.287900 0.838872
O O3 0.000000 0.263976 0.500000
O O4 0.664046 0.270349 0.916642
O O5 0.140650 0.500000 0.106359
O O6 0.981141 0.752756 0.287669
O O7 0.293856 0.746996 0.874342
O O8 0.500000 0.790982 0.500000
O O9 0.304272 0.000000 0.786525
O O10 0.180727 0.750804 0.887546
O O11 0.527613 0.500000 0.863941
O O12 0.661689 0.761383 0.672592
O O13 0.500000 0.700906 0.000000
O O14 0.870046 0.242769 0.296896
O O15 0.837621 0.000000 0.420192
O O16 0.011982 0.500000 0.090932
O O17 0.000000 0.692680 0.000000
#
# Coordination Sequence:
#
# PCOD9155340 Si02
#       6
#     4   4   4   4   4   4
#     4   9  18  33  55  83 108 134 174 221 268 315
#     4  10  19  34  57  80 105 139 181 226 268 314
#     4  10  21  36  54  78 110 145 179 217 268 327
#     4  10  20  36  59  83 109 142 181 225 269 317
#     4  11  22  36  55  79 111 146 180 220 269 326
#     4  10  21  37  58  82 107 139 183 229 270 317
#
# _framework density 18.048175000000001
#
# number of rings (size 3 to 8) (size 9 to 14) (size 15 to 20)
#    0.000    2.000    0.000    6.000    0.000    7.000 
#    0.000    6.667    0.000    3.500    0.000    0.000 
#    0.000    0.000    0.000    0.000    0.000    0.000 
#
# Total GULP energy -133967.283784 kJ/mol
# GULP energy per Si atom -5581.970158 kJ/mol
# Density = 1.800710 g / cm^3
# Si number density = 18.048175 Si / 1000 Ang^3
#
#
#
# Elastic Constant Matrix: (Units=GPa)
#
#
# Indices 1 2 3 4 5 6 
#
# 1 121.7321 56.5894 79.8368 0.0000 15.6933 0.0000
# 2 56.5894 110.9382 79.1768 0.0000 15.3124 0.0000
# 3 79.8368 79.1768 191.4949 0.0000 17.7370 0.0000
# 4 0.0000 0.0000 0.0000 32.2521 0.0000 3.8094
# 5 15.6933 15.3124 17.7370 0.0000 20.5335 0.0000
# 6 0.0000 0.0000 0.0000 3.8094 0.0000 -12.7011
#
#
#
# Elastic Compliance Matrix: (Units=1/GPa)
#
#
# Indices 1 2 3 4 5 6 
#
# 1 0.012592 -0.003378 -0.003473 0.000000 -0.004105 0.000000
# 2 -0.003378 0.014270 -0.004071 0.000000 -0.004543 0.000000
# 3 -0.003473 -0.004071 0.008507 0.000000 -0.001658 0.000000
# 4 0.000000 0.000000 0.000000 0.029945 0.000000 0.008981
# 5 -0.004105 -0.004543 -0.001658 0.000000 0.056658 0.000000
# 6 0.000000 0.000000 0.000000 0.008981 0.000000 -0.076040
#
#
# Mechanical properties :
#
#
# Convention : Reuss Voigt Hill
#
# Bulk Modulus (GPa) = 73.93831 95.04126 84.48979
# Shear Modulus (GPa) = 69.17245 21.92106 45.54676
#
# Velocity S-wave (km/s) = 6.19756 3.48887 5.02902
# Velocity P-wave (km/s) = 9.60568 8.30685 8.97978
#
# Compressibility (1/GPa) = 0.01352479
#
# Stress axis : x y z
#
# Youngs Moduli (GPa) = 79.41629 70.07916 117.55415
#
# Poissons Ratio (x) = 0.23672 0.40825
# Poissons Ratio (y) = 0.26826 0.47855
# Poissons Ratio (z) = 0.27580 0.28528
#
# Static dielectric constant tensor:
#      x y z
#    x 1.626930 0.000000 0.007230 
#    y 0.000000 1.602110 0.000000 
#    z 0.007230 0.000000 1.596970 
# 
# From -- ./inp_files/80056.got.cif
#   From: 2010.05.17/outbox.ucp.g08.bks.cvg/sg10_41_cif.got.tgz:80056.got - 2010.06.11 11:31:16.
