data_PCOD9155108
_publ_section_title
;
Structure prediction by ZEFSAII (Michael W. Deem and Ramdas Pophale) SiO2 
 PCOD9155108
Probable space group: P 2/M
;
_chemical_formula_sum "Si O2"
_cell_formula_units_Z 24
_cell_length_a 21.000000
_cell_length_b 9.000000
_cell_length_c 12.000000
_cell_angle_alpha 90.000000
_cell_angle_beta 140.000000
_cell_angle_gamma 90.000000
_cell_volume 1457.842299
_symmetry_space_group_name_H-M "P 2/M"
_symmetry_group_IT_number 10
_symmetry_cell_setting 'monoclinic'
loop_
_space_group_symop_operation_xyz
x,y,z
-x,y,-z
-x,-y,-z
x,-y,z
loop_
_atom_site_type_symbol
_atom_site_label
_atom_site_fract_x
_atom_site_fract_y
_atom_site_fract_z
Si Si1 0.237381 0.675786 0.336159
Si Si2 0.861517 0.822196 0.603315
Si Si3 0.613300 0.679192 0.652074
Si Si4 0.236686 0.172231 0.982931
Si Si5 0.110272 0.818218 0.611075
Si Si6 0.082018 0.171190 0.974399
O O1 0.242141 0.500000 0.354751
O O2 0.223589 0.751517 0.436325
O O3 0.329285 0.727066 0.383289
O O4 0.141058 0.722725 0.135623
O O5 0.865650 0.771471 0.481577
O O6 0.969079 0.788369 0.800644
O O7 0.852004 0.000000 0.591593
O O8 0.500000 0.728813 0.500000
O O9 0.615630 0.500000 0.658484
O O10 0.676149 0.740032 0.839917
O O11 0.266571 0.000000 0.010708
O O12 0.194193 0.231131 0.810005
O O13 0.142082 0.174406 0.939121
O O14 0.000000 0.770950 0.500000
O O15 0.109261 0.000000 0.613047
O O16 0.087170 0.000000 0.022864
#
# Coordination Sequence:
#
# PCOD9155108 Si02
#       6
#     4   4   4   4   4   4
#     4  10  20  31  44  65  92 119 152 195 239 277
#     4  10  18  28  45  67  95 130 159 181 214 271
#     4   9  19  36  54  68  87 119 156 197 246 290
#     4   9  16  28  49  75  97 118 154 198 230 264
#     4   9  15  27  47  70  97 130 162 186 215 264
#     4   9  16  27  44  66  93 125 157 185 217 268
#
# _framework density 16.462686000000001
#
# number of rings (size 3 to 8) (size 9 to 14) (size 15 to 20)
#    0.000    2.667    1.667    1.000    0.000    3.667 
#    0.000    0.833    0.000    2.000    0.000    7.000 
#    0.000    0.000    0.000    0.000    0.000    0.000 
#
# Total GULP energy -133723.308533 kJ/mol
# GULP energy per Si atom -5571.804522 kJ/mol
# Density = 1.642522 g / cm^3
# Si number density = 16.462686 Si / 1000 Ang^3
#
#
#
# Elastic Constant Matrix: (Units=GPa)
#
#
# Indices 1 2 3 4 5 6 
#
# 1 123.9938 32.8680 87.3619 0.0000 -11.1727 0.0000
# 2 32.8680 3.1961 20.6350 0.0000 3.0079 0.0000
# 3 87.3619 20.6350 82.8815 0.0000 8.8600 0.0000
# 4 0.0000 0.0000 0.0000 24.6570 0.0000 -3.2622
# 5 -11.1727 3.0079 8.8600 0.0000 20.9378 0.0000
# 6 0.0000 0.0000 0.0000 -3.2622 0.0000 21.9041
#
#
#
# Elastic Compliance Matrix: (Units=1/GPa)
#
#
# Indices 1 2 3 4 5 6 
#
# 1 0.012033 0.072802 -0.031816 0.000000 0.009426 0.000000
# 2 0.072802 -0.066233 -0.068517 0.000000 0.077357 0.000000
# 3 -0.031816 -0.068517 0.066428 0.000000 -0.035244 0.000000
# 4 0.000000 0.000000 0.000000 0.041372 0.000000 0.006162
# 5 0.009426 0.077357 -0.035244 0.000000 0.056591 0.000000
# 6 0.000000 0.000000 0.000000 0.006162 0.000000 0.046571
#
#
# Mechanical properties :
#
#
# Convention : Reuss Voigt Hill
#
# Bulk Modulus (GPa) = -23.34555 54.64456 15.64951
# Shear Modulus (GPa) = 25.31047 18.11354 21.71200
#
# Velocity S-wave (km/s) = 3.92528 3.32064 3.63555
# Velocity P-wave (km/s) = 2.51637 6.92584 5.21054
#
# Compressibility (1/GPa) = -0.04283472
#
# Stress axis : x y z
#
# Youngs Moduli (GPa) = 83.10576 -15.09826 15.05389
#
# Poissons Ratio (x) = 1.09918 0.47896
# Poissons Ratio (y) = -6.05026 1.03145
# Poissons Ratio (z) = 2.64413 -1.03449
#
# Static dielectric constant tensor:
#      x y z
#    x 1.579860 0.000000 -0.028370 
#    y 0.000000 1.554870 0.000000 
#    z -0.028370 0.000000 1.538660 
# 
# From -- ./inp_files/48649.got.cif
#   From: 2010.05.17/outbox.ucp.g08.bks.cvg/sg10_25_cif.got.tgz:48649.got - 2010.06.11 11:31:16.
