data_PCOD9155114
_publ_section_title
;
Structure prediction by ZEFSAII (Michael W. Deem and Ramdas Pophale) SiO2 
 PCOD9155114
Probable space group: P 2/M
;
_chemical_formula_sum "Si O2"
_cell_formula_units_Z 32
_cell_length_a 15.000000
_cell_length_b 9.000000
_cell_length_c 21.000000
_cell_angle_alpha 90.000000
_cell_angle_beta 140.000000
_cell_angle_gamma 90.000000
_cell_volume 1822.302873
_symmetry_space_group_name_H-M "P 2/M"
_symmetry_group_IT_number 10
_symmetry_cell_setting 'monoclinic'
loop_
_space_group_symop_operation_xyz
x,y,z
-x,y,-z
-x,-y,-z
x,-y,z
loop_
_atom_site_type_symbol
_atom_site_label
_atom_site_fract_x
_atom_site_fract_y
_atom_site_fract_z
Si Si1 0.829298 0.329222 0.951514
Si Si2 0.783881 0.168260 0.802937
Si Si3 0.612263 0.176386 0.510529
Si Si4 0.497853 0.331267 0.190594
Si Si5 0.840817 0.329638 0.705069
Si Si6 0.542344 0.170052 0.338785
Si Si7 0.145127 0.326258 0.896297
Si Si8 0.430185 0.176791 0.026583
O O1 0.866105 0.500000 0.958493
O O2 0.854690 0.227434 0.905352
O O3 0.664917 0.328533 0.878207
O O4 0.893251 0.277522 0.052822
O O5 0.806176 0.282678 0.758281
O O6 0.621170 0.165402 0.732871
O O7 0.823736 0.000000 0.806981
O O8 0.500000 0.234610 0.500000
O O9 0.759550 0.212245 0.619201
O O10 0.604402 0.241311 0.436020
O O11 0.586004 0.000000 0.490230
O O12 0.539989 0.500000 0.203907
O O13 0.571166 0.257414 0.290526
O O14 0.505479 0.241994 0.129599
O O15 0.796792 0.500000 0.670471
O O16 0.003592 0.318621 0.781126
O O17 0.587913 0.000000 0.354979
O O18 0.187902 0.500000 0.924445
O O19 0.272381 0.232292 0.941801
O O20 0.433878 0.000000 0.031683
O O21 0.500000 0.229007 0.000000
#
# Coordination Sequence:
#
# PCOD9155114 Si02
#       8
#     4   4   4   4   4   4   4   4
#     4   8  15  29  45  62  88 124 163 201 238 280
#     4  10  18  29  44  64  90 126 168 207 247 288
#     4  10  19  34  50  68  94 129 175 218 255 293
#     4   9  17  29  48  74 102 130 161 196 240 294
#     4  11  22  33  46  67  95 128 168 211 251 289
#     4   9  17  30  48  67  95 131 168 213 252 285
#     4   9  20  36  50  68  97 130 162 198 242 295
#     4  10  20  34  55  82 106 127 156 194 238 294
#
# _framework density 17.560198
#
# number of rings (size 3 to 8) (size 9 to 14) (size 15 to 20)
#    0.000    2.500    1.250    2.250    0.000    6.750 
#    0.000    2.500    0.000    0.000    0.000    0.875 
#    0.000    7.000    0.000    0.000    0.000    0.000 
#
# Total GULP energy -178209.226562 kJ/mol
# GULP energy per Si atom -5569.038330 kJ/mol
# Density = 1.752023 g / cm^3
# Si number density = 17.560198 Si / 1000 Ang^3
#
#
#
# Elastic Constant Matrix: (Units=GPa)
#
#
# Indices 1 2 3 4 5 6 
#
# 1 66.1893 28.8110 31.6297 0.0000 -28.3077 0.0000
# 2 28.8110 16.3635 8.3923 0.0000 -7.6358 0.0000
# 3 31.6297 8.3923 61.2477 0.0000 -18.9828 0.0000
# 4 0.0000 0.0000 0.0000 17.6248 0.0000 -9.6429
# 5 -28.3077 -7.6358 -18.9828 0.0000 13.4353 0.0000
# 6 0.0000 0.0000 0.0000 -9.6429 0.0000 37.4157
#
#
#
# Elastic Compliance Matrix: (Units=1/GPa)
#
#
# Indices 1 2 3 4 5 6 
#
# 1 -0.126303 0.129321 -0.021692 0.000000 -0.223266 0.000000
# 2 0.129321 -0.048072 0.028081 0.000000 0.284827 0.000000
# 3 -0.021692 0.028081 0.025730 0.000000 0.006609 0.000000
# 4 0.000000 0.000000 0.000000 0.066052 0.000000 0.017023
# 5 -0.223266 0.284827 0.006609 0.000000 -0.224767 0.000000
# 6 0.000000 0.000000 0.000000 0.017023 0.000000 0.031114
#
#
# Mechanical properties :
#
#
# Convention : Reuss Voigt Hill
#
# Bulk Modulus (GPa) = 8.14509 31.27405 19.70957
# Shear Modulus (GPa) = -9.86699 18.69301 4.41301
#
# Velocity S-wave (km/s) = -2.37300 3.26622 1.58699
# Velocity P-wave (km/s) = 1.69108 5.66326 3.82183
#
# Compressibility (1/GPa) = 0.12277338
#
# Stress axis : x y z
#
# Youngs Moduli (GPa) = -7.91748 -20.80195 38.86492
#
# Poissons Ratio (x) = 2.69012 0.84306
# Poissons Ratio (y) = 1.02389 -1.09136
# Poissons Ratio (z) = -0.17175 0.58413
#
# Static dielectric constant tensor:
#      x y z
#    x 1.587440 0.000000 -0.021850 
#    y 0.000000 1.592990 0.000000 
#    z -0.021850 0.000000 1.726250 
# 
# From -- ./inp_files/84764.got.cif
#   From: 2010.05.17/outbox.ucp.g08.bks.cvg/sg10_43_cif.got.tgz:84764.got - 2010.06.11 11:31:16.
