data_PCOD9155729
_publ_section_title
;
Structure prediction by ZEFSAII (Michael W. Deem and Ramdas Pophale) SiO2 
 PCOD9155729
Probable space group: P 21/M
;
_chemical_formula_sum "Si O2"
_cell_formula_units_Z 20
_cell_length_a 7.094770
_cell_length_b 21.102405
_cell_length_c 10.122326
_cell_angle_alpha 90.000000
_cell_angle_beta 31.782551
_cell_angle_gamma 90.000000
_cell_volume 798.199391
_symmetry_space_group_name_H-M "P 21/M"
_symmetry_group_IT_number 11
_symmetry_cell_setting 'monoclinic'
loop_
_space_group_symop_operation_xyz
x,y,z
-x,1/2+y,-z
-x,-y,-z
x,1/2-y,z
loop_
_atom_site_type_symbol
_atom_site_label
_atom_site_fract_x
_atom_site_fract_y
_atom_site_fract_z
Si Si1 0.783559 0.010152 0.449849
Si Si2 0.755026 0.178998 0.167186
Si Si3 0.971924 0.624915 0.456498
Si Si4 0.467070 0.322980 0.060856
Si Si5 0.808135 0.554809 0.024209
O O1 0.582842 0.054965 0.675200
O O2 0.500000 0.000000 0.500000
O O3 0.855678 0.945346 0.483842
O O4 0.135102 0.031663 0.160011
O O5 0.859396 0.250000 0.145531
O O6 0.331200 0.167584 0.441671
O O7 0.760385 0.173848 0.004455
O O8 0.980068 0.120625 0.087529
O O9 0.871627 0.644952 0.665725
O O10 0.351977 0.644388 0.171186
O O11 0.388356 0.250000 0.081318
O O12 0.000000 0.500000 0.000000
#
# Coordination Sequence:
#
# PCOD9155729 Si02
#       5
#     4   4   4   4   4
#     4  10  15  22  30  33  39  46  54  60  63  70
#     4   9  17  22  28  35  42  47  52  59  66  71
#     4  10  15  22  28  35  39  46  54  59  64  71
#     4   9  15  21  26  34  43  47  50  58  67  72
#     4  10  16  23  29  35  40  47  54  59  64  71
#
# _framework density 25.056397
#
# number of rings (size 3 to 8) (size 9 to 14) (size 15 to 20)
#    1.200    1.200    4.000    4.800    0.000    0.000 
#    0.000    0.000    0.000    0.000    0.000    0.000 
#    0.000    0.000    0.000    0.000    0.000    0.000 
#
# Total GULP energy -111719.701592 kJ/mol
# GULP energy per Si atom -5585.985080 kJ/mol
# Density = 2.499937 g / cm^3
# Si number density = 25.056397 Si / 1000 Ang^3
#
#
#
# Elastic Constant Matrix: (Units=GPa)
#
#
# Indices 1 2 3 4 5 6 
#
# 1 62.4897 11.5418 19.0389 0.0000 -4.7627 0.0000
# 2 11.5418 165.3600 72.9312 0.0000 19.7077 0.0000
# 3 19.0389 72.9312 253.6775 0.0000 37.4678 0.0000
# 4 0.0000 0.0000 0.0000 37.8445 0.0000 8.9530
# 5 -4.7627 19.7077 37.4678 0.0000 37.6933 0.0000
# 6 0.0000 0.0000 0.0000 8.9530 0.0000 27.3058
#
#
#
# Elastic Compliance Matrix: (Units=1/GPa)
#
#
# Indices 1 2 3 4 5 6 
#
# 1 0.017005 -0.000979 -0.001626 0.000000 0.004277 0.000000
# 2 -0.000979 0.007103 -0.001643 0.000000 -0.002204 0.000000
# 3 -0.001626 -0.001643 0.005204 0.000000 -0.004519 0.000000
# 4 0.000000 0.000000 0.000000 0.028646 0.000000 -0.009392
# 5 0.004277 -0.002204 -0.004519 0.000000 0.032715 0.000000
# 6 0.000000 0.000000 0.000000 -0.009392 0.000000 0.039702
#
#
# Mechanical properties :
#
#
# Convention : Reuss Voigt Hill
#
# Bulk Modulus (GPa) = 48.04364 76.50567 62.27465
# Shear Modulus (GPa) = 34.29097 45.76974 40.03036
#
# Velocity S-wave (km/s) = 3.70341 4.27859 4.00135
# Velocity P-wave (km/s) = 6.12395 7.41675 6.80114
#
# Compressibility (1/GPa) = 0.02081441
#
# Stress axis : x y z
#
# Youngs Moduli (GPa) = 58.80595 140.78280 192.16218
#
# Poissons Ratio (x) = 0.13788 0.31255
# Poissons Ratio (y) = 0.05759 0.31573
# Poissons Ratio (z) = 0.09565 0.23131
#
# Static dielectric constant tensor:
#      x y z
#    x 2.009890 0.000000 -0.041470 
#    y 0.000000 1.834330 0.000000 
#    z -0.041470 0.000000 2.036720 
# 
# From -- ./inp_files/60510.got.cif
#   From: 2010.05.17/outbox.cif.g08.bks.cpg/sg11_31_cif.got.tgz:60510.got - 2010.06.03 12:22:45.
