data_PCOD9155455
_publ_section_title
;
Structure prediction by ZEFSAII (Michael W. Deem and Ramdas Pophale) SiO2 
 PCOD9155455
Probable space group: P 2/M
;
_chemical_formula_sum "Si O2"
_cell_formula_units_Z 32
_cell_length_a 27.000000
_cell_length_b 9.000000
_cell_length_c 21.000000
_cell_angle_alpha 90.000000
_cell_angle_beta 160.000000
_cell_angle_gamma 90.000000
_cell_volume 1745.328791
_symmetry_space_group_name_H-M "P 2/M"
_symmetry_group_IT_number 10
_symmetry_cell_setting 'monoclinic'
loop_
_space_group_symop_operation_xyz
x,y,z
-x,y,-z
-x,-y,-z
x,-y,z
loop_
_atom_site_type_symbol
_atom_site_label
_atom_site_fract_x
_atom_site_fract_y
_atom_site_fract_z
Si Si1 0.842733 0.678674 0.455630
Si Si2 0.826177 0.664981 0.290911
Si Si3 0.839487 0.823789 0.179234
Si Si4 0.459311 0.679813 0.208394
Si Si5 0.088754 0.332746 0.249679
Si Si6 0.306653 0.822049 0.604610
Si Si7 0.120521 0.830766 0.088537
Si Si8 0.673532 0.332353 0.575802
O O1 0.855126 0.500000 0.480119
O O2 0.784917 0.701142 0.313394
O O3 0.735696 0.750883 0.378281
O O4 0.004839 0.751427 0.651471
O O5 0.767247 0.500000 0.201955
O O6 0.803123 0.787954 0.209678
O O7 0.000000 0.650085 0.500000
O O8 0.843828 0.000000 0.173387
O O9 0.702489 0.742464 0.982338
O O10 0.462958 0.500000 0.206577
O O11 0.555484 0.749717 0.266407
O O12 0.540132 0.719956 0.371976
O O13 0.076043 0.500000 0.260718
O O14 0.166891 0.223132 0.393008
O O15 0.198039 0.340662 0.321680
O O16 0.940720 0.270963 0.041858
O O17 0.323734 0.000000 0.628900
O O18 0.267060 0.770297 0.296727
O O19 0.133115 0.000000 0.082594
O O20 0.000000 0.827840 0.000000
O O21 0.648061 0.500000 0.568313
#
# Coordination Sequence:
#
# PCOD9155455 Si02
#       8
#     4   4   4   4   4   4   4   4
#     4  10  20  36  56  76 100 133 170 203 243 299
#     4   8  16  32  53  74  97 128 165 203 244 294
#     4  11  21  33  53  80 105 129 163 209 253 290
#     4  10  20  35  52  71 101 139 172 202 246 304
#     4   9  16  27  42  61  90 128 165 198 239 294
#     4  11  21  33  50  75 105 132 164 209 257 298
#     4   9  15  22  36  60  89 120 156 201 247 286
#     4   8  15  26  41  61  87 123 163 200 239 288
#
# _framework density 18.334654
#
# number of rings (size 3 to 8) (size 9 to 14) (size 15 to 20)
#    0.000    2.500    0.000    5.250    0.000    7.750 
#    0.000    0.625    0.000    3.750    0.000    0.875 
#    0.000    7.000    0.000    0.000    0.000    0.000 
#
# Total GULP energy -178262.923455 kJ/mol
# GULP energy per Si atom -5570.716358 kJ/mol
# Density = 1.829292 g / cm^3
# Si number density = 18.334654 Si / 1000 Ang^3
#
#
#
# Elastic Constant Matrix: (Units=GPa)
#
#
# Indices 1 2 3 4 5 6 
#
# 1 0.1282 -8.0095 -24.3507 0.0000 4.2769 0.0000
# 2 -8.0095 89.2556 5.7128 0.0000 4.6104 0.0000
# 3 -24.3507 5.7128 43.9453 0.0000 -1.3377 0.0000
# 4 0.0000 0.0000 0.0000 22.1121 0.0000 -1.9957
# 5 4.2769 4.6104 -1.3377 0.0000 15.7016 0.0000
# 6 0.0000 0.0000 0.0000 -1.9957 0.0000 22.6850
#
#
#
# Elastic Compliance Matrix: (Units=1/GPa)
#
#
# Indices 1 2 3 4 5 6 
#
# 1 -0.068652 -0.004672 -0.036918 0.000000 0.016927 0.000000
# 2 -0.004672 0.011170 -0.004113 0.000000 -0.002357 0.000000
# 3 -0.036918 -0.004113 0.003184 0.000000 0.011535 0.000000
# 4 0.000000 0.000000 0.000000 0.045586 0.000000 0.004010
# 5 0.016927 -0.002357 0.011535 0.000000 0.060752 0.000000
# 6 0.000000 0.000000 0.000000 0.004010 0.000000 0.044435
#
#
# Mechanical properties :
#
#
# Convention : Reuss Voigt Hill
#
# Bulk Modulus (GPa) = -6.86321 8.89270 1.01474
# Shear Modulus (GPa) = 35.89054 22.76486 29.32770
#
# Velocity S-wave (km/s) = 4.42919 3.52750 4.00381
# Velocity P-wave (km/s) = 4.73345 4.63160 4.68280
#
# Compressibility (1/GPa) = -0.14570445
#
# Stress axis : x y z
#
# Youngs Moduli (GPa) = -14.56619 89.52935 314.04228
#
# Poissons Ratio (x) = 0.41828 11.59396
# Poissons Ratio (y) = -0.06805 1.29153
# Poissons Ratio (z) = -0.53776 0.36820
#
# Static dielectric constant tensor:
#      x y z
#    x 1.630930 0.000000 -0.040800 
#    y 0.000000 1.627800 0.000000 
#    z -0.040800 0.000000 1.663360 
# 
# From -- ./inp_files/87031.got.cif
#   From: 2010.05.17/outbox.ucp.g08.bks.cvg/sg10_44_cif.got.tgz:87031.got - 2010.06.11 11:31:16.
