data_PCOD9155830
_publ_section_title
;
Structure prediction by ZEFSAII (Michael W. Deem and Ramdas Pophale) SiO2 
 PCOD9155830
Probable space group: P 21/M
;
_chemical_formula_sum "Si O2"
_cell_formula_units_Z 24
_cell_length_a 7.416054
_cell_length_b 18.478349
_cell_length_c 7.925097
_cell_angle_alpha 90.000000
_cell_angle_beta 123.670166
_cell_angle_gamma 90.000000
_cell_volume 903.838306
_symmetry_space_group_name_H-M "P 21/M"
_symmetry_group_IT_number 11
_symmetry_cell_setting 'monoclinic'
loop_
_space_group_symop_operation_xyz
x,y,z
-x,1/2+y,-z
-x,-y,-z
x,1/2-y,z
loop_
_atom_site_type_symbol
_atom_site_label
_atom_site_fract_x
_atom_site_fract_y
_atom_site_fract_z
Si Si1 0.495362 0.410065 0.346506
Si Si2 0.695636 0.750000 0.144797
Si Si3 0.326255 0.091336 0.918635
Si Si4 0.830268 0.118323 0.120708
Si Si5 0.747014 0.250000 0.877872
Si Si6 0.043025 0.250000 0.382449
Si Si7 0.482106 0.250000 0.401561
Si Si8 0.796352 0.539579 0.513362
O O1 0.340374 0.441255 0.115953
O O2 0.524769 0.325294 0.332171
O O3 0.712319 0.457338 0.462992
O O4 0.386975 0.418143 0.474086
O O5 0.744979 0.674057 0.086925
O O6 0.448674 0.750000 0.085077
O O7 0.835610 0.750000 0.383140
O O8 0.584224 0.092182 0.005282
O O9 0.210350 0.065995 0.684986
O O10 0.901768 0.178773 0.293151
O O11 0.994763 0.054961 0.260753
O O12 0.856163 0.171365 0.970573
O O13 0.641105 0.250000 0.642792
O O14 0.233703 0.250000 0.339902
#
# Coordination Sequence:
#
# PCOD9155830 Si02
#       8
#     4   2   4   4   2   2   2   4
#     4  11  24  40  68  94 126 170 213 259 321 377
#     4   9  15  32  60  87 120 162 205 258 308 356
#     4  11  22  40  64  96 128 168 214 264 314 373
#     4  10  19  36  67  90 122 171 208 250 324 371
#     4   8  18  32  60  95 115 162 212 252 313 376
#     4  10  16  33  66  89 118 169 208 251 313 374
#     4  11  19  41  64  89 129 165 207 269 314 368
#     4  11  23  44  64  92 130 170 210 260 317 383
#
# _framework density 26.553421
#
# number of rings (size 3 to 8) (size 9 to 14) (size 15 to 20)
#    0.000    1.667    3.333    3.500    0.000    0.667 
#    0.000   10.833    3.667    0.000    0.000    0.000 
#    0.000    0.000    0.000    0.000    0.000    0.000 
#
# Total GULP energy -134066.494245 kJ/mol
# GULP energy per Si atom -5586.103927 kJ/mol
# Density = 2.649298 g / cm^3
# Si number density = 26.553421 Si / 1000 Ang^3
#
#
#
# Elastic Constant Matrix: (Units=GPa)
#
#
# Indices 1 2 3 4 5 6 
#
# 1 82.0040 25.5556 40.7257 0.0000 -8.6805 0.0000
# 2 25.5556 111.7518 -1.1069 0.0000 -15.2099 0.0000
# 3 40.7257 -1.1069 106.6284 0.0000 -1.2488 0.0000
# 4 0.0000 0.0000 0.0000 26.1343 0.0000 8.7418
# 5 -8.6805 -15.2099 -1.2488 0.0000 36.7027 0.0000
# 6 0.0000 0.0000 0.0000 8.7418 0.0000 -2.5582
#
#
#
# Elastic Compliance Matrix: (Units=1/GPa)
#
#
# Indices 1 2 3 4 5 6 
#
# 1 0.016728 -0.003582 -0.006400 0.000000 0.002254 0.000000
# 2 -0.003582 0.010253 0.001515 0.000000 0.003453 0.000000
# 3 -0.006400 0.001515 0.011833 0.000000 -0.000483 0.000000
# 4 0.000000 0.000000 0.000000 0.017855 0.000000 0.061014
# 5 0.002254 0.003453 -0.000483 0.000000 0.029194 0.000000
# 6 0.000000 0.000000 0.000000 0.061014 0.000000 -0.182407
#
#
# Mechanical properties :
#
#
# Convention : Reuss Voigt Hill
#
# Bulk Modulus (GPa) = 45.70487 47.85923 46.78205
# Shear Modulus (GPa) = -69.13804 27.73642 -20.70081
#
# Velocity S-wave (km/s) = -5.10822 3.23546 -2.79514
# Velocity P-wave (km/s) = 4.18832 5.65866 2.69058
#
# Compressibility (1/GPa) = 0.02187950
#
# Stress axis : x y z
#
# Youngs Moduli (GPa) = 59.78096 97.53714 84.51109
#
# Poissons Ratio (x) = 0.34937 0.54085
# Poissons Ratio (y) = 0.21413 -0.12803
# Poissons Ratio (z) = 0.38259 -0.14776
#
# Static dielectric constant tensor:
#      x y z
#    x 2.114890 0.000000 0.028900 
#    y 0.000000 2.140720 0.000000 
#    z 0.028900 0.000000 2.030050 
# 
# From -- ./inp_files/14438.got.cif
#   From: 2010.05.17/outbox.cif.g08.bks.cpg/sg11_8_cif.got.tgz:14438.got - 2010.06.03 12:22:45.
