data_PCOD9155199
_publ_section_title
;
Structure prediction by ZEFSAII (Michael W. Deem and Ramdas Pophale) SiO2 
 PCOD9155199
Probable space group: P 2/M
;
_chemical_formula_sum "Si O2"
_cell_formula_units_Z 28
_cell_length_a 18.000000
_cell_length_b 9.000000
_cell_length_c 15.000000
_cell_angle_alpha 90.000000
_cell_angle_beta 140.000000
_cell_angle_gamma 90.000000
_cell_volume 1561.973892
_symmetry_space_group_name_H-M "P 2/M"
_symmetry_group_IT_number 10
_symmetry_cell_setting 'monoclinic'
loop_
_space_group_symop_operation_xyz
x,y,z
-x,y,-z
-x,-y,-z
x,-y,z
loop_
_atom_site_type_symbol
_atom_site_label
_atom_site_fract_x
_atom_site_fract_y
_atom_site_fract_z
Si Si1 0.375158 0.824538 0.920411
Si Si2 0.207366 0.678633 0.900365
Si Si3 0.017502 0.679014 0.413128
Si Si4 0.437845 0.820834 0.648555
Si Si5 0.743526 0.824999 0.374296
Si Si6 0.638475 0.829245 0.607930
Si Si7 0.681179 0.676531 0.822490
O O1 0.318415 0.740913 0.950344
O O2 0.287115 0.806448 0.757364
O O3 0.387064 0.000000 0.952869
O O4 0.500000 0.772935 0.000000
O O5 0.209437 0.500000 0.895351
O O6 0.090210 0.731470 0.745414
O O7 0.221434 0.719564 0.016621
O O8 0.019339 0.500000 0.413114
O O9 0.000000 0.725812 0.500000
O O10 0.140698 0.739392 0.495373
O O11 0.369502 0.778777 0.674172
O O12 0.355530 0.781978 0.488976
O O13 0.560520 0.744774 0.746770
O O14 0.455379 0.000000 0.662723
O O15 0.760131 0.000000 0.406992
O O16 0.500000 0.823675 0.500000
O O17 0.699016 0.734347 0.739161
O O18 0.674524 0.000000 0.649596
O O19 0.670192 0.500000 0.811183
#
# Coordination Sequence:
#
# PCOD9155199 Si02
#       7
#     4   4   4   4   4   4   4
#     4  10  20  32  48  72 100 128 156 193 242 291
#     4  10  21  35  49  69  97 130 165 201 241 287
#     4  10  20  36  54  68  91 130 171 206 244 288
#     4   9  18  33  51  73 103 133 159 193 243 298
#     4  10  20  33  51  74  98 124 162 207 242 282
#     4   8  15  29  49  71  98 132 162 191 237 295
#     4  10  19  30  48  75 103 128 161 203 241 285
#
# _framework density 17.926036
#
# number of rings (size 3 to 8) (size 9 to 14) (size 15 to 20)
#    0.000    2.429    1.429    2.143    0.000    6.571 
#    0.000    0.000    0.000    0.857    0.000    6.000 
#    0.000    0.000    0.000    0.000    0.000    0.000 
#
# Total GULP energy -156056.486450 kJ/mol
# GULP energy per Si atom -5573.445945 kJ/mol
# Density = 1.788524 g / cm^3
# Si number density = 17.926036 Si / 1000 Ang^3
#
#
#
# Elastic Constant Matrix: (Units=GPa)
#
#
# Indices 1 2 3 4 5 6 
#
# 1 7.7529 6.4181 -1.0591 0.0000 -7.3631 0.0000
# 2 6.4181 9.4631 34.9519 0.0000 -9.0223 0.0000
# 3 -1.0591 34.9519 93.1376 0.0000 -4.6579 0.0000
# 4 0.0000 0.0000 0.0000 9.3862 0.0000 -8.3872
# 5 -7.3631 -9.0223 -4.6579 0.0000 28.0319 0.0000
# 6 0.0000 0.0000 0.0000 -8.3872 0.0000 19.3517
#
#
#
# Elastic Compliance Matrix: (Units=1/GPa)
#
#
# Indices 1 2 3 4 5 6 
#
# 1 0.099610 0.087385 -0.029188 0.000000 0.049440 0.000000
# 2 0.087385 -0.103294 0.039571 0.000000 -0.003718 0.000000
# 3 -0.029188 0.039571 -0.004227 0.000000 0.004367 0.000000
# 4 0.000000 0.000000 0.000000 0.173880 0.000000 0.075361
# 5 0.049440 -0.003718 0.004367 0.000000 0.048189 0.000000
# 6 0.000000 0.000000 0.000000 0.075361 0.000000 0.084337
#
#
# Mechanical properties :
#
#
# Convention : Reuss Voigt Hill
#
# Bulk Modulus (GPa) = 5.32976 21.21951 13.27464
# Shear Modulus (GPa) = 30.21158 16.02348 23.11753
#
# Velocity S-wave (km/s) = 4.10975 2.99300 3.59500
# Velocity P-wave (km/s) = 5.04972 4.87925 4.96522
#
# Compressibility (1/GPa) = 0.18762579
#
# Stress axis : x y z
#
# Youngs Moduli (GPa) = 10.03916 -9.68106 -236.59308
#
# Poissons Ratio (x) = 0.84598 -6.90568
# Poissons Ratio (y) = -0.87727 9.36228
# Poissons Ratio (z) = 0.29302 0.38309
#
# Static dielectric constant tensor:
#      x y z
#    x 1.609900 0.000000 -0.038800 
#    y 0.000000 1.601610 0.000000 
#    z -0.038800 0.000000 1.644100 
# 
# From -- ./inp_files/54642.got.cif
#   From: 2010.05.17/outbox.ucp.g08.bks.cvg/sg10_28_cif.got.tgz:54642.got - 2010.06.11 11:31:16.
