data_PCOD9155868
_publ_section_title
;
Structure prediction by ZEFSAII (Michael W. Deem and Ramdas Pophale) SiO2 
 PCOD9155868
Probable space group: P 21/M
;
_chemical_formula_sum "Si O2"
_cell_formula_units_Z 24
_cell_length_a 12.579732
_cell_length_b 8.581793
_cell_length_c 14.820826
_cell_angle_alpha 90.000000
_cell_angle_beta 70.232021
_cell_angle_gamma 90.000000
_cell_volume 1505.718306
_symmetry_space_group_name_H-M "P 21/M"
_symmetry_group_IT_number 11
_symmetry_cell_setting 'monoclinic'
loop_
_space_group_symop_operation_xyz
x,y,z
-x,1/2+y,-z
-x,-y,-z
x,1/2-y,z
loop_
_atom_site_type_symbol
_atom_site_label
_atom_site_fract_x
_atom_site_fract_y
_atom_site_fract_z
Si Si1 0.249983 0.936752 0.671602
Si Si2 0.061152 0.436053 0.846739
Si Si3 0.395622 0.562214 0.470805
Si Si4 0.161253 0.437919 0.012455
Si Si5 0.459492 0.061246 0.730119
Si Si6 0.419339 0.061713 0.945472
O O1 0.248639 0.750000 0.675581
O O2 0.285943 0.986892 0.559616
O O3 0.132574 0.000425 0.742789
O O4 0.349442 0.997277 0.709508
O O5 0.061499 0.250000 0.844348
O O6 0.933906 0.496638 0.893770
O O7 0.125102 0.486106 0.921151
O O8 0.500000 0.500000 0.500000
O O9 0.396680 0.750000 0.471804
O O10 0.429521 0.514597 0.359636
O O11 0.157338 0.250000 0.016060
O O12 0.288920 0.488239 0.995148
O O13 0.450875 0.250000 0.731153
O O14 0.458339 0.011143 0.834167
O O15 0.420982 0.250000 0.946382
O O16 0.500000 0.000000 0.000000
#
# Coordination Sequence:
#
# PCOD9155868 Si02
#       6
#     4   4   4   4   4   4
#     4  10  17  25  41  68  94 118 147 180 221 270
#     4  10  18  29  46  66  90 121 150 180 225 274
#     4   8  15  25  40  61  87 117 147 178 218 266
#     4   9  18  32  45  63  89 118 152 187 223 263
#     4   9  16  30  45  60  88 122 152 185 222 263
#     4  10  20  33  48  66  90 121 155 188 223 262
#
# _framework density 15.939237
#
# number of rings (size 3 to 8) (size 9 to 14) (size 15 to 20)
#    0.000    2.667    1.667    1.000    0.000    2.667 
#    0.000    0.000    0.000    0.000    0.000    1.167 
#    0.000    0.000    0.000    0.000    0.000    0.000 
#
# Total GULP energy -133623.800983 kJ/mol
# GULP energy per Si atom -5567.658374 kJ/mol
# Density = 1.590296 g / cm^3
# Si number density = 15.939237 Si / 1000 Ang^3
#
#
#
# Elastic Constant Matrix: (Units=GPa)
#
#
# Indices 1 2 3 4 5 6 
#
# 1 84.2059 17.3979 73.9409 0.0000 -16.0407 0.0000
# 2 17.3979 10.1348 27.0352 0.0000 -6.5026 0.0000
# 3 73.9409 27.0352 159.5175 0.0000 -37.6694 0.0000
# 4 0.0000 0.0000 0.0000 18.1767 0.0000 -3.8254
# 5 -16.0407 -6.5026 -37.6694 0.0000 27.9816 0.0000
# 6 0.0000 0.0000 0.0000 -3.8254 0.0000 21.4545
#
#
#
# Elastic Compliance Matrix: (Units=1/GPa)
#
#
# Indices 1 2 3 4 5 6 
#
# 1 0.021956 -0.019279 -0.007324 0.000000 -0.001753 0.000000
# 2 -0.019279 0.197039 -0.023831 0.000000 0.002656 0.000000
# 3 -0.007324 -0.023831 0.016718 0.000000 0.012770 0.000000
# 4 0.000000 0.000000 0.000000 0.057160 0.000000 0.010192
# 5 -0.001753 0.002656 0.012770 0.000000 0.052541 0.000000
# 6 0.000000 0.000000 0.000000 0.010192 0.000000 0.048428
#
#
# Mechanical properties :
#
#
# Convention : Reuss Voigt Hill
#
# Bulk Modulus (GPa) = 7.41585 54.51179 30.96382
# Shear Modulus (GPa) = 9.26513 22.55482 15.90998
#
# Velocity S-wave (km/s) = 2.41359 3.76580 3.16280
# Velocity P-wave (km/s) = 3.52560 7.29262 5.72766
#
# Compressibility (1/GPa) = 0.13484635
#
# Stress axis : x y z
#
# Youngs Moduli (GPa) = 45.54599 5.07514 59.81525
#
# Poissons Ratio (x) = 0.09784 0.43808
# Poissons Ratio (y) = 0.87806 1.42546
# Poissons Ratio (z) = 0.33357 0.12095
#
# Static dielectric constant tensor:
#      x y z
#    x 1.495170 0.000000 -0.032830 
#    y 0.000000 1.521070 0.000000 
#    z -0.032830 0.000000 1.580880 
# 
# From -- ./inp_files/36875.got.cif
#   From: 2010.05.17/outbox.cif.g08.bks.cpg/sg11_19_cif.got.tgz:36875.got - 2010.06.03 12:22:45.
