data_PCOD9155245
_publ_section_title
;
Structure prediction by ZEFSAII (Michael W. Deem and Ramdas Pophale) SiO2 
 PCOD9155245
Probable space group: P 2/M
;
_chemical_formula_sum "Si O2"
_cell_formula_units_Z 32
_cell_length_a 21.000000
_cell_length_b 9.000000
_cell_length_c 12.000000
_cell_angle_alpha 90.000000
_cell_angle_beta 50.000000
_cell_angle_gamma 90.000000
_cell_volume 1737.388797
_symmetry_space_group_name_H-M "P 2/M"
_symmetry_group_IT_number 10
_symmetry_cell_setting 'monoclinic'
loop_
_space_group_symop_operation_xyz
x,y,z
-x,y,-z
-x,-y,-z
x,-y,z
loop_
_atom_site_type_symbol
_atom_site_label
_atom_site_fract_x
_atom_site_fract_y
_atom_site_fract_z
Si Si1 0.242045 0.825324 0.319033
Si Si2 0.773903 0.320619 0.424246
Si Si3 0.918274 0.824023 0.656424
Si Si4 0.323224 0.678886 0.029475
Si Si5 0.167118 0.678342 0.051082
Si Si6 0.094730 0.681161 0.897805
Si Si7 0.444993 0.319381 0.717093
Si Si8 0.375463 0.680844 0.565411
O O1 0.236568 0.749080 0.443964
O O2 0.157728 0.801163 0.343128
O O3 0.310069 0.752324 0.162625
O O4 0.255005 0.000000 0.316742
O O5 0.770417 0.500000 0.437304
O O6 0.858823 0.277716 0.267583
O O7 0.701926 0.270742 0.419882
O O8 0.903757 0.734012 0.785356
O O9 0.000000 0.777332 0.500000
O O10 0.922734 0.000000 0.676963
O O11 0.318540 0.500000 0.045397
O O12 0.251301 0.724447 0.021143
O O13 0.408456 0.724580 0.875621
O O14 0.170109 0.500000 0.043262
O O15 0.146010 0.730362 0.949960
O O16 0.094155 0.500000 0.903318
O O17 0.000000 0.732554 0.000000
O O18 0.444954 0.500000 0.713786
O O19 0.538306 0.272614 0.588217
O O20 0.385270 0.271829 0.682482
O O21 0.372042 0.500000 0.571196
#
# Coordination Sequence:
#
# PCOD9155245 Si02
#       8
#     4   4   4   4   4   4   4   4
#     4  10  21  35  49  67  94 129 164 199 242 286
#     4  10  19  32  51  71  98 130 161 194 234 287
#     4   9  19  34  50  66  88 120 158 201 242 276
#     4   9  16  29  50  74  95 121 159 201 239 278
#     4   9  17  29  47  71  95 118 152 192 233 281
#     4   9  18  30  45  70 100 126 150 187 239 287
#     4   8  13  24  47  76 104 124 152 198 242 283
#     4   8  14  25  45  77 104 126 154 193 243 284
#
# _framework density 18.418444999999998
#
# number of rings (size 3 to 8) (size 9 to 14) (size 15 to 20)
#    0.000    3.000    0.000    1.875    1.750    3.750 
#    0.000    1.250    0.000    7.500    0.000    1.750 
#    0.000    0.000    0.000    0.000    0.000    0.000 
#
# Total GULP energy -178181.373256 kJ/mol
# GULP energy per Si atom -5568.167914 kJ/mol
# Density = 1.837652 g / cm^3
# Si number density = 18.418445 Si / 1000 Ang^3
#
#
#
# Elastic Constant Matrix: (Units=GPa)
#
#
# Indices 1 2 3 4 5 6 
#
# 1 38.3067 28.2377 60.7188 0.0000 12.6389 0.0000
# 2 28.2377 -7.0021 14.4187 0.0000 -0.0102 0.0000
# 3 60.7188 14.4187 148.9569 0.0000 10.0586 0.0000
# 4 0.0000 0.0000 0.0000 -20.9151 0.0000 -7.4337
# 5 12.6389 -0.0102 10.0586 0.0000 12.3490 0.0000
# 6 0.0000 0.0000 0.0000 -7.4337 0.0000 6.3773
#
#
#
# Elastic Compliance Matrix: (Units=1/GPa)
#
#
# Indices 1 2 3 4 5 6 
#
# 1 0.014261 0.038811 -0.009086 0.000000 -0.007163 0.000000
# 2 0.038811 -0.012290 -0.012643 0.000000 -0.029435 0.000000
# 3 -0.009086 -0.012643 0.011655 0.000000 -0.000204 0.000000
# 4 0.000000 0.000000 0.000000 -0.033806 0.000000 -0.039406
# 5 -0.007163 -0.029435 -0.000204 0.000000 0.088451 0.000000
# 6 0.000000 0.000000 0.000000 -0.039406 0.000000 0.110871
#
#
# Mechanical properties :
#
#
# Convention : Reuss Voigt Hill
#
# Bulk Modulus (GPa) = 20.92493 43.00135 31.96314
# Shear Modulus (GPa) = 31.07346 4.68800 17.88073
#
# Velocity S-wave (km/s) = 4.11187 1.59712 3.11916
# Velocity P-wave (km/s) = 5.82484 5.17674 5.51033
#
# Compressibility (1/GPa) = 0.04778988
#
# Stress axis : x y z
#
# Youngs Moduli (GPa) = 70.12085 -81.37026 85.80136
#
# Poissons Ratio (x) = 3.15810 0.77962
# Poissons Ratio (y) = -2.72149 1.08482
# Poissons Ratio (z) = 0.63715 -1.02879
#
# Static dielectric constant tensor:
#      x y z
#    x 1.625990 0.000000 -0.028910 
#    y 0.000000 1.612100 0.000000 
#    z -0.028910 0.000000 1.663940 
# 
# From -- ./inp_files/55266.got.cif
#   From: 2010.05.17/outbox.ucp.g08.bks.cvg/sg10_28_cif.got.tgz:55266.got - 2010.06.11 11:31:16.
