data_PCOD9155960
_publ_section_title
;
Structure prediction by ZEFSAII (Michael W. Deem and Ramdas Pophale) SiO2 
 PCOD9155960
Probable space group: P 21/M
;
_chemical_formula_sum "Si O2"
_cell_formula_units_Z 32
_cell_length_a 12.020280
_cell_length_b 17.880403
_cell_length_c 22.347232
_cell_angle_alpha 90.000000
_cell_angle_beta 163.411034
_cell_angle_gamma 90.000000
_cell_volume 1371.284386
_symmetry_space_group_name_H-M "P 21/M"
_symmetry_group_IT_number 11
_symmetry_cell_setting 'monoclinic'
loop_
_space_group_symop_operation_xyz
x,y,z
-x,1/2+y,-z
-x,-y,-z
x,1/2-y,z
loop_
_atom_site_type_symbol
_atom_site_label
_atom_site_fract_x
_atom_site_fract_y
_atom_site_fract_z
Si Si1 0.528570 0.909187 0.011291
Si Si2 0.079204 0.082815 0.066684
Si Si3 0.124405 0.663430 0.150747
Si Si4 0.752985 0.914702 0.249452
Si Si5 0.604473 0.399016 0.593963
Si Si6 0.375827 0.429754 0.349885
Si Si7 0.686521 0.405749 0.222197
Si Si8 0.034292 0.909407 0.514286
O O1 0.962438 0.890919 0.211396
O O2 0.255144 0.882708 0.816338
O O3 0.501004 0.882485 0.065218
O O4 0.500000 0.000000 0.000000
O O5 0.085273 0.081389 0.142994
O O6 0.524189 0.104832 0.279963
O O7 0.817162 0.131514 0.886088
O O8 0.000000 0.000000 0.000000
O O9 0.043708 0.750000 0.103209
O O10 0.413924 0.651371 0.356262
O O11 0.733572 0.621883 0.972695
O O12 0.678101 0.003806 0.216526
O O13 0.199393 0.908537 0.456641
O O14 0.755005 0.882767 0.317208
O O15 0.336762 0.393231 0.396139
O O16 0.593190 0.482702 0.616272
O O17 0.982853 0.381520 0.426670
O O18 0.000000 0.000000 0.500000
#
# Coordination Sequence:
#
# PCOD9155960 Si02
#       8
#     4   4   4   4   4   4   4   4
#     4   8  13  21  35  56  83 108 131 172 215 255
#     4  10  17  28  45  68  90 118 151 196 236 271
#     4  10  19  30  44  63  91 124 152 186 235 288
#     4   8  13  22  37  59  83 107 131 172 219 262
#     4   9  16  27  42  64  90 118 145 186 231 277
#     4   9  16  26  44  67  91 114 145 192 239 267
#     4   8  14  24  38  56  80 110 141 173 214 263
#     4   8  14  23  37  59  84 112 134 176 222 266
#
# _framework density 23.335788000000001
#
# number of rings (size 3 to 8) (size 9 to 14) (size 15 to 20)
#    0.000    3.250    1.250    0.000    0.000    0.000 
#    0.000    0.625    0.000    0.750    0.000    0.000 
#    0.000    4.000    0.000    0.000    0.000    0.000 
#
# Total GULP energy -178222.077277 kJ/mol
# GULP energy per Si atom -5569.439915 kJ/mol
# Density = 2.328267 g / cm^3
# Si number density = 23.335788 Si / 1000 Ang^3
#
#
#
# Elastic Constant Matrix: (Units=GPa)
#
#
# Indices 1 2 3 4 5 6 
#
# 1 192.3400 12.5543 87.0316 0.0000 -67.9902 0.0000
# 2 12.5543 -70.3107 10.1876 0.0000 -12.2798 0.0000
# 3 87.0316 10.1876 203.3612 0.0000 -75.8260 0.0000
# 4 0.0000 0.0000 0.0000 -1.5145 0.0000 -22.6950
# 5 -67.9902 -12.2798 -75.8260 0.0000 77.0297 0.0000
# 6 0.0000 0.0000 0.0000 -22.6950 0.0000 -21.9724
#
#
#
# Elastic Compliance Matrix: (Units=1/GPa)
#
#
# Indices 1 2 3 4 5 6 
#
# 1 0.007737 0.000215 -0.001205 0.000000 0.005677 0.000000
# 2 0.000215 -0.013826 -0.000238 0.000000 -0.002248 0.000000
# 3 -0.001205 -0.000238 0.007954 0.000000 0.006728 0.000000
# 4 0.000000 0.000000 0.000000 0.045606 0.000000 -0.047106
# 5 0.005677 -0.002248 0.006728 0.000000 0.024257 0.000000
# 6 0.000000 0.000000 0.000000 -0.047106 0.000000 0.003143
#
#
# Mechanical properties :
#
#
# Convention : Reuss Voigt Hill
#
# Bulk Modulus (GPa) = -1693.62834 60.54863 -816.53986
# Shear Modulus (GPa) = 64.82585 25.08304 44.95444
#
# Velocity S-wave (km/s) = 5.27635 3.28208 4.39386
# Velocity P-wave (km/s) = 26.27204 6.35341 18.02574
#
# Compressibility (1/GPa) = -0.00059045
#
# Stress axis : x y z
#
# Youngs Moduli (GPa) = 129.24466 -72.32772 125.73054
#
# Poissons Ratio (x) = 0.01558 0.15154
# Poissons Ratio (y) = -0.02783 0.02989
# Poissons Ratio (z) = 0.15577 -0.01720
#
# Static dielectric constant tensor:
#      x y z
#    x 1.931210 0.000000 -0.049860 
#    y 0.000000 1.920160 0.000000 
#    z -0.049860 0.000000 2.012630 
# 
# From -- ./inp_files/55955.got.cif
#   From: 2010.05.17/outbox.cif.g08.bks.cpg/sg11_28_cif.got.tgz:55955.got - 2010.06.03 12:22:45.
