data_PCOD9155904
_publ_section_title
;
Structure prediction by ZEFSAII (Michael W. Deem and Ramdas Pophale) SiO2 
 PCOD9155904
Probable space group: P 21/M
;
_chemical_formula_sum "Si O2"
_cell_formula_units_Z 32
_cell_length_a 14.735630
_cell_length_b 8.884284
_cell_length_c 16.686198
_cell_angle_alpha 90.000000
_cell_angle_beta 96.967343
_cell_angle_gamma 90.000000
_cell_volume 2168.350905
_symmetry_space_group_name_H-M "P 21/M"
_symmetry_group_IT_number 11
_symmetry_cell_setting 'monoclinic'
loop_
_space_group_symop_operation_xyz
x,y,z
-x,1/2+y,-z
-x,-y,-z
x,1/2-y,z
loop_
_atom_site_type_symbol
_atom_site_label
_atom_site_fract_x
_atom_site_fract_y
_atom_site_fract_z
Si Si1 0.355937 0.076277 0.963917
Si Si2 0.570263 0.568898 0.444615
Si Si3 0.740165 0.429114 0.191573
Si Si4 0.956615 0.568718 0.576429
Si Si5 0.221912 0.068028 0.522595
Si Si6 0.119175 0.069296 0.676315
Si Si7 0.447128 0.571070 0.730760
Si Si8 0.453161 0.923596 0.115770
O O1 0.330376 0.250000 0.972149
O O2 0.452401 0.073616 0.925644
O O3 0.285198 0.991720 0.898647
O O4 0.377299 0.997053 0.050434
O O5 0.500000 0.500000 0.500000
O O6 0.567488 0.750000 0.447612
O O7 0.674298 0.516460 0.474383
O O8 0.547939 0.513657 0.352721
O O9 0.752251 0.250000 0.190404
O O10 0.826474 0.508209 0.241631
O O11 0.651322 0.461030 0.238214
O O12 0.964692 0.750000 0.576805
O O13 0.849707 0.527263 0.555186
O O14 0.000000 0.500000 0.500000
O O15 0.018468 0.499762 0.653004
O O16 0.224057 0.250000 0.524921
O O17 0.178489 0.021849 0.603687
O O18 0.114386 0.250000 0.676385
O O19 0.454111 0.750000 0.720020
O O20 0.523278 0.514318 0.801509
O O21 0.432275 0.750000 0.131093
#
# Coordination Sequence:
#
# PCOD9155904 Si02
#       8
#     4   4   4   4   4   4   4   4
#     4   9  16  25  37  55  79 107 137 170 204 243
#     4  11  21  34  47  62  82 108 141 181 221 258
#     4  10  18  26  39  59  83 110 141 175 206 246
#     4   9  16  27  41  60  79 103 134 169 207 249
#     4   8  16  29  44  57  77 105 135 170 213 254
#     4  10  17  27  41  60  82 110 139 170 208 250
#     4  10  19  30  43  60  78 104 140 177 215 253
#     4   9  16  26  40  56  76 104 136 171 207 246
#
# _framework density 14.757758000000001
#
# number of rings (size 3 to 8) (size 9 to 14) (size 15 to 20)
#    0.000    2.500    1.250    3.375    0.000    4.000 
#    0.000    1.875    0.000    0.000    0.000    0.000 
#    0.000    0.000    0.000    1.125    0.000   14.250 
#
# Total GULP energy -178243.475262 kJ/mol
# GULP energy per Si atom -5570.108602 kJ/mol
# Density = 1.472417 g / cm^3
# Si number density = 14.757758 Si / 1000 Ang^3
#
#
#
# Elastic Constant Matrix: (Units=GPa)
#
#
# Indices 1 2 3 4 5 6 
#
# 1 64.6332 26.3899 54.8701 0.0000 23.6844 0.0000
# 2 26.3899 67.2405 45.9374 0.0000 16.0096 0.0000
# 3 54.8701 45.9374 92.7760 0.0000 37.9355 0.0000
# 4 0.0000 0.0000 0.0000 27.3784 0.0000 7.0807
# 5 23.6844 16.0096 37.9355 0.0000 28.5434 0.0000
# 6 0.0000 0.0000 0.0000 7.0807 0.0000 16.4085
#
#
#
# Elastic Compliance Matrix: (Units=1/GPa)
#
#
# Indices 1 2 3 4 5 6 
#
# 1 0.031195 0.000364 -0.017440 0.000000 -0.002911 0.000000
# 2 0.000364 0.022781 -0.013464 0.000000 0.004814 0.000000
# 3 -0.017440 -0.013464 0.041078 0.000000 -0.032572 0.000000
# 4 0.000000 0.000000 0.000000 0.041114 0.000000 -0.017742
# 5 -0.002911 0.004814 -0.032572 0.000000 0.078039 0.000000
# 6 0.000000 0.000000 0.000000 -0.017742 0.000000 0.068600
#
#
# Mechanical properties :
#
#
# Convention : Reuss Voigt Hill
#
# Bulk Modulus (GPa) = 29.43289 53.22716 41.33003
# Shear Modulus (GPa) = 14.07617 20.96288 17.51952
#
# Velocity S-wave (km/s) = 3.09174 3.77299 3.44923
# Velocity P-wave (km/s) = 5.72123 7.42470 6.62792
#
# Compressibility (1/GPa) = 0.03397560
#
# Stress axis : x y z
#
# Youngs Moduli (GPa) = 32.05609 43.89631 24.34405
#
# Poissons Ratio (x) = -0.01600 0.42456
# Poissons Ratio (y) = -0.01168 0.32776
# Poissons Ratio (z) = 0.55905 0.59101
#
# Static dielectric constant tensor:
#      x y z
#    x 1.485160 0.000000 0.032670 
#    y 0.000000 1.492150 0.000000 
#    z 0.032670 0.000000 1.482240 
# 
# From -- ./inp_files/51407.got.cif
#   From: 2010.05.17/outbox.cif.g08.bks.cpg/sg11_26_cif.got.tgz:51407.got - 2010.06.03 12:22:45.
