data_PCOD9155311
_publ_section_title
;
Structure prediction by ZEFSAII (Michael W. Deem and Ramdas Pophale) SiO2 
 PCOD9155311
Probable space group: P 2/M
;
_chemical_formula_sum "Si O2"
_cell_formula_units_Z 26
_cell_length_a 21.000000
_cell_length_b 15.000000
_cell_length_c 24.000000
_cell_angle_alpha 90.000000
_cell_angle_beta 170.000000
_cell_angle_gamma 90.000000
_cell_volume 1312.780223
_symmetry_space_group_name_H-M "P 2/M"
_symmetry_group_IT_number 10
_symmetry_cell_setting 'monoclinic'
loop_
_space_group_symop_operation_xyz
x,y,z
-x,y,-z
-x,-y,-z
x,-y,z
loop_
_atom_site_type_symbol
_atom_site_label
_atom_site_fract_x
_atom_site_fract_y
_atom_site_fract_z
Si Si1 0.121784 0.101824 0.912216
Si Si2 0.180756 0.198437 0.449149
Si Si3 0.944596 0.500000 0.887300
Si Si4 0.245627 0.287460 0.833908
Si Si5 0.261893 0.597111 0.671682
Si Si6 0.589607 0.786122 0.511833
Si Si7 0.721349 0.314520 0.858988
O O1 0.095891 0.161756 0.834895
O O2 0.746683 0.122014 0.622925
O O3 0.148785 0.000000 0.920447
O O4 0.473613 0.132092 0.250565
O O5 0.352538 0.291497 0.574722
O O6 0.002192 0.209587 0.355421
O O7 0.500000 0.500000 0.500000
O O8 0.000000 0.500000 0.000000
O O9 0.154255 0.414106 0.044759
O O10 0.995571 0.369958 0.599316
O O11 0.500000 0.264762 0.000000
O O12 0.471513 0.323863 0.081079
O O13 0.428343 0.500000 0.804769
O O14 0.000000 0.589641 0.500000
O O15 0.500000 0.791941 0.500000
O O16 0.316913 0.740503 0.232440
O O17 0.947215 0.723822 0.819074
#
# Coordination Sequence:
#
# PCOD9155311 Si02
#       7
#     4   4   2   4   4   4   4
#     4  10  21  37  59  82 106 142 175 216 280 342
#     4  10  21  38  57  77 113 141 179 226 273 334
#     4  12  22  34  54  76 105 144 191 226 246 300
#     4  10  19  33  56  79 104 145 187 222 272 327
#     4   9  17  30  48  76 108 136 177 224 265 314
#     4  10  19  34  56  80 107 137 172 222 269 319
#     4  10  21  35  51  76 108 146 182 216 268 307
#
# _framework density 19.805295000000001
#
# number of rings (size 3 to 8) (size 9 to 14) (size 15 to 20)
#    0.000    2.000    0.000    4.615    0.000    2.154 
#    2.769    0.000    0.000    8.308    0.000    0.000 
#    0.000    0.000    0.000    0.000    0.000    0.000 
#
# Total GULP energy -144768.886257 kJ/mol
# GULP energy per Si atom -5568.034087 kJ/mol
# Density = 1.976022 g / cm^3
# Si number density = 19.805295 Si / 1000 Ang^3
#
#
#
# Elastic Constant Matrix: (Units=GPa)
#
#
# Indices 1 2 3 4 5 6 
#
# 1 80.3230 24.0034 21.3344 0.0000 7.0342 0.0000
# 2 24.0034 67.1331 19.0785 0.0000 11.2904 0.0000
# 3 21.3344 19.0785 63.5119 0.0000 -10.0243 0.0000
# 4 0.0000 0.0000 0.0000 12.9761 0.0000 -6.6896
# 5 7.0342 11.2904 -10.0243 0.0000 28.8497 0.0000
# 6 0.0000 0.0000 0.0000 -6.6896 0.0000 8.5062
#
#
#
# Elastic Compliance Matrix: (Units=1/GPa)
#
#
# Indices 1 2 3 4 5 6 
#
# 1 0.015048 -0.003389 -0.004662 0.000000 -0.003963 0.000000
# 2 -0.003389 0.019316 -0.006059 0.000000 -0.008838 0.000000
# 3 -0.004662 -0.006059 0.020827 0.000000 0.010745 0.000000
# 4 0.000000 0.000000 0.000000 0.129615 0.000000 0.101935
# 5 -0.003963 -0.008838 0.010745 0.000000 0.042821 0.000000
# 6 0.000000 0.000000 0.000000 0.101935 0.000000 0.197727
#
#
# Mechanical properties :
#
#
# Convention : Reuss Voigt Hill
#
# Bulk Modulus (GPa) = 37.07737 37.75562 37.41650
# Shear Modulus (GPa) = 10.80933 19.83653 15.32293
#
# Velocity S-wave (km/s) = 2.33873 3.16820 2.78452
# Velocity P-wave (km/s) = 5.10436 5.69984 5.41029
#
# Compressibility (1/GPa) = 0.02697063
#
# Stress axis : x y z
#
# Youngs Moduli (GPa) = 66.45487 51.77112 48.01449
#
# Poissons Ratio (x) = 0.17545 0.22385
# Poissons Ratio (y) = 0.22521 0.29091
# Poissons Ratio (z) = 0.30982 0.31368
#
# Static dielectric constant tensor:
#      x y z
#    x 1.777840 0.000000 -0.018920 
#    y 0.000000 1.706020 0.000000 
#    z -0.018920 0.000000 1.822520 
# 
# From -- ./inp_files/11342.got.cif
#   From: 2010.05.17/outbox.ucp.g08.bks.cvg/sg10_6_cif.got.tgz:11342.got - 2010.06.11 11:31:16.
