data_PCOD9155239
_publ_section_title
;
Structure prediction by ZEFSAII (Michael W. Deem and Ramdas Pophale) SiO2 
 PCOD9155239
Probable space group: P 2/M
;
_chemical_formula_sum "Si O2"
_cell_formula_units_Z 28
_cell_length_a 15.000000
_cell_length_b 9.000000
_cell_length_c 15.000000
_cell_angle_alpha 90.000000
_cell_angle_beta 50.000000
_cell_angle_gamma 90.000000
_cell_volume 1551.239997
_symmetry_space_group_name_H-M "P 2/M"
_symmetry_group_IT_number 10
_symmetry_cell_setting 'monoclinic'
loop_
_space_group_symop_operation_xyz
x,y,z
-x,y,-z
-x,-y,-z
x,-y,z
loop_
_atom_site_type_symbol
_atom_site_label
_atom_site_fract_x
_atom_site_fract_y
_atom_site_fract_z
Si Si1 0.274791 0.321292 0.444529
Si Si2 0.517342 0.321651 0.385120
Si Si3 0.389829 0.679986 0.185236
Si Si4 0.632494 0.178581 0.994819
Si Si5 0.873423 0.821796 0.943137
Si Si6 0.761340 0.820928 0.196792
Si Si7 0.886380 0.820447 0.302528
O O1 0.259409 0.500000 0.458439
O O2 0.397781 0.282967 0.412371
O O3 0.300950 0.282349 0.323467
O O4 0.172114 0.248609 0.570595
O O5 0.500000 0.280688 0.500000
O O6 0.532248 0.500000 0.370282
O O7 0.632349 0.245840 0.271734
O O8 0.396473 0.500000 0.175460
O O9 0.356390 0.750471 0.111118
O O10 0.520519 0.745876 0.114169
O O11 0.752115 0.204782 0.970340
O O12 0.614027 0.000000 0.000532
O O13 0.984256 0.769307 0.813343
O O14 0.891802 0.000000 0.938240
O O15 0.848540 0.770263 0.061134
O O16 0.808109 0.784294 0.265586
O O17 0.754254 0.000000 0.195030
O O18 0.887973 0.000000 0.312640
#
# Coordination Sequence:
#
# PCOD9155239 Si02
#       7
#     4   4   4   4   4   4   4
#     4  10  21  36  52  74 105 141 172 206 256 306
#     4  10  19  32  50  71 104 138 165 205 254 302
#     4  10  20  35  56  79 106 134 165 209 261 310
#     4  10  19  34  57  81 105 131 167 213 257 304
#     4   9  19  35  53  76 105 136 170 212 259 301
#     4  10  19  32  53  78 103 134 174 214 252 301
#     4  10  20  34  53  75 103 139 175 211 250 299
#
# _framework density 18.050076000000001
#
# number of rings (size 3 to 8) (size 9 to 14) (size 15 to 20)
#    0.000    2.143    1.429    3.000    0.000    3.714 
#    0.000    3.571    0.000    6.000    0.000    0.000 
#    0.000    0.000    0.000    0.000    0.000    0.000 
#
# Total GULP energy -156129.853334 kJ/mol
# GULP energy per Si atom -5576.066191 kJ/mol
# Density = 1.800899 g / cm^3
# Si number density = 18.050076 Si / 1000 Ang^3
#
#
#
# Elastic Constant Matrix: (Units=GPa)
#
#
# Indices 1 2 3 4 5 6 
#
# 1 29.7135 15.2929 30.0241 0.0000 -1.7786 0.0000
# 2 15.2929 41.0331 35.2838 0.0000 1.0312 0.0000
# 3 30.0241 35.2838 187.8448 0.0000 -2.3923 0.0000
# 4 0.0000 0.0000 0.0000 33.3826 0.0000 1.3267
# 5 -1.7786 1.0312 -2.3923 0.0000 31.2267 0.0000
# 6 0.0000 0.0000 0.0000 1.3267 0.0000 13.3411
#
#
#
# Elastic Compliance Matrix: (Units=1/GPa)
#
#
# Indices 1 2 3 4 5 6 
#
# 1 0.045247 -0.012809 -0.004793 0.000000 0.002633 0.000000
# 2 -0.012809 0.032750 -0.004132 0.000000 -0.002128 0.000000
# 3 -0.004793 -0.004132 0.006871 0.000000 0.000390 0.000000
# 4 0.000000 0.000000 0.000000 0.030075 0.000000 -0.002991
# 5 0.002633 -0.002128 0.000390 0.000000 0.032274 0.000000
# 6 0.000000 0.000000 0.000000 -0.002991 0.000000 0.075254
#
#
# Mechanical properties :
#
#
# Convention : Reuss Voigt Hill
#
# Bulk Modulus (GPa) = 24.15293 46.64369 35.39831
# Shear Modulus (GPa) = 17.87392 27.45611 22.66502
#
# Velocity S-wave (km/s) = 3.15022 3.90437 3.54739
# Velocity P-wave (km/s) = 5.16159 6.79874 6.03593
#
# Compressibility (1/GPa) = 0.04140284
#
# Stress axis : x y z
#
# Youngs Moduli (GPa) = 22.10069 30.53402 145.54803
#
# Poissons Ratio (x) = 0.39110 0.69756
# Poissons Ratio (y) = 0.28308 0.60133
# Poissons Ratio (z) = 0.10592 0.12615
#
# Static dielectric constant tensor:
#      x y z
#    x 1.642880 0.000000 0.012770 
#    y 0.000000 1.610050 0.000000 
#    z 0.012770 0.000000 1.624050 
# 
# From -- ./inp_files/66403.got.cif
#   From: 2010.05.17/outbox.ucp.g08.bks.cvg/sg10_34_cif.got.tgz:66403.got - 2010.06.11 11:31:16.
