data_PCOD9155027
_publ_section_title
;
Structure prediction by ZEFSAII (Michael W. Deem and Ramdas Pophale) SiO2 
 PCOD9155027
Probable space group: P 2/M
;
_chemical_formula_sum "Si O2"
_cell_formula_units_Z 16
_cell_length_a 7.959032
_cell_length_b 12.208428
_cell_length_c 7.959023
_cell_angle_alpha 90.000000
_cell_angle_beta 61.460926
_cell_angle_gamma 90.000000
_cell_volume 679.387138
_symmetry_space_group_name_H-M "P 2/M"
_symmetry_group_IT_number 10
_symmetry_cell_setting 'monoclinic'
loop_
_space_group_symop_operation_xyz
x,y,z
-x,y,-z
-x,-y,-z
x,-y,z
loop_
_atom_site_type_symbol
_atom_site_label
_atom_site_fract_x
_atom_site_fract_y
_atom_site_fract_z
Si Si1 0.192019 0.000000 0.570924
Si Si2 0.300407 0.763117 0.936808
Si Si3 0.380264 0.374669 0.380265
Si Si4 0.429076 0.000000 0.807980
Si Si5 0.063192 0.236883 0.699595
O O1 0.072397 0.888918 0.636430
O O2 0.317485 0.000000 0.682515
O O3 0.347604 0.000000 0.347604
O O4 0.484518 0.689206 0.814223
O O5 0.181233 0.759518 0.818768
O O6 0.363570 0.888918 0.927603
O O7 0.150754 0.728778 0.150753
O O8 0.500000 0.375259 0.500000
O O9 0.346953 0.500000 0.346952
O O10 0.185775 0.310796 0.515485
#
# Coordination Sequence:
#
# PCOD9155027 Si02
#       5
#     2   4   4   2   4
#     4   9  13  19  29  36  41  45  48  57  69  74
#     4   9  15  21  28  35  40  45  51  58  66  72
#     4   9  16  23  27  31  39  48  55  59  61  67
#     4   9  13  19  29  36  41  45  48  57  69  74
#     4   9  15  21  28  35  40  45  51  58  66  72
#
# _framework density 23.550636000000001
#
# number of rings (size 3 to 8) (size 9 to 14) (size 15 to 20)
#    0.000    3.000    2.500    0.750    0.000    4.000 
#    0.000    5.000    0.000    0.000    0.000    0.000 
#    0.000    0.000    0.000    0.000    0.000    0.000 
#
# Total GULP energy -89537.432711 kJ/mol
# GULP energy per Si atom -5596.089544 kJ/mol
# Density = 2.349703 g / cm^3
# Si number density = 23.550636 Si / 1000 Ang^3
#
#
#
# Elastic Constant Matrix: (Units=GPa)
#
#
# Indices 1 2 3 4 5 6 
#
# 1 100.9574 13.0070 54.0900 0.0000 -0.0683 0.0000
# 2 13.0070 201.4220 121.3845 0.0000 -45.4706 0.0000
# 3 54.0900 121.3845 234.4179 0.0000 -55.9276 0.0000
# 4 0.0000 0.0000 0.0000 -51.5638 0.0000 1.8398
# 5 -0.0683 -45.4706 -55.9276 0.0000 46.9488 0.0000
# 6 0.0000 0.0000 0.0000 1.8398 0.0000 -47.1878
#
#
#
# Elastic Compliance Matrix: (Units=1/GPa)
#
#
# Indices 1 2 3 4 5 6 
#
# 1 0.012049 0.000803 -0.004200 0.000000 -0.004208 0.000000
# 2 0.000803 0.007719 -0.003351 0.000000 0.003486 0.000000
# 3 -0.004200 -0.003351 0.008654 0.000000 0.007058 0.000000
# 4 0.000000 0.000000 0.000000 -0.019420 0.000000 -0.000757
# 5 -0.004208 0.003486 0.007058 0.000000 0.033077 0.000000
# 6 0.000000 0.000000 0.000000 -0.000757 0.000000 -0.021221
#
#
# Mechanical properties :
#
#
# Convention : Reuss Voigt Hill
#
# Bulk Modulus (GPa) = 66.99425 101.52893 84.26159
# Shear Modulus (GPa) = 127.13768 12.86050 69.99909
#
# Velocity S-wave (km/s) = 7.35541 2.33937 5.45778
# Velocity P-wave (km/s) = 10.03218 7.10643 8.69327
#
# Compressibility (1/GPa) = 0.01492665
#
# Stress axis : x y z
#
# Youngs Moduli (GPa) = 82.99387 129.55125 115.55615
#
# Poissons Ratio (x) = -0.10404 0.48533
# Poissons Ratio (y) = -0.06665 0.38719
# Poissons Ratio (z) = 0.34857 0.43408
#
# Static dielectric constant tensor:
#      x y z
#    x 1.918390 0.000000 0.033420 
#    y 0.000000 1.798240 0.000000 
#    z 0.033420 0.000000 1.838730 
# 
# From -- ./inp_files/45447.got.cif
#   From: 2010.05.17/outbox.cif.g08.bks.cpg/sg10_23_cif.got.tgz:45447.got - 2010.06.03 11:33:40.
