data_PCOD9155783
_publ_section_title
;
Structure prediction by ZEFSAII (Michael W. Deem and Ramdas Pophale) SiO2 
 PCOD9155783
Probable space group: P 21/M
;
_chemical_formula_sum "Si O2"
_cell_formula_units_Z 28
_cell_length_a 12.933403
_cell_length_b 17.651117
_cell_length_c 9.731630
_cell_angle_alpha 90.000000
_cell_angle_beta 31.813623
_cell_angle_gamma 90.000000
_cell_volume 1171.146637
_symmetry_space_group_name_H-M "P 21/M"
_symmetry_group_IT_number 11
_symmetry_cell_setting 'monoclinic'
loop_
_space_group_symop_operation_xyz
x,y,z
-x,1/2+y,-z
-x,-y,-z
x,1/2-y,z
loop_
_atom_site_type_symbol
_atom_site_label
_atom_site_fract_x
_atom_site_fract_y
_atom_site_fract_z
Si Si1 0.872567 0.336587 0.823365
Si Si2 0.909197 0.995979 0.839076
Si Si3 0.592215 0.664859 0.920801
Si Si4 0.515714 0.027424 0.824025
Si Si5 0.701138 0.974327 0.346232
Si Si6 0.015618 0.664564 0.593328
Si Si7 0.428247 0.336210 0.372075
O O1 0.951742 0.250000 0.762295
O O2 0.979458 0.417240 0.730958
O O3 0.833038 0.338172 0.704358
O O4 0.661707 0.341495 0.135816
O O5 0.010597 0.916845 0.676118
O O6 0.696721 0.992392 0.001108
O O7 0.864170 0.993024 0.051177
O O8 0.523160 0.750000 0.992862
O O9 0.810408 0.664666 0.738835
O O10 0.598390 0.637400 0.755822
O O11 0.469778 0.616821 0.167085
O O12 0.677998 0.005642 0.527651
O O13 0.500000 0.000000 0.000000
O O14 0.689278 0.885028 0.386592
O O15 0.500000 0.000000 0.500000
O O16 0.028202 0.750000 0.644800
O O17 0.368169 0.250000 0.446236
#
# Coordination Sequence:
#
# PCOD9155783 Si02
#       7
#     4   4   4   4   4   4   4
#     4  10  18  31  49  74 100 131 168 208 248 299
#     4  10  19  31  49  73 104 131 167 207 253 297
#     4   9  17  30  47  73  96 121 165 209 244 289
#     4  10  16  28  47  70  98 128 159 201 251 286
#     4  10  18  30  45  74 105 126 157 204 256 290
#     4   9  19  32  50  74 101 130 168 210 251 296
#     4  10  18  30  51  76  97 125 168 208 250 295
#
# _framework density 23.908196
#
# number of rings (size 3 to 8) (size 9 to 14) (size 15 to 20)
#    0.000    2.286    4.286    0.429    0.000    0.571 
#    0.000    2.857    0.000    0.857    0.000    0.000 
#    0.000    0.000    0.000    0.000    0.000    0.000 
#
# Total GULP energy -156103.858293 kJ/mol
# GULP energy per Si atom -5575.137796 kJ/mol
# Density = 2.385378 g / cm^3
# Si number density = 23.908196 Si / 1000 Ang^3
#
#
#
# Elastic Constant Matrix: (Units=GPa)
#
#
# Indices 1 2 3 4 5 6 
#
# 1 94.8166 33.3624 16.9542 0.0000 9.8148 0.0000
# 2 33.3624 217.1414 77.1716 0.0000 27.9122 0.0000
# 3 16.9542 77.1716 106.8001 0.0000 22.7001 0.0000
# 4 0.0000 0.0000 0.0000 43.6574 0.0000 6.5913
# 5 9.8148 27.9122 22.7001 0.0000 32.2813 0.0000
# 6 0.0000 0.0000 0.0000 6.5913 0.0000 17.1955
#
#
#
# Elastic Compliance Matrix: (Units=1/GPa)
#
#
# Indices 1 2 3 4 5 6 
#
# 1 0.011295 -0.001335 -0.000404 0.000000 -0.001996 0.000000
# 2 -0.001335 0.006545 -0.003999 0.000000 -0.002442 0.000000
# 3 -0.000404 -0.003999 0.013586 0.000000 -0.005974 0.000000
# 4 0.000000 0.000000 0.000000 0.024313 0.000000 -0.009319
# 5 -0.001996 -0.002442 -0.005974 0.000000 0.037896 0.000000
# 6 0.000000 0.000000 0.000000 -0.009319 0.000000 0.061727
#
#
# Mechanical properties :
#
#
# Convention : Reuss Voigt Hill
#
# Bulk Modulus (GPa) = 50.12245 74.85938 62.49091
# Shear Modulus (GPa) = 28.82015 38.04483 33.43249
#
# Velocity S-wave (km/s) = 3.47573 3.99342 3.74353
# Velocity P-wave (km/s) = 6.09242 7.25551 6.69925
#
# Compressibility (1/GPa) = 0.01995114
#
# Stress axis : x y z
#
# Youngs Moduli (GPa) = 88.53198 152.77824 73.60270
#
# Poissons Ratio (x) = 0.20401 0.02974
# Poissons Ratio (y) = 0.11822 0.29431
# Poissons Ratio (z) = 0.03577 0.61090
#
# Static dielectric constant tensor:
#      x y z
#    x 2.005380 0.000000 -0.106710 
#    y 0.000000 1.960630 0.000000 
#    z -0.106710 0.000000 1.942360 
# 
# From -- ./inp_files/22708.got.cif
#   From: 2010.05.17/outbox.cif.g08.bks.cpg/sg11_12_cif.got.tgz:22708.got - 2010.06.03 12:22:45.
