data_PCOD9155962
_publ_section_title
;
Structure prediction by ZEFSAII (Michael W. Deem and Ramdas Pophale) SiO2 
 PCOD9155962
Probable space group: P 21/M
;
_chemical_formula_sum "Si O2"
_cell_formula_units_Z 24
_cell_length_a 27.783586
_cell_length_b 8.634156
_cell_length_c 14.728194
_cell_angle_alpha 90.000000
_cell_angle_beta 24.965422
_cell_angle_gamma 90.000000
_cell_volume 1491.225887
_symmetry_space_group_name_H-M "P 21/M"
_symmetry_group_IT_number 11
_symmetry_cell_setting 'monoclinic'
loop_
_space_group_symop_operation_xyz
x,y,z
-x,1/2+y,-z
-x,-y,-z
x,1/2-y,z
loop_
_atom_site_type_symbol
_atom_site_label
_atom_site_fract_x
_atom_site_fract_y
_atom_site_fract_z
Si Si1 0.666578 0.935370 0.155678
Si Si2 0.252150 0.564428 0.662828
Si Si3 0.963320 0.437874 0.843747
Si Si4 0.107724 0.063929 0.758863
Si Si5 0.439839 0.435330 0.467146
Si Si6 0.917809 0.435950 0.717867
O O1 0.673346 0.750000 0.139988
O O2 0.628283 0.980150 0.323829
O O3 0.565513 0.994905 0.263896
O O4 0.788412 0.008023 0.926023
O O5 0.254441 0.750000 0.658531
O O6 0.216653 0.504201 0.624124
O O7 0.368353 0.498656 0.504954
O O8 0.149878 0.513513 0.906692
O O9 0.960636 0.250000 0.847200
O O10 0.957145 0.491401 0.750971
O O11 0.074459 0.481735 0.712841
O O12 0.110353 0.250000 0.760003
O O13 0.000000 0.000000 0.000000
O O14 0.446215 0.250000 0.453292
O O15 0.920723 0.250000 0.712066
O O16 0.000000 0.500000 0.500000
#
# Coordination Sequence:
#
# PCOD9155962 Si02
#       6
#     4   4   4   4   4   4
#     4  10  20  33  48  70  96 127 164 201 243 289
#     4  10  17  28  45  69  97 129 158 192 239 290
#     4   8  16  29  45  63  92 127 159 196 240 281
#     4   9  16  27  42  65  92 124 158 194 238 289
#     4  10  19  30  48  72  98 129 160 197 241 291
#     4  11  21  35  51  70  96 130 168 206 242 283
#
# _framework density 16.094141
#
# number of rings (size 3 to 8) (size 9 to 14) (size 15 to 20)
#    0.000    2.333    1.667    3.500    0.000    1.333 
#    0.000    2.500    0.000    0.000    0.000    1.167 
#    0.000    0.000    0.000    0.000    0.000    0.000 
#
# Total GULP energy -133765.232524 kJ/mol
# GULP energy per Si atom -5573.551355 kJ/mol
# Density = 1.605751 g / cm^3
# Si number density = 16.094141 Si / 1000 Ang^3
#
#
#
# Elastic Constant Matrix: (Units=GPa)
#
#
# Indices 1 2 3 4 5 6 
#
# 1 162.3517 36.1973 59.5864 0.0000 -25.9757 0.0000
# 2 36.1973 48.8950 27.4626 0.0000 -8.2918 0.0000
# 3 59.5864 27.4626 76.9047 0.0000 -8.9863 0.0000
# 4 0.0000 0.0000 0.0000 20.8881 0.0000 -5.2245
# 5 -25.9757 -8.2918 -8.9863 0.0000 20.1329 0.0000
# 6 0.0000 0.0000 0.0000 -5.2245 0.0000 26.5199
#
#
#
# Elastic Compliance Matrix: (Units=1/GPa)
#
#
# Indices 1 2 3 4 5 6 
#
# 1 0.010563 -0.002759 -0.006056 0.000000 0.009790 0.000000
# 2 -0.002759 0.027222 -0.007057 0.000000 0.004502 0.000000
# 3 -0.006056 -0.007057 0.020006 0.000000 -0.001790 0.000000
# 4 0.000000 0.000000 0.000000 0.050355 0.000000 0.009920
# 5 0.009790 0.004502 -0.001790 0.000000 0.063356 0.000000
# 6 0.000000 0.000000 0.000000 0.009920 0.000000 0.039662
#
#
# Mechanical properties :
#
#
# Convention : Reuss Voigt Hill
#
# Bulk Modulus (GPa) = 38.39080 59.40488 48.89784
# Shear Modulus (GPa) = 19.87359 24.50185 22.18772
#
# Velocity S-wave (km/s) = 3.51783 3.90604 3.71701
# Velocity P-wave (km/s) = 6.35656 7.57191 6.99070
#
# Compressibility (1/GPa) = 0.02604791
#
# Stress axis : x y z
#
# Youngs Moduli (GPa) = 94.66643 36.73562 49.98511
#
# Poissons Ratio (x) = 0.10135 0.30269
# Poissons Ratio (y) = 0.26116 0.35276
# Poissons Ratio (z) = 0.57325 0.25925
#
# Static dielectric constant tensor:
#      x y z
#    x 1.580420 0.000000 -0.008590 
#    y 0.000000 1.537540 0.000000 
#    z -0.008590 0.000000 1.505880 
# 
# From -- ./inp_files/36879.got.cif
#   From: 2010.05.17/outbox.cif.g08.bks.cpg/sg11_19_cif.got.tgz:36879.got - 2010.06.03 12:22:45.
