data_PCOD9155898
_publ_section_title
;
Structure prediction by ZEFSAII (Michael W. Deem and Ramdas Pophale) SiO2 
 PCOD9155898
Probable space group: P 21/M
;
_chemical_formula_sum "Si O2"
_cell_formula_units_Z 32
_cell_length_a 11.706610
_cell_length_b 21.780398
_cell_length_c 8.703011
_cell_angle_alpha 90.000000
_cell_angle_beta 60.301833
_cell_angle_gamma 90.000000
_cell_volume 1927.569299
_symmetry_space_group_name_H-M "P 21/M"
_symmetry_group_IT_number 11
_symmetry_cell_setting 'monoclinic'
loop_
_space_group_symop_operation_xyz
x,y,z
-x,1/2+y,-z
-x,-y,-z
x,1/2-y,z
loop_
_atom_site_type_symbol
_atom_site_label
_atom_site_fract_x
_atom_site_fract_y
_atom_site_fract_z
Si Si1 0.223059 0.609977 0.367519
Si Si2 0.943828 0.568522 0.507494
Si Si3 0.543798 0.321662 0.928194
Si Si4 0.306537 0.021950 0.171134
Si Si5 0.747576 0.580150 0.380307
Si Si6 0.616084 0.915720 0.175160
Si Si7 0.360765 0.559089 0.552389
Si Si8 0.488866 0.400022 0.255208
O O1 0.271323 0.546729 0.248573
O O2 0.263329 0.601521 0.518637
O O3 0.066426 0.612529 0.456912
O O4 0.311276 0.662454 0.233457
O O5 0.814073 0.566788 0.700126
O O6 0.885608 0.579806 0.376216
O O7 0.000000 0.500000 0.500000
O O8 0.516411 0.250000 0.938592
O O9 0.531766 0.347615 0.109007
O O10 0.443405 0.361218 0.889041
O O11 0.432341 0.045981 0.182586
O O12 0.332090 0.032965 0.976084
O O13 0.730876 0.602215 0.217509
O O14 0.701021 0.508634 0.410568
O O15 0.638641 0.615545 0.555145
O O16 0.495679 0.938592 0.362969
O O17 0.400194 0.580458 0.696331
#
# Coordination Sequence:
#
# PCOD9155898 Si02
#       8
#     4   4   4   4   4   4   4   4
#     4  10  19  30  50  69 102 138 162 198 241 292
#     4   9  16  32  44  70 108 138 159 187 232 301
#     4  10  22  35  49  69  96 129 170 210 244 291
#     4   9  17  28  48  75 101 131 154 198 254 307
#     4  10  17  28  49  77 109 125 155 198 251 304
#     4   9  19  29  49  76 100 127 158 203 255 293
#     4  10  17  26  46  77 106 127 152 194 248 314
#     4   9  17  29  48  71 100 126 156 198 253 300
#
# _framework density 16.601219
#
# number of rings (size 3 to 8) (size 9 to 14) (size 15 to 20)
#    0.000    2.500    3.750    1.500    5.250    1.500 
#    0.000    9.375    0.000    7.500    0.000    0.000 
#    0.000    0.000    0.000    0.000    0.000    0.000 
#
# Total GULP energy -178172.819316 kJ/mol
# GULP energy per Si atom -5567.900604 kJ/mol
# Density = 1.656343 g / cm^3
# Si number density = 16.601219 Si / 1000 Ang^3
#
#
#
# Elastic Constant Matrix: (Units=GPa)
#
#
# Indices 1 2 3 4 5 6 
#
# 1 137.7513 10.7526 39.2313 0.0000 18.1048 0.0000
# 2 10.7526 44.2220 20.2392 0.0000 1.7400 0.0000
# 3 39.2313 20.2392 68.4134 0.0000 23.3976 0.0000
# 4 0.0000 0.0000 0.0000 11.4659 0.0000 -0.3338
# 5 18.1048 1.7400 23.3976 0.0000 26.9966 0.0000
# 6 0.0000 0.0000 0.0000 -0.3338 0.0000 8.4104
#
#
#
# Elastic Compliance Matrix: (Units=1/GPa)
#
#
# Indices 1 2 3 4 5 6 
#
# 1 0.008765 -0.000101 -0.004247 0.000000 -0.002191 0.000000
# 2 -0.000101 0.027160 -0.010519 0.000000 0.007434 0.000000
# 3 -0.004247 -0.010519 0.026945 0.000000 -0.019827 0.000000
# 4 0.000000 0.000000 0.000000 0.087316 0.000000 0.003465
# 5 -0.002191 0.007434 -0.019827 0.000000 0.055216 0.000000
# 6 0.000000 0.000000 0.000000 0.003465 0.000000 0.119038
#
#
# Mechanical properties :
#
#
# Convention : Reuss Voigt Hill
#
# Bulk Modulus (GPa) = 30.17982 43.42589 36.80285
# Shear Modulus (GPa) = 13.69038 21.38547 17.53792
#
# Velocity S-wave (km/s) = 2.87481 3.59303 3.25379
# Velocity P-wave (km/s) = 5.40723 6.59000 6.02770
#
# Compressibility (1/GPa) = 0.03313473
#
# Stress axis : x y z
#
# Youngs Moduli (GPa) = 114.09254 36.81927 37.11217
#
# Poissons Ratio (x) = 0.00373 0.15761
# Poissons Ratio (y) = 0.01155 0.39039
# Poissons Ratio (z) = 0.48455 0.38731
#
# Static dielectric constant tensor:
#      x y z
#    x 1.618750 0.000000 0.008330 
#    y 0.000000 1.559220 0.000000 
#    z 0.008330 0.000000 1.600290 
# 
# From -- ./inp_files/19576.got.cif
#   From: 2010.05.17/outbox.cif.g08.bks.cpg/sg11_10_cif.got.tgz:19576.got - 2010.06.03 12:22:45.
