data_PCOD9155087
_publ_section_title
;
Structure prediction by ZEFSAII (Michael W. Deem and Ramdas Pophale) SiO2 
 PCOD9155087
Probable space group: P 2/M
;
_chemical_formula_sum "Si O2"
_cell_formula_units_Z 20
_cell_length_a 18.872861
_cell_length_b 10.121829
_cell_length_c 7.669211
_cell_angle_alpha 90.000000
_cell_angle_beta 39.255940
_cell_angle_gamma 90.000000
_cell_volume 927.051833
_symmetry_space_group_name_H-M "P 2/M"
_symmetry_group_IT_number 10
_symmetry_cell_setting 'monoclinic'
loop_
_space_group_symop_operation_xyz
x,y,z
-x,y,-z
-x,-y,-z
x,-y,z
loop_
_atom_site_type_symbol
_atom_site_label
_atom_site_fract_x
_atom_site_fract_y
_atom_site_fract_z
Si Si1 0.650018 0.649119 0.663263
Si Si2 0.107438 0.285623 0.886756
Si Si3 0.418898 0.848635 0.489606
Si Si4 0.774325 0.150328 0.630881
Si Si5 0.839673 0.849326 0.885688
O O1 0.614610 0.500000 0.769089
O O2 0.775765 0.637718 0.343731
O O3 0.577900 0.734920 0.663738
O O4 0.675921 0.746234 0.776309
O O5 0.142006 0.163056 0.693113
O O6 0.091173 0.240111 0.114339
O O7 0.000000 0.347141 0.000000
O O8 0.500000 0.826026 0.500000
O O9 0.439329 0.000000 0.385665
O O10 0.289965 0.846945 0.802463
O O11 0.834886 0.188707 0.693463
O O12 0.734137 0.000000 0.724900
O O13 0.879258 0.000000 0.824119
#
# Coordination Sequence:
#
# PCOD9155087 Si02
#       5
#     4   4   4   4   4
#     4   9  19  34  51  71 102 137 169 207 249 298
#     4   9  19  32  51  74 104 133 168 210 257 294
#     4   9  17  32  56  81 103 129 165 209 254 301
#     4   9  18  32  51  73 102 134 167 210 251 296
#     4   9  17  31  51  76 103 132 166 204 256 304
#
# _framework density 21.573765999999999
#
# number of rings (size 3 to 8) (size 9 to 14) (size 15 to 20)
#    1.200    1.800    0.000    1.200    0.000    3.200 
#    0.000    7.000    0.000    7.200    0.000    0.000 
#    0.000    0.000    0.000    0.000    0.000    0.000 
#
# Total GULP energy -111375.605396 kJ/mol
# GULP energy per Si atom -5568.780270 kJ/mol
# Density = 2.152466 g / cm^3
# Si number density = 21.573766 Si / 1000 Ang^3
#
#
#
# Elastic Constant Matrix: (Units=GPa)
#
#
# Indices 1 2 3 4 5 6 
#
# 1 150.4353 84.0579 30.9016 0.0000 14.5000 0.0000
# 2 84.0579 123.3406 20.0398 0.0000 17.3646 0.0000
# 3 30.9016 20.0398 45.1734 0.0000 -4.0925 0.0000
# 4 0.0000 0.0000 0.0000 -43.9931 0.0000 36.3543
# 5 14.5000 17.3646 -4.0925 0.0000 49.3342 0.0000
# 6 0.0000 0.0000 0.0000 36.3543 0.0000 -33.8050
#
#
#
# Elastic Compliance Matrix: (Units=1/GPa)
#
#
# Indices 1 2 3 4 5 6 
#
# 1 0.011711 -0.006962 -0.005050 0.000000 -0.001410 0.000000
# 2 -0.006962 0.013490 -0.001478 0.000000 -0.002825 0.000000
# 3 -0.005050 -0.001478 0.026629 0.000000 0.004214 0.000000
# 4 0.000000 0.000000 0.000000 -0.204196 0.000000 -0.219595
# 5 -0.001410 -0.002825 0.004214 0.000000 0.022028 0.000000
# 6 0.000000 0.000000 0.000000 -0.219595 0.000000 -0.265737
#
#
# Mechanical properties :
#
#
# Convention : Reuss Voigt Hill
#
# Bulk Modulus (GPa) = 40.24217 65.43865 52.84041
# Shear Modulus (GPa) = -13.85764 6.57057 -3.64354
#
# Velocity S-wave (km/s) = -2.53719 1.74707 -1.30098
# Velocity P-wave (km/s) = 3.17973 5.87095 4.72116
#
# Compressibility (1/GPa) = 0.02484956
#
# Stress axis : x y z
#
# Youngs Moduli (GPa) = 85.39132 74.12877 37.55303
#
# Poissons Ratio (x) = 0.51608 0.18965
# Poissons Ratio (y) = 0.59449 0.05550
# Poissons Ratio (z) = 0.43125 0.10956
#
# Static dielectric constant tensor:
#      x y z
#    x 1.780640 0.000000 -0.039810 
#    y 0.000000 1.751480 0.000000 
#    z -0.039810 0.000000 1.842050 
# 
# From -- ./inp_files/31154.got.cif
#   From: 2010.05.17/outbox.cif.g08.bks.cpg/sg10_16_cif.got.tgz:31154.got - 2010.06.03 11:33:40.
