data_PCOD9155456
_publ_section_title
;
Structure prediction by ZEFSAII (Michael W. Deem and Ramdas Pophale) SiO2 
 PCOD9155456
Probable space group: P 2/M
;
_chemical_formula_sum "Si O2"
_cell_formula_units_Z 32
_cell_length_a 21.000000
_cell_length_b 9.000000
_cell_length_c 27.000000
_cell_angle_alpha 90.000000
_cell_angle_beta 20.000000
_cell_angle_gamma 90.000000
_cell_volume 1745.328791
_symmetry_space_group_name_H-M "P 2/M"
_symmetry_group_IT_number 10
_symmetry_cell_setting 'monoclinic'
loop_
_space_group_symop_operation_xyz
x,y,z
-x,y,-z
-x,-y,-z
x,-y,z
loop_
_atom_site_type_symbol
_atom_site_label
_atom_site_fract_x
_atom_site_fract_y
_atom_site_fract_z
Si Si1 0.281129 0.678162 0.159561
Si Si2 0.211878 0.182245 0.848887
Si Si3 0.516604 0.179330 0.159117
Si Si4 0.482001 0.180626 0.297192
Si Si5 0.205970 0.830015 0.584573
Si Si6 0.539565 0.171188 0.418405
Si Si7 0.824512 0.178979 0.661817
Si Si8 0.164426 0.324647 0.134738
O O1 0.262210 0.500000 0.177646
O O2 0.182297 0.752277 0.278687
O O3 0.209068 0.724968 0.158421
O O4 0.500000 0.715152 0.000000
O O5 0.332388 0.227856 0.808604
O O6 0.308373 0.239976 0.728554
O O7 0.221503 0.000000 0.841632
O O8 0.000000 0.225972 0.000000
O O9 0.475902 0.230778 0.244956
O O10 0.357413 0.224055 0.236472
O O11 0.522165 0.000000 0.155817
O O12 0.707221 0.242336 0.998476
O O13 0.307761 0.220280 0.459544
O O14 0.482414 0.000000 0.296249
O O15 0.359691 0.835784 0.515114
O O16 0.047440 0.719917 0.717280
O O17 0.136216 0.000000 0.628578
O O18 0.500000 0.242451 0.500000
O O19 0.601173 0.000000 0.383465
O O20 0.000000 0.222466 0.500000
O O21 0.826357 0.000000 0.665187
O O22 0.197860 0.500000 0.107271
#
# Coordination Sequence:
#
# PCOD9155456 Si02
#       8
#     4   4   4   4   4   4   4   4
#     4  10  21  39  57  73 100 137 173 212 258 305
#     4   8  13  22  38  64  98 133 162 194 242 292
#     4  10  20  35  53  75 103 134 167 207 257 308
#     4   8  16  30  48  72 103 134 166 205 249 301
#     4   9  18  33  54  78 105 139 172 208 258 307
#     4   8  14  25  43  72 106 133 163 204 247 297
#     4  10  22  36  54  82 107 129 164 211 259 307
#     4  11  23  37  53  75 103 135 174 217 256 303
#
# _framework density 18.334654
#
# number of rings (size 3 to 8) (size 9 to 14) (size 15 to 20)
#    0.000    2.750    1.250    1.875    1.750    2.500 
#    0.000    4.375    0.000    0.375    0.000    0.000 
#    0.000    4.500    0.000    0.000    0.000    0.000 
#
# Total GULP energy -178237.362980 kJ/mol
# GULP energy per Si atom -5569.917593 kJ/mol
# Density = 1.829292 g / cm^3
# Si number density = 18.334654 Si / 1000 Ang^3
#
#
#
# Elastic Constant Matrix: (Units=GPa)
#
#
# Indices 1 2 3 4 5 6 
#
# 1 56.8222 7.5655 24.2474 0.0000 34.1925 0.0000
# 2 7.5655 -2.8613 4.2851 0.0000 4.4952 0.0000
# 3 24.2474 4.2851 69.1786 0.0000 10.5393 0.0000
# 4 0.0000 0.0000 0.0000 -3.9463 0.0000 -11.1224
# 5 34.1925 4.4952 10.5393 0.0000 25.2523 0.0000
# 6 0.0000 0.0000 0.0000 -11.1224 0.0000 -76.0521
#
#
#
# Elastic Compliance Matrix: (Units=1/GPa)
#
#
# Indices 1 2 3 4 5 6 
#
# 1 0.107354 0.031706 -0.017713 0.000000 -0.143612 0.000000
# 2 0.031706 -0.257228 0.004682 0.000000 0.000904 0.000000
# 3 -0.017713 0.004682 0.017991 0.000000 0.015641 0.000000
# 4 0.000000 0.000000 0.000000 -0.431101 0.000000 0.063047
# 5 -0.143612 0.000904 0.015641 0.000000 0.227367 0.000000
# 6 0.000000 0.000000 0.000000 0.063047 0.000000 -0.022369
#
#
# Mechanical properties :
#
#
# Convention : Reuss Voigt Hill
#
# Bulk Modulus (GPa) = -10.57839 21.70393 5.56277
# Shear Modulus (GPa) = -11.71372 -5.14643 -8.43008
#
# Velocity S-wave (km/s) = -2.53036 -1.67721 -2.14660
# Velocity P-wave (km/s) = 3.78406 2.84827 1.76160
#
# Compressibility (1/GPa) = -0.09453233
#
# Stress axis : x y z
#
# Youngs Moduli (GPa) = 9.31501 -3.88760 55.58436
#
# Poissons Ratio (x) = 0.12326 0.98454
# Poissons Ratio (y) = -0.29534 -0.26027
# Poissons Ratio (z) = 0.16499 0.01820
#
# Static dielectric constant tensor:
#      x y z
#    x 1.633920 0.000000 -0.006150 
#    y 0.000000 1.614490 0.000000 
#    z -0.006150 0.000000 1.638320 
# 
# From -- ./inp_files/93657.got.cif
#   From: 2010.05.17/outbox.ucp.g08.bks.cvg/sg10_47_cif.got.tgz:93657.got - 2010.06.11 11:31:16.
