data_PCOD9155393
_publ_section_title
;
Structure prediction by ZEFSAII (Michael W. Deem and Ramdas Pophale) SiO2 
 PCOD9155393
Probable space group: P 2/M
;
_chemical_formula_sum "Si O2"
_cell_formula_units_Z 24
_cell_length_a 18.000000
_cell_length_b 9.000000
_cell_length_c 24.000000
_cell_angle_alpha 90.000000
_cell_angle_beta 160.000000
_cell_angle_gamma 90.000000
_cell_volume 1329.774317
_symmetry_space_group_name_H-M "P 2/M"
_symmetry_group_IT_number 10
_symmetry_cell_setting 'monoclinic'
loop_
_space_group_symop_operation_xyz
x,y,z
-x,y,-z
-x,-y,-z
x,-y,z
loop_
_atom_site_type_symbol
_atom_site_label
_atom_site_fract_x
_atom_site_fract_y
_atom_site_fract_z
Si Si1 0.039868 0.682003 0.788962
Si Si2 0.239371 0.172831 0.815536
Si Si3 0.438088 0.181061 0.522697
Si Si4 0.642804 0.182489 0.891864
Si Si5 0.744734 0.680655 0.837739
Si Si6 0.244235 0.171419 0.693926
O O1 0.043059 0.500000 0.791715
O O2 0.138734 0.742301 0.798844
O O3 0.796266 0.745748 0.627590
O O4 0.181183 0.749166 0.940369
O O5 0.214021 0.240081 0.734938
O O6 0.157523 0.000000 0.760047
O O7 0.500000 0.167930 0.000000
O O8 0.500000 0.212102 0.500000
O O9 0.602781 0.247649 0.686432
O O10 0.430654 0.000000 0.522678
O O11 0.681030 0.249509 0.855122
O O12 0.415096 0.219963 0.765465
O O13 0.658442 0.000000 0.899251
O O14 0.711213 0.500000 0.816649
O O15 0.000000 0.705316 0.000000
O O16 0.000000 0.172210 0.500000
O O17 0.313818 0.000000 0.754116
#
# Coordination Sequence:
#
# PCOD9155393 Si02
#       6
#     4   4   4   4   4   4
#     4  12  25  40  62  93 131 169 209 263 327 381
#     4  10  19  37  62  88 122 165 215 262 309 369
#     4  11  25  45  70  97 123 160 214 266 310 372
#     4  11  22  40  65  93 125 168 219 263 309 370
#     4  11  25  44  66  95 133 169 200 249 322 384
#     4   9  19  35  58  89 122 160 207 261 311 360
#
# _framework density 18.048175000000001
#
# number of rings (size 3 to 8) (size 9 to 14) (size 15 to 20)
#    0.000    1.333    1.667    4.000    2.333    5.667 
#    0.000    0.000    0.000    2.500    0.000    0.000 
#    0.000    0.000    0.000    0.000    0.000    0.000 
#
# Total GULP energy -133630.125246 kJ/mol
# GULP energy per Si atom -5567.921885 kJ/mol
# Density = 1.800710 g / cm^3
# Si number density = 18.048175 Si / 1000 Ang^3
#
#
#
# Elastic Constant Matrix: (Units=GPa)
#
#
# Indices 1 2 3 4 5 6 
#
# 1 232.1110 69.0804 79.2001 0.0000 -2.8438 0.0000
# 2 69.0804 125.0409 42.9734 0.0000 2.0505 0.0000
# 3 79.2001 42.9734 132.7187 0.0000 4.3963 0.0000
# 4 0.0000 0.0000 0.0000 27.0426 0.0000 -3.3608
# 5 -2.8438 2.0505 4.3963 0.0000 45.5619 0.0000
# 6 0.0000 0.0000 0.0000 -3.3608 0.0000 39.6502
#
#
#
# Elastic Compliance Matrix: (Units=1/GPa)
#
#
# Indices 1 2 3 4 5 6 
#
# 1 0.005983 -0.002343 -0.002837 0.000000 0.000753 0.000000
# 2 -0.002343 0.009917 -0.001799 0.000000 -0.000419 0.000000
# 3 -0.002837 -0.001799 0.009845 0.000000 -0.001046 0.000000
# 4 0.000000 0.000000 0.000000 0.037372 0.000000 0.003168
# 5 0.000753 -0.000419 -0.001046 0.000000 0.022115 0.000000
# 6 0.000000 0.000000 0.000000 0.003168 0.000000 0.025489
#
#
# Mechanical properties :
#
#
# Convention : Reuss Voigt Hill
#
# Bulk Modulus (GPa) = 84.83627 96.93092 90.88360
# Shear Modulus (GPa) = 38.87839 42.35871 40.61855
#
# Velocity S-wave (km/s) = 4.64631 4.84982 4.74916
# Velocity P-wave (km/s) = 8.71159 9.22954 8.97430
#
# Compressibility (1/GPa) = 0.01178741
#
# Stress axis : x y z
#
# Youngs Moduli (GPa) = 167.15195 100.83898 101.57841
#
# Poissons Ratio (x) = 0.23623 0.28813
# Poissons Ratio (y) = 0.39158 0.18275
# Poissons Ratio (z) = 0.47413 0.18142
#
# Static dielectric constant tensor:
#      x y z
#    x 1.645060 0.000000 -0.026710 
#    y 0.000000 1.634350 0.000000 
#    z -0.026710 0.000000 1.669100 
# 
# From -- ./inp_files/80121.got.cif
#   From: 2010.05.17/outbox.ucp.g08.bks.cvg/sg10_41_cif.got.tgz:80121.got - 2010.06.11 11:31:16.
