data_PCOD9155131
_publ_section_title
;
Structure prediction by ZEFSAII (Michael W. Deem and Ramdas Pophale) SiO2 
 PCOD9155131
Probable space group: P 2/M
;
_chemical_formula_sum "Si O2"
_cell_formula_units_Z 32
_cell_length_a 15.000000
_cell_length_b 9.000000
_cell_length_c 15.000000
_cell_angle_alpha 90.000000
_cell_angle_beta 60.000000
_cell_angle_gamma 90.000000
_cell_volume 1753.701443
_symmetry_space_group_name_H-M "P 2/M"
_symmetry_group_IT_number 10
_symmetry_cell_setting 'monoclinic'
loop_
_space_group_symop_operation_xyz
x,y,z
-x,y,-z
-x,-y,-z
x,-y,z
loop_
_atom_site_type_symbol
_atom_site_label
_atom_site_fract_x
_atom_site_fract_y
_atom_site_fract_z
Si Si1 0.836669 0.681207 0.826278
Si Si2 0.705127 0.680060 0.550295
Si Si3 0.894717 0.319960 0.998060
Si Si4 0.620121 0.820943 0.421042
Si Si5 0.481151 0.673093 0.235254
Si Si6 0.888892 0.680712 0.595973
Si Si7 0.393188 0.325525 0.086222
Si Si8 0.313617 0.178220 0.816049
O O1 0.837233 0.500000 0.823872
O O2 0.876237 0.727664 0.706944
O O3 0.716998 0.732876 0.889396
O O4 0.891814 0.722413 0.892847
O O5 0.709356 0.500000 0.542416
O O6 0.696772 0.749222 0.455977
O O7 0.595274 0.723009 0.648703
O O8 0.797433 0.725890 0.572250
O O9 0.886809 0.500000 0.005310
O O10 0.792501 0.251361 0.095784
O O11 0.000000 0.279410 0.000000
O O12 0.500000 0.775509 0.500000
O O13 0.657488 0.783453 0.301751
O O14 0.623365 0.000000 0.428140
O O15 0.509333 0.500000 0.233886
O O16 0.408489 0.678661 0.184525
O O17 0.586795 0.763778 0.178570
O O18 0.885181 0.500000 0.599499
O O19 0.000000 0.724407 0.500000
O O20 0.393706 0.500000 0.057210
O O21 0.500000 0.255538 0.000000
O O22 0.305639 0.000000 0.826676
#
# Coordination Sequence:
#
# PCOD9155131 Si02
#       8
#     4   4   4   4   4   4   4   4
#     4   9  16  30  51  77 109 145 180 215 267 329
#     4  10  19  31  52  82 109 139 183 233 276 318
#     4  10  22  39  60  85 112 145 187 234 277 319
#     4  10  21  37  54  75 109 153 191 222 274 344
#     4  10  18  30  51  80 110 137 178 231 276 323
#     4   9  17  30  50  80 116 147 176 217 273 332
#     4   9  15  24  44  73 103 138 177 216 262 320
#     4  11  23  38  57  80 109 149 190 228 277 336
#
# _framework density 18.247119999999999
#
# number of rings (size 3 to 8) (size 9 to 14) (size 15 to 20)
#    0.000    2.250    2.500    1.125    0.000    4.500 
#    0.000    2.500    0.000    4.500    0.000    0.000 
#    0.000    0.000    0.000    0.000    0.000    0.000 
#
# Total GULP energy -178284.246520 kJ/mol
# GULP energy per Si atom -5571.382704 kJ/mol
# Density = 1.820559 g / cm^3
# Si number density = 18.247120 Si / 1000 Ang^3
#
#
#
# Elastic Constant Matrix: (Units=GPa)
#
#
# Indices 1 2 3 4 5 6 
#
# 1 162.9101 20.7414 59.9590 0.0000 1.3795 0.0000
# 2 20.7414 12.9464 10.3598 0.0000 -3.8373 0.0000
# 3 59.9590 10.3598 102.1890 0.0000 0.8998 0.0000
# 4 0.0000 0.0000 0.0000 20.9156 0.0000 -2.0776
# 5 1.3795 -3.8373 0.8998 0.0000 30.0257 0.0000
# 6 0.0000 0.0000 0.0000 -2.0776 0.0000 9.1517
#
#
#
# Elastic Compliance Matrix: (Units=1/GPa)
#
#
# Indices 1 2 3 4 5 6 
#
# 1 0.009214 -0.011960 -0.004178 0.000000 -0.001827 0.000000
# 2 -0.011960 0.103383 -0.003585 0.000000 0.013869 0.000000
# 3 -0.004178 -0.003585 0.012606 0.000000 -0.000644 0.000000
# 4 0.000000 0.000000 0.000000 0.048914 0.000000 0.011104
# 5 -0.001827 0.013869 -0.000644 0.000000 0.035181 0.000000
# 6 0.000000 0.000000 0.000000 0.011104 0.000000 0.111791
#
#
# Mechanical properties :
#
#
# Convention : Reuss Voigt Hill
#
# Bulk Modulus (GPa) = 11.66089 51.12952 31.39520
# Shear Modulus (GPa) = 12.84945 24.48427 18.66686
#
# Velocity S-wave (km/s) = 2.65654 3.66705 3.20191
# Velocity P-wave (km/s) = 3.97668 6.78315 5.55991
#
# Compressibility (1/GPa) = 0.08575678
#
# Stress axis : x y z
#
# Youngs Moduli (GPa) = 108.52756 9.67275 79.32582
#
# Poissons Ratio (x) = 0.11569 0.33141
# Poissons Ratio (y) = 1.29804 0.28440
# Poissons Ratio (z) = 0.45341 0.03468
#
# Static dielectric constant tensor:
#      x y z
#    x 1.629720 0.000000 0.015370 
#    y 0.000000 1.607250 0.000000 
#    z 0.015370 0.000000 1.688940 
# 
# From -- ./inp_files/66457.got.cif
#   From: 2010.05.17/outbox.ucp.g08.bks.cvg/sg10_34_cif.got.tgz:66457.got - 2010.06.11 11:31:16.
