data_PCOD9155909
_publ_section_title
;
Structure prediction by ZEFSAII (Michael W. Deem and Ramdas Pophale) SiO2 
 PCOD9155909
Probable space group: P 21/M
;
_chemical_formula_sum "Si O2"
_cell_formula_units_Z 32
_cell_length_a 24.920183
_cell_length_b 8.933935
_cell_length_c 19.486096
_cell_angle_alpha 90.000000
_cell_angle_beta 151.001739
_cell_angle_gamma 90.000000
_cell_volume 2103.130888
_symmetry_space_group_name_H-M "P 21/M"
_symmetry_group_IT_number 11
_symmetry_cell_setting 'monoclinic'
loop_
_space_group_symop_operation_xyz
x,y,z
-x,1/2+y,-z
-x,-y,-z
x,1/2-y,z
loop_
_atom_site_type_symbol
_atom_site_label
_atom_site_fract_x
_atom_site_fract_y
_atom_site_fract_z
Si Si1 0.886354 0.930682 0.402486
Si Si2 0.090772 0.430395 0.051627
Si Si3 0.082580 0.070981 0.885125
Si Si4 0.978828 0.575800 0.644295
Si Si5 0.779791 0.074509 0.159685
Si Si6 0.682623 0.929774 0.921221
Si Si7 0.670744 0.427954 0.661924
Si Si8 0.526524 0.072056 0.638073
O O1 0.890599 0.750000 0.402313
O O2 0.889719 0.971876 0.487004
O O3 0.792394 0.996052 0.247704
O O4 0.000000 0.000000 0.500000
O O5 0.088892 0.250000 0.052706
O O6 0.211987 0.490377 0.206678
O O7 0.068294 0.477622 0.947483
O O8 0.000000 0.500000 0.000000
O O9 0.079422 0.250000 0.879989
O O10 0.993061 0.010869 0.730980
O O11 0.204782 0.026791 0.994314
O O12 0.960987 0.750000 0.639276
O O13 0.098548 0.562678 0.740228
O O14 0.754962 0.250000 0.138958
O O15 0.698360 0.994006 0.015261
O O16 0.675915 0.750000 0.914889
O O17 0.581295 0.999968 0.766299
O O18 0.683905 0.250000 0.667505
O O19 0.587435 0.495034 0.512364
O O20 0.611029 0.453392 0.668772
O O21 0.512496 0.250000 0.630146
#
# Coordination Sequence:
#
# PCOD9155909 Si02
#       8
#     4   4   4   4   4   4   4   4
#     4   9  15  23  33  49  72 103 138 174 210 251
#     4  11  22  36  50  67  89 116 150 189 231 275
#     4   9  18  29  42  59  81 107 142 182 220 263
#     4   8  15  24  36  52  73 101 137 176 213 252
#     4   9  16  24  34  52  77 107 141 176 211 255
#     4  10  17  27  42  61  85 114 145 182 221 261
#     4  10  20  33  49  68  88 115 147 183 227 271
#     4  10  19  30  47  68  91 116 145 185 225 267
#
# _framework density 15.21541
#
# number of rings (size 3 to 8) (size 9 to 14) (size 15 to 20)
#    0.000    2.500    1.250    3.000    0.000    6.000 
#    0.000    0.000    0.000    0.000    0.000    0.000 
#    0.000    0.000    0.000    1.125    0.000   15.375 
#
# Total GULP energy -178248.488429 kJ/mol
# GULP energy per Si atom -5570.265263 kJ/mol
# Density = 1.518078 g / cm^3
# Si number density = 15.215410 Si / 1000 Ang^3
#
#
#
# Elastic Constant Matrix: (Units=GPa)
#
#
# Indices 1 2 3 4 5 6 
#
# 1 50.8095 30.0911 56.4205 0.0000 -14.6713 0.0000
# 2 30.0911 60.4260 57.6936 0.0000 -12.2779 0.0000
# 3 56.4205 57.6936 132.6097 0.0000 -41.8992 0.0000
# 4 0.0000 0.0000 0.0000 30.5214 0.0000 -7.0261
# 5 -14.6713 -12.2779 -41.8992 0.0000 26.5557 0.0000
# 6 0.0000 0.0000 0.0000 -7.0261 0.0000 17.6738
#
#
#
# Elastic Compliance Matrix: (Units=1/GPa)
#
#
# Indices 1 2 3 4 5 6 
#
# 1 0.039164 -0.004957 -0.016738 0.000000 -0.007064 0.000000
# 2 -0.004957 0.031240 -0.015522 0.000000 -0.012785 0.000000
# 3 -0.016738 -0.015522 0.032356 0.000000 0.034627 0.000000
# 4 0.000000 0.000000 0.000000 0.036064 0.000000 0.014337
# 5 -0.007064 -0.012785 0.034627 0.000000 0.082477 0.000000
# 6 0.000000 0.000000 0.000000 0.014337 0.000000 0.062281
#
#
# Mechanical properties :
#
#
# Convention : Reuss Voigt Hill
#
# Bulk Modulus (GPa) = 35.30344 59.13951 47.22147
# Shear Modulus (GPa) = 13.60701 21.59286 17.59993
#
# Velocity S-wave (km/s) = 2.99371 3.77124 3.40474
# Velocity P-wave (km/s) = 5.93318 7.61023 6.82342
#
# Compressibility (1/GPa) = 0.02832585
#
# Stress axis : x y z
#
# Youngs Moduli (GPa) = 25.53375 32.01039 30.90610
#
# Poissons Ratio (x) = 0.15868 0.51731
# Poissons Ratio (y) = 0.12657 0.47972
# Poissons Ratio (z) = 0.42738 0.49686
#
# Static dielectric constant tensor:
#      x y z
#    x 1.486610 0.000000 -0.030380 
#    y 0.000000 1.508240 0.000000 
#    z -0.030380 0.000000 1.520010 
# 
# From -- ./inp_files/43774.got.cif
#   From: 2010.05.17/outbox.cif.g08.bks.cpg/sg11_22_cif.got.tgz:43774.got - 2010.06.03 12:22:45.
