data_PCOD9155853
_publ_section_title
;
Structure prediction by ZEFSAII (Michael W. Deem and Ramdas Pophale) SiO2 
 PCOD9155853
Probable space group: P 21/M
;
_chemical_formula_sum "Si O2"
_cell_formula_units_Z 32
_cell_length_a 21.365581
_cell_length_b 9.251219
_cell_length_c 22.575517
_cell_angle_alpha 90.000000
_cell_angle_beta 18.269567
_cell_angle_gamma 90.000000
_cell_volume 1398.854227
_symmetry_space_group_name_H-M "P 21/M"
_symmetry_group_IT_number 11
_symmetry_cell_setting 'monoclinic'
loop_
_space_group_symop_operation_xyz
x,y,z
-x,1/2+y,-z
-x,-y,-z
x,1/2-y,z
loop_
_atom_site_type_symbol
_atom_site_label
_atom_site_fract_x
_atom_site_fract_y
_atom_site_fract_z
Si Si1 0.458087 0.913517 0.478621
Si Si2 0.477893 0.085874 0.858278
Si Si3 0.315346 0.085386 0.229577
Si Si4 0.093941 0.087942 0.970340
Si Si5 0.100942 0.915214 0.594263
Si Si6 0.106285 0.584836 0.318509
Si Si7 0.299264 0.425222 0.898780
Si Si8 0.689559 0.578217 0.495017
O O1 0.389750 0.750000 0.549419
O O2 0.672842 0.904744 0.255049
O O3 0.500000 0.000000 0.500000
O O4 0.315669 0.004108 0.564245
O O5 0.450241 0.250000 0.905188
O O6 0.688353 0.086241 0.631951
O O7 0.308855 0.052068 0.961054
O O8 0.519112 0.976045 0.874339
O O9 0.354608 0.250000 0.175992
O O10 0.104708 0.086772 0.455475
O O11 0.269993 0.980859 0.215442
O O12 0.011432 0.250000 0.042163
O O13 0.113592 0.040310 0.021865
O O14 0.000000 0.000000 0.000000
O O15 0.059721 0.750000 0.648162
O O16 0.141945 0.013698 0.614090
O O17 0.937570 0.981745 0.697476
O O18 0.147933 0.750000 0.264128
O O19 0.337432 0.250000 0.857575
O O20 0.482298 0.523125 0.710993
O O21 0.696368 0.750000 0.485284
#
# Coordination Sequence:
#
# PCOD9155853 Si02
#       8
#     4   4   4   4   4   4   4   4
#     4  10  20  34  49  67  90 116 147 184 223 264
#     4   8  13  21  32  43  59  86 119 156 198 238
#     4   9  15  20  26  38  57  81 112 152 196 239
#     4   9  18  31  47  67  91 116 145 181 221 265
#     4   9  15  23  33  45  64  90 120 158 201 241
#     4   9  15  21  28  39  56  81 116 155 194 238
#     4   8  15  27  39  53  75 102 132 169 208 247
#     4  10  17  25  39  58  77 100 131 167 207 252
#
# _framework density 22.875865000000001
#
# number of rings (size 3 to 8) (size 9 to 14) (size 15 to 20)
#    0.000    3.000    0.000    4.125    0.000    8.500 
#    0.000    0.000    0.000    0.000    0.000    0.000 
#    0.000    0.000    0.000    0.000    0.000    1.250 
#
# Total GULP energy -178710.870921 kJ/mol
# GULP energy per Si atom -5584.714716 kJ/mol
# Density = 2.282380 g / cm^3
# Si number density = 22.875865 Si / 1000 Ang^3
#
#
#
# Elastic Constant Matrix: (Units=GPa)
#
#
# Indices 1 2 3 4 5 6 
#
# 1 158.5180 90.3585 24.6712 0.0000 -50.4995 0.0000
# 2 90.3585 176.2764 29.1045 0.0000 -36.7843 0.0000
# 3 24.6712 29.1045 100.6482 0.0000 -15.0804 0.0000
# 4 0.0000 0.0000 0.0000 11.8367 0.0000 -14.3862
# 5 -50.4995 -36.7843 -15.0804 0.0000 42.9042 0.0000
# 6 0.0000 0.0000 0.0000 -14.3862 0.0000 43.3409
#
#
#
# Elastic Compliance Matrix: (Units=1/GPa)
#
#
# Indices 1 2 3 4 5 6 
#
# 1 0.011941 -0.003859 -0.000212 0.000000 0.010672 0.000000
# 2 -0.003859 0.008290 -0.001126 0.000000 0.002169 0.000000
# 3 -0.000212 -0.001126 0.010694 0.000000 0.002544 0.000000
# 4 0.000000 0.000000 0.000000 0.141614 0.000000 0.047006
# 5 0.010672 0.002169 0.002544 0.000000 0.038622 0.000000
# 6 0.000000 0.000000 0.000000 0.047006 0.000000 0.038676
#
#
# Mechanical properties :
#
#
# Convention : Reuss Voigt Hill
#
# Bulk Modulus (GPa) = 48.70827 80.41232 64.56030
# Shear Modulus (GPa) = 18.72139 39.03693 28.87916
#
# Velocity S-wave (km/s) = 2.86386 4.13542 3.55692
# Velocity P-wave (km/s) = 5.68104 7.61776 6.71954
#
# Compressibility (1/GPa) = 0.02053040
#
# Stress axis : x y z
#
# Youngs Moduli (GPa) = 83.74682 120.63365 93.50699
#
# Poissons Ratio (x) = 0.46551 0.01983
# Poissons Ratio (y) = 0.32317 0.10530
# Poissons Ratio (z) = 0.01776 0.13585
#
# Static dielectric constant tensor:
#      x y z
#    x 1.664430 0.000000 -0.238230 
#    y 0.000000 1.766080 0.000000 
#    z -0.238230 0.000000 1.574320 
# 
# From -- ./inp_files/44402.got.cif
#   From: 2010.05.17/outbox.cif.g08.bks.cpg/sg11_23_cif.got.tgz:44402.got - 2010.06.03 12:22:45.
