data_PCOD9155580
_publ_section_title
;
Structure prediction by ZEFSAII (Michael W. Deem and Ramdas Pophale) SiO2 
 PCOD9155580
Probable space group: P 2/M
;
_chemical_formula_sum "Si O2"
_cell_formula_units_Z 21
_cell_length_a 9.000000
_cell_length_b 21.000000
_cell_length_c 6.000000
_cell_angle_alpha 90.000000
_cell_angle_beta 70.000000
_cell_angle_gamma 90.000000
_cell_volume 1065.611432
_symmetry_space_group_name_H-M "P 2/M"
_symmetry_group_IT_number 10
_symmetry_cell_setting 'monoclinic'
loop_
_space_group_symop_operation_xyz
x,y,z
-x,y,-z
-x,-y,-z
x,-y,z
loop_
_atom_site_type_symbol
_atom_site_label
_atom_site_fract_x
_atom_site_fract_y
_atom_site_fract_z
Si Si1 0.085927 0.829751 0.706670
Si Si2 0.652799 0.736682 0.578631
Si Si3 0.089414 0.500000 0.205734
Si Si4 0.340798 0.074031 0.730766
Si Si5 0.500000 0.500000 0.500000
Si Si6 0.500000 0.835988 0.000000
Si Si7 0.655991 0.401884 0.765680
O O1 0.202955 0.768817 0.628324
O O2 0.197214 0.892300 0.674384
O O3 0.000000 0.831892 0.500000
O O4 0.000000 0.826070 0.000000
O O5 0.500000 0.725979 0.500000
O O6 0.597511 0.789432 0.787264
O O7 0.697632 0.669558 0.668334
O O8 0.205848 0.438603 0.168383
O O9 0.000000 0.500000 0.500000
O O10 0.000000 0.500000 0.000000
O O11 0.500000 0.075956 0.500000
O O12 0.308648 0.000000 0.802787
O O13 0.383114 0.118180 0.920933
O O14 0.604011 0.444719 0.580974
O O15 0.500000 0.399338 0.000000
#
# Coordination Sequence:
#
# PCOD9155580 Si02
#       7
#     4   4   2   4   1   2   4
#     4  12  27  47  71 104 154 197 233 300 375 447
#     4  12  24  44  75 107 137 190 250 305 361 429
#     4  11  28  49  72 102 155 195 228 288 361 438
#     4  11  24  43  72 103 136 191 254 306 358 429
#     4  10  20  40  68 104 138 160 238 298 356 400
#     4  12  19  44  72 105 138 178 244 318 360 413
#     4  11  25  43  77 106 134 191 247 305 351 426
#
# _framework density 19.706996
#
# number of rings (size 3 to 8) (size 9 to 14) (size 15 to 20)
#    0.000    0.571    5.714    2.571    5.333    1.524 
#    0.000    3.810    0.000    0.000    0.000    0.000 
#    0.000    0.000    0.000    0.000    0.000    0.000 
#
# Total GULP energy -116968.942430 kJ/mol
# GULP energy per Si atom -5569.949640 kJ/mol
# Density = 1.966214 g / cm^3
# Si number density = 19.706996 Si / 1000 Ang^3
#
#
#
# Elastic Constant Matrix: (Units=GPa)
#
#
# Indices 1 2 3 4 5 6 
#
# 1 128.4492 59.5600 48.6624 0.0000 27.6585 0.0000
# 2 59.5600 195.2008 48.1991 0.0000 6.7636 0.0000
# 3 48.6624 48.1991 115.1512 0.0000 -3.4972 0.0000
# 4 0.0000 0.0000 0.0000 19.4710 0.0000 8.9582
# 5 27.6585 6.7636 -3.4972 0.0000 53.5901 0.0000
# 6 0.0000 0.0000 0.0000 8.9582 0.0000 20.9678
#
#
#
# Elastic Compliance Matrix: (Units=1/GPa)
#
#
# Indices 1 2 3 4 5 6 
#
# 1 0.011754 -0.002348 -0.004168 0.000000 -0.006042 0.000000
# 2 -0.002348 0.006224 -0.001603 0.000000 0.000322 0.000000
# 3 -0.004168 -0.001603 0.011210 0.000000 0.003085 0.000000
# 4 0.000000 0.000000 0.000000 0.063923 0.000000 -0.027310
# 5 -0.006042 0.000322 0.003085 0.000000 0.021939 0.000000
# 6 0.000000 0.000000 0.000000 -0.027310 0.000000 0.059360
#
#
# Mechanical properties :
#
#
# Convention : Reuss Voigt Hill
#
# Bulk Modulus (GPa) = 77.21863 83.51602 80.36733
# Shear Modulus (GPa) = 25.64555 37.63108 31.63832
#
# Velocity S-wave (km/s) = 3.61133 4.37456 4.01114
# Velocity P-wave (km/s) = 7.52711 8.24539 7.89442
#
# Compressibility (1/GPa) = 0.01295024
#
# Stress axis : x y z
#
# Youngs Moduli (GPa) = 85.07884 160.66721 89.20355
#
# Poissons Ratio (x) = 0.37722 0.37179
# Poissons Ratio (y) = 0.19975 0.14302
# Poissons Ratio (z) = 0.35460 0.25759
#
# Static dielectric constant tensor:
#      x y z
#    x 1.726660 0.000000 -0.014480 
#    y 0.000000 1.675760 0.000000 
#    z -0.014480 0.000000 1.754580 
# 
# From -- ./inp_files/4724.got.cif
#   From: 2010.05.17/outbox.ucp.g08.bks.cvg/sg10_3_cif.got.tgz:4724.got - 2010.06.11 11:31:16.
