data_PCOD9155514
_publ_section_title
;
Structure prediction by ZEFSAII (Michael W. Deem and Ramdas Pophale) SiO2 
 PCOD9155514
Probable space group: P 2/M
;
_chemical_formula_sum "Si O2"
_cell_formula_units_Z 28
_cell_length_a 15.000000
_cell_length_b 9.000000
_cell_length_c 21.000000
_cell_angle_alpha 90.000000
_cell_angle_beta 150.000000
_cell_angle_gamma 90.000000
_cell_volume 1417.500000
_symmetry_space_group_name_H-M "P 2/M"
_symmetry_group_IT_number 10
_symmetry_cell_setting 'monoclinic'
loop_
_space_group_symop_operation_xyz
x,y,z
-x,y,-z
-x,-y,-z
x,-y,z
loop_
_atom_site_type_symbol
_atom_site_label
_atom_site_fract_x
_atom_site_fract_y
_atom_site_fract_z
Si Si1 0.388955 0.678218 0.336960
Si Si2 0.157068 0.323688 0.545711
Si Si3 0.400493 0.168626 0.871863
Si Si4 0.447462 0.323969 0.153133
Si Si5 0.200718 0.822305 0.102672
Si Si6 0.218864 0.677192 0.364779
Si Si7 0.986219 0.822802 0.323109
O O1 0.377105 0.500000 0.318642
O O2 0.329153 0.766780 0.238535
O O3 0.259438 0.715677 0.316397
O O4 0.592540 0.709602 0.483349
O O5 0.141796 0.500000 0.521799
O O6 0.357081 0.296682 0.694210
O O7 0.000000 0.289357 0.500000
O O8 0.123183 0.228808 0.461989
O O9 0.518946 0.261287 0.896411
O O10 0.204979 0.231366 0.768094
O O11 0.377937 0.000000 0.832052
O O12 0.500000 0.159603 0.000000
O O13 0.417511 0.500000 0.134136
O O14 0.286544 0.247737 0.092095
O O15 0.201642 0.000000 0.097448
O O16 0.000000 0.776106 0.000000
O O17 0.191854 0.500000 0.351445
O O18 0.057524 0.756683 0.300967
O O19 0.975132 0.000000 0.310639
#
# Coordination Sequence:
#
# PCOD9155514 Si02
#       7
#     4   4   4   4   4   4   4
#     4   9  19  38  61  86 114 150 194 239 289 344
#     4  10  20  36  58  85 119 152 185 234 294 346
#     4  10  23  42  59  79 116 159 193 233 286 343
#     4  11  23  40  64  90 115 150 195 244 291 341
#     4  11  25  42  60  84 118 158 195 239 294 345
#     4   9  19  36  59  85 118 152 184 235 298 347
#     4  11  22  34  55  87 117 151 195 236 281 345
#
# _framework density 19.753086
#
# number of rings (size 3 to 8) (size 9 to 14) (size 15 to 20)
#    0.000    1.857    1.429    3.000    0.000    9.143 
#    0.000    5.714    0.000    0.000    0.000    0.000 
#    0.000    0.000    0.000    0.000    0.000    0.000 
#
# Total GULP energy -156370.770372 kJ/mol
# GULP energy per Si atom -5584.670370 kJ/mol
# Density = 1.970813 g / cm^3
# Si number density = 19.753086 Si / 1000 Ang^3
#
#
#
# Elastic Constant Matrix: (Units=GPa)
#
#
# Indices 1 2 3 4 5 6 
#
# 1 162.1959 52.4850 25.6041 0.0000 21.2227 0.0000
# 2 52.4850 36.5823 18.3116 0.0000 6.9849 0.0000
# 3 25.6041 18.3116 27.3899 0.0000 3.5514 0.0000
# 4 0.0000 0.0000 0.0000 20.8445 0.0000 6.8237
# 5 21.2227 6.9849 3.5514 0.0000 29.1697 0.0000
# 6 0.0000 0.0000 0.0000 6.8237 0.0000 40.7976
#
#
#
# Elastic Compliance Matrix: (Units=1/GPa)
#
#
# Indices 1 2 3 4 5 6 
#
# 1 0.012142 -0.016717 0.000460 0.000000 -0.004887 0.000000
# 2 -0.016717 0.065389 -0.028080 0.000000 -0.000077 0.000000
# 3 0.000460 -0.028080 0.054891 0.000000 -0.000293 0.000000
# 4 0.000000 0.000000 0.000000 0.050753 0.000000 -0.008489
# 5 -0.004887 -0.000077 -0.000293 0.000000 0.037892 0.000000
# 6 0.000000 0.000000 0.000000 -0.008489 0.000000 0.025931
#
#
# Mechanical properties :
#
#
# Convention : Reuss Voigt Hill
#
# Bulk Modulus (GPa) = 22.85787 46.55218 34.70502
# Shear Modulus (GPa) = 14.27535 26.81350 20.54443
#
# Velocity S-wave (km/s) = 2.69121 3.68833 3.22850
# Velocity P-wave (km/s) = 4.61017 6.46194 5.61295
#
# Compressibility (1/GPa) = 0.04374861
#
# Stress axis : x y z
#
# Youngs Moduli (GPa) = 82.36163 15.29301 18.21796
#
# Poissons Ratio (x) = 0.25565 -0.00837
# Poissons Ratio (y) = 1.37681 0.51155
# Poissons Ratio (z) = -0.03786 0.42942
#
# Static dielectric constant tensor:
#      x y z
#    x 1.700230 0.000000 -0.003210 
#    y 0.000000 1.673020 0.000000 
#    z -0.003210 0.000000 1.708430 
# 
# From -- ./inp_files/49359.got.cif
#   From: 2010.05.17/outbox.ucp.g08.bks.cvg/sg10_25_cif.got.tgz:49359.got - 2010.06.11 11:31:16.
