data_PCOD9155808
_publ_section_title
;
Structure prediction by ZEFSAII (Michael W. Deem and Ramdas Pophale) SiO2 
 PCOD9155808
Probable space group: P 21/M
;
_chemical_formula_sum "Si O2"
_cell_formula_units_Z 26
_cell_length_a 7.612759
_cell_length_b 22.511695
_cell_length_c 12.610399
_cell_angle_alpha 90.000000
_cell_angle_beta 28.651812
_cell_angle_gamma 90.000000
_cell_volume 1036.226481
_symmetry_space_group_name_H-M "P 21/M"
_symmetry_group_IT_number 11
_symmetry_cell_setting 'monoclinic'
loop_
_space_group_symop_operation_xyz
x,y,z
-x,1/2+y,-z
-x,-y,-z
x,1/2-y,z
loop_
_atom_site_type_symbol
_atom_site_label
_atom_site_fract_x
_atom_site_fract_y
_atom_site_fract_z
Si Si1 0.050787 0.250000 0.923195
Si Si2 0.409833 0.380648 0.432319
Si Si3 0.799937 0.750000 0.633740
Si Si4 0.251209 0.127851 0.914646
Si Si5 0.240410 0.050886 0.089969
Si Si6 0.721836 0.619933 0.736855
Si Si7 0.081641 0.437620 0.807137
Si Si8 0.859303 0.750000 0.374383
O O1 0.006055 0.250000 0.819196
O O2 0.624181 0.250000 0.184413
O O3 0.257171 0.192855 0.860993
O O4 0.840388 0.378705 0.179571
O O5 0.230284 0.393808 0.412635
O O6 0.324041 0.314754 0.521156
O O7 0.274265 0.424712 0.594111
O O8 0.823864 0.689627 0.687880
O O9 0.041997 0.750000 0.397339
O O10 0.454315 0.101549 0.909673
O O11 0.310572 0.083825 0.786081
O O12 0.074181 0.083285 0.280487
O O13 0.001837 0.007326 0.142755
O O14 0.500000 0.000000 0.000000
O O15 0.292451 0.602952 0.986568
#
# Coordination Sequence:
#
# PCOD9155808 Si02
#       8
#     2   4   2   4   4   4   4   2
#     4  12  18  33  63  91 109 138 182 247 294 328
#     4  10  18  33  60  86 111 142 194 238 284 332
#     4  10  16  33  58  83 114 141 186 236 293 347
#     4  11  21  36  59  91 112 146 192 240 287 330
#     4  10  23  40  55  79 121 161 192 229 277 341
#     4   9  19  35  56  84 113 153 188 231 287 341
#     4  10  19  36  59  82 113 153 193 237 276 328
#     4  10  16  30  55  88 113 133 174 243 295 337
#
# _framework density 25.09104
#
# number of rings (size 3 to 8) (size 9 to 14) (size 15 to 20)
#    0.000    1.846    6.154    0.462    0.000    1.846 
#    0.000    3.077    0.000    0.000    0.000    0.000 
#    0.000    0.000    0.000    0.000    0.000    0.000 
#
# Total GULP energy -145056.523083 kJ/mol
# GULP energy per Si atom -5579.097042 kJ/mol
# Density = 2.503393 g / cm^3
# Si number density = 25.091040 Si / 1000 Ang^3
#
#
#
# Elastic Constant Matrix: (Units=GPa)
#
#
# Indices 1 2 3 4 5 6 
#
# 1 65.0750 30.9489 40.7450 0.0000 31.5491 0.0000
# 2 30.9489 149.8110 33.5562 0.0000 34.9325 0.0000
# 3 40.7450 33.5562 145.4851 0.0000 33.0250 0.0000
# 4 0.0000 0.0000 0.0000 28.8227 0.0000 28.2396
# 5 31.5491 34.9325 33.0250 0.0000 46.2235 0.0000
# 6 0.0000 0.0000 0.0000 28.2396 0.0000 33.8325
#
#
#
# Elastic Compliance Matrix: (Units=1/GPa)
#
#
# Indices 1 2 3 4 5 6 
#
# 1 0.024663 -0.001169 -0.003601 0.000000 -0.013377 0.000000
# 2 -0.001169 0.008198 -0.000404 0.000000 -0.005109 0.000000
# 3 -0.003601 -0.000404 0.008770 0.000000 -0.003503 0.000000
# 4 0.000000 0.000000 0.000000 0.190423 0.000000 -0.158944
# 5 -0.013377 -0.005109 -0.003503 0.000000 0.037128 0.000000
# 6 0.000000 0.000000 0.000000 -0.158944 0.000000 0.162226
#
#
# Mechanical properties :
#
#
# Convention : Reuss Voigt Hill
#
# Bulk Modulus (GPa) = 31.96531 63.43015 47.69773
# Shear Modulus (GPa) = 11.05744 38.78379 24.92062
#
# Velocity S-wave (km/s) = 2.10155 3.93583 3.15494
# Velocity P-wave (km/s) = 4.31926 6.78154 5.68530
#
# Compressibility (1/GPa) = 0.03128391
#
# Stress axis : x y z
#
# Youngs Moduli (GPa) = 40.54681 121.97452 114.01986
#
# Poissons Ratio (x) = 0.14262 0.41058
# Poissons Ratio (y) = 0.04741 0.04603
# Poissons Ratio (z) = 0.14601 0.04924
#
# Static dielectric constant tensor:
#      x y z
#    x 2.250720 0.000000 -0.061500 
#    y 0.000000 3.071410 0.000000 
#    z -0.061500 0.000000 1.985360 
# 
# From -- ./inp_files/32957.got.cif
#   From: 2010.05.17/outbox.cif.g08.bks.cpg/sg11_17_cif.got.tgz:32957.got - 2010.06.03 12:22:45.
