data_PCOD9155174
_publ_section_title
;
Structure prediction by ZEFSAII (Michael W. Deem and Ramdas Pophale) SiO2 
 PCOD9155174
Probable space group: P 2/M
;
_chemical_formula_sum "Si O2"
_cell_formula_units_Z 32
_cell_length_a 30.000000
_cell_length_b 9.000000
_cell_length_c 12.000000
_cell_angle_alpha 90.000000
_cell_angle_beta 150.000000
_cell_angle_gamma 90.000000
_cell_volume 1620.000000
_symmetry_space_group_name_H-M "P 2/M"
_symmetry_group_IT_number 10
_symmetry_cell_setting 'monoclinic'
loop_
_space_group_symop_operation_xyz
x,y,z
-x,y,-z
-x,-y,-z
x,-y,z
loop_
_atom_site_type_symbol
_atom_site_label
_atom_site_fract_x
_atom_site_fract_y
_atom_site_fract_z
Si Si1 0.938811 0.837719 0.474813
Si Si2 0.678513 0.670621 0.043175
Si Si3 0.343616 0.327511 0.426616
Si Si4 0.981692 0.676815 0.150917
Si Si5 0.221491 0.663490 0.956889
Si Si6 0.783927 0.318411 0.668604
Si Si7 0.500878 0.176422 0.631707
Si Si8 0.164604 0.319951 0.460874
O O1 0.979068 0.716369 0.644192
O O2 0.844081 0.790422 0.222411
O O3 0.000000 0.844933 0.500000
O O4 0.936632 0.000000 0.525450
O O5 0.662422 0.500000 0.044580
O O6 0.696027 0.667965 0.949168
O O7 0.771377 0.722131 0.299014
O O8 0.594424 0.770692 0.885184
O O9 0.370838 0.500000 0.498297
O O10 0.302430 0.265956 0.451532
O O11 0.421660 0.242111 0.533945
O O12 0.258131 0.324662 0.159537
O O13 0.975303 0.500000 0.119799
O O14 0.062510 0.732874 0.247050
O O15 0.881152 0.733821 0.921982
O O16 0.178496 0.500000 0.849175
O O17 0.782225 0.500000 0.674179
O O18 0.785831 0.277159 0.543952
O O19 0.500000 0.227609 0.500000
O O20 0.493926 0.000000 0.615551
O O21 0.158570 0.500000 0.449606
#
# Coordination Sequence:
#
# PCOD9155174 Si02
#       8
#     4   4   4   4   4   4   4   4
#     4  11  23  34  46  72 112 152 184 219 267 321
#     4  10  19  34  57  83 109 137 173 223 272 318
#     4  10  20  35  56  82 111 142 176 223 274 323
#     4  10  18  33  57  82 108 142 185 229 266 311
#     4  10  19  33  54  80 107 137 177 220 270 323
#     4   9  18  32  55  85 112 140 180 226 271 316
#     4  11  23  37  56  82 109 142 180 221 271 328
#     4   9  17  32  55  85 113 140 179 224 270 315
#
# _framework density 19.753086
#
# number of rings (size 3 to 8) (size 9 to 14) (size 15 to 20)
#    0.000    2.000    2.500    1.875    0.000    5.000 
#    0.000    1.250    0.000    7.500    0.000    0.000 
#    0.000    0.000    0.000    0.000    0.000    0.000 
#
# Total GULP energy -178244.923280 kJ/mol
# GULP energy per Si atom -5570.153852 kJ/mol
# Density = 1.970813 g / cm^3
# Si number density = 19.753086 Si / 1000 Ang^3
#
#
#
# Elastic Constant Matrix: (Units=GPa)
#
#
# Indices 1 2 3 4 5 6 
#
# 1 112.1766 30.2931 11.5285 0.0000 23.9708 0.0000
# 2 30.2931 9.9657 19.0179 0.0000 16.6844 0.0000
# 3 11.5285 19.0179 32.7649 0.0000 17.9789 0.0000
# 4 0.0000 0.0000 0.0000 18.4329 0.0000 11.4618
# 5 23.9708 16.6844 17.9789 0.0000 21.2601 0.0000
# 6 0.0000 0.0000 0.0000 11.4618 0.0000 10.2715
#
#
#
# Elastic Compliance Matrix: (Units=1/GPa)
#
#
# Indices 1 2 3 4 5 6 
#
# 1 0.008072 0.024978 -0.002963 0.000000 -0.026197 0.000000
# 2 0.024978 -0.144931 0.052946 0.000000 0.040801 0.000000
# 3 -0.002963 0.052946 0.040671 0.000000 -0.072603 0.000000
# 4 0.000000 0.000000 0.000000 0.177214 0.000000 -0.197749
# 5 -0.026197 0.040801 -0.072603 0.000000 0.105953 0.000000
# 6 0.000000 0.000000 0.000000 -0.197749 0.000000 0.318021
#
#
# Mechanical properties :
#
#
# Convention : Reuss Voigt Hill
#
# Bulk Modulus (GPa) = 18.61033 30.73182 24.67108
# Shear Modulus (GPa) = 13.40524 16.26408 14.83466
#
# Velocity S-wave (km/s) = 2.60790 2.87255 2.74342
# Velocity P-wave (km/s) = 4.30234 5.15692 4.74889
#
# Compressibility (1/GPa) = 0.05373359
#
# Stress axis : x y z
#
# Youngs Moduli (GPa) = 123.88916 -6.89983 24.58770
#
# Poissons Ratio (x) = 0.17235 0.07286
# Poissons Ratio (y) = -3.09456 -1.30182
# Poissons Ratio (z) = 0.36712 0.36532
#
# Static dielectric constant tensor:
#      x y z
#    x 1.594050 0.000000 -0.003480 
#    y 0.000000 1.699580 0.000000 
#    z -0.003480 0.000000 1.691070 
# 
# From -- ./inp_files/58239.got.cif
#   From: 2010.05.17/outbox.ucp.g08.bks.cvg/sg10_30_cif.got.tgz:58239.got - 2010.06.11 11:31:16.
