data_PCOD9155028
_publ_section_title
;
Structure prediction by ZEFSAII (Michael W. Deem and Ramdas Pophale) SiO2 
 PCOD9155028
Probable space group: P 2/M
;
_chemical_formula_sum "Si O2"
_cell_formula_units_Z 32
_cell_length_a 20.026002
_cell_length_b 7.455896
_cell_length_c 36.131668
_cell_angle_alpha 90.000000
_cell_angle_beta 161.127762
_cell_angle_gamma 90.000000
_cell_volume 1745.023585
_symmetry_space_group_name_H-M "P 2/M"
_symmetry_group_IT_number 10
_symmetry_cell_setting 'monoclinic'
loop_
_space_group_symop_operation_xyz
x,y,z
-x,y,-z
-x,-y,-z
x,-y,z
loop_
_atom_site_type_symbol
_atom_site_label
_atom_site_fract_x
_atom_site_fract_y
_atom_site_fract_z
Si Si1 0.616137 0.718956 0.098610
Si Si2 0.506017 0.280661 0.415060
Si Si3 0.918357 0.280759 0.670307
Si Si4 0.766292 0.211292 0.878930
Si Si5 0.870293 0.718329 0.730033
Si Si6 0.801975 0.715087 0.978437
Si Si7 0.297620 0.280990 0.993258
Si Si8 0.725909 0.709855 0.778152
O O1 0.615952 0.500000 0.098517
O O2 0.483562 0.777724 0.064416
O O3 0.853494 0.776930 0.222111
O O4 0.500000 0.773345 0.000000
O O5 0.511661 0.500000 0.418136
O O6 0.731550 0.221538 0.546201
O O7 0.332234 0.226242 0.353724
O O8 0.426329 0.218969 0.333093
O O9 0.919652 0.500000 0.671117
O O10 0.876101 0.224795 0.690477
O O11 0.693505 0.244112 0.882487
O O12 0.654710 0.276145 0.783359
O O13 0.780734 0.000000 0.881754
O O14 0.000000 0.289773 0.000000
O O15 0.870069 0.500000 0.729913
O O16 0.079111 0.773247 0.860589
O O17 0.812275 0.500000 0.985877
O O18 0.698035 0.778104 0.961827
O O19 0.039771 0.784590 0.101656
O O20 0.299467 0.500000 0.993976
O O21 0.747965 0.500000 0.781201
#
# Coordination Sequence:
#
# PCOD9155028 Si02
#       8
#     4   4   4   4   4   4   4   4
#     4   9  14  20  29  43  69 106 138 160 191 233
#     4   9  15  21  30  48  73 102 135 164 190 226
#     4   9  15  20  28  44  71 106 136 163 195 227
#     4   9  17  27  39  57  81 104 126 156 197 244
#     4   9  13  19  29  44  69 102 135 162 188 223
#     4   9  15  24  38  56  78 104 133 161 193 234
#     4   9  14  20  32  49  71 102 135 161 187 227
#     4   9  15  24  38  55  78 106 132 158 193 237
#
# _framework density 18.337859999999999
#
# number of rings (size 3 to 8) (size 9 to 14) (size 15 to 20)
#    0.000    3.000    2.500    0.750    0.000    3.000 
#    0.000    0.000    0.000    0.000    0.000    0.875 
#    0.000   11.500    0.000    0.250    0.000    0.125 
#
# Total GULP energy -178385.004545 kJ/mol
# GULP energy per Si atom -5574.531392 kJ/mol
# Density = 1.829612 g / cm^3
# Si number density = 18.337860 Si / 1000 Ang^3
#
#
#
# Elastic Constant Matrix: (Units=GPa)
#
#
# Indices 1 2 3 4 5 6 
#
# 1 151.5088 -3.5644 93.0469 0.0000 -14.4203 0.0000
# 2 -3.5644 51.5547 -0.3150 0.0000 3.0927 0.0000
# 3 93.0469 -0.3150 126.0924 0.0000 3.9164 0.0000
# 4 0.0000 0.0000 0.0000 -19.0092 0.0000 19.8967
# 5 -14.4203 3.0927 3.9164 0.0000 21.8972 0.0000
# 6 0.0000 0.0000 0.0000 19.8967 0.0000 -38.0525
#
#
#
# Elastic Compliance Matrix: (Units=1/GPa)
#
#
# Indices 1 2 3 4 5 6 
#
# 1 0.014478 0.000245 -0.011039 0.000000 0.011474 0.000000
# 2 0.000245 0.019569 -0.000051 0.000000 -0.002593 0.000000
# 3 -0.011039 -0.000051 0.016393 0.000000 -0.010195 0.000000
# 4 0.000000 0.000000 0.000000 -0.116202 0.000000 -0.060759
# 5 0.011474 -0.002593 -0.010195 0.000000 0.055414 0.000000
# 6 0.000000 0.000000 0.000000 -0.060759 0.000000 -0.058049
#
#
# Mechanical properties :
#
#
# Convention : Reuss Voigt Hill
#
# Bulk Modulus (GPa) = 34.78381 56.38789 45.58585
# Shear Modulus (GPa) = -134.68844 8.96632 -62.86106
#
# Velocity S-wave (km/s) = -8.57950 2.21362 -5.86121
# Velocity P-wave (km/s) = 8.89574 6.11144 4.57080
#
# Compressibility (1/GPa) = 0.02874901
#
# Stress axis : x y z
#
# Youngs Moduli (GPa) = 69.07175 51.10105 61.00037
#
# Poissons Ratio (x) = -0.01253 0.67340
# Poissons Ratio (y) = -0.01694 0.00314
# Poissons Ratio (z) = 0.76250 0.00263
#
# Static dielectric constant tensor:
#      x y z
#    x 1.640320 0.000000 -0.026290 
#    y 0.000000 1.687480 0.000000 
#    z -0.026290 0.000000 1.611340 
# 
# From -- ./inp_files/52730.got.cif
#   From: 2010.05.17/outbox.cif.g08.bks.cpg/sg10_27_cif.got.tgz:52730.got - 2010.06.03 11:33:40.
