data_PCOD9155561
_publ_section_title
;
Structure prediction by ZEFSAII (Michael W. Deem and Ramdas Pophale) SiO2 
 PCOD9155561
Probable space group: P 2/M
;
_chemical_formula_sum "Si O2"
_cell_formula_units_Z 32
_cell_length_a 18.000000
_cell_length_b 15.000000
_cell_length_c 12.000000
_cell_angle_alpha 90.000000
_cell_angle_beta 30.000000
_cell_angle_gamma 90.000000
_cell_volume 1620.000000
_symmetry_space_group_name_H-M "P 2/M"
_symmetry_group_IT_number 10
_symmetry_cell_setting 'monoclinic'
loop_
_space_group_symop_operation_xyz
x,y,z
-x,y,-z
-x,-y,-z
x,-y,z
loop_
_atom_site_type_symbol
_atom_site_label
_atom_site_fract_x
_atom_site_fract_y
_atom_site_fract_z
Si Si1 0.325733 0.103676 0.955211
Si Si2 0.578514 0.597325 0.587802
Si Si3 0.124572 0.213524 0.644081
Si Si4 0.163333 0.229479 0.340607
Si Si5 0.622145 0.792971 0.502236
Si Si6 0.843856 0.102755 0.054849
Si Si7 0.374727 0.602078 0.069680
Si Si8 0.918471 0.403210 0.225099
O O1 0.477479 0.148963 0.715708
O O2 0.209665 0.105664 0.003735
O O3 0.349874 0.000000 0.954013
O O4 0.259487 0.162613 0.140367
O O5 0.557780 0.500000 0.558490
O O6 0.579027 0.691717 0.524323
O O7 0.742569 0.593267 0.429659
O O8 0.457601 0.604712 0.843042
O O9 0.152076 0.192398 0.480243
O O10 0.275049 0.212850 0.520520
O O11 0.055819 0.313710 0.739517
O O12 0.005392 0.146855 0.851947
O O13 0.246930 0.324554 0.238614
O O14 0.000000 0.238525 0.500000
O O15 0.725037 0.840246 0.277981
O O16 0.843747 0.000000 0.091977
O O17 0.323511 0.500000 0.156432
O O18 0.500000 0.622300 0.000000
O O19 0.963656 0.500000 0.214022
O O20 0.000000 0.393407 0.000000
#
# Coordination Sequence:
#
# PCOD9155561 Si02
#       8
#     4   4   4   4   4   4   4   4
#     4  11  25  45  66  89 120 169 217 262 324 392
#     4   9  17  31  55  88 125 161 196 242 306 371
#     4  11  23  38  63  96 129 163 207 264 323 375
#     4  12  25  43  64  90 131 176 215 259 317 390
#     4  11  21  39  68  97 125 155 213 275 315 374
#     4  11  24  43  65  90 125 168 210 260 332 394
#     4  10  20  37  65  96 127 168 214 259 310 368
#     4   9  17  32  56  91 131 166 203 250 307 372
#
# _framework density 19.753086
#
# number of rings (size 3 to 8) (size 9 to 14) (size 15 to 20)
#    0.000    1.500    2.500    4.125    0.000    5.000 
#    0.000    0.625    0.000    3.000    0.000    0.000 
#    0.000    0.000    0.000    0.000    0.000    0.000 
#
# Total GULP energy -178742.391325 kJ/mol
# GULP energy per Si atom -5585.699729 kJ/mol
# Density = 1.970813 g / cm^3
# Si number density = 19.753086 Si / 1000 Ang^3
#
#
#
# Elastic Constant Matrix: (Units=GPa)
#
#
# Indices 1 2 3 4 5 6 
#
# 1 52.1745 10.4682 2.1936 0.0000 1.4821 0.0000
# 2 10.4682 100.6860 3.8149 0.0000 -14.1212 0.0000
# 3 2.1936 3.8149 68.1532 0.0000 -7.6045 0.0000
# 4 0.0000 0.0000 0.0000 6.7534 0.0000 7.7859
# 5 1.4821 -14.1212 -7.6045 0.0000 26.6719 0.0000
# 6 0.0000 0.0000 0.0000 7.7859 0.0000 17.5148
#
#
#
# Elastic Compliance Matrix: (Units=1/GPa)
#
#
# Indices 1 2 3 4 5 6 
#
# 1 0.019752 -0.002386 -0.000791 0.000000 -0.002586 0.000000
# 2 -0.002386 0.011017 0.000130 0.000000 0.006002 0.000000
# 3 -0.000791 0.000130 0.015187 0.000000 0.004443 0.000000
# 4 0.000000 0.000000 0.000000 0.303736 0.000000 -0.135020
# 5 -0.002586 0.006002 0.004443 0.000000 0.042081 0.000000
# 6 0.000000 0.000000 0.000000 -0.135020 0.000000 0.117115
#
#
# Mechanical properties :
#
#
# Convention : Reuss Voigt Hill
#
# Bulk Modulus (GPa) = 25.08716 28.21859 26.65287
# Shear Modulus (GPa) = 9.46487 23.82380 16.64434
#
# Velocity S-wave (km/s) = 2.19135 3.47663 2.90594
# Velocity P-wave (km/s) = 4.37385 5.51658 4.97811
#
# Compressibility (1/GPa) = 0.03986103
#
# Stress axis : x y z
#
# Youngs Moduli (GPa) = 50.62788 90.76972 65.84702
#
# Poissons Ratio (x) = 0.21661 0.05207
# Poissons Ratio (y) = 0.12082 -0.00855
# Poissons Ratio (z) = 0.04003 -0.01179
#
# Static dielectric constant tensor:
#      x y z
#    x 1.686320 0.000000 0.013220 
#    y 0.000000 1.718420 0.000000 
#    z 0.013220 0.000000 1.675820 
# 
# From -- ./inp_files/54007.got.cif
#   From: 2010.05.17/outbox.ucp.g08.bks.cvg/sg10_28_cif.got.tgz:54007.got - 2010.06.11 11:31:16.
