data_PCOD9155324
_publ_section_title
;
Structure prediction by ZEFSAII (Michael W. Deem and Ramdas Pophale) SiO2 
 PCOD9155324
Probable space group: P 2/M
;
_chemical_formula_sum "Si O2"
_cell_formula_units_Z 28
_cell_length_a 30.000000
_cell_length_b 9.000000
_cell_length_c 30.000000
_cell_angle_alpha 90.000000
_cell_angle_beta 170.000000
_cell_angle_gamma 90.000000
_cell_volume 1406.550239
_symmetry_space_group_name_H-M "P 2/M"
_symmetry_group_IT_number 10
_symmetry_cell_setting 'monoclinic'
loop_
_space_group_symop_operation_xyz
x,y,z
-x,y,-z
-x,-y,-z
x,-y,z
loop_
_atom_site_type_symbol
_atom_site_label
_atom_site_fract_x
_atom_site_fract_y
_atom_site_fract_z
Si Si1 0.235248 0.500000 0.766038
Si Si2 0.303226 0.176780 0.543133
Si Si3 0.537567 0.179977 0.587250
Si Si4 0.172580 0.321433 0.974038
Si Si5 0.765785 0.000000 0.234727
Si Si6 0.988574 0.180059 0.884857
Si Si7 0.838763 0.747912 0.235067
Si Si8 0.369969 0.176742 0.714613
O O1 0.213812 0.624964 0.781131
O O2 0.000000 0.500000 0.500000
O O3 0.500000 0.500000 0.000000
O O4 0.345105 0.193456 0.637217
O O5 0.038644 0.254148 0.267918
O O6 0.292913 0.000000 0.522426
O O7 0.547374 0.252226 0.759814
O O8 0.500000 0.236118 0.500000
O O9 0.297164 0.222927 0.381312
O O10 0.529525 0.000000 0.577165
O O11 0.808449 0.217108 0.876280
O O12 0.180502 0.500000 0.979405
O O13 0.076826 0.264091 0.927707
O O14 0.791043 0.125392 0.223462
O O15 0.000000 0.000000 0.500000
O O16 0.500000 0.000000 0.000000
O O17 0.996067 0.000000 0.885042
O O18 0.123622 0.752218 0.495772
O O19 0.632659 0.757320 0.992504
O O20 0.367193 0.000000 0.721717
#
# Coordination Sequence:
#
# PCOD9155324 Si02
#       8
#     2   4   4   4   2   4   4   4
#     4  12  26  46  62  88 130 168 204 242 296 358
#     4  11  24  44  71  94 127 168 213 264 321 393
#     4   9  17  30  52  86 119 154 208 270 315 361
#     4  12  25  43  62  97 133 168 214 269 326 380
#     4  12  22  36  62  94 120 156 200 248 294 348
#     4  10  19  33  58  84 118 165 211 257 315 381
#     4  12  23  42  65  93 125 160 203 247 301 359
#     4  11  22  43  67  96 122 155 202 256 308 362
#
# _framework density 19.906860999999999
#
# number of rings (size 3 to 8) (size 9 to 14) (size 15 to 20)
#    0.000    1.000    1.429    6.429    0.000    5.143 
#    7.714    0.000    0.000    2.571    0.000    0.000 
#    0.000    0.000    0.000    0.000    0.000    0.000 
#
# Total GULP energy -156219.940870 kJ/mol
# GULP energy per Si atom -5579.283603 kJ/mol
# Density = 1.986155 g / cm^3
# Si number density = 19.906861 Si / 1000 Ang^3
#
#
#
# Elastic Constant Matrix: (Units=GPa)
#
#
# Indices 1 2 3 4 5 6 
#
# 1 47.5049 14.7439 -24.5831 0.0000 -2.0742 0.0000
# 2 14.7439 104.0449 -6.5065 0.0000 -2.0318 0.0000
# 3 -24.5831 -6.5065 62.5828 0.0000 -2.9030 0.0000
# 4 0.0000 0.0000 0.0000 12.8729 0.0000 -1.3598
# 5 -2.0742 -2.0318 -2.9030 0.0000 45.9864 0.0000
# 6 0.0000 0.0000 0.0000 -1.3598 0.0000 11.6335
#
#
#
# Elastic Compliance Matrix: (Units=1/GPa)
#
#
# Indices 1 2 3 4 5 6 
#
# 1 0.027607 -0.003215 0.010592 0.000000 0.001772 0.000000
# 2 -0.003215 0.010060 -0.000204 0.000000 0.000287 0.000000
# 3 0.010592 -0.000204 0.020199 0.000000 0.001744 0.000000
# 4 0.000000 0.000000 0.000000 0.078653 0.000000 0.009194
# 5 0.001772 0.000287 0.001744 0.000000 0.021948 0.000000
# 6 0.000000 0.000000 0.000000 0.009194 0.000000 0.087033
#
#
# Mechanical properties :
#
#
# Convention : Reuss Voigt Hill
#
# Bulk Modulus (GPa) = 13.84799 20.16012 17.00405
# Shear Modulus (GPa) = 19.59058 29.46381 24.52720
#
# Velocity S-wave (km/s) = 3.14046 3.85136 3.51393
# Velocity P-wave (km/s) = 4.48570 5.47051 5.00240
#
# Compressibility (1/GPa) = 0.07221266
#
# Stress axis : x y z
#
# Youngs Moduli (GPa) = 36.22270 99.40666 49.50675
#
# Poissons Ratio (x) = 0.31960 -0.52439
# Poissons Ratio (y) = 0.11646 0.01009
# Poissons Ratio (z) = -0.38368 0.02025
#
# Static dielectric constant tensor:
#      x y z
#    x 1.656150 0.000000 -0.019600 
#    y 0.000000 1.671680 0.000000 
#    z -0.019600 0.000000 1.677540 
# 
# From -- ./inp_files/95973.got.cif
#   From: 2010.05.17/outbox.ucp.g08.bks.cvg/sg10_48_cif.got.tgz:95973.got - 2010.06.11 11:31:16.
