data_PCOD9155946
_publ_section_title
;
Structure prediction by ZEFSAII (Michael W. Deem and Ramdas Pophale) SiO2 
 PCOD9155946
Probable space group: P 21/M
;
_chemical_formula_sum "Si O2"
_cell_formula_units_Z 32
_cell_length_a 13.722997
_cell_length_b 7.776940
_cell_length_c 24.859200
_cell_angle_alpha 90.000000
_cell_angle_beta 45.431082
_cell_angle_gamma 90.000000
_cell_volume 1890.048507
_symmetry_space_group_name_H-M "P 21/M"
_symmetry_group_IT_number 11
_symmetry_cell_setting 'monoclinic'
loop_
_space_group_symop_operation_xyz
x,y,z
-x,1/2+y,-z
-x,-y,-z
x,1/2-y,z
loop_
_atom_site_type_symbol
_atom_site_label
_atom_site_fract_x
_atom_site_fract_y
_atom_site_fract_z
Si Si1 0.670742 0.552787 0.690236
Si Si2 0.062947 0.547594 0.674134
Si Si3 0.729934 0.538837 0.553645
Si Si4 0.645722 0.545361 0.468005
Si Si5 0.613834 0.545237 0.000864
Si Si6 0.026465 0.948354 0.408763
Si Si7 0.593125 0.953432 0.834217
Si Si8 0.814123 0.960052 0.837314
O O1 0.622029 0.750000 0.705843
O O2 0.655369 0.477080 0.636468
O O3 0.834436 0.550060 0.636432
O O4 0.606597 0.472666 0.769010
O O5 0.037307 0.750000 0.675731
O O6 0.224729 0.521113 0.616129
O O7 0.014381 0.456480 0.638327
O O8 0.966099 0.490441 0.760584
O O9 0.730901 0.750000 0.553945
O O10 0.665482 0.482655 0.521981
O O11 0.889911 0.486459 0.491398
O O12 0.500000 0.500000 0.500000
O O13 0.658334 0.750000 0.464790
O O14 0.620381 0.750000 0.004086
O O15 0.552132 0.475172 0.080087
O O16 0.500000 0.500000 0.000000
O O17 0.753125 0.482377 0.918331
O O18 0.051180 0.750000 0.413851
O O19 0.620686 0.750000 0.818809
O O20 0.710308 0.019264 0.829942
O O21 0.807401 0.750000 0.841113
#
# Coordination Sequence:
#
# PCOD9155946 Si02
#       8
#     4   4   4   4   4   4   4   4
#     4  10  17  28  43  57  81 118 150 178 211 250
#     4  10  17  29  47  65  84 114 147 178 216 256
#     4   8  17  30  44  61  82 108 143 181 212 252
#     4  10  20  35  50  68  88 109 139 177 220 265
#     4   9  16  26  38  54  78 111 147 180 211 246
#     4  10  18  27  38  60  89 113 144 183 215 249
#     4   9  16  26  38  56  81 113 150 179 208 249
#     4   8  14  25  39  57  80 108 145 178 204 247
#
# _framework density 16.930782000000001
#
# number of rings (size 3 to 8) (size 9 to 14) (size 15 to 20)
#    0.000    2.750    1.250    3.375    0.000    0.500 
#    0.000    5.000    0.000    0.000    0.000    0.000 
#    0.000    1.000    0.000    2.000    0.000    2.750 
#
# Total GULP energy -178215.964921 kJ/mol
# GULP energy per Si atom -5569.248904 kJ/mol
# Density = 1.689225 g / cm^3
# Si number density = 16.930782 Si / 1000 Ang^3
#
#
#
# Elastic Constant Matrix: (Units=GPa)
#
#
# Indices 1 2 3 4 5 6 
#
# 1 47.8047 -1.7574 45.9277 0.0000 -1.4179 0.0000
# 2 -1.7574 31.3368 -0.2546 0.0000 2.2768 0.0000
# 3 45.9277 -0.2546 173.4271 0.0000 15.0893 0.0000
# 4 0.0000 0.0000 0.0000 15.8158 0.0000 -2.9364
# 5 -1.4179 2.2768 15.0893 0.0000 18.1747 0.0000
# 6 0.0000 0.0000 0.0000 -2.9364 0.0000 10.5975
#
#
#
# Elastic Compliance Matrix: (Units=1/GPa)
#
#
# Indices 1 2 3 4 5 6 
#
# 1 0.029521 0.000906 -0.008630 0.000000 0.009355 0.000000
# 2 0.000906 0.032262 0.000165 0.000000 -0.004108 0.000000
# 3 -0.008630 0.000165 0.008744 0.000000 -0.007953 0.000000
# 4 0.000000 0.000000 0.000000 0.066657 0.000000 0.018469
# 5 0.009355 -0.004108 -0.007953 0.000000 0.062869 0.000000
# 6 0.000000 0.000000 0.000000 0.018469 0.000000 0.099480
#
#
# Mechanical properties :
#
#
# Convention : Reuss Voigt Hill
#
# Bulk Modulus (GPa) = 18.04822 37.82223 27.93523
# Shear Modulus (GPa) = 15.00955 22.82779 18.91867
#
# Velocity S-wave (km/s) = 2.98069 3.67591 3.34640
# Velocity P-wave (km/s) = 4.74649 6.35643 5.60952
#
# Compressibility (1/GPa) = 0.05540712
#
# Stress axis : x y z
#
# Youngs Moduli (GPa) = 33.87437 30.99626 114.36522
#
# Poissons Ratio (x) = -0.02807 0.98702
# Poissons Ratio (y) = -0.03068 -0.01886
# Poissons Ratio (z) = 0.29235 -0.00511
#
# Static dielectric constant tensor:
#      x y z
#    x 1.546850 0.000000 0.024940 
#    y 0.000000 1.641160 0.000000 
#    z 0.024940 0.000000 1.645150 
# 
# From -- ./inp_files/59860.got.cif
#   From: 2010.05.17/outbox.cif.g08.bks.cpg/sg11_30_cif.got.tgz:59860.got - 2010.06.03 12:22:45.
