data_PCOD9155625
_publ_section_title
;
Structure prediction by ZEFSAII (Michael W. Deem and Ramdas Pophale) SiO2 
 PCOD9155625
Probable space group: P 2/M
;
_chemical_formula_sum "Si O2"
_cell_formula_units_Z 32
_cell_length_a 15.000000
_cell_length_b 9.000000
_cell_length_c 27.000000
_cell_angle_alpha 90.000000
_cell_angle_beta 150.000000
_cell_angle_gamma 90.000000
_cell_volume 1822.500000
_symmetry_space_group_name_H-M "P 2/M"
_symmetry_group_IT_number 10
_symmetry_cell_setting 'monoclinic'
loop_
_space_group_symop_operation_xyz
x,y,z
-x,y,-z
-x,-y,-z
x,-y,z
loop_
_atom_site_type_symbol
_atom_site_label
_atom_site_fract_x
_atom_site_fract_y
_atom_site_fract_z
Si Si1 0.544042 0.677573 0.142456
Si Si2 0.802236 0.171310 0.628890
Si Si3 0.194285 0.822444 0.929555
Si Si4 0.216213 0.171281 0.822032
Si Si5 0.175483 0.320696 0.531379
Si Si6 0.203716 0.180506 0.653641
Si Si7 0.811785 0.676774 0.737058
Si Si8 0.444298 0.823402 0.584909
O O1 0.534741 0.500000 0.145122
O O2 0.666768 0.718808 0.154116
O O3 0.643387 0.757056 0.236480
O O4 0.350177 0.746306 0.036481
O O5 0.789661 0.284077 0.668150
O O6 0.654659 0.193766 0.515924
O O7 0.006070 0.183214 0.707723
O O8 0.784134 0.000000 0.639132
O O9 0.233985 0.803496 0.889578
O O10 0.000922 0.747434 0.844330
O O11 0.186536 0.000000 0.934736
O O12 0.271934 0.000000 0.838527
O O13 0.158482 0.500000 0.526949
O O14 0.220764 0.247692 0.606480
O O15 0.327438 0.270162 0.566973
O O16 0.989320 0.246975 0.423707
O O17 0.200548 0.000000 0.651882
O O18 0.809517 0.500000 0.743898
O O19 0.643186 0.758964 0.680069
O O20 0.442462 0.000000 0.595245
#
# Coordination Sequence:
#
# PCOD9155625 Si02
#       8
#     4   4   4   4   4   4   4   4
#     4  12  23  34  53  82 111 140 179 227 273 315
#     4   9  19  34  52  75 107 146 185 222 262 317
#     4  10  21  38  56  74 103 145 187 225 268 322
#     4   9  18  33  52  76 108 145 183 221 265 321
#     4  11  22  38  59  86 115 139 172 223 274 314
#     4  11  22  39  60  82 111 147 180 211 261 328
#     4  11  22  35  52  77 109 143 182 230 275 312
#     4  11  21  35  56  80 108 146 186 219 263 326
#
# _framework density 17.558299000000002
#
# number of rings (size 3 to 8) (size 9 to 14) (size 15 to 20)
#    0.000    1.500    0.000    8.250    0.000    7.500 
#    0.000    0.000    0.000    0.750    0.000    5.250 
#    0.000    0.000    0.000    0.000    0.000    0.000 
#
# Total GULP energy -178808.541415 kJ/mol
# GULP energy per Si atom -5587.766919 kJ/mol
# Density = 1.751834 g / cm^3
# Si number density = 17.558299 Si / 1000 Ang^3
#
#
#
# Elastic Constant Matrix: (Units=GPa)
#
#
# Indices 1 2 3 4 5 6 
#
# 1 49.3579 36.2497 38.1625 0.0000 10.3896 0.0000
# 2 36.2497 165.3864 72.2323 0.0000 4.5525 0.0000
# 3 38.1625 72.2323 151.1759 0.0000 4.4015 0.0000
# 4 0.0000 0.0000 0.0000 32.6772 0.0000 1.0727
# 5 10.3896 4.5525 4.4015 0.0000 20.9907 0.0000
# 6 0.0000 0.0000 0.0000 1.0727 0.0000 29.4793
#
#
#
# Elastic Compliance Matrix: (Units=1/GPa)
#
#
# Indices 1 2 3 4 5 6 
#
# 1 0.029937 -0.003880 -0.005329 0.000000 -0.012859 0.000000
# 2 -0.003880 0.008161 -0.002942 0.000000 0.000768 0.000000
# 3 -0.005329 -0.002942 0.009327 0.000000 0.001320 0.000000
# 4 0.000000 0.000000 0.000000 0.030639 0.000000 -0.001115
# 5 -0.012859 0.000768 0.001320 0.000000 0.053561 0.000000
# 6 0.000000 0.000000 0.000000 -0.001115 0.000000 0.033963
#
#
# Mechanical properties :
#
#
# Convention : Reuss Voigt Hill
#
# Bulk Modulus (GPa) = 43.24784 73.24548 58.24666
# Shear Modulus (GPa) = 25.30396 31.24781 28.27589
#
# Velocity S-wave (km/s) = 3.80035 4.22318 4.01733
# Velocity P-wave (km/s) = 6.62883 8.09855 7.40027
#
# Compressibility (1/GPa) = 0.02312254
#
# Stress axis : x y z
#
# Youngs Moduli (GPa) = 33.40378 122.53781 107.21237
#
# Poissons Ratio (x) = 0.47549 0.57131
# Poissons Ratio (y) = 0.12962 0.31542
# Poissons Ratio (z) = 0.17800 0.36051
#
# Static dielectric constant tensor:
#      x y z
#    x 1.620300 0.000000 0.011170 
#    y 0.000000 1.583320 0.000000 
#    z 0.011170 0.000000 1.590080 
# 
# From -- ./inp_files/71546.got.cif
#   From: 2010.05.17/outbox.ucp.g08.bks.cvg/sg10_36_cif.got.tgz:71546.got - 2010.06.11 11:31:16.
