data_PCOD9155590
_publ_section_title
;
Structure prediction by ZEFSAII (Michael W. Deem and Ramdas Pophale) SiO2 
 PCOD9155590
Probable space group: P 2/M
;
_chemical_formula_sum "Si O2"
_cell_formula_units_Z 32
_cell_length_a 27.000000
_cell_length_b 9.000000
_cell_length_c 21.000000
_cell_angle_alpha 90.000000
_cell_angle_beta 20.000000
_cell_angle_gamma 90.000000
_cell_volume 1745.328791
_symmetry_space_group_name_H-M "P 2/M"
_symmetry_group_IT_number 10
_symmetry_cell_setting 'monoclinic'
loop_
_space_group_symop_operation_xyz
x,y,z
-x,y,-z
-x,-y,-z
x,-y,z
loop_
_atom_site_type_symbol
_atom_site_label
_atom_site_fract_x
_atom_site_fract_y
_atom_site_fract_z
Si Si1 0.076209 0.174885 0.194594
Si Si2 0.346998 0.324760 0.926534
Si Si3 0.259797 0.174263 0.842797
Si Si4 0.154119 0.820290 0.350595
Si Si5 0.786592 0.320407 0.582891
Si Si6 0.544389 0.322983 0.064342
Si Si7 0.526678 0.678192 0.583477
Si Si8 0.845628 0.679313 0.157160
O O1 0.921551 0.258746 0.377885
O O2 0.051432 0.000000 0.237429
O O3 0.193937 0.238510 0.103636
O O4 0.162520 0.190736 0.023844
O O5 0.310847 0.500000 0.965727
O O6 0.438137 0.303548 0.880861
O O7 0.453693 0.286290 0.739512
O O8 0.417499 0.244469 0.665911
O O9 0.179955 0.256204 0.881909
O O10 0.275421 0.000000 0.810150
O O11 0.165717 0.748535 0.406766
O O12 0.000000 0.780199 0.500000
O O13 0.156151 0.000000 0.350884
O O14 0.309444 0.762305 0.135105
O O15 0.790259 0.500000 0.580182
O O16 0.618332 0.280382 0.765357
O O17 0.560763 0.500000 0.029314
O O18 0.518956 0.500000 0.583268
O O19 0.695583 0.721463 0.374769
O O20 0.849391 0.500000 0.150366
O O21 0.000000 0.728751 0.000000
#
# Coordination Sequence:
#
# PCOD9155590 Si02
#       8
#     4   4   4   4   4   4   4   4
#     4  10  21  37  56  81 111 142 181 225 269 322
#     4   9  18  35  58  81 107 141 180 223 270 319
#     4  10  21  36  55  79 108 143 182 225 271 322
#     4  11  24  40  59  83 111 145 184 225 268 317
#     4  11  23  38  58  84 113 145 181 223 271 322
#     4  10  22  38  57  84 114 143 179 222 268 321
#     4   9  18  34  56  80 106 140 182 224 268 320
#     4  10  21  35  53  79 110 143 181 227 275 324
#
# _framework density 18.334654
#
# number of rings (size 3 to 8) (size 9 to 14) (size 15 to 20)
#    0.000    2.000    0.000    3.000    0.000   10.750 
#    0.000    2.500    0.000    3.000    0.000    0.000 
#    0.000    0.000    0.000    0.000    0.000    0.000 
#
# Total GULP energy -178359.956862 kJ/mol
# GULP energy per Si atom -5573.748652 kJ/mol
# Density = 1.829292 g / cm^3
# Si number density = 18.334654 Si / 1000 Ang^3
#
#
#
# Elastic Constant Matrix: (Units=GPa)
#
#
# Indices 1 2 3 4 5 6 
#
# 1 103.5253 38.1555 62.8125 0.0000 -29.7032 0.0000
# 2 38.1555 55.8150 54.0902 0.0000 -13.1105 0.0000
# 3 62.8125 54.0902 153.1386 0.0000 -39.1112 0.0000
# 4 0.0000 0.0000 0.0000 27.0836 0.0000 0.9304
# 5 -29.7032 -13.1105 -39.1112 0.0000 41.4381 0.0000
# 6 0.0000 0.0000 0.0000 0.9304 0.0000 22.2992
#
#
#
# Elastic Compliance Matrix: (Units=1/GPa)
#
#
# Indices 1 2 3 4 5 6 
#
# 1 0.015478 -0.006865 -0.002167 0.000000 0.006877 0.000000
# 2 -0.006865 0.030297 -0.008820 0.000000 -0.003660 0.000000
# 3 -0.002167 -0.008820 0.012418 0.000000 0.007377 0.000000
# 4 0.000000 0.000000 0.000000 0.036976 0.000000 -0.001543
# 5 0.006877 -0.003660 0.007377 0.000000 0.034866 0.000000
# 6 0.000000 0.000000 0.000000 -0.001543 0.000000 0.044909
#
#
# Mechanical properties :
#
#
# Convention : Reuss Voigt Hill
#
# Bulk Modulus (GPa) = 44.46778 69.17725 56.82252
# Shear Modulus (GPa) = 22.92040 28.65891 25.78965
#
# Velocity S-wave (km/s) = 3.53953 3.95790 3.75454
# Velocity P-wave (km/s) = 6.40394 7.66152 7.06078
#
# Compressibility (1/GPa) = 0.02248819
#
# Stress axis : x y z
#
# Youngs Moduli (GPa) = 64.60875 33.00617 80.52507
#
# Poissons Ratio (x) = 0.22659 0.17452
# Poissons Ratio (y) = 0.44354 0.71026
# Poissons Ratio (z) = 0.14003 0.29113
#
# Static dielectric constant tensor:
#      x y z
#    x 1.650260 0.000000 0.054080 
#    y 0.000000 1.622090 0.000000 
#    z 0.054080 0.000000 1.657880 
# 
# From -- ./inp_files/86773.got.cif
#   From: 2010.05.17/outbox.ucp.g08.bks.cvg/sg10_44_cif.got.tgz:86773.got - 2010.06.11 11:31:16.
