data_PCOD9155019
_publ_section_title
;
Structure prediction by ZEFSAII (Michael W. Deem and Ramdas Pophale) SiO2 
 PCOD9155019
Probable space group: P 2/M
;
_chemical_formula_sum "Si O2"
_cell_formula_units_Z 20
_cell_length_a 27.914773
_cell_length_b 7.409541
_cell_length_c 15.021764
_cell_angle_alpha 90.000000
_cell_angle_beta 15.398644
_cell_angle_gamma 90.000000
_cell_volume 825.021629
_symmetry_space_group_name_H-M "P 2/M"
_symmetry_group_IT_number 10
_symmetry_cell_setting 'monoclinic'
loop_
_space_group_symop_operation_xyz
x,y,z
-x,y,-z
-x,-y,-z
x,-y,z
loop_
_atom_site_type_symbol
_atom_site_label
_atom_site_fract_x
_atom_site_fract_y
_atom_site_fract_z
Si Si1 0.295094 0.500000 0.944638
Si Si2 0.829621 0.781153 0.192353
Si Si3 0.966648 0.500000 0.412976
Si Si4 0.529770 0.791329 0.609122
Si Si5 0.726628 0.209745 0.758458
Si Si6 0.748878 0.783390 0.529267
O O1 0.156347 0.500000 0.276742
O O2 0.170983 0.500000 0.080305
O O3 0.422192 0.671921 0.732142
O O4 0.723423 0.720512 0.295330
O O5 0.738374 0.713367 0.447576
O O6 0.812855 0.000000 0.221939
O O7 0.041184 0.745753 0.821265
O O8 0.895824 0.327750 0.485828
O O9 0.540170 0.000000 0.562611
O O10 0.415381 0.782070 0.906734
O O11 0.652295 0.270471 0.794572
O O12 0.778803 0.000000 0.655278
O O13 0.720291 0.000000 0.572240
#
# Coordination Sequence:
#
# PCOD9155019 Si02
#       6
#     2   4   2   4   4   4
#     4   9  18  32  48  67  92 118 147 189 234 271
#     4   8  14  26  45  68  94 124 153 180 217 266
#     4   9  18  32  48  67  92 118 147 189 234 271
#     4   9  17  29  47  70  92 117 151 187 223 264
#     4   9  17  29  47  70  92 117 151 187 223 264
#     4   8  14  26  45  68  94 124 153 180 217 266
#
# _framework density 24.241790000000002
#
# number of rings (size 3 to 8) (size 9 to 14) (size 15 to 20)
#    0.000    3.400    0.000    1.200    0.000    1.600 
#    0.000   10.000    0.000    8.400    0.000    5.600 
#    0.000    0.000    0.000    0.000    0.000    0.000 
#
# Total GULP energy -111685.093680 kJ/mol
# GULP energy per Si atom -5584.254684 kJ/mol
# Density = 2.418662 g / cm^3
# Si number density = 24.241790 Si / 1000 Ang^3
#
#
#
# Elastic Constant Matrix: (Units=GPa)
#
#
# Indices 1 2 3 4 5 6 
#
# 1 106.8991 27.8948 12.6308 0.0000 -7.9311 0.0000
# 2 27.8948 92.9292 17.4021 0.0000 -21.6657 0.0000
# 3 12.6308 17.4021 69.7966 0.0000 -13.7965 0.0000
# 4 0.0000 0.0000 0.0000 9.3559 0.0000 -10.2266
# 5 -7.9311 -21.6657 -13.7965 0.0000 59.9157 0.0000
# 6 0.0000 0.0000 0.0000 -10.2266 0.0000 5.4621
#
#
#
# Elastic Compliance Matrix: (Units=1/GPa)
#
#
# Indices 1 2 3 4 5 6 
#
# 1 0.010236 -0.002846 -0.001130 0.000000 0.000066 0.000000
# 2 -0.002846 0.012871 -0.001937 0.000000 0.003832 0.000000
# 3 -0.001130 -0.001937 0.015555 0.000000 0.002732 0.000000
# 4 0.000000 0.000000 0.000000 -0.102130 0.000000 -0.191218
# 5 0.000066 0.003832 0.002732 0.000000 0.018713 0.000000
# 6 0.000000 0.000000 0.000000 -0.191218 0.000000 -0.174937
#
#
# Mechanical properties :
#
#
# Convention : Reuss Voigt Hill
#
# Bulk Modulus (GPa) = 37.26196 42.83115 40.04655
# Shear Modulus (GPa) = -25.13537 29.05988 1.96225
#
# Velocity S-wave (km/s) = -3.22353 3.46606 0.90067
# Velocity P-wave (km/s) = 1.24479 5.80730 4.19966
#
# Compressibility (1/GPa) = 0.02683702
#
# Stress axis : x y z
#
# Youngs Moduli (GPa) = 97.69910 77.69400 64.28932
#
# Poissons Ratio (x) = 0.22108 0.07263
# Poissons Ratio (y) = 0.27800 0.12451
# Poissons Ratio (z) = 0.11038 0.15047
#
# Static dielectric constant tensor:
#      x y z
#    x 1.908700 0.000000 0.039490 
#    y 0.000000 1.911380 0.000000 
#    z 0.039490 0.000000 2.006600 
# 
# From -- ./inp_files/18607.got.cif
#   From: 2010.05.17/outbox.cif.g08.bks.cpg/sg10_10_cif.got.tgz:18607.got - 2010.06.03 11:33:40.
