data_PCOD9155584
_publ_section_title
;
Structure prediction by ZEFSAII (Michael W. Deem and Ramdas Pophale) SiO2 
 PCOD9155584
Probable space group: P 2/M
;
_chemical_formula_sum "Si O2"
_cell_formula_units_Z 32
_cell_length_a 12.000000
_cell_length_b 15.000000
_cell_length_c 18.000000
_cell_angle_alpha 90.000000
_cell_angle_beta 30.000000
_cell_angle_gamma 90.000000
_cell_volume 1620.000000
_symmetry_space_group_name_H-M "P 2/M"
_symmetry_group_IT_number 10
_symmetry_cell_setting 'monoclinic'
loop_
_space_group_symop_operation_xyz
x,y,z
-x,y,-z
-x,-y,-z
x,-y,z
loop_
_atom_site_type_symbol
_atom_site_label
_atom_site_fract_x
_atom_site_fract_y
_atom_site_fract_z
Si Si1 0.341574 0.793744 0.325652
Si Si2 0.994049 0.893298 0.779571
Si Si3 0.763132 0.709845 0.343099
Si Si4 0.799724 0.894221 0.058571
Si Si5 0.020768 0.396511 0.322232
Si Si6 0.824838 0.600027 0.167080
Si Si7 0.625482 0.595451 0.666108
Si Si8 0.096744 0.200874 0.319207
O O1 0.575706 0.840274 0.207094
O O2 0.378909 0.688432 0.289474
O O3 0.241715 0.830097 0.306004
O O4 0.157601 0.800629 0.498713
O O5 0.880620 0.861383 0.766927
O O6 0.179411 0.814053 0.677471
O O7 0.053324 0.000000 0.740567
O O8 0.863884 0.882667 0.933841
O O9 0.500000 0.697184 0.500000
O O10 0.879305 0.642417 0.334480
O O11 0.845109 0.676325 0.215879
O O12 0.759874 0.000000 0.092455
O O13 0.000000 0.869347 0.000000
O O14 0.104704 0.500000 0.260681
O O15 0.853769 0.405540 0.488275
O O16 0.155924 0.304521 0.263550
O O17 0.860514 0.500000 0.178543
O O18 0.579097 0.600314 0.273441
O O19 0.000000 0.611925 0.000000
O O20 0.606287 0.500000 0.718268
#
# Coordination Sequence:
#
# PCOD9155584 Si02
#       8
#     4   4   4   4   4   4   4   4
#     4  10  21  38  65  89 122 159 200 253 299 353
#     4  10  24  42  59  84 118 154 199 253 307 366
#     4  11  21  33  56  83 114 157 203 245 302 360
#     4  10  24  43  64  91 118 152 198 247 311 375
#     4   9  17  32  54  81 116 153 195 244 289 344
#     4  10  21  33  50  82 121 157 195 239 289 352
#     4   9  18  31  51  83 117 153 193 235 287 345
#     4   9  21  40  60  93 119 156 209 248 298 354
#
# _framework density 19.753086
#
# number of rings (size 3 to 8) (size 9 to 14) (size 15 to 20)
#    0.000    2.250    1.250    0.375    3.500    2.750 
#    0.000    6.250    0.000    0.000    0.000    2.625 
#    0.000    0.000    0.000    0.000    0.000    0.000 
#
# Total GULP energy -178281.178932 kJ/mol
# GULP energy per Si atom -5571.286842 kJ/mol
# Density = 1.970813 g / cm^3
# Si number density = 19.753086 Si / 1000 Ang^3
#
#
#
# Elastic Constant Matrix: (Units=GPa)
#
#
# Indices 1 2 3 4 5 6 
#
# 1 83.3036 38.9862 22.7083 0.0000 9.5664 0.0000
# 2 38.9862 118.5611 28.2516 0.0000 8.4982 0.0000
# 3 22.7083 28.2516 36.2993 0.0000 2.3616 0.0000
# 4 0.0000 0.0000 0.0000 25.5299 0.0000 13.2765
# 5 9.5664 8.4982 2.3616 0.0000 22.6602 0.0000
# 6 0.0000 0.0000 0.0000 13.2765 0.0000 27.0731
#
#
#
# Elastic Compliance Matrix: (Units=1/GPa)
#
#
# Indices 1 2 3 4 5 6 
#
# 1 0.016024 -0.003204 -0.007217 0.000000 -0.004811 0.000000
# 2 -0.003204 0.011211 -0.006580 0.000000 -0.002166 0.000000
# 3 -0.007217 -0.006580 0.037078 0.000000 0.001650 0.000000
# 4 0.000000 0.000000 0.000000 0.052579 0.000000 -0.025784
# 5 -0.004811 -0.002166 0.001650 0.000000 0.046801 0.000000
# 6 0.000000 0.000000 0.000000 -0.025784 0.000000 0.049582
#
#
# Mechanical properties :
#
#
# Convention : Reuss Voigt Hill
#
# Bulk Modulus (GPa) = 32.99341 46.45071 39.72206
# Shear Modulus (GPa) = 19.42641 24.93384 22.18013
#
# Velocity S-wave (km/s) = 3.13942 3.55671 3.35456
# Velocity P-wave (km/s) = 5.46630 6.35874 5.92934
#
# Compressibility (1/GPa) = 0.03030909
#
# Stress axis : x y z
#
# Youngs Moduli (GPa) = 62.40694 89.19470 26.97035
#
# Poissons Ratio (x) = 0.28582 0.19465
# Poissons Ratio (y) = 0.19998 0.17747
# Poissons Ratio (z) = 0.45041 0.58692
#
# Static dielectric constant tensor:
#      x y z
#    x 1.757900 0.000000 -0.020870 
#    y 0.000000 1.720600 0.000000 
#    z -0.020870 0.000000 1.681700 
# 
# From -- ./inp_files/76975.got.cif
#   From: 2010.05.17/outbox.ucp.g08.bks.cvg/sg10_39_cif.got.tgz:76975.got - 2010.06.11 11:31:16.
