data_PCOD9155362
_publ_section_title
;
Structure prediction by ZEFSAII (Michael W. Deem and Ramdas Pophale) SiO2 
 PCOD9155362
Probable space group: P 2/M
;
_chemical_formula_sum "Si O2"
_cell_formula_units_Z 28
_cell_length_a 12.000000
_cell_length_b 9.000000
_cell_length_c 27.000000
_cell_angle_alpha 90.000000
_cell_angle_beta 30.000000
_cell_angle_gamma 90.000000
_cell_volume 1458.000000
_symmetry_space_group_name_H-M "P 2/M"
_symmetry_group_IT_number 10
_symmetry_cell_setting 'monoclinic'
loop_
_space_group_symop_operation_xyz
x,y,z
-x,y,-z
-x,-y,-z
x,-y,z
loop_
_atom_site_type_symbol
_atom_site_label
_atom_site_fract_x
_atom_site_fract_y
_atom_site_fract_z
Si Si1 0.796755 0.320650 0.942447
Si Si2 0.430858 0.174112 0.231858
Si Si3 0.934599 0.321399 0.259883
Si Si4 0.466302 0.179292 0.453736
Si Si5 0.136654 0.322964 0.896427
Si Si6 0.344211 0.320679 0.161592
Si Si7 0.060836 0.824929 0.532767
O O1 0.787845 0.500000 0.951013
O O2 0.904545 0.290919 0.848310
O O3 0.971358 0.268415 0.916924
O O4 0.542964 0.270196 0.048358
O O5 0.626949 0.240374 0.190569
O O6 0.426974 0.265027 0.182521
O O7 0.179976 0.187360 0.348801
O O8 0.475933 0.000000 0.205958
O O9 0.895488 0.500000 0.278269
O O10 0.700617 0.240087 0.342702
O O11 0.092595 0.271374 0.244916
O O12 0.500000 0.224574 0.500000
O O13 0.258017 0.227724 0.496561
O O14 0.456386 0.000000 0.458079
O O15 0.177191 0.500000 0.874274
O O16 0.000000 0.303709 0.000000
O O17 0.335944 0.500000 0.163541
O O18 0.000000 0.764311 0.500000
O O19 0.115977 0.000000 0.503893
#
# Coordination Sequence:
#
# PCOD9155362 Si02
#       7
#     4   4   4   4   4   4   4
#     4   9  18  34  55  80 112 148 184 218 265 334
#     4  11  22  35  57  84 110 140 187 238 274 317
#     4  10  21  35  58  87 111 140 184 236 277 320
#     4  10  21  39  61  81 108 149 192 231 282 344
#     4  10  19  35  57  80 112 152 185 215 266 338
#     4  10  19  36  58  80 111 152 186 215 270 342
#     4   9  20  38  57  78 108 148 188 228 280 341
#
# _framework density 19.20439
#
# number of rings (size 3 to 8) (size 9 to 14) (size 15 to 20)
#    0.000    2.143    1.429    1.714    2.000    4.000 
#    0.000    2.143    0.000    3.857    0.000    0.000 
#    0.000    0.000    0.000    0.000    0.000    0.000 
#
# Total GULP energy -155884.556995 kJ/mol
# GULP energy per Si atom -5567.305607 kJ/mol
# Density = 1.916068 g / cm^3
# Si number density = 19.204390 Si / 1000 Ang^3
#
#
#
# Elastic Constant Matrix: (Units=GPa)
#
#
# Indices 1 2 3 4 5 6 
#
# 1 123.3738 7.6919 29.4324 0.0000 -30.9575 0.0000
# 2 7.6919 3.3860 1.8941 0.0000 -15.5292 0.0000
# 3 29.4324 1.8941 54.0332 0.0000 -33.4987 0.0000
# 4 0.0000 0.0000 0.0000 89.8617 0.0000 10.1445
# 5 -30.9575 -15.5292 -33.4987 0.0000 38.1089 0.0000
# 6 0.0000 0.0000 0.0000 10.1445 0.0000 25.1645
#
#
#
# Elastic Compliance Matrix: (Units=1/GPa)
#
#
# Indices 1 2 3 4 5 6 
#
# 1 0.010023 -0.004520 -0.003066 0.000000 0.003605 0.000000
# 2 -0.004520 -0.114735 -0.054454 0.000000 -0.098292 0.000000
# 3 -0.003066 -0.054454 0.014911 0.000000 -0.011573 0.000000
# 4 0.000000 0.000000 0.000000 0.011659 0.000000 -0.004700
# 5 0.003605 -0.098292 -0.011573 0.000000 -0.021057 0.000000
# 6 0.000000 0.000000 0.000000 -0.004700 0.000000 0.041633
#
#
# Mechanical properties :
#
#
# Convention : Reuss Voigt Hill
#
# Bulk Modulus (GPa) = -4.67552 28.75885 12.04166
# Shear Modulus (GPa) = -1046.27660 40.07865 -503.09897
#
# Velocity S-wave (km/s) = -23.36651 4.57327 -16.20307
# Velocity P-wave (km/s) = 27.02650 6.54936 18.54100
#
# Compressibility (1/GPa) = -0.21387997
#
# Stress axis : x y z
#
# Youngs Moduli (GPa) = 99.76660 -8.71576 67.06380
#
# Poissons Ratio (x) = -0.03940 0.20564
# Poissons Ratio (y) = 0.45094 3.65187
# Poissons Ratio (z) = 0.30591 -0.47461
#
# Static dielectric constant tensor:
#      x y z
#    x 1.716390 0.000000 0.029090 
#    y 0.000000 1.649720 0.000000 
#    z 0.029090 0.000000 1.692740 
# 
# From -- ./inp_files/92640.got.cif
#   From: 2010.05.17/outbox.ucp.g08.bks.cvg/sg10_47_cif.got.tgz:92640.got - 2010.06.11 11:31:16.
