data_PCOD9155215
_publ_section_title
;
Structure prediction by ZEFSAII (Michael W. Deem and Ramdas Pophale) SiO2 
 PCOD9155215
Probable space group: P 2/M
;
_chemical_formula_sum "Si O2"
_cell_formula_units_Z 32
_cell_length_a 21.000000
_cell_length_b 9.000000
_cell_length_c 12.000000
_cell_angle_alpha 90.000000
_cell_angle_beta 50.000000
_cell_angle_gamma 90.000000
_cell_volume 1737.388797
_symmetry_space_group_name_H-M "P 2/M"
_symmetry_group_IT_number 10
_symmetry_cell_setting 'monoclinic'
loop_
_space_group_symop_operation_xyz
x,y,z
-x,y,-z
-x,-y,-z
x,-y,z
loop_
_atom_site_type_symbol
_atom_site_label
_atom_site_fract_x
_atom_site_fract_y
_atom_site_fract_z
Si Si1 0.622114 0.830276 0.155172
Si Si2 0.905909 0.670145 0.565067
Si Si3 0.907719 0.168111 0.345786
Si Si4 0.145318 0.328873 0.807126
Si Si5 0.903596 0.830403 0.932934
Si Si6 0.220396 0.670264 0.088380
Si Si7 0.686692 0.168576 0.338146
Si Si8 0.533261 0.668295 0.590701
O O1 0.656404 0.828091 0.244154
O O2 0.540777 0.728556 0.249754
O O3 0.601879 0.000000 0.150528
O O4 0.696804 0.767020 0.997637
O O5 0.906019 0.500000 0.521274
O O6 0.882899 0.786334 0.496730
O O7 0.839942 0.678767 0.738090
O O8 0.000000 0.699128 0.500000
O O9 0.871556 0.284025 0.299714
O O10 0.007669 0.178454 0.225392
O O11 0.883852 0.000000 0.343367
O O12 0.128526 0.500000 0.847867
O O13 0.239128 0.283084 0.729593
O O14 0.089699 0.226372 0.949296
O O15 0.836569 0.729125 0.947686
O O16 0.874160 0.000000 0.963325
O O17 0.244222 0.500000 0.041134
O O18 0.610345 0.220193 0.500244
O O19 0.713108 0.000000 0.333689
O O20 0.500000 0.666020 0.500000
O O21 0.557423 0.500000 0.591814
#
# Coordination Sequence:
#
# PCOD9155215 Si02
#       8
#     4   4   4   4   4   4   4   4
#     4  10  19  31  49  74 107 141 175 217 262 312
#     4  10  21  38  57  78 104 136 177 225 271 316
#     4  11  24  39  56  76 103 139 181 225 269 317
#     4  12  24  36  54  77 106 142 181 220 264 317
#     4  11  22  36  53  76 106 139 177 220 266 318
#     4  11  21  33  54  79 106 140 178 220 266 315
#     4  10  19  32  50  74 107 141 175 213 260 314
#     4   9  17  29  47  72 104 139 176 212 254 313
#
# _framework density 18.418444999999998
#
# number of rings (size 3 to 8) (size 9 to 14) (size 15 to 20)
#    0.000    1.500    2.500    3.750    0.000    6.750 
#    0.000    0.000    0.000    0.000    0.000    0.875 
#    0.000    7.000    0.000    0.000    0.000    0.000 
#
# Total GULP energy -178592.823714 kJ/mol
# GULP energy per Si atom -5581.025741 kJ/mol
# Density = 1.837652 g / cm^3
# Si number density = 18.418445 Si / 1000 Ang^3
#
#
#
# Elastic Constant Matrix: (Units=GPa)
#
#
# Indices 1 2 3 4 5 6 
#
# 1 6.0275 0.4420 19.9284 0.0000 2.6210 0.0000
# 2 0.4420 51.0596 26.7410 0.0000 3.6305 0.0000
# 3 19.9284 26.7410 52.0558 0.0000 -10.5325 0.0000
# 4 0.0000 0.0000 0.0000 -59.7391 0.0000 156.9179
# 5 2.6210 3.6305 -10.5325 0.0000 13.6457 0.0000
# 6 0.0000 0.0000 0.0000 156.9179 0.0000 -279.9947
#
#
#
# Elastic Compliance Matrix: (Units=1/GPa)
#
#
# Indices 1 2 3 4 5 6 
#
# 1 -0.077464 -0.038494 0.064601 0.000000 0.074983 0.000000
# 2 -0.038494 0.013958 0.009849 0.000000 0.011283 0.000000
# 3 0.064601 0.009849 -0.016142 0.000000 -0.027488 0.000000
# 4 0.000000 0.000000 0.000000 0.035458 0.000000 0.019872
# 5 0.074983 0.011283 -0.027488 0.000000 0.034662 0.000000
# 6 0.000000 0.000000 0.000000 0.019872 0.000000 0.007565
#
#
# Mechanical properties :
#
#
# Convention : Reuss Voigt Hill
#
# Bulk Modulus (GPa) = -129.26666 22.59621 -53.33522
# Shear Modulus (GPa) = -65.39652 -61.08218 -63.23935
#
# Velocity S-wave (km/s) = -5.96516 -5.76503 -5.86595
# Velocity P-wave (km/s) = 10.85264 5.65855 8.65445
#
# Compressibility (1/GPa) = -0.00773595
#
# Stress axis : x y z
#
# Youngs Moduli (GPa) = -12.90914 71.64521 -61.94871
#
# Poissons Ratio (x) = 2.75792 4.00197
# Poissons Ratio (y) = -0.49693 0.61016
# Poissons Ratio (z) = 0.83395 -0.70566
#
# Static dielectric constant tensor:
#      x y z
#    x 1.624110 0.000000 -0.008800 
#    y 0.000000 1.644480 0.000000 
#    z -0.008800 0.000000 1.654740 
# 
# From -- ./inp_files/49789.got.cif
#   From: 2010.05.17/outbox.ucp.g08.bks.cvg/sg10_25_cif.got.tgz:49789.got - 2010.06.11 11:31:16.
