data_PCOD9155863
_publ_section_title
;
Structure prediction by ZEFSAII (Michael W. Deem and Ramdas Pophale) SiO2 
 PCOD9155863
Probable space group: P 21/M
;
_chemical_formula_sum "Si O2"
_cell_formula_units_Z 32
_cell_length_a 21.573593
_cell_length_b 7.434583
_cell_length_c 24.667528
_cell_angle_alpha 90.000000
_cell_angle_beta 156.802506
_cell_angle_gamma 90.000000
_cell_volume 1558.448981
_symmetry_space_group_name_H-M "P 21/M"
_symmetry_group_IT_number 11
_symmetry_cell_setting 'monoclinic'
loop_
_space_group_symop_operation_xyz
x,y,z
-x,1/2+y,-z
-x,-y,-z
x,1/2-y,z
loop_
_atom_site_type_symbol
_atom_site_label
_atom_site_fract_x
_atom_site_fract_y
_atom_site_fract_z
Si Si1 0.998416 0.037252 0.934223
Si Si2 0.134976 0.957045 0.742738
Si Si3 0.349631 0.541649 0.219041
Si Si4 0.323847 0.032925 0.792278
Si Si5 0.173322 0.469454 0.562400
Si Si6 0.346839 0.965871 0.340109
Si Si7 0.503539 0.969666 0.235708
Si Si8 0.353208 0.969730 0.006213
O O1 0.006003 0.250000 0.930657
O O2 0.825260 0.970607 0.776368
O O3 0.167677 0.962854 0.052682
O O4 0.000000 0.000000 0.000000
O O5 0.093574 0.750000 0.720974
O O6 0.201646 0.035260 0.851906
O O7 0.984388 0.038091 0.592137
O O8 0.273872 0.960039 0.809971
O O9 0.395197 0.750000 0.261231
O O10 0.363411 0.465217 0.291185
O O11 0.455932 0.463601 0.256605
O O12 0.322556 0.250000 0.794841
O O13 0.201446 0.974345 0.647024
O O14 0.492779 0.978031 0.904669
O O15 0.170344 0.250000 0.561772
O O16 0.325132 0.520621 0.648859
O O17 0.330830 0.750000 0.323600
O O18 0.500000 0.000000 0.500000
O O19 0.500971 0.750000 0.234966
O O20 0.381404 0.025544 0.090528
O O21 0.350993 0.750000 0.004063
#
# Coordination Sequence:
#
# PCOD9155863 Si02
#       8
#     4   4   4   4   4   4   4   4
#     4   9  17  30  48  71  97 122 151 184 218 258
#     4  10  17  25  40  63  84 103 138 184 221 255
#     4   9  17  30  50  72  91 118 157 191 221 264
#     4   9  16  27  41  57  80 111 140 167 215 273
#     4   8  15  26  41  60  83 111 140 174 215 257
#     4   9  18  30  45  70  99 122 145 178 220 262
#     4   8  14  28  46  62  84 114 145 177 214 258
#     4   8  15  26  41  61  83 107 138 177 218 259
#
# _framework density 20.533235000000001
#
# number of rings (size 3 to 8) (size 9 to 14) (size 15 to 20)
#    0.000    3.250    0.000    3.375    0.000    2.500 
#    0.000    1.250    0.000    9.000    0.000    0.000 
#    0.000    0.000    0.000    0.000    0.000    0.000 
#
# Total GULP energy -178292.884744 kJ/mol
# GULP energy per Si atom -5571.652648 kJ/mol
# Density = 2.048650 g / cm^3
# Si number density = 20.533235 Si / 1000 Ang^3
#
#
#
# Elastic Constant Matrix: (Units=GPa)
#
#
# Indices 1 2 3 4 5 6 
#
# 1 73.8152 -4.0348 16.9954 0.0000 -12.0625 0.0000
# 2 -4.0348 62.9623 -3.6094 0.0000 -4.7157 0.0000
# 3 16.9954 -3.6094 105.6229 0.0000 -31.1365 0.0000
# 4 0.0000 0.0000 0.0000 9.2029 0.0000 2.2665
# 5 -12.0625 -4.7157 -31.1365 0.0000 19.7325 0.0000
# 6 0.0000 0.0000 0.0000 2.2665 0.0000 7.0273
#
#
#
# Elastic Compliance Matrix: (Units=1/GPa)
#
#
# Indices 1 2 3 4 5 6 
#
# 1 0.015274 0.001873 0.000917 0.000000 0.011232 0.000000
# 2 0.001873 0.016987 0.003391 0.000000 0.010554 0.000000
# 3 0.000917 0.003391 0.018398 0.000000 0.030402 0.000000
# 4 0.000000 0.000000 0.000000 0.118037 0.000000 -0.038070
# 5 0.011232 0.010554 0.030402 0.000000 0.108038 0.000000
# 6 0.000000 0.000000 0.000000 -0.038070 0.000000 0.154580
#
#
# Mechanical properties :
#
#
# Convention : Reuss Voigt Hill
#
# Bulk Modulus (GPa) = 15.86784 29.01144 22.43964
# Shear Modulus (GPa) = 11.36464 22.72917 17.04691
#
# Velocity S-wave (km/s) = 2.35516 3.33069 2.88446
# Velocity P-wave (km/s) = 3.89106 5.38061 4.69528
#
# Compressibility (1/GPa) = 0.06302056
#
# Stress axis : x y z
#
# Youngs Moduli (GPa) = 65.47092 58.86722 54.35361
#
# Poissons Ratio (x) = -0.11024 -0.04987
# Poissons Ratio (y) = -0.12260 -0.18429
# Poissons Ratio (z) = -0.06007 -0.19959
#
# Static dielectric constant tensor:
#      x y z
#    x 1.716760 0.000000 0.002210 
#    y 0.000000 1.775740 0.000000 
#    z 0.002210 0.000000 1.772810 
# 
# From -- ./inp_files/72290.got.cif
#   From: 2010.05.17/outbox.cif.g08.bks.cpg/sg11_37_cif.got.tgz:72290.got - 2010.06.03 12:22:45.
