data_PCOD9155513
_publ_section_title
;
Structure prediction by ZEFSAII (Michael W. Deem and Ramdas Pophale) SiO2 
 PCOD9155513
Probable space group: P 2/M
;
_chemical_formula_sum "Si O2"
_cell_formula_units_Z 28
_cell_length_a 15.000000
_cell_length_b 9.000000
_cell_length_c 21.000000
_cell_angle_alpha 90.000000
_cell_angle_beta 30.000000
_cell_angle_gamma 90.000000
_cell_volume 1417.500000
_symmetry_space_group_name_H-M "P 2/M"
_symmetry_group_IT_number 10
_symmetry_cell_setting 'monoclinic'
loop_
_space_group_symop_operation_xyz
x,y,z
-x,y,-z
-x,-y,-z
x,-y,z
loop_
_atom_site_type_symbol
_atom_site_label
_atom_site_fract_x
_atom_site_fract_y
_atom_site_fract_z
Si Si1 0.367104 0.668200 0.888135
Si Si2 0.278313 0.823548 0.326339
Si Si3 0.000285 0.821830 0.075551
Si Si4 0.965398 0.672549 0.290643
Si Si5 0.977535 0.672112 0.597982
Si Si6 0.646002 0.329692 0.955622
Si Si7 0.700298 0.178355 0.360404
O O1 0.375014 0.500000 0.857466
O O2 0.530513 0.770826 0.765972
O O3 0.172766 0.737188 0.996578
O O4 0.406939 0.659335 0.938768
O O5 0.131598 0.752051 0.463172
O O6 0.206978 0.757701 0.302816
O O7 0.269605 0.000000 0.329778
O O8 0.816627 0.776540 0.225595
O O9 0.021947 0.000000 0.071587
O O10 0.000000 0.793873 0.000000
O O11 0.961421 0.500000 0.269682
O O12 0.951926 0.672606 0.374316
O O13 0.820327 0.766071 0.344155
O O14 0.160780 0.741931 0.160404
O O15 0.948803 0.500000 0.598319
O O16 0.676609 0.500000 0.911588
O O17 0.500000 0.260630 0.000000
O O18 0.500000 0.233437 0.500000
O O19 0.691041 0.000000 0.363552
#
# Coordination Sequence:
#
# PCOD9155513 Si02
#       7
#     4   4   4   4   4   4   4
#     4  11  21  36  60  86 117 153 197 248 300 359
#     4  11  22  36  55  82 121 162 202 243 294 357
#     4  10  22  41  62  85 118 159 204 257 315 375
#     4  10  20  36  59  87 116 150 193 245 301 356
#     4  10  20  36  58  84 118 157 202 247 295 356
#     4   9  17  31  54  84 117 151 186 229 290 354
#     4  10  22  40  61  85 117 158 204 253 311 375
#
# _framework density 19.753086
#
# number of rings (size 3 to 8) (size 9 to 14) (size 15 to 20)
#    0.000    1.857    1.429    3.857    0.000    5.143 
#    0.000    1.429    0.000    2.143    0.000    0.000 
#    0.000    0.000    0.000    0.000    0.000    0.000 
#
# Total GULP energy -155943.131971 kJ/mol
# GULP energy per Si atom -5569.397570 kJ/mol
# Density = 1.970813 g / cm^3
# Si number density = 19.753086 Si / 1000 Ang^3
#
#
#
# Elastic Constant Matrix: (Units=GPa)
#
#
# Indices 1 2 3 4 5 6 
#
# 1 32.5206 39.5740 27.7043 0.0000 -20.6776 0.0000
# 2 39.5740 72.7690 51.3137 0.0000 -4.8920 0.0000
# 3 27.7043 51.3137 117.3227 0.0000 -33.5301 0.0000
# 4 0.0000 0.0000 0.0000 -7.3358 0.0000 8.0955
# 5 -20.6776 -4.8920 -33.5301 0.0000 36.8595 0.0000
# 6 0.0000 0.0000 0.0000 8.0955 0.0000 13.6661
#
#
#
# Elastic Compliance Matrix: (Units=1/GPa)
#
#
# Indices 1 2 3 4 5 6 
#
# 1 -0.526697 0.360271 -0.140506 0.000000 -0.375467 0.000000
# 2 0.360271 -0.225076 0.084581 0.000000 0.249174 0.000000
# 3 -0.140506 0.084581 -0.019742 0.000000 -0.085554 0.000000
# 4 0.000000 0.000000 0.000000 -0.082431 0.000000 0.048830
# 5 -0.375467 0.249174 -0.085554 0.000000 -0.228256 0.000000
# 6 0.000000 0.000000 0.000000 0.048830 0.000000 0.044248
#
#
# Mechanical properties :
#
#
# Convention : Reuss Voigt Hill
#
# Bulk Modulus (GPa) = -6.14165 51.08846 22.47340
# Shear Modulus (GPa) = -2.93958 15.57267 6.31654
#
# Velocity S-wave (km/s) = -1.22123 2.81083 1.79017
# Velocity P-wave (km/s) = 2.25931 6.03772 3.95914
#
# Compressibility (1/GPa) = -0.16282259
#
# Stress axis : x y z
#
# Youngs Moduli (GPa) = -1.89862 -4.44295 -50.65303
#
# Poissons Ratio (x) = 1.60067 -7.11703
# Poissons Ratio (y) = 0.68402 4.28428
# Poissons Ratio (z) = -0.26677 0.37579
#
# Static dielectric constant tensor:
#      x y z
#    x 1.744080 0.000000 0.069520 
#    y 0.000000 1.682330 0.000000 
#    z 0.069520 0.000000 1.796810 
# 
# From -- ./inp_files/63630.got.cif
#   From: 2010.05.17/outbox.ucp.g08.bks.cvg/sg10_32_cif.got.tgz:63630.got - 2010.06.11 11:31:16.
