data_PCOD9155349
_publ_section_title
;
Structure prediction by ZEFSAII (Michael W. Deem and Ramdas Pophale) SiO2 
 PCOD9155349
Probable space group: P 2/M
;
_chemical_formula_sum "Si O2"
_cell_formula_units_Z 32
_cell_length_a 21.000000
_cell_length_b 9.000000
_cell_length_c 27.000000
_cell_angle_alpha 90.000000
_cell_angle_beta 160.000000
_cell_angle_gamma 90.000000
_cell_volume 1745.328791
_symmetry_space_group_name_H-M "P 2/M"
_symmetry_group_IT_number 10
_symmetry_cell_setting 'monoclinic'
loop_
_space_group_symop_operation_xyz
x,y,z
-x,y,-z
-x,-y,-z
x,-y,z
loop_
_atom_site_type_symbol
_atom_site_label
_atom_site_fract_x
_atom_site_fract_y
_atom_site_fract_z
Si Si1 0.281598 0.180199 0.346498
Si Si2 0.968852 0.321871 0.182082
Si Si3 0.338239 0.822534 0.767668
Si Si4 0.756252 0.822781 0.114281
Si Si5 0.686655 0.827429 0.898324
Si Si6 0.112973 0.322185 0.690785
Si Si7 0.689487 0.677455 0.360491
Si Si8 0.981106 0.826544 0.932918
O O1 0.500000 0.212910 0.500000
O O2 0.164328 0.255734 0.304951
O O3 0.171801 0.232419 0.216956
O O4 0.260747 0.000000 0.336056
O O5 0.972950 0.500000 0.185282
O O6 0.907657 0.256090 0.189944
O O7 0.805359 0.261803 0.026066
O O8 0.194587 0.749369 0.700715
O O9 0.313185 0.745802 0.696475
O O10 0.310015 0.000000 0.743627
O O11 0.548839 0.796646 0.941257
O O12 0.779748 0.753216 0.185464
O O13 0.785676 0.000000 0.136871
O O14 0.487610 0.754496 0.743452
O O15 0.665891 0.000000 0.899378
O O16 0.819918 0.824639 0.948278
O O17 0.140215 0.500000 0.710403
O O18 0.891263 0.292852 0.531605
O O19 0.663290 0.500000 0.339292
O O20 0.926984 0.000000 0.900402
O O21 0.000000 0.753641 0.000000
#
# Coordination Sequence:
#
# PCOD9155349 Si02
#       8
#     4   4   4   4   4   4   4   4
#     4   9  18  34  56  82 113 147 188 234 280 333
#     4  11  21  35  59  85 114 152 193 235 287 343
#     4  11  23  39  63  88 112 147 196 245 287 341
#     4  11  23  40  61  86 115 149 196 244 288 342
#     4  10  19  34  58  85 112 147 195 240 280 335
#     4  11  25  41  57  84 121 155 189 235 296 353
#     4  11  23  39  59  84 117 154 192 236 290 347
#     4   8  15  30  53  80 110 140 179 228 275 324
#
# _framework density 18.334654
#
# number of rings (size 3 to 8) (size 9 to 14) (size 15 to 20)
#    0.000    1.750    1.250    4.500    0.000    6.750 
#    2.250    0.000    0.000    9.375    0.000    0.000 
#    0.000    0.000    0.000    0.000    0.000    0.000 
#
# Total GULP energy -178646.120243 kJ/mol
# GULP energy per Si atom -5582.691258 kJ/mol
# Density = 1.829292 g / cm^3
# Si number density = 18.334654 Si / 1000 Ang^3
#
#
#
# Elastic Constant Matrix: (Units=GPa)
#
#
# Indices 1 2 3 4 5 6 
#
# 1 32.8150 7.0540 10.5426 0.0000 3.6641 0.0000
# 2 7.0540 82.8229 32.9294 0.0000 10.9209 0.0000
# 3 10.5426 32.9294 57.1631 0.0000 20.0692 0.0000
# 4 0.0000 0.0000 0.0000 36.0723 0.0000 -9.0421
# 5 3.6641 10.9209 20.0692 0.0000 29.4958 0.0000
# 6 0.0000 0.0000 0.0000 -9.0421 0.0000 56.3917
#
#
#
# Elastic Compliance Matrix: (Units=1/GPa)
#
#
# Indices 1 2 3 4 5 6 
#
# 1 0.032409 -0.000497 -0.005705 0.000000 0.000040 0.000000
# 2 -0.000497 0.015673 -0.009093 0.000000 0.000446 0.000000
# 3 -0.005705 -0.009093 0.029369 0.000000 -0.015908 0.000000
# 4 0.000000 0.000000 0.000000 0.028883 0.000000 0.004631
# 5 0.000040 0.000446 -0.015908 0.000000 0.044557 0.000000
# 6 0.000000 0.000000 0.000000 0.004631 0.000000 0.018476
#
#
# Mechanical properties :
#
#
# Convention : Reuss Voigt Hill
#
# Bulk Modulus (GPa) = 21.34002 30.42812 25.88407
# Shear Modulus (GPa) = 23.19351 32.54364 27.86857
#
# Velocity S-wave (km/s) = 3.56056 4.21762 3.90294
# Velocity P-wave (km/s) = 5.34489 6.35215 5.87016
#
# Compressibility (1/GPa) = 0.04686031
#
# Stress axis : x y z
#
# Youngs Moduli (GPa) = 30.85549 63.80429 34.04934
#
# Poissons Ratio (x) = 0.03174 0.19424
# Poissons Ratio (y) = 0.01535 0.30962
# Poissons Ratio (z) = 0.17602 0.58020
#
# Static dielectric constant tensor:
#      x y z
#    x 1.666780 0.000000 -0.009780 
#    y 0.000000 1.609300 0.000000 
#    z -0.009780 0.000000 1.618010 
# 
# From -- ./inp_files/93801.got.cif
#   From: 2010.05.17/outbox.ucp.g08.bks.cvg/sg10_47_cif.got.tgz:93801.got - 2010.06.11 11:31:16.
