data_PCOD9155861
_publ_section_title
;
Structure prediction by ZEFSAII (Michael W. Deem and Ramdas Pophale) SiO2 
 PCOD9155861
Probable space group: P 21/M
;
_chemical_formula_sum "Si O2"
_cell_formula_units_Z 28
_cell_length_a 7.929845
_cell_length_b 8.020434
_cell_length_c 18.604213
_cell_angle_alpha 90.000000
_cell_angle_beta 64.553381
_cell_angle_gamma 90.000000
_cell_volume 1068.451671
_symmetry_space_group_name_H-M "P 21/M"
_symmetry_group_IT_number 11
_symmetry_cell_setting 'monoclinic'
loop_
_space_group_symop_operation_xyz
x,y,z
-x,1/2+y,-z
-x,-y,-z
x,1/2-y,z
loop_
_atom_site_type_symbol
_atom_site_label
_atom_site_fract_x
_atom_site_fract_y
_atom_site_fract_z
Si Si1 0.254267 0.954150 0.403487
Si Si2 0.934420 0.448441 0.112344
Si Si3 0.696774 0.555322 0.017277
Si Si4 0.387756 0.058453 0.736893
Si Si5 0.963372 0.052986 0.699780
Si Si6 0.389082 0.439968 0.169145
Si Si7 0.712762 0.051026 0.447361
O O1 0.257949 0.750000 0.402604
O O2 0.465495 0.013911 0.346991
O O3 0.131525 0.006279 0.358236
O O4 0.197405 0.009987 0.493117
O O5 0.940728 0.250000 0.098116
O O6 0.817011 0.533100 0.069514
O O7 0.808289 0.477612 0.205539
O O8 0.147105 0.512155 0.066865
O O9 0.664259 0.750000 0.010426
O O10 0.498805 0.473861 0.074870
O O11 0.350314 0.250000 0.727036
O O12 0.514633 0.051400 0.786911
O O13 0.937793 0.250000 0.714185
O O14 0.832452 0.965570 0.782832
O O15 0.178959 0.020300 0.641210
O O16 0.432598 0.250000 0.180548
O O17 0.725819 0.250000 0.440718
O O18 0.500000 0.000000 0.500000
#
# Coordination Sequence:
#
# PCOD9155861 Si02
#       7
#     4   4   4   4   4   4   4
#     4   8  17  32  51  72  96 125 160 199 238 283
#     4   9  15  21  31  51  80 115 152 189 229 272
#     4   9  15  22  32  49  79 118 154 187 226 273
#     4   9  15  25  40  59  84 117 154 192 233 276
#     4  10  19  34  53  73  95 124 160 198 241 285
#     4  10  17  25  39  61  87 117 153 193 233 275
#     4  11  22  37  53  73  99 126 157 195 239 287
#
# _framework density 26.206143999999998
#
# number of rings (size 3 to 8) (size 9 to 14) (size 15 to 20)
#    0.000    2.571    0.000    6.429    0.000    1.714 
#    0.000    7.857    0.000    0.000    0.000    0.000 
#    0.000    1.143    0.000    3.429    0.000   13.571 
#
# Total GULP energy -156540.851885 kJ/mol
# GULP energy per Si atom -5590.744710 kJ/mol
# Density = 2.614650 g / cm^3
# Si number density = 26.206144 Si / 1000 Ang^3
#
#
#
# Elastic Constant Matrix: (Units=GPa)
#
#
# Indices 1 2 3 4 5 6 
#
# 1 78.7501 -12.9100 36.7646 0.0000 -16.8159 0.0000
# 2 -12.9100 72.8498 10.6441 0.0000 -1.8445 0.0000
# 3 36.7646 10.6441 249.9805 0.0000 -11.6686 0.0000
# 4 0.0000 0.0000 0.0000 39.4854 0.0000 -8.0514
# 5 -16.8159 -1.8445 -11.6686 0.0000 63.1374 0.0000
# 6 0.0000 0.0000 0.0000 -8.0514 0.0000 10.7722
#
#
#
# Elastic Compliance Matrix: (Units=1/GPa)
#
#
# Indices 1 2 3 4 5 6 
#
# 1 0.014998 0.003067 -0.002164 0.000000 0.003684 0.000000
# 2 0.003067 0.014446 -0.001017 0.000000 0.001051 0.000000
# 3 -0.002164 -0.001017 0.004371 0.000000 0.000202 0.000000
# 4 0.000000 0.000000 0.000000 0.029880 0.000000 0.022333
# 5 0.003684 0.001051 0.000202 0.000000 0.016888 0.000000
# 6 0.000000 0.000000 0.000000 0.022333 0.000000 0.109524
#
#
# Mechanical properties :
#
#
# Convention : Reuss Voigt Hill
#
# Bulk Modulus (GPa) = 29.77321 52.28641 41.02981
# Shear Modulus (GPa) = 24.81015 47.15113 35.98064
#
# Velocity S-wave (km/s) = 3.08024 4.24635 3.70940
# Velocity P-wave (km/s) = 4.90268 6.63605 5.83410
#
# Compressibility (1/GPa) = 0.03358725
#
# Stress axis : x y z
#
# Youngs Moduli (GPa) = 66.67349 69.22469 228.76159
#
# Poissons Ratio (x) = -0.21235 0.49515
# Poissons Ratio (y) = -0.20452 0.23269
# Poissons Ratio (z) = 0.14431 0.07041
#
# Static dielectric constant tensor:
#      x y z
#    x 2.219380 0.000000 -0.009740 
#    y 0.000000 1.796940 0.000000 
#    z -0.009740 0.000000 2.100610 
# 
# From -- ./inp_files/72717.got.cif
#   From: 2010.05.17/outbox.cif.g08.bks.cpg/sg11_37_cif.got.tgz:72717.got - 2010.06.03 12:22:45.
