data_PCOD9155920
_publ_section_title
;
Structure prediction by ZEFSAII (Michael W. Deem and Ramdas Pophale) SiO2 
 PCOD9155920
Probable space group: P 21/M
;
_chemical_formula_sum "Si O2"
_cell_formula_units_Z 32
_cell_length_a 20.953486
_cell_length_b 8.717679
_cell_length_c 16.638809
_cell_angle_alpha 90.000000
_cell_angle_beta 136.517652
_cell_angle_gamma 90.000000
_cell_volume 2091.464805
_symmetry_space_group_name_H-M "P 21/M"
_symmetry_group_IT_number 11
_symmetry_cell_setting 'monoclinic'
loop_
_space_group_symop_operation_xyz
x,y,z
-x,1/2+y,-z
-x,-y,-z
x,1/2-y,z
loop_
_atom_site_type_symbol
_atom_site_label
_atom_site_fract_x
_atom_site_fract_y
_atom_site_fract_z
Si Si1 0.945482 0.433526 0.372416
Si Si2 0.263265 0.935053 0.456022
Si Si3 0.440446 0.430713 0.710547
Si Si4 0.425296 0.567106 0.870356
Si Si5 0.645723 0.427142 0.617747
Si Si6 0.889341 0.433660 0.559223
Si Si7 0.220390 0.433791 0.695162
Si Si8 0.542446 0.574759 0.662214
O O1 0.943554 0.250000 0.373759
O O2 0.843287 0.502255 0.290495
O O3 0.000000 0.500000 0.500000
O O4 0.009468 0.491904 0.358098
O O5 0.278936 0.750000 0.473953
O O6 0.277248 0.981147 0.375843
O O7 0.165393 0.966639 0.408568
O O8 0.343931 0.014210 0.581883
O O9 0.436558 0.250000 0.722261
O O10 0.452150 0.520101 0.804236
O O11 0.519854 0.471173 0.718326
O O12 0.419275 0.750000 0.871669
O O13 0.324814 0.493150 0.795253
O O14 0.500000 0.500000 0.000000
O O15 0.662735 0.250000 0.654589
O O16 0.624383 0.520692 0.678451
O O17 0.550989 0.431535 0.477982
O O18 0.896184 0.250000 0.555153
O O19 0.825237 0.499740 0.428571
O O20 0.216384 0.250000 0.689190
O O21 0.554922 0.750000 0.699100
#
# Coordination Sequence:
#
# PCOD9155920 Si02
#       8
#     4   4   4   4   4   4   4   4
#     4  10  18  28  42  61  84 111 142 179 216 257
#     4   9  17  27  41  59  85 116 145 178 216 254
#     4  11  20  30  45  62  80 108 143 179 218 259
#     4  12  24  38  51  66  86 110 143 184 226 265
#     4   8  14  24  36  55  79 107 141 175 209 249
#     4  10  17  27  43  63  87 116 146 181 217 257
#     4  11  20  32  47  64  83 109 143 180 220 263
#     4   9  16  26  39  55  77 106 139 176 213 251
#
# _framework density 15.300281
#
# number of rings (size 3 to 8) (size 9 to 14) (size 15 to 20)
#    0.000    2.000    1.250    7.500    0.000    3.500 
#    0.000    0.000    0.000    0.000    0.000    0.000 
#    0.000    0.000    0.000    1.125    0.000   14.250 
#
# Total GULP energy -178368.539595 kJ/mol
# GULP energy per Si atom -5574.016862 kJ/mol
# Density = 1.526546 g / cm^3
# Si number density = 15.300281 Si / 1000 Ang^3
#
#
#
# Elastic Constant Matrix: (Units=GPa)
#
#
# Indices 1 2 3 4 5 6 
#
# 1 141.0500 43.0595 22.8081 0.0000 1.4670 0.0000
# 2 43.0595 99.1587 14.0244 0.0000 1.5543 0.0000
# 3 22.8081 14.0244 27.7431 0.0000 3.6963 0.0000
# 4 0.0000 0.0000 0.0000 14.5642 0.0000 -0.5153
# 5 1.4670 1.5543 3.6963 0.0000 9.4239 0.0000
# 6 0.0000 0.0000 0.0000 -0.5153 0.0000 27.9666
#
#
#
# Elastic Compliance Matrix: (Units=1/GPa)
#
#
# Indices 1 2 3 4 5 6 
#
# 1 0.008988 -0.003073 -0.006032 0.000000 0.001474 0.000000
# 2 -0.003073 0.011913 -0.003480 0.000000 -0.000122 0.000000
# 3 -0.006032 -0.003480 0.044908 0.000000 -0.016101 0.000000
# 4 0.000000 0.000000 0.000000 0.068706 0.000000 0.001266
# 5 0.001474 -0.000122 -0.016101 0.000000 0.112220 0.000000
# 6 0.000000 0.000000 0.000000 0.001266 0.000000 0.035780
#
#
# Mechanical properties :
#
#
# Convention : Reuss Voigt Hill
#
# Bulk Modulus (GPa) = 24.60630 47.52619 36.06625
# Shear Modulus (GPa) = 15.56509 22.92825 19.24667
#
# Velocity S-wave (km/s) = 3.19299 3.87531 3.55058
# Velocity P-wave (km/s) = 5.45075 7.15219 6.35864
#
# Compressibility (1/GPa) = 0.04064000
#
# Stress axis : x y z
#
# Youngs Moduli (GPa) = 111.26136 83.93960 22.26763
#
# Poissons Ratio (x) = 0.25794 0.13432
# Poissons Ratio (y) = 0.34190 0.07749
# Poissons Ratio (z) = 0.67113 0.29209
#
# Static dielectric constant tensor:
#      x y z
#    x 1.573400 0.000000 0.000350 
#    y 0.000000 1.516360 0.000000 
#    z 0.000350 0.000000 1.465080 
# 
# From -- ./inp_files/54326.got.cif
#   From: 2010.05.17/outbox.cif.g08.bks.cpg/sg11_28_cif.got.tgz:54326.got - 2010.06.03 12:22:45.
