data_PCOD9155522
_publ_section_title
;
Structure prediction by ZEFSAII (Michael W. Deem and Ramdas Pophale) SiO2 
 PCOD9155522
Probable space group: P 2/M
;
_chemical_formula_sum "Si O2"
_cell_formula_units_Z 28
_cell_length_a 12.000000
_cell_length_b 15.000000
_cell_length_c 9.000000
_cell_angle_alpha 90.000000
_cell_angle_beta 60.000000
_cell_angle_gamma 90.000000
_cell_volume 1402.961154
_symmetry_space_group_name_H-M "P 2/M"
_symmetry_group_IT_number 10
_symmetry_cell_setting 'monoclinic'
loop_
_space_group_symop_operation_xyz
x,y,z
-x,y,-z
-x,-y,-z
x,-y,z
loop_
_atom_site_type_symbol
_atom_site_label
_atom_site_fract_x
_atom_site_fract_y
_atom_site_fract_z
Si Si1 0.709547 0.901109 0.042166
Si Si2 0.116693 0.603428 0.713185
Si Si3 0.816836 0.396371 0.994581
Si Si4 0.349542 0.902987 0.578122
Si Si5 0.354939 0.263413 0.080476
Si Si6 0.202042 0.226187 0.488868
Si Si7 0.996600 0.893736 0.178945
O O1 0.623887 0.825723 0.029784
O O2 0.852808 0.889684 0.882222
O O3 0.661838 0.000000 0.040564
O O4 0.715537 0.894391 0.216967
O O5 0.141990 0.500000 0.657544
O O6 0.163786 0.674972 0.564159
O O7 0.963880 0.613146 0.840883
O O8 0.180707 0.622891 0.830773
O O9 0.781155 0.500000 0.999273
O O10 0.727119 0.331330 0.963796
O O11 0.500000 0.905760 0.500000
O O12 0.317055 0.819081 0.501826
O O13 0.312423 0.000000 0.536977
O O14 0.263785 0.236776 0.282602
O O15 0.500000 0.300576 0.000000
O O16 0.086252 0.162723 0.643037
O O17 0.962051 0.000000 0.201622
O O18 0.000000 0.863460 0.000000
#
# Coordination Sequence:
#
# PCOD9155522 Si02
#       7
#     4   4   4   4   4   4   4
#     4  10  21  38  59  83 119 162 203 253 306 353
#     4   9  20  39  68  99 119 147 199 265 316 362
#     4   9  20  42  68  92 122 157 198 251 314 368
#     4  10  20  36  59  85 115 162 221 262 291 343
#     4  12  27  42  56  85 130 173 208 240 295 373
#     4  12  23  35  61  90 123 164 200 251 312 373
#     4  10  20  36  61  93 121 149 195 259 318 359
#
# _framework density 19.957787
#
# number of rings (size 3 to 8) (size 9 to 14) (size 15 to 20)
#    0.000    1.714    1.429    3.857    2.000    4.571 
#    0.000    2.857    0.000    2.143    0.000    0.000 
#    0.000    0.000    0.000    0.000    0.000    0.000 
#
# Total GULP energy -156014.982758 kJ/mol
# GULP energy per Si atom -5571.963670 kJ/mol
# Density = 1.991236 g / cm^3
# Si number density = 19.957787 Si / 1000 Ang^3
#
#
#
# Elastic Constant Matrix: (Units=GPa)
#
#
# Indices 1 2 3 4 5 6 
#
# 1 69.8911 42.4729 13.0542 0.0000 -6.3857 0.0000
# 2 42.4729 87.7176 38.5798 0.0000 14.4574 0.0000
# 3 13.0542 38.5798 75.0865 0.0000 -0.5156 0.0000
# 4 0.0000 0.0000 0.0000 17.3015 0.0000 -7.5508
# 5 -6.3857 14.4574 -0.5156 0.0000 18.4446 0.0000
# 6 0.0000 0.0000 0.0000 -7.5508 0.0000 66.2979
#
#
#
# Elastic Compliance Matrix: (Units=1/GPa)
#
#
# Indices 1 2 3 4 5 6 
#
# 1 0.027907 -0.020277 0.005743 0.000000 0.025716 0.000000
# 2 -0.020277 0.032546 -0.013423 0.000000 -0.032906 0.000000
# 3 0.005743 -0.013423 0.019306 0.000000 0.013049 0.000000
# 4 0.000000 0.000000 0.000000 0.060822 0.000000 0.006927
# 5 0.025716 -0.032906 0.013049 0.000000 0.089277 0.000000
# 6 0.000000 0.000000 0.000000 0.006927 0.000000 0.015872
#
#
# Mechanical properties :
#
#
# Convention : Reuss Voigt Hill
#
# Bulk Modulus (GPa) = 41.93706 46.76768 44.35237
# Shear Modulus (GPa) = 16.15032 29.64801 22.89917
#
# Velocity S-wave (km/s) = 2.84777 3.85845 3.39097
# Velocity P-wave (km/s) = 5.64549 6.58288 6.13212
#
# Compressibility (1/GPa) = 0.02384526
#
# Stress axis : x y z
#
# Youngs Moduli (GPa) = 35.83276 30.72619 51.79818
#
# Poissons Ratio (x) = 0.62305 -0.29749
# Poissons Ratio (y) = 0.72659 0.69527
# Poissons Ratio (z) = -0.20580 0.41243
#
# Static dielectric constant tensor:
#      x y z
#    x 1.764760 0.000000 -0.011090 
#    y 0.000000 1.700300 0.000000 
#    z -0.011090 0.000000 1.711530 
# 
# From -- ./inp_files/25199.got.cif
#   From: 2010.05.17/outbox.ucp.g08.bks.cvg/sg10_13_cif.got.tgz:25199.got - 2010.06.11 11:31:16.
