data_PCOD9155083
_publ_section_title
;
Structure prediction by ZEFSAII (Michael W. Deem and Ramdas Pophale) SiO2 
 PCOD9155083
Probable space group: P 2/M
;
_chemical_formula_sum "Si O2"
_cell_formula_units_Z 28
_cell_length_a 13.464402
_cell_length_b 10.625700
_cell_length_c 12.281881
_cell_angle_alpha 90.000000
_cell_angle_beta 131.241624
_cell_angle_gamma 90.000000
_cell_volume 1321.266706
_symmetry_space_group_name_H-M "P 2/M"
_symmetry_group_IT_number 10
_symmetry_cell_setting 'monoclinic'
loop_
_space_group_symop_operation_xyz
x,y,z
-x,y,-z
-x,-y,-z
x,-y,z
loop_
_atom_site_type_symbol
_atom_site_label
_atom_site_fract_x
_atom_site_fract_y
_atom_site_fract_z
Si Si1 0.961644 0.642957 0.098180
Si Si2 0.619032 0.635522 0.673651
Si Si3 0.000760 0.146840 0.700870
Si Si4 0.350448 0.641920 0.066403
Si Si5 0.655209 0.138040 0.584083
Si Si6 0.261724 0.849517 0.597825
Si Si7 0.309680 0.147946 0.866347
O O1 0.002567 0.500000 0.160294
O O2 0.802966 0.648001 0.004364
O O3 0.016111 0.754506 0.213584
O O4 0.000000 0.659620 0.000000
O O5 0.500000 0.629225 0.500000
O O6 0.687783 0.500000 0.719301
O O7 0.705517 0.752799 0.698658
O O8 0.572253 0.653990 0.763447
O O9 0.892351 0.181436 0.531459
O O10 0.151137 0.151926 0.769540
O O11 0.976716 0.000000 0.713632
O O12 0.372756 0.500000 0.038400
O O13 0.370174 0.755673 0.997035
O O14 0.500000 0.126600 0.500000
O O15 0.672906 0.175641 0.471566
O O16 0.714059 0.000000 0.644104
O O17 0.326540 0.802009 0.755269
O O18 0.268189 0.000000 0.617054
O O19 0.349370 0.000000 0.909164
#
# Coordination Sequence:
#
# PCOD9155083 Si02
#       7
#     4   4   4   4   4   4   4
#     4   9  18  30  43  64 100 139 166 194 239 294
#     4   9  18  33  53  74  96 125 162 205 253 298
#     4   9  17  29  46  70  98 131 169 206 240 282
#     4   9  18  32  49  70 100 133 163 202 248 292
#     4   9  18  32  50  73  99 124 156 204 254 295
#     4   9  17  30  50  74 100 131 167 208 249 288
#     4   9  17  31  50  72 100 134 169 201 241 295
#
# _framework density 21.191784999999999
#
# number of rings (size 3 to 8) (size 9 to 14) (size 15 to 20)
#    0.000    3.000    0.000    0.429    2.000    2.571 
#    0.000    1.429    0.000    6.857    0.000   22.000 
#    0.000    0.000    0.000    0.000    0.000    0.000 
#
# Total GULP energy -156044.928513 kJ/mol
# GULP energy per Si atom -5573.033161 kJ/mol
# Density = 2.114355 g / cm^3
# Si number density = 21.191785 Si / 1000 Ang^3
#
#
#
# Elastic Constant Matrix: (Units=GPa)
#
#
# Indices 1 2 3 4 5 6 
#
# 1 70.9639 10.6569 20.5705 0.0000 1.2248 0.0000
# 2 10.6569 161.7199 83.0008 0.0000 -25.2118 0.0000
# 3 20.5705 83.0008 133.2920 0.0000 -19.9486 0.0000
# 4 0.0000 0.0000 0.0000 32.4216 0.0000 -19.6217
# 5 1.2248 -25.2118 -19.9486 0.0000 34.2688 0.0000
# 6 0.0000 0.0000 0.0000 -19.6217 0.0000 35.3054
#
#
#
# Elastic Compliance Matrix: (Units=1/GPa)
#
#
# Indices 1 2 3 4 5 6 
#
# 1 0.014882 0.000056 -0.002634 0.000000 -0.002024 0.000000
# 2 0.000056 0.009542 -0.005367 0.000000 0.003893 0.000000
# 3 -0.002634 -0.005367 0.011693 0.000000 0.002952 0.000000
# 4 0.000000 0.000000 0.000000 0.046476 0.000000 0.025830
# 5 -0.002024 0.003893 0.002952 0.000000 0.033836 0.000000
# 6 0.000000 0.000000 0.000000 0.025830 0.000000 0.042680
#
#
# Mechanical properties :
#
#
# Convention : Reuss Voigt Hill
#
# Bulk Modulus (GPa) = 49.44537 66.04804 57.74671
# Shear Modulus (GPa) = 27.51152 37.18235 32.34694
#
# Velocity S-wave (km/s) = 3.60699 4.19330 3.91114
# Velocity P-wave (km/s) = 6.38201 7.39456 6.90686
#
# Compressibility (1/GPa) = 0.02022434
#
# Stress axis : x y z
#
# Youngs Moduli (GPa) = 67.19588 104.80408 85.52115
#
# Poissons Ratio (x) = -0.00585 0.22530
# Poissons Ratio (y) = -0.00375 0.45903
# Poissons Ratio (z) = 0.17702 0.56253
#
# Static dielectric constant tensor:
#      x y z
#    x 1.850880 0.000000 0.039450 
#    y 0.000000 1.832590 0.000000 
#    z 0.039450 0.000000 1.790270 
# 
# From -- ./inp_files/28674.got.cif
#   From: 2010.05.17/outbox.cif.g08.bks.cpg/sg10_15_cif.got.tgz:28674.got - 2010.06.03 11:33:40.
