data_PCOD9155482
_publ_section_title
;
Structure prediction by ZEFSAII (Michael W. Deem and Ramdas Pophale) SiO2 
 PCOD9155482
Probable space group: P 2/M
;
_chemical_formula_sum "Si O2"
_cell_formula_units_Z 32
_cell_length_a 24.000000
_cell_length_b 9.000000
_cell_length_c 24.000000
_cell_angle_alpha 90.000000
_cell_angle_beta 160.000000
_cell_angle_gamma 90.000000
_cell_volume 1773.032423
_symmetry_space_group_name_H-M "P 2/M"
_symmetry_group_IT_number 10
_symmetry_cell_setting 'monoclinic'
loop_
_space_group_symop_operation_xyz
x,y,z
-x,y,-z
-x,-y,-z
x,-y,z
loop_
_atom_site_type_symbol
_atom_site_label
_atom_site_fract_x
_atom_site_fract_y
_atom_site_fract_z
Si Si1 0.152387 0.819627 0.967964
Si Si2 0.187202 0.676148 0.196721
Si Si3 0.719652 0.179875 0.346114
Si Si4 0.354036 0.820714 0.044220
Si Si5 0.409481 0.679653 0.297717
Si Si6 0.689204 0.321729 0.195233
Si Si7 0.773144 0.821611 0.646271
Si Si8 0.897598 0.820183 0.291804
O O1 0.270515 0.745919 0.125598
O O2 0.157341 0.000000 0.977906
O O3 0.248733 0.778884 0.000738
O O4 0.955043 0.780806 0.789353
O O5 0.202034 0.500000 0.224487
O O6 0.325940 0.708131 0.280283
O O7 0.209531 0.772831 0.273052
O O8 0.000000 0.698904 0.000000
O O9 0.707989 0.247415 0.273341
O O10 0.910778 0.217765 0.542767
O O11 0.714195 0.000000 0.339851
O O12 0.547373 0.226480 0.216517
O O13 0.234738 0.779095 0.880550
O O14 0.362093 0.000000 0.052902
O O15 0.420667 0.500000 0.301919
O O16 0.593578 0.748567 0.461446
O O17 0.711506 0.500000 0.218959
O O18 0.821478 0.253796 0.276140
O O19 0.500000 0.293177 0.000000
O O20 0.757719 0.000000 0.625038
O O21 0.893734 0.000000 0.294578
#
# Coordination Sequence:
#
# PCOD9155482 Si02
#       8
#     4   4   4   4   4   4   4   4
#     4  10  22  40  61  86 115 151 193 240 291 338
#     4  10  20  37  60  85 116 155 194 234 285 347
#     4  10  20  35  59  86 109 142 185 229 274 330
#     4   9  19  37  59  82 110 144 185 234 279 323
#     4  11  23  39  61  86 116 155 195 236 285 345
#     4  11  22  35  54  81 114 150 181 220 278 336
#     4  11  23  37  59  90 122 152 188 239 293 346
#     4  10  20  35  58  85 109 140 184 227 275 332
#
# _framework density 18.048175000000001
#
# number of rings (size 3 to 8) (size 9 to 14) (size 15 to 20)
#    0.000    1.750    2.500    1.875    0.000    6.750 
#    0.000    5.000    0.000    1.500    0.000    0.000 
#    0.000    0.000    0.000    0.000    0.000    0.000 
#
# Total GULP energy -178174.220634 kJ/mol
# GULP energy per Si atom -5567.944395 kJ/mol
# Density = 1.800710 g / cm^3
# Si number density = 18.048175 Si / 1000 Ang^3
#
#
#
# Elastic Constant Matrix: (Units=GPa)
#
#
# Indices 1 2 3 4 5 6 
#
# 1 126.0730 20.3614 46.7198 0.0000 34.6942 0.0000
# 2 20.3614 41.2254 30.3092 0.0000 9.1114 0.0000
# 3 46.7198 30.3092 150.1289 0.0000 42.7749 0.0000
# 4 0.0000 0.0000 0.0000 33.7543 0.0000 8.1890
# 5 34.6942 9.1114 42.7749 0.0000 42.3935 0.0000
# 6 0.0000 0.0000 0.0000 8.1890 0.0000 16.2523
#
#
#
# Elastic Compliance Matrix: (Units=1/GPa)
#
#
# Indices 1 2 3 4 5 6 
#
# 1 0.010730 -0.003238 -0.000536 0.000000 -0.007544 0.000000
# 2 -0.003238 0.029468 -0.005462 0.000000 0.001828 0.000000
# 3 -0.000536 -0.005462 0.010485 0.000000 -0.008967 0.000000
# 4 0.000000 0.000000 0.000000 0.033752 0.000000 -0.017006
# 5 -0.007544 0.001828 -0.008967 0.000000 0.038418 0.000000
# 6 0.000000 0.000000 0.000000 -0.017006 0.000000 0.070099
#
#
# Mechanical properties :
#
#
# Convention : Reuss Voigt Hill
#
# Bulk Modulus (GPa) = 31.04562 56.91201 43.97881
# Shear Modulus (GPa) = 22.50621 33.14914 27.82768
#
# Velocity S-wave (km/s) = 3.53513 4.29033 3.93091
# Velocity P-wave (km/s) = 5.82252 7.49296 6.70992
#
# Compressibility (1/GPa) = 0.03221067
#
# Stress axis : x y z
#
# Youngs Moduli (GPa) = 93.20049 33.93493 95.37026
#
# Poissons Ratio (x) = 0.10988 0.05109
# Poissons Ratio (y) = 0.30179 0.52096
# Poissons Ratio (z) = 0.04993 0.18537
#
# Static dielectric constant tensor:
#      x y z
#    x 1.639070 0.000000 -0.000470 
#    y 0.000000 1.602740 0.000000 
#    z -0.000470 0.000000 1.660080 
# 
# From -- ./inp_files/90663.got.cif
#   From: 2010.05.17/outbox.ucp.g08.bks.cvg/sg10_46_cif.got.tgz:90663.got - 2010.06.11 11:31:16.
