data_PCOD9155643
_publ_section_title
;
Structure prediction by ZEFSAII (Michael W. Deem and Ramdas Pophale) SiO2 
 PCOD9155643
Probable space group: P 2/M
;
_chemical_formula_sum "Si O2"
_cell_formula_units_Z 32
_cell_length_a 15.000000
_cell_length_b 9.000000
_cell_length_c 24.000000
_cell_angle_alpha 90.000000
_cell_angle_beta 30.000000
_cell_angle_gamma 90.000000
_cell_volume 1620.000000
_symmetry_space_group_name_H-M "P 2/M"
_symmetry_group_IT_number 10
_symmetry_cell_setting 'monoclinic'
loop_
_space_group_symop_operation_xyz
x,y,z
-x,y,-z
-x,-y,-z
x,-y,z
loop_
_atom_site_type_symbol
_atom_site_label
_atom_site_fract_x
_atom_site_fract_y
_atom_site_fract_z
Si Si1 0.832823 0.821514 0.474550
Si Si2 0.534007 0.178538 0.546671
Si Si3 0.288016 0.670344 0.108095
Si Si4 0.145041 0.673056 0.065590
Si Si5 0.227015 0.326266 0.785662
Si Si6 0.237588 0.829792 0.898686
Si Si7 0.205865 0.324324 0.273994
Si Si8 0.657466 0.167731 0.688755
O O1 0.719744 0.790069 0.479143
O O2 0.738703 0.791585 0.584921
O O3 0.000128 0.714869 0.389408
O O4 0.873772 0.000000 0.451193
O O5 0.500000 0.226059 0.500000
O O6 0.390502 0.248639 0.666356
O O7 0.513519 0.000000 0.558090
O O8 0.215902 0.500000 0.147342
O O9 0.221895 0.731446 0.083491
O O10 0.242998 0.742859 0.192066
O O11 0.500000 0.662522 0.000000
O O12 0.201964 0.500000 0.031177
O O13 0.931937 0.680759 0.173910
O O14 0.196333 0.752124 0.980015
O O15 0.260851 0.500000 0.779096
O O16 0.184709 0.249265 0.868634
O O17 0.450427 0.832691 0.786236
O O18 0.173960 0.000000 0.933677
O O19 0.245635 0.500000 0.250522
O O20 0.300937 0.260544 0.277911
O O21 0.718995 0.000000 0.668623
#
# Coordination Sequence:
#
# PCOD9155643 Si02
#       8
#     4   4   4   4   4   4   4   4
#     4  10  21  40  60  83 118 159 193 238 300 351
#     4  10  22  41  64  88 119 161 204 243 291 353
#     4   9  19  38  60  82 115 156 191 233 290 348
#     4  10  22  39  59  86 120 156 196 241 300 358
#     4  11  23  38  60  89 122 158 195 244 300 355
#     4  11  22  39  62  88 118 155 201 248 293 349
#     4  11  23  36  59  91 117 149 199 248 290 350
#     4  10  21  39  60  82 116 157 194 238 298 354
#
# _framework density 19.753086
#
# number of rings (size 3 to 8) (size 9 to 14) (size 15 to 20)
#    0.000    1.750    1.250    2.625    1.750    7.250 
#    0.000    1.250    0.000    3.375    0.000    0.000 
#    0.000    0.000    0.000    0.000    0.000    0.000 
#
# Total GULP energy -178139.897105 kJ/mol
# GULP energy per Si atom -5566.871785 kJ/mol
# Density = 1.970813 g / cm^3
# Si number density = 19.753086 Si / 1000 Ang^3
#
#
#
# Elastic Constant Matrix: (Units=GPa)
#
#
# Indices 1 2 3 4 5 6 
#
# 1 197.1456 40.0948 20.1961 0.0000 23.8177 0.0000
# 2 40.0948 24.7113 10.4112 0.0000 5.1420 0.0000
# 3 20.1961 10.4112 44.1257 0.0000 7.4494 0.0000
# 4 0.0000 0.0000 0.0000 21.5424 0.0000 7.1709
# 5 23.8177 5.1420 7.4494 0.0000 30.3344 0.0000
# 6 0.0000 0.0000 0.0000 7.1709 0.0000 36.6684
#
#
#
# Elastic Compliance Matrix: (Units=1/GPa)
#
#
# Indices 1 2 3 4 5 6 
#
# 1 0.008071 -0.012167 -0.000106 0.000000 -0.004249 0.000000
# 2 -0.012167 0.064084 -0.009734 0.000000 0.001080 0.000000
# 3 -0.000106 -0.009734 0.025784 0.000000 -0.004599 0.000000
# 4 0.000000 0.000000 0.000000 0.049652 0.000000 -0.009710
# 5 -0.004249 0.001080 -0.004599 0.000000 0.037248 0.000000
# 6 0.000000 0.000000 0.000000 -0.009710 0.000000 0.029170
#
#
# Mechanical properties :
#
#
# Convention : Reuss Voigt Hill
#
# Bulk Modulus (GPa) = 18.54401 45.26519 31.90460
# Shear Modulus (GPa) = 18.11601 30.72775 24.42188
#
# Velocity S-wave (km/s) = 3.03169 3.94838 3.52000
# Velocity P-wave (km/s) = 4.65437 6.61449 5.71903
#
# Compressibility (1/GPa) = 0.05392577
#
# Stress axis : x y z
#
# Youngs Moduli (GPa) = 123.90093 15.60443 38.78350
#
# Poissons Ratio (x) = 0.18985 0.00412
# Poissons Ratio (y) = 1.50745 0.37752
# Poissons Ratio (z) = 0.01315 0.15190
#
# Static dielectric constant tensor:
#      x y z
#    x 1.677430 0.000000 -0.001140 
#    y 0.000000 1.705670 0.000000 
#    z -0.001140 0.000000 1.889080 
# 
# From -- ./inp_files/89546.got.cif
#   From: 2010.05.17/outbox.ucp.g08.bks.cvg/sg10_45_cif.got.tgz:89546.got - 2010.06.11 11:31:16.
