data_PCOD9155649
_publ_section_title
;
Structure prediction by ZEFSAII (Michael W. Deem and Ramdas Pophale) SiO2 
 PCOD9155649
Probable space group: P 2/M
;
_chemical_formula_sum "Si O2"
_cell_formula_units_Z 28
_cell_length_a 15.000000
_cell_length_b 21.000000
_cell_length_c 9.000000
_cell_angle_alpha 90.000000
_cell_angle_beta 150.000000
_cell_angle_gamma 90.000000
_cell_volume 1417.500000
_symmetry_space_group_name_H-M "P 2/M"
_symmetry_group_IT_number 10
_symmetry_cell_setting 'monoclinic'
loop_
_space_group_symop_operation_xyz
x,y,z
-x,y,-z
-x,-y,-z
x,-y,z
loop_
_atom_site_type_symbol
_atom_site_label
_atom_site_fract_x
_atom_site_fract_y
_atom_site_fract_z
Si Si1 0.325731 0.234337 0.325820
Si Si2 0.097272 0.075710 0.291573
Si Si3 0.848747 0.144290 0.172646
Si Si4 0.821796 0.362599 0.821528
Si Si5 0.524737 0.144021 0.201096
Si Si6 0.523918 0.427179 0.198131
Si Si7 0.150343 0.572824 0.824653
O O1 0.500000 0.265615 0.500000
O O2 0.193841 0.287053 0.194963
O O3 0.399549 0.191886 0.566486
O O4 0.231862 0.192255 0.064514
O O5 0.306188 0.096619 0.584387
O O6 0.972370 0.096792 0.250909
O O7 0.096285 0.000000 0.288870
O O8 0.000000 0.099530 0.000000
O O9 0.000000 0.172915 0.500000
O O10 0.670590 0.122095 0.011426
O O11 0.656954 0.388813 0.491606
O O12 0.822475 0.388330 0.988238
O O13 0.000000 0.384674 0.000000
O O14 0.500000 0.172597 0.000000
O O15 0.591346 0.500000 0.279604
O O16 0.500000 0.399408 0.000000
O O17 0.333453 0.429251 0.000316
O O18 0.097657 0.500000 0.787186
O O19 0.000000 0.600172 0.500000
#
# Coordination Sequence:
#
# PCOD9155649 Si02
#       7
#     4   4   4   4   4   4   4
#     4  10  24  43  63  87 122 162 211 260 306 364
#     4  11  24  42  68  97 131 169 207 262 309 370
#     4  11  23  42  67  93 127 170 209 258 316 376
#     4  12  25  37  60  91 121 161 205 258 301 368
#     4  11  23  42  67  93 127 170 209 258 316 376
#     4  10  21  39  62  87 122 161 200 253 312 369
#     4  10  21  39  62  87 122 161 200 253 312 369
#
# _framework density 19.753086
#
# number of rings (size 3 to 8) (size 9 to 14) (size 15 to 20)
#    0.000    1.286    2.857    2.571    2.000    5.714 
#    0.000    4.286    0.000    0.000    0.000    0.000 
#    0.000    0.000    0.000    0.000    0.000    0.000 
#
# Total GULP energy -156076.916275 kJ/mol
# GULP energy per Si atom -5574.175581 kJ/mol
# Density = 1.970813 g / cm^3
# Si number density = 19.753086 Si / 1000 Ang^3
#
#
#
# Elastic Constant Matrix: (Units=GPa)
#
#
# Indices 1 2 3 4 5 6 
#
# 1 130.8778 31.9888 69.8363 0.0000 -0.2412 0.0000
# 2 31.9888 39.6877 39.3098 0.0000 -6.4386 0.0000
# 3 69.8363 39.3098 150.2723 0.0000 -14.3551 0.0000
# 4 0.0000 0.0000 0.0000 -4.8396 0.0000 18.9491
# 5 -0.2412 -6.4386 -14.3551 0.0000 45.4513 0.0000
# 6 0.0000 0.0000 0.0000 18.9491 0.0000 13.8727
#
#
#
# Elastic Compliance Matrix: (Units=1/GPa)
#
#
# Indices 1 2 3 4 5 6 
#
# 1 0.011028 -0.005322 -0.003918 0.000000 -0.001933 0.000000
# 2 -0.005322 0.036767 -0.006856 0.000000 0.003015 0.000000
# 3 -0.003918 -0.006856 0.010491 0.000000 0.002321 0.000000
# 4 0.000000 0.000000 0.000000 -0.032549 0.000000 0.044460
# 5 -0.001933 0.003015 0.002321 0.000000 0.023152 0.000000
# 6 0.000000 0.000000 0.000000 0.044460 0.000000 0.011355
#
#
# Mechanical properties :
#
#
# Convention : Reuss Voigt Hill
#
# Bulk Modulus (GPa) = 38.32441 67.01198 52.66820
# Shear Modulus (GPa) = 49.43963 22.87706 36.15835
#
# Velocity S-wave (km/s) = 5.00831 3.40685 4.28309
# Velocity P-wave (km/s) = 7.27242 7.03378 7.15409
#
# Compressibility (1/GPa) = 0.02609303
#
# Stress axis : x y z
#
# Youngs Moduli (GPa) = 90.67435 27.19849 95.32378
#
# Poissons Ratio (x) = 0.14476 0.37345
# Poissons Ratio (y) = 0.48260 0.65358
# Poissons Ratio (z) = 0.35523 0.18648
#
# Static dielectric constant tensor:
#      x y z
#    x 1.713870 0.000000 0.010840 
#    y 0.000000 1.682210 0.000000 
#    z 0.010840 0.000000 1.700860 
# 
# From -- ./inp_files/20485.got.cif
#   From: 2010.05.17/outbox.ucp.g08.bks.cvg/sg10_11_cif.got.tgz:20485.got - 2010.06.11 11:31:16.
