data_PCOD9155147
_publ_section_title
;
Structure prediction by ZEFSAII (Michael W. Deem and Ramdas Pophale) SiO2 
 PCOD9155147
Probable space group: P 2/M
;
_chemical_formula_sum "Si O2"
_cell_formula_units_Z 32
_cell_length_a 12.000000
_cell_length_b 9.000000
_cell_length_c 21.000000
_cell_angle_alpha 90.000000
_cell_angle_beta 50.000000
_cell_angle_gamma 90.000000
_cell_volume 1737.388797
_symmetry_space_group_name_H-M "P 2/M"
_symmetry_group_IT_number 10
_symmetry_cell_setting 'monoclinic'
loop_
_space_group_symop_operation_xyz
x,y,z
-x,y,-z
-x,-y,-z
x,-y,z
loop_
_atom_site_type_symbol
_atom_site_label
_atom_site_fract_x
_atom_site_fract_y
_atom_site_fract_z
Si Si1 0.306931 0.176989 0.177083
Si Si2 0.294668 0.676594 0.541494
Si Si3 0.979944 0.175687 0.317901
Si Si4 0.396099 0.822873 0.884313
Si Si5 0.695908 0.667689 0.953286
Si Si6 0.743741 0.176378 0.195026
Si Si7 0.556799 0.823954 0.389632
Si Si8 0.038168 0.333695 0.804650
O O1 0.432355 0.208819 0.181114
O O2 0.352262 0.253628 0.094270
O O3 0.148285 0.222285 0.259460
O O4 0.299501 0.000000 0.167725
O O5 0.308023 0.500000 0.533771
O O6 0.129416 0.731555 0.598922
O O7 0.395535 0.757579 0.452875
O O8 0.357022 0.737166 0.586335
O O9 0.938574 0.216235 0.260355
O O10 0.964643 0.000000 0.334311
O O11 0.318009 0.773314 0.849450
O O12 0.379351 0.000000 0.894822
O O13 0.337329 0.754071 0.970476
O O14 0.641932 0.500000 0.978145
O O15 0.868940 0.661911 0.880988
O O16 0.629624 0.196862 0.294493
O O17 0.879728 0.274441 0.164483
O O18 0.778474 0.000000 0.179699
O O19 0.557983 0.000000 0.403785
O O20 0.086553 0.500000 0.767525
#
# Coordination Sequence:
#
# PCOD9155147 Si02
#       8
#     4   4   4   4   4   4   4   4
#     4   9  19  35  56  77 100 131 171 217 259 299
#     4  11  20  30  49  78 107 134 165 205 252 304
#     4  10  18  31  52  77 103 132 167 210 257 302
#     4  10  21  37  54  75 100 134 175 213 255 302
#     4  10  21  35  52  77 104 132 168 215 262 303
#     4  10  21  35  53  74 103 137 171 209 250 304
#     4  10  19  32  50  74 104 137 169 206 248 301
#     4  10  20  33  50  73 104 136 168 207 255 306
#
# _framework density 18.418444999999998
#
# number of rings (size 3 to 8) (size 9 to 14) (size 15 to 20)
#    0.000    2.000    1.250    3.750    0.000    5.500 
#    0.000    2.500    0.000    0.750    0.000    5.250 
#    0.000    0.000    0.000    0.000    0.000    0.000 
#
# Total GULP energy -178416.489323 kJ/mol
# GULP energy per Si atom -5575.515291 kJ/mol
# Density = 1.837652 g / cm^3
# Si number density = 18.418445 Si / 1000 Ang^3
#
#
#
# Elastic Constant Matrix: (Units=GPa)
#
#
# Indices 1 2 3 4 5 6 
#
# 1 46.1797 14.9721 6.0290 0.0000 0.4987 0.0000
# 2 14.9721 35.1737 3.6576 0.0000 -2.7530 0.0000
# 3 6.0290 3.6576 22.7260 0.0000 -6.4218 0.0000
# 4 0.0000 0.0000 0.0000 -14.8909 0.0000 -21.0860
# 5 0.4987 -2.7530 -6.4218 0.0000 9.2826 0.0000
# 6 0.0000 0.0000 0.0000 -21.0860 0.0000 0.4495
#
#
#
# Elastic Compliance Matrix: (Units=1/GPa)
#
#
# Indices 1 2 3 4 5 6 
#
# 1 0.026473 -0.011235 -0.008152 0.000000 -0.010394 0.000000
# 2 -0.011235 0.034017 0.000655 0.000000 0.011145 0.000000
# 3 -0.008152 0.000655 0.057474 0.000000 0.040393 0.000000
# 4 0.000000 0.000000 0.000000 -0.000996 0.000000 -0.046721
# 5 -0.010394 0.011145 0.040393 0.000000 0.139537 0.000000
# 6 0.000000 0.000000 0.000000 -0.046721 0.000000 0.032995
#
#
# Mechanical properties :
#
#
# Convention : Reuss Voigt Hill
#
# Bulk Modulus (GPa) = 12.42225 17.04407 14.73316
# Shear Modulus (GPa) = 14.13245 4.26296 9.19770
#
# Velocity S-wave (km/s) = 2.77302 1.52300 2.23709
# Velocity P-wave (km/s) = 4.12456 3.51662 3.83266
#
# Compressibility (1/GPa) = 0.08050074
#
# Stress axis : x y z
#
# Youngs Moduli (GPa) = 37.77366 29.39737 17.39926
#
# Poissons Ratio (x) = 0.33027 0.14184
# Poissons Ratio (y) = 0.42437 -0.01140
# Poissons Ratio (z) = 0.30793 -0.01926
#
# Static dielectric constant tensor:
#      x y z
#    x 1.672190 0.000000 -0.057950 
#    y 0.000000 1.628810 0.000000 
#    z -0.057950 0.000000 1.645150 
# 
# From -- ./inp_files/83565.got.cif
#   From: 2010.05.17/outbox.ucp.g08.bks.cvg/sg10_42_cif.got.tgz:83565.got - 2010.06.11 11:31:16.
