data_PCOD9155339
_publ_section_title
;
Structure prediction by ZEFSAII (Michael W. Deem and Ramdas Pophale) SiO2 
 PCOD9155339
Probable space group: P 2/M
;
_chemical_formula_sum "Si O2"
_cell_formula_units_Z 28
_cell_length_a 21.000000
_cell_length_b 15.000000
_cell_length_c 9.000000
_cell_angle_alpha 90.000000
_cell_angle_beta 150.000000
_cell_angle_gamma 90.000000
_cell_volume 1417.500000
_symmetry_space_group_name_H-M "P 2/M"
_symmetry_group_IT_number 10
_symmetry_cell_setting 'monoclinic'
loop_
_space_group_symop_operation_xyz
x,y,z
-x,y,-z
-x,-y,-z
x,-y,z
loop_
_atom_site_type_symbol
_atom_site_label
_atom_site_fract_x
_atom_site_fract_y
_atom_site_fract_z
Si Si1 0.743773 0.101092 0.918688
Si Si2 0.914283 0.100549 0.681807
Si Si3 0.392792 0.601821 0.659664
Si Si4 0.647508 0.098466 0.065913
Si Si5 0.957229 0.241086 0.259530
Si Si6 0.892688 0.397962 0.907404
Si Si7 0.462946 0.236711 0.596108
O O1 0.629895 0.152116 0.608225
O O2 0.763087 0.000000 0.907675
O O3 0.707455 0.097644 0.019732
O O4 0.860690 0.164378 0.118143
O O5 0.765015 0.102166 0.415966
O O6 0.942341 0.182772 0.630518
O O7 0.938891 0.000000 0.668433
O O8 0.000000 0.110340 0.000000
O O9 0.405918 0.500000 0.627700
O O10 0.251569 0.608278 0.443252
O O11 0.408347 0.676826 0.565663
O O12 0.500000 0.614768 0.000000
O O13 0.584066 0.000000 0.954564
O O14 0.572206 0.190601 0.915482
O O15 0.000000 0.283957 0.500000
O O16 0.905946 0.319675 0.053457
O O17 0.908158 0.500000 0.996790
O O18 0.000000 0.384986 0.000000
O O19 0.500000 0.258368 0.500000
#
# Coordination Sequence:
#
# PCOD9155339 Si02
#       7
#     4   4   4   4   4   4   4
#     4  10  19  34  56  86 119 157 197 243 295 355
#     4  10  21  35  52  81 120 162 204 247 295 356
#     4  10  22  42  65  91 121 157 202 251 309 371
#     4   9  18  34  56  83 119 158 198 242 291 355
#     4  12  22  35  60  89 118 155 201 250 307 364
#     4  10  23  45  67  89 121 161 205 255 312 371
#     4  10  20  36  61  90 118 154 199 247 302 357
#
# _framework density 19.753086
#
# number of rings (size 3 to 8) (size 9 to 14) (size 15 to 20)
#    0.000    1.857    2.857    1.286    0.000    5.143 
#    0.000    0.000    0.000    0.857    0.000    0.000 
#    0.000    0.000    0.000    0.000    0.000    0.000 
#
# Total GULP energy -155995.172787 kJ/mol
# GULP energy per Si atom -5571.256171 kJ/mol
# Density = 1.970813 g / cm^3
# Si number density = 19.753086 Si / 1000 Ang^3
#
#
#
# Elastic Constant Matrix: (Units=GPa)
#
#
# Indices 1 2 3 4 5 6 
#
# 1 32.0559 34.6353 22.5084 0.0000 9.1985 0.0000
# 2 34.6353 111.6367 46.3322 0.0000 0.2946 0.0000
# 3 22.5084 46.3322 97.3629 0.0000 -1.7461 0.0000
# 4 0.0000 0.0000 0.0000 28.4416 0.0000 11.6147
# 5 9.1985 0.2946 -1.7461 0.0000 19.2460 0.0000
# 6 0.0000 0.0000 0.0000 11.6147 0.0000 34.7131
#
#
#
# Elastic Compliance Matrix: (Units=1/GPa)
#
#
# Indices 1 2 3 4 5 6 
#
# 1 0.062667 -0.016353 -0.007250 0.000000 -0.030359 0.000000
# 2 -0.016353 0.015438 -0.003436 0.000000 0.007268 0.000000
# 3 -0.007250 -0.003436 0.013667 0.000000 0.004757 0.000000
# 4 0.000000 0.000000 0.000000 0.040724 0.000000 -0.013626
# 5 -0.030359 0.007268 0.004757 0.000000 0.066789 0.000000
# 6 0.000000 0.000000 0.000000 -0.013626 0.000000 0.033367
#
#
# Mechanical properties :
#
#
# Convention : Reuss Voigt Hill
#
# Bulk Modulus (GPa) = 26.52910 49.77859 38.15384
# Shear Modulus (GPa) = 16.70601 25.65212 21.17906
#
# Velocity S-wave (km/s) = 2.91132 3.60757 3.27798
# Velocity P-wave (km/s) = 4.97600 6.52747 5.80381
#
# Compressibility (1/GPa) = 0.03769446
#
# Stress axis : x y z
#
# Youngs Moduli (GPa) = 15.95743 64.77554 73.16882
#
# Poissons Ratio (x) = 1.05930 0.53045
# Poissons Ratio (y) = 0.26096 0.25137
# Poissons Ratio (z) = 0.11569 0.22254
#
# Static dielectric constant tensor:
#      x y z
#    x 1.819830 0.000000 0.118530 
#    y 0.000000 1.687870 0.000000 
#    z 0.118530 0.000000 1.843160 
# 
# From -- ./inp_files/29417.got.cif
#   From: 2010.05.17/outbox.ucp.g08.bks.cvg/sg10_15_cif.got.tgz:29417.got - 2010.06.11 11:31:16.
