data_PCOD9155429
_publ_section_title
;
Structure prediction by ZEFSAII (Michael W. Deem and Ramdas Pophale) SiO2 
 PCOD9155429
Probable space group: P 2/M
;
_chemical_formula_sum "Si O2"
_cell_formula_units_Z 28
_cell_length_a 15.000000
_cell_length_b 9.000000
_cell_length_c 12.000000
_cell_angle_alpha 90.000000
_cell_angle_beta 120.000000
_cell_angle_gamma 90.000000
_cell_volume 1402.961154
_symmetry_space_group_name_H-M "P 2/M"
_symmetry_group_IT_number 10
_symmetry_cell_setting 'monoclinic'
loop_
_space_group_symop_operation_xyz
x,y,z
-x,y,-z
-x,-y,-z
x,-y,z
loop_
_atom_site_type_symbol
_atom_site_label
_atom_site_fract_x
_atom_site_fract_y
_atom_site_fract_z
Si Si1 0.491558 0.836925 0.861344
Si Si2 0.815467 0.674547 0.107846
Si Si3 0.699086 0.171123 0.848263
Si Si4 0.298176 0.331643 0.741178
Si Si5 0.013609 0.678758 0.378126
Si Si6 0.777472 0.826049 0.509861
Si Si7 0.620428 0.322405 0.577220
O O1 0.598069 0.823549 0.863916
O O2 0.416046 0.702185 0.787685
O O3 0.446623 0.000000 0.801131
O O4 0.500000 0.838739 0.000000
O O5 0.822592 0.500000 0.084015
O O6 0.724715 0.690044 0.143087
O O7 0.916035 0.717796 0.240948
O O8 0.789989 0.766510 0.982321
O O9 0.673198 0.267381 0.724072
O O10 0.716808 0.000000 0.827335
O O11 0.267127 0.500000 0.693421
O O12 0.235880 0.217127 0.627786
O O13 0.023499 0.500000 0.383420
O O14 0.114692 0.752510 0.390531
O O15 0.000000 0.721962 0.500000
O O16 0.683678 0.751783 0.517084
O O17 0.778172 0.000000 0.528306
O O18 0.500000 0.277920 0.500000
O O19 0.625669 0.500000 0.571333
#
# Coordination Sequence:
#
# PCOD9155429 Si02
#       7
#     4   4   4   4   4   4   4
#     4  10  20  34  52  83 123 161 197 244 311 374
#     4  10  21  37  60  89 124 164 206 253 307 366
#     4  11  23  39  61  88 127 167 205 258 315 374
#     4  11  21  35  57  87 122 163 208 254 305 365
#     4  10  20  40  65  92 128 168 211 261 313 370
#     4  12  25  40  63  94 127 163 207 260 320 378
#     4  11  25  46  70  93 121 163 216 264 309 373
#
# _framework density 19.957787
#
# number of rings (size 3 to 8) (size 9 to 14) (size 15 to 20)
#    0.000    1.286    2.857    3.429    0.000    6.286 
#    0.000    0.714    0.000    4.286    0.000    0.000 
#    0.000    0.000    0.000    0.000    0.000    0.000 
#
# Total GULP energy -156365.252272 kJ/mol
# GULP energy per Si atom -5584.473295 kJ/mol
# Density = 1.991236 g / cm^3
# Si number density = 19.957787 Si / 1000 Ang^3
#
#
#
# Elastic Constant Matrix: (Units=GPa)
#
#
# Indices 1 2 3 4 5 6 
#
# 1 66.6827 36.8445 16.2593 0.0000 11.3553 0.0000
# 2 36.8445 51.3971 36.6642 0.0000 12.3679 0.0000
# 3 16.2593 36.6642 88.9802 0.0000 10.1399 0.0000
# 4 0.0000 0.0000 0.0000 2.9130 0.0000 -8.9237
# 5 11.3553 12.3679 10.1399 0.0000 28.0930 0.0000
# 6 0.0000 0.0000 0.0000 -8.9237 0.0000 16.6673
#
#
#
# Elastic Compliance Matrix: (Units=1/GPa)
#
#
# Indices 1 2 3 4 5 6 
#
# 1 0.026055 -0.021010 0.004216 0.000000 -0.002803 0.000000
# 2 -0.021010 0.046529 -0.014565 0.000000 -0.006735 0.000000
# 3 0.004216 -0.014565 0.016617 0.000000 -0.001289 0.000000
# 4 0.000000 0.000000 0.000000 -0.536261 0.000000 -0.287115
# 5 -0.002803 -0.006735 -0.001289 0.000000 0.040159 0.000000
# 6 0.000000 0.000000 0.000000 -0.287115 0.000000 -0.093724
#
#
# Mechanical properties :
#
#
# Convention : Reuss Voigt Hill
#
# Bulk Modulus (GPa) = 37.76426 42.95513 40.35969
# Shear Modulus (GPa) = -11.65289 17.35412 2.85062
#
# Velocity S-wave (km/s) = -2.41898 2.95200 1.19642
# Velocity P-wave (km/s) = 3.34084 5.76097 4.70903
#
# Compressibility (1/GPa) = 0.02648006
#
# Stress axis : x y z
#
# Youngs Moduli (GPa) = 38.38065 21.49206 60.18037
#
# Poissons Ratio (x) = 0.45156 -0.25371
# Poissons Ratio (y) = 0.80639 0.87656
# Poissons Ratio (z) = -0.16180 0.31304
#
# Static dielectric constant tensor:
#      x y z
#    x 1.712670 0.000000 0.039930 
#    y 0.000000 1.687870 0.000000 
#    z 0.039930 0.000000 1.726090 
# 
# From -- ./inp_files/50045.got.cif
#   From: 2010.05.17/outbox.ucp.g08.bks.cvg/sg10_26_cif.got.tgz:50045.got - 2010.06.11 11:31:16.
