data_PCOD9155949
_publ_section_title
;
Structure prediction by ZEFSAII (Michael W. Deem and Ramdas Pophale) SiO2 
 PCOD9155949
Probable space group: P 21/M
;
_chemical_formula_sum "Si O2"
_cell_formula_units_Z 32
_cell_length_a 24.553862
_cell_length_b 8.781209
_cell_length_c 17.755746
_cell_angle_alpha 90.000000
_cell_angle_beta 146.763534
_cell_angle_gamma 90.000000
_cell_volume 2098.308894
_symmetry_space_group_name_H-M "P 21/M"
_symmetry_group_IT_number 11
_symmetry_cell_setting 'monoclinic'
loop_
_space_group_symop_operation_xyz
x,y,z
-x,1/2+y,-z
-x,-y,-z
x,1/2-y,z
loop_
_atom_site_type_symbol
_atom_site_label
_atom_site_fract_x
_atom_site_fract_y
_atom_site_fract_z
Si Si1 0.255744 0.427453 0.078357
Si Si2 0.926186 0.572369 0.014529
Si Si3 0.077761 0.065439 0.415669
Si Si4 0.128153 0.067993 0.308983
Si Si5 0.391946 0.567708 0.360848
Si Si6 0.151158 0.932559 0.817412
Si Si7 0.216695 0.568116 0.271850
Si Si8 0.889374 0.566896 0.382654
O O1 0.277946 0.250000 0.091965
O O2 0.342513 0.504897 0.227168
O O3 0.157717 0.437454 0.017766
O O4 0.227352 0.507728 0.967698
O O5 0.951640 0.750000 0.032204
O O6 0.021374 0.480135 0.151864
O O7 0.874358 0.503327 0.880892
O O8 0.075167 0.250000 0.410016
O O9 0.125759 0.013807 0.393006
O O10 0.134553 0.024043 0.558521
O O11 0.961601 0.017640 0.288768
O O12 0.138212 0.250000 0.318710
O O13 0.208732 0.993581 0.347115
O O14 0.500000 0.500000 0.500000
O O15 0.396404 0.750000 0.362604
O O16 0.316199 0.525457 0.341180
O O17 0.151344 0.750000 0.815027
O O18 0.170568 0.998510 0.756578
O O19 0.207801 0.750000 0.260759
O O20 0.891505 0.750000 0.379567
O O21 0.000000 0.500000 0.500000
#
# Coordination Sequence:
#
# PCOD9155949 Si02
#       8
#     4   4   4   4   4   4   4   4
#     4  10  19  30  47  70  92 118 154 190 227 272
#     4  10  19  30  43  62  87 118 153 189 223 261
#     4   8  16  27  40  58  85 121 156 189 226 261
#     4  11  19  29  44  62  88 122 155 189 222 261
#     4  10  21  37  55  70  90 116 145 186 234 279
#     4  10  17  28  43  62  89 120 155 193 229 266
#     4  10  21  34  46  64  87 115 147 184 226 268
#     4   9  16  27  40  58  83 117 157 193 229 267
#
# _framework density 15.250375999999999
#
# number of rings (size 3 to 8) (size 9 to 14) (size 15 to 20)
#    0.000    2.250    1.250    3.750    0.000    2.500 
#    0.000    1.875    0.000    0.000    0.000    0.000 
#    0.000    1.000    0.000    3.000    0.000    4.625 
#
# Total GULP energy -178396.896735 kJ/mol
# GULP energy per Si atom -5574.903023 kJ/mol
# Density = 1.521567 g / cm^3
# Si number density = 15.250376 Si / 1000 Ang^3
#
#
#
# Elastic Constant Matrix: (Units=GPa)
#
#
# Indices 1 2 3 4 5 6 
#
# 1 104.8366 33.6597 57.8077 0.0000 -35.3119 0.0000
# 2 33.6597 55.5107 31.9963 0.0000 -11.8866 0.0000
# 3 57.8077 31.9963 85.2984 0.0000 -20.3312 0.0000
# 4 0.0000 0.0000 0.0000 23.1083 0.0000 -3.8494
# 5 -35.3119 -11.8866 -20.3312 0.0000 25.7067 0.0000
# 6 0.0000 0.0000 0.0000 -3.8494 0.0000 22.2211
#
#
#
# Elastic Compliance Matrix: (Units=1/GPa)
#
#
# Indices 1 2 3 4 5 6 
#
# 1 0.023761 -0.004223 -0.008879 0.000000 0.023665 0.000000
# 2 -0.004223 0.024203 -0.006078 0.000000 0.000584 0.000000
# 3 -0.008879 -0.006078 0.020264 0.000000 0.001020 0.000000
# 4 0.000000 0.000000 0.000000 0.044560 0.000000 0.007719
# 5 0.023665 0.000584 0.001020 0.000000 0.072484 0.000000
# 6 0.000000 0.000000 0.000000 0.007719 0.000000 0.046340
#
#
# Mechanical properties :
#
#
# Convention : Reuss Voigt Hill
#
# Bulk Modulus (GPa) = 33.47895 54.73033 44.10464
# Shear Modulus (GPa) = 17.86176 22.35269 20.10723
#
# Velocity S-wave (km/s) = 3.42604 3.83262 3.63502
# Velocity P-wave (km/s) = 6.13603 7.45326 6.82649
#
# Compressibility (1/GPa) = 0.02986951
#
# Stress axis : x y z
#
# Youngs Moduli (GPa) = 42.08541 41.31640 49.34958
#
# Poissons Ratio (x) = 0.17448 0.43815
# Poissons Ratio (y) = 0.17773 0.29994
# Poissons Ratio (z) = 0.37366 0.25112
#
# Static dielectric constant tensor:
#      x y z
#    x 1.540390 0.000000 -0.026750 
#    y 0.000000 1.509860 0.000000 
#    z -0.026750 0.000000 1.483920 
# 
# From -- ./inp_files/61802.got.cif
#   From: 2010.05.17/outbox.cif.g08.bks.cpg/sg11_31_cif.got.tgz:61802.got - 2010.06.03 12:22:45.
