data_PCOD9155220
_publ_section_title
;
Structure prediction by ZEFSAII (Michael W. Deem and Ramdas Pophale) SiO2 
 PCOD9155220
Probable space group: P 2/M
;
_chemical_formula_sum "Si O2"
_cell_formula_units_Z 32
_cell_length_a 15.000000
_cell_length_b 9.000000
_cell_length_c 27.000000
_cell_angle_alpha 90.000000
_cell_angle_beta 30.000000
_cell_angle_gamma 90.000000
_cell_volume 1822.500000
_symmetry_space_group_name_H-M "P 2/M"
_symmetry_group_IT_number 10
_symmetry_cell_setting 'monoclinic'
loop_
_space_group_symop_operation_xyz
x,y,z
-x,y,-z
-x,-y,-z
x,-y,z
loop_
_atom_site_type_symbol
_atom_site_label
_atom_site_fract_x
_atom_site_fract_y
_atom_site_fract_z
Si Si1 0.447338 0.673827 0.913430
Si Si2 0.196119 0.827130 0.842387
Si Si3 0.293678 0.667348 0.615866
Si Si4 0.206816 0.826766 0.955720
Si Si5 0.202241 0.824025 0.562164
Si Si6 0.816792 0.179640 0.763359
Si Si7 0.439431 0.322696 0.648113
Si Si8 0.296862 0.168361 0.077020
O O1 0.472676 0.500000 0.905829
O O2 0.354393 0.723035 0.907958
O O3 0.637624 0.753496 0.827317
O O4 0.314786 0.730995 0.020505
O O5 0.211816 0.818267 0.894066
O O6 0.342746 0.732276 0.743700
O O7 0.218232 0.000000 0.817580
O O8 0.991050 0.784055 0.930559
O O9 0.500000 0.653596 0.500000
O O10 0.215786 0.500000 0.650131
O O11 0.216843 0.779849 0.612994
O O12 0.309150 0.720079 0.664820
O O13 0.237147 0.000000 0.954869
O O14 0.365081 0.745681 0.455630
O O15 0.998855 0.778947 0.647858
O O16 0.220344 0.000000 0.547393
O O17 0.816424 0.224443 0.821815
O O18 0.803263 0.000000 0.770137
O O19 0.455842 0.500000 0.638505
O O20 0.242648 0.000000 0.090022
O O21 0.500000 0.161172 0.000000
#
# Coordination Sequence:
#
# PCOD9155220 Si02
#       8
#     4   4   4   4   4   4   4   4
#     4  11  21  31  49  77 104 133 168 203 247 303
#     4   9  19  36  58  79  96 124 166 205 245 297
#     4   8  16  30  44  63  96 134 165 196 243 292
#     4   9  19  37  57  76 100 127 159 204 253 297
#     4  10  19  31  50  74  99 133 178 216 243 283
#     4   9  19  34  50  70  99 137 176 212 249 286
#     4  10  20  33  50  74 106 138 163 199 254 304
#     4   8  15  30  48  65  92 130 168 205 244 282
#
# _framework density 17.558299000000002
#
# number of rings (size 3 to 8) (size 9 to 14) (size 15 to 20)
#    0.000    2.750    0.000    4.125    0.000    8.000 
#    0.000    5.000    0.000    0.750    0.000    5.250 
#    0.000    0.000    0.000    0.000    0.000    0.000 
#
# Total GULP energy -178230.719817 kJ/mol
# GULP energy per Si atom -5569.709994 kJ/mol
# Density = 1.751834 g / cm^3
# Si number density = 17.558299 Si / 1000 Ang^3
#
#
#
# Elastic Constant Matrix: (Units=GPa)
#
#
# Indices 1 2 3 4 5 6 
#
# 1 35.5618 19.8263 21.5050 0.0000 -6.9509 0.0000
# 2 19.8263 34.7632 37.5249 0.0000 -3.4317 0.0000
# 3 21.5050 37.5249 109.5927 0.0000 -3.4512 0.0000
# 4 0.0000 0.0000 0.0000 0.2785 0.0000 4.6770
# 5 -6.9509 -3.4317 -3.4512 0.0000 13.5514 0.0000
# 6 0.0000 0.0000 0.0000 4.6770 0.0000 35.2746
#
#
#
# Elastic Compliance Matrix: (Units=1/GPa)
#
#
# Indices 1 2 3 4 5 6 
#
# 1 0.044710 -0.023691 -0.000129 0.000000 0.016901 0.000000
# 2 -0.023691 0.058984 -0.015585 0.000000 -0.001184 0.000000
# 3 -0.000129 -0.015585 0.014476 0.000000 -0.000326 0.000000
# 4 0.000000 0.000000 0.000000 -2.927394 0.000000 0.388135
# 5 0.016901 -0.001184 -0.000326 0.000000 0.082079 0.000000
# 6 0.000000 0.000000 0.000000 0.388135 0.000000 -0.023113
#
#
# Mechanical properties :
#
#
# Convention : Reuss Voigt Hill
#
# Bulk Modulus (GPa) = 25.40691 37.51445 31.46068
# Shear Modulus (GPa) = -1.88088 16.55833 7.33872
#
# Velocity S-wave (km/s) = -1.03612 3.07424 2.04663
# Velocity P-wave (km/s) = 3.61525 5.83209 4.85198
#
# Compressibility (1/GPa) = 0.03935937
#
# Stress axis : x y z
#
# Youngs Moduli (GPa) = 22.36643 16.95387 69.08009
#
# Poissons Ratio (x) = 0.40166 0.00891
# Poissons Ratio (y) = 0.52989 1.07658
# Poissons Ratio (z) = 0.00289 0.26422
#
# Static dielectric constant tensor:
#      x y z
#    x 1.627750 0.000000 -0.001350 
#    y 0.000000 1.594880 0.000000 
#    z -0.001350 0.000000 1.603940 
# 
# From -- ./inp_files/93104.got.cif
#   From: 2010.05.17/outbox.ucp.g08.bks.cvg/sg10_47_cif.got.tgz:93104.got - 2010.06.11 11:31:16.
