data_PCOD9155110
_publ_section_title
;
Structure prediction by ZEFSAII (Michael W. Deem and Ramdas Pophale) SiO2 
 PCOD9155110
Probable space group: P 2/M
;
_chemical_formula_sum "Si O2"
_cell_formula_units_Z 32
_cell_length_a 21.000000
_cell_length_b 9.000000
_cell_length_c 12.000000
_cell_angle_alpha 90.000000
_cell_angle_beta 130.000000
_cell_angle_gamma 90.000000
_cell_volume 1737.388797
_symmetry_space_group_name_H-M "P 2/M"
_symmetry_group_IT_number 10
_symmetry_cell_setting 'monoclinic'
loop_
_space_group_symop_operation_xyz
x,y,z
-x,y,-z
-x,-y,-z
x,-y,z
loop_
_atom_site_type_symbol
_atom_site_label
_atom_site_fract_x
_atom_site_fract_y
_atom_site_fract_z
Si Si1 0.072450 0.161110 0.671119
Si Si2 0.222575 0.674103 0.762615
Si Si3 0.285839 0.678656 0.057804
Si Si4 0.975758 0.831134 0.794801
Si Si5 0.853855 0.822524 0.945827
Si Si6 0.811016 0.324989 0.519987
Si Si7 0.409985 0.174879 0.363528
Si Si8 0.728292 0.169720 0.606559
O O1 0.133755 0.295748 0.719502
O O2 0.000000 0.167574 0.500000
O O3 0.027932 0.162320 0.738649
O O4 0.116533 0.000000 0.708161
O O5 0.239240 0.500000 0.767400
O O6 0.211201 0.738931 0.626750
O O7 0.285301 0.729521 0.928178
O O8 0.281701 0.500000 0.057144
O O9 0.204221 0.744596 0.027814
O O10 0.364311 0.737693 0.214281
O O11 0.893086 0.745800 0.667430
O O12 0.954355 0.000000 0.806711
O O13 0.050998 0.769915 0.955426
O O14 0.805193 0.802901 0.776396
O O15 0.854881 0.000000 0.969776
O O16 0.825002 0.500000 0.526734
O O17 0.735599 0.284846 0.515990
O O18 0.500000 0.229770 0.500000
O O19 0.351491 0.184332 0.405835
O O20 0.415192 0.000000 0.338549
O O21 0.733654 0.000000 0.571069
#
# Coordination Sequence:
#
# PCOD9155110 Si02
#       8
#     4   4   4   4   4   4   4   4
#     4  10  18  28  45  69  94 127 177 230 264 294
#     4  10  21  33  46  68 102 141 175 211 254 297
#     4  10  19  31  51  80 109 133 164 208 254 300
#     4  10  19  31  48  70  97 133 180 227 267 302
#     4   9  18  33  52  72  98 134 174 220 269 307
#     4  11  23  35  47  67 101 145 184 214 250 297
#     4   9  19  38  64  89 108 126 152 194 252 313
#     4   9  19  36  55  75 100 130 165 205 251 305
#
# _framework density 18.418444999999998
#
# number of rings (size 3 to 8) (size 9 to 14) (size 15 to 20)
#    0.000    2.250    2.500    1.500    0.000    5.000 
#    0.000    2.500    0.000    0.750    0.000    5.250 
#    0.000    0.000    0.000    0.000    0.000    0.000 
#
# Total GULP energy -178191.248534 kJ/mol
# GULP energy per Si atom -5568.476517 kJ/mol
# Density = 1.837652 g / cm^3
# Si number density = 18.418445 Si / 1000 Ang^3
#
#
#
# Elastic Constant Matrix: (Units=GPa)
#
#
# Indices 1 2 3 4 5 6 
#
# 1 38.4416 16.0820 65.8437 0.0000 -5.9170 0.0000
# 2 16.0820 20.2137 34.8948 0.0000 -1.9096 0.0000
# 3 65.8437 34.8948 100.4013 0.0000 23.5159 0.0000
# 4 0.0000 0.0000 0.0000 13.7414 0.0000 -3.9475
# 5 -5.9170 -1.9096 23.5159 0.0000 2.7067 0.0000
# 6 0.0000 0.0000 0.0000 -3.9475 0.0000 14.1378
#
#
#
# Elastic Compliance Matrix: (Units=1/GPa)
#
#
# Indices 1 2 3 4 5 6 
#
# 1 0.021104 -0.033292 0.007319 0.000000 -0.040937 0.000000
# 2 -0.033292 0.075052 -0.000380 0.000000 -0.016531 0.000000
# 3 0.007319 -0.000380 -0.001554 0.000000 0.029229 0.000000
# 4 0.000000 0.000000 0.000000 0.079119 0.000000 0.022091
# 5 -0.040937 -0.016531 0.029229 0.000000 0.014361 0.000000
# 6 0.000000 0.000000 0.000000 0.022091 0.000000 0.076900
#
#
# Mechanical properties :
#
#
# Convention : Reuss Voigt Hill
#
# Bulk Modulus (GPa) = 23.86815 43.63306 33.75060
# Shear Modulus (GPa) = 15.07587 8.93294 12.00440
#
# Velocity S-wave (km/s) = 2.86408 2.20466 2.55573
# Velocity P-wave (km/s) = 4.89124 5.49745 5.20318
#
# Compressibility (1/GPa) = 0.04189684
#
# Stress axis : x y z
#
# Youngs Moduli (GPa) = 47.38328 13.32402 -643.67753
#
# Poissons Ratio (x) = 0.44359 4.71090
# Poissons Ratio (y) = 1.57750 -0.24435
# Poissons Ratio (z) = -0.34679 0.00506
#
# Static dielectric constant tensor:
#      x y z
#    x 1.639310 0.000000 -0.094640 
#    y 0.000000 1.642880 0.000000 
#    z -0.094640 0.000000 1.384010 
# 
# From -- ./inp_files/55358.got.cif
#   From: 2010.05.17/outbox.ucp.g08.bks.cvg/sg10_28_cif.got.tgz:55358.got - 2010.06.11 11:31:16.
