data_PCOD9155517
_publ_section_title
;
Structure prediction by ZEFSAII (Michael W. Deem and Ramdas Pophale) SiO2 
 PCOD9155517
Probable space group: P 2/M
;
_chemical_formula_sum "Si O2"
_cell_formula_units_Z 28
_cell_length_a 24.000000
_cell_length_b 9.000000
_cell_length_c 21.000000
_cell_angle_alpha 90.000000
_cell_angle_beta 160.000000
_cell_angle_gamma 90.000000
_cell_volume 1551.403370
_symmetry_space_group_name_H-M "P 2/M"
_symmetry_group_IT_number 10
_symmetry_cell_setting 'monoclinic'
loop_
_space_group_symop_operation_xyz
x,y,z
-x,y,-z
-x,-y,-z
x,-y,z
loop_
_atom_site_type_symbol
_atom_site_label
_atom_site_fract_x
_atom_site_fract_y
_atom_site_fract_z
Si Si1 0.109514 0.678592 0.475442
Si Si2 0.372967 0.332005 0.303659
Si Si3 0.404487 0.820168 0.554904
Si Si4 0.755013 0.821720 0.115689
Si Si5 0.691911 0.176583 0.197552
Si Si6 0.407716 0.320172 0.696552
Si Si7 0.174872 0.177181 0.190847
O O1 0.089052 0.500000 0.453296
O O2 0.193225 0.734540 0.630811
O O3 0.251416 0.714806 0.574775
O O4 0.927670 0.752998 0.275604
O O5 0.500000 0.341798 0.500000
O O6 0.317163 0.500000 0.231594
O O7 0.441550 0.257606 0.313729
O O8 0.249496 0.220998 0.203738
O O9 0.374433 0.749704 0.591282
O O10 0.268059 0.780345 0.355363
O O11 0.419917 0.000000 0.575044
O O12 0.746978 0.801492 0.183786
O O13 0.751480 0.000000 0.098792
O O14 0.584284 0.747787 0.907838
O O15 0.704487 0.000000 0.225651
O O16 0.500000 0.217635 0.000000
O O17 0.421583 0.500000 0.708975
O O18 0.168587 0.000000 0.186955
O O19 0.000000 0.248770 0.000000
#
# Coordination Sequence:
#
# PCOD9155517 Si02
#       7
#     4   4   4   4   4   4   4
#     4  11  24  40  61  89 123 161 200 250 307 363
#     4   9  17  31  53  79 107 141 180 225 278 336
#     4  10  20  36  59  83 110 151 194 235 289 348
#     4  11  23  40  64  90 118 157 203 252 303 360
#     4  10  20  37  62  90 120 155 201 254 305 357
#     4  11  24  42  61  84 121 162 201 248 301 360
#     4   9  18  34  56  84 116 146 186 241 288 339
#
# _framework density 18.048175000000001
#
# number of rings (size 3 to 8) (size 9 to 14) (size 15 to 20)
#    0.000    1.857    1.429    2.571    0.000    7.429 
#    2.571    0.000    0.000    0.000    0.000    0.000 
#    0.000    0.000    0.000    0.000    0.000    0.000 
#
# Total GULP energy -155944.508219 kJ/mol
# GULP energy per Si atom -5569.446722 kJ/mol
# Density = 1.800710 g / cm^3
# Si number density = 18.048175 Si / 1000 Ang^3
#
#
#
# Elastic Constant Matrix: (Units=GPa)
#
#
# Indices 1 2 3 4 5 6 
#
# 1 135.4290 48.4695 57.3640 0.0000 1.8436 0.0000
# 2 48.4695 67.1168 44.9169 0.0000 -9.5370 0.0000
# 3 57.3640 44.9169 95.4044 0.0000 20.1668 0.0000
# 4 0.0000 0.0000 0.0000 21.5928 0.0000 2.4778
# 5 1.8436 -9.5370 20.1668 0.0000 18.3271 0.0000
# 6 0.0000 0.0000 0.0000 2.4778 0.0000 34.8115
#
#
#
# Elastic Compliance Matrix: (Units=1/GPa)
#
#
# Indices 1 2 3 4 5 6 
#
# 1 0.011037 -0.004121 -0.005223 0.000000 0.002492 0.000000
# 2 -0.004121 0.051004 -0.035487 0.000000 0.066005 0.000000
# 3 -0.005223 -0.035487 0.044465 0.000000 -0.066869 0.000000
# 4 0.000000 0.000000 0.000000 0.046693 0.000000 -0.003324
# 5 0.002492 0.066005 -0.066869 0.000000 0.162242 0.000000
# 6 0.000000 0.000000 0.000000 -0.003324 0.000000 0.028963
#
#
# Mechanical properties :
#
#
# Convention : Reuss Voigt Hill
#
# Bulk Modulus (GPa) = 59.37179 66.60566 62.98873
# Shear Modulus (GPa) = 11.37189 24.75959 18.06574
#
# Velocity S-wave (km/s) = 2.51287 3.70788 3.16725
# Velocity P-wave (km/s) = 6.43328 7.43745 6.95352
#
# Compressibility (1/GPa) = 0.01684302
#
# Stress axis : x y z
#
# Youngs Moduli (GPa) = 90.60195 19.60637 22.48983
#
# Poissons Ratio (x) = 0.08080 0.11746
# Poissons Ratio (y) = 0.37339 0.79810
# Poissons Ratio (z) = 0.47321 0.69577
#
# Static dielectric constant tensor:
#      x y z
#    x 1.730230 0.000000 0.114250 
#    y 0.000000 1.613640 0.000000 
#    z 0.114250 0.000000 1.720740 
# 
# From -- ./inp_files/86446.got.cif
#   From: 2010.05.17/outbox.ucp.g08.bks.cvg/sg10_44_cif.got.tgz:86446.got - 2010.06.11 11:31:16.
