data_PCOD9155629
_publ_section_title
;
Structure prediction by ZEFSAII (Michael W. Deem and Ramdas Pophale) SiO2 
 PCOD9155629
Probable space group: P 2/M
;
_chemical_formula_sum "Si O2"
_cell_formula_units_Z 28
_cell_length_a 15.000000
_cell_length_b 9.000000
_cell_length_c 12.000000
_cell_angle_alpha 90.000000
_cell_angle_beta 60.000000
_cell_angle_gamma 90.000000
_cell_volume 1402.961154
_symmetry_space_group_name_H-M "P 2/M"
_symmetry_group_IT_number 10
_symmetry_cell_setting 'monoclinic'
loop_
_space_group_symop_operation_xyz
x,y,z
-x,y,-z
-x,-y,-z
x,-y,z
loop_
_atom_site_type_symbol
_atom_site_label
_atom_site_fract_x
_atom_site_fract_y
_atom_site_fract_z
Si Si1 0.239861 0.827034 0.827945
Si Si2 0.835335 0.827683 0.375758
Si Si3 0.458973 0.322674 0.649394
Si Si4 0.383198 0.323170 0.097107
Si Si5 0.189605 0.323074 0.077862
Si Si6 0.975750 0.676360 0.639074
Si Si7 0.355850 0.176079 0.341406
O O1 0.186479 0.815908 0.741239
O O2 0.348047 0.743821 0.744568
O O3 0.259061 0.000000 0.839709
O O4 0.175464 0.757396 0.969373
O O5 0.922988 0.714471 0.355318
O O6 0.734453 0.794836 0.513071
O O7 0.864747 0.000000 0.381382
O O8 0.500000 0.282528 0.500000
O O9 0.454882 0.500000 0.660091
O O10 0.541796 0.257422 0.681984
O O11 0.385094 0.500000 0.119956
O O12 0.308018 0.300259 0.040112
O O13 0.334719 0.239792 0.232644
O O14 0.500000 0.274645 0.000000
O O15 0.172427 0.500000 0.075572
O O16 0.118511 0.268933 0.225018
O O17 0.958775 0.500000 0.636741
O O18 0.000000 0.737913 0.500000
O O19 0.371641 0.000000 0.327463
#
# Coordination Sequence:
#
# PCOD9155629 Si02
#       7
#     4   4   4   4   4   4   4
#     4  11  23  40  61  87 124 162 199 244 299 360
#     4  10  23  40  59  87 120 155 196 247 299 353
#     4  11  22  36  58  88 121 160 202 242 292 353
#     4  10  21  38  60  86 119 156 197 246 299 358
#     4  10  22  40  61  89 124 157 198 252 304 356
#     4  10  22  41  65  90 117 154 199 250 304 356
#     4  11  22  37  59  87 121 156 198 249 300 355
#
# _framework density 19.957787
#
# number of rings (size 3 to 8) (size 9 to 14) (size 15 to 20)
#    0.000    1.571    1.429    3.000    0.000    7.429 
#    0.000    2.857    0.000    0.000    0.000    0.000 
#    0.000    0.000    0.000    0.000    0.000    0.000 
#
# Total GULP energy -156384.781431 kJ/mol
# GULP energy per Si atom -5585.170765 kJ/mol
# Density = 1.991236 g / cm^3
# Si number density = 19.957787 Si / 1000 Ang^3
#
#
#
# Elastic Constant Matrix: (Units=GPa)
#
#
# Indices 1 2 3 4 5 6 
#
# 1 25.5887 9.9364 20.5604 0.0000 0.8472 0.0000
# 2 9.9364 16.6100 39.7405 0.0000 7.8674 0.0000
# 3 20.5604 39.7405 144.4830 0.0000 6.9421 0.0000
# 4 0.0000 0.0000 0.0000 27.0024 0.0000 -0.5051
# 5 0.8472 7.8674 6.9421 0.0000 25.2938 0.0000
# 6 0.0000 0.0000 0.0000 -0.5051 0.0000 -185.5838
#
#
#
# Elastic Compliance Matrix: (Units=1/GPa)
#
#
# Indices 1 2 3 4 5 6 
#
# 1 0.054678 -0.055418 0.006812 0.000000 0.013536 0.000000
# 2 -0.055418 0.291067 -0.068820 0.000000 -0.069789 0.000000
# 3 0.006812 -0.068820 0.024182 0.000000 0.014540 0.000000
# 4 0.000000 0.000000 0.000000 0.037032 0.000000 -0.000101
# 5 0.013536 -0.069789 0.014540 0.000000 0.056798 0.000000
# 6 0.000000 0.000000 0.000000 -0.000101 0.000000 -0.005388
#
#
# Mechanical properties :
#
#
# Convention : Reuss Voigt Hill
#
# Bulk Modulus (GPa) = 7.40326 36.35071 21.87699
# Shear Modulus (GPa) = 6.77281 -18.89456 -6.06087
#
# Velocity S-wave (km/s) = 1.84416 -3.08023 -1.74455
# Velocity P-wave (km/s) = 2.87265 2.36705 2.63202
#
# Compressibility (1/GPa) = 0.13507571
#
# Stress axis : x y z
#
# Youngs Moduli (GPa) = 18.28893 3.43564 41.35256
#
# Poissons Ratio (x) = 0.19040 -0.28168
# Poissons Ratio (y) = 1.01353 2.84586
# Poissons Ratio (z) = -0.12458 0.23644
#
# Static dielectric constant tensor:
#      x y z
#    x 1.710270 0.000000 0.021920 
#    y 0.000000 1.673810 0.000000 
#    z 0.021920 0.000000 1.720750 
# 
# From -- ./inp_files/49644.got.cif
#   From: 2010.05.17/outbox.ucp.g08.bks.cvg/sg10_25_cif.got.tgz:49644.got - 2010.06.11 11:31:16.
