data_PCOD9155996
_publ_section_title
;
Structure prediction by ZEFSAII (Michael W. Deem and Ramdas Pophale) SiO2 
 PCOD9155996
Probable space group: P 21/M
;
_chemical_formula_sum "Si O2"
_cell_formula_units_Z 28
_cell_length_a 24.754483
_cell_length_b 12.964114
_cell_length_c 27.058565
_cell_angle_alpha 90.000000
_cell_angle_beta 10.980086
_cell_angle_gamma 90.000000
_cell_volume 1653.952523
_symmetry_space_group_name_H-M "P 21/M"
_symmetry_group_IT_number 11
_symmetry_cell_setting 'monoclinic'
loop_
_space_group_symop_operation_xyz
x,y,z
-x,1/2+y,-z
-x,-y,-z
x,1/2-y,z
loop_
_atom_site_type_symbol
_atom_site_label
_atom_site_fract_x
_atom_site_fract_y
_atom_site_fract_z
Si Si1 0.730829 0.633893 0.761607
Si Si2 0.098212 0.522520 0.967300
Si Si3 0.235610 0.374466 0.462833
Si Si4 0.983132 0.750000 0.047408
Si Si5 0.096354 0.873958 0.137570
Si Si6 0.703331 0.544023 0.404090
Si Si7 0.478179 0.750000 0.550253
Si Si8 0.078927 0.565884 0.352844
O O1 0.786466 0.750000 0.727977
O O2 0.856846 0.549294 0.685652
O O3 0.886402 0.616578 0.569058
O O4 0.390221 0.616719 0.065682
O O5 0.424834 0.491002 0.677036
O O6 0.000000 0.500000 0.000000
O O7 0.081222 0.647652 0.988044
O O8 0.871810 0.482719 0.210199
O O9 0.218546 0.250000 0.471662
O O10 0.060779 0.399563 0.669675
O O11 0.089200 0.425918 0.547127
O O12 0.570093 0.401101 0.164289
O O13 0.646938 0.750000 0.348066
O O14 0.142280 0.750000 0.852780
O O15 0.077593 0.750000 0.148594
O O16 0.923313 0.924824 0.248506
O O17 0.579491 0.648061 0.488828
#
# Coordination Sequence:
#
# PCOD9155996 Si02
#       8
#     4   4   4   2   4   4   2   4
#     4  10  19  32  51  71  97 133 169 203 247 292
#     4  10  19  29  44  65  89 113 144 175 218 269
#     4  10  19  29  43  65  97 127 154 186 226 277
#     4   8  16  26  40  58  82 110 130 166 208 241
#     4  10  19  29  44  66  91 124 154 181 223 278
#     4  10  17  29  43  60  89 116 144 180 213 263
#     4   8  14  24  40  56  76 112 136 164 202 243
#     4  10  20  32  48  72 101 132 165 204 244 294
#
# _framework density 16.929143
#
# number of rings (size 3 to 8) (size 9 to 14) (size 15 to 20)
#    0.000    2.286    0.714    3.429    0.000    1.143 
#    0.000    0.000    0.000    0.000    0.000    0.000 
#   12.857    0.000    0.000    0.000    0.000    0.000 
#
# Total GULP energy -155938.909864 kJ/mol
# GULP energy per Si atom -5569.246781 kJ/mol
# Density = 1.689061 g / cm^3
# Si number density = 16.929143 Si / 1000 Ang^3
#
#
#
# Elastic Constant Matrix: (Units=GPa)
#
#
# Indices 1 2 3 4 5 6 
#
# 1 60.9789 7.9502 22.4408 0.0000 3.2846 0.0000
# 2 7.9502 36.5986 9.3856 0.0000 1.0771 0.0000
# 3 22.4408 9.3856 124.4863 0.0000 27.0981 0.0000
# 4 0.0000 0.0000 0.0000 4.2062 0.0000 0.5566
# 5 3.2846 1.0771 27.0981 0.0000 37.8425 0.0000
# 6 0.0000 0.0000 0.0000 0.5566 0.0000 6.4415
#
#
#
# Elastic Compliance Matrix: (Units=1/GPa)
#
#
# Indices 1 2 3 4 5 6 
#
# 1 0.017928 -0.003104 -0.003173 0.000000 0.000804 0.000000
# 2 -0.003104 0.028422 -0.001736 0.000000 0.000704 0.000000
# 3 -0.003173 -0.001736 0.010265 0.000000 -0.007026 0.000000
# 4 0.000000 0.000000 0.000000 0.240496 0.000000 -0.020781
# 5 0.000804 0.000704 -0.007026 0.000000 0.031367 0.000000
# 6 0.000000 0.000000 0.000000 -0.020781 0.000000 0.157039
#
#
# Mechanical properties :
#
#
# Convention : Reuss Voigt Hill
#
# Bulk Modulus (GPa) = 24.63768 33.51298 29.07533
# Shear Modulus (GPa) = 9.70732 21.85051 15.77892
#
# Velocity S-wave (km/s) = 2.39719 3.59653 3.05627
# Velocity P-wave (km/s) = 4.71668 6.08981 5.44669
#
# Compressibility (1/GPa) = 0.04058824
#
# Stress axis : x y z
#
# Youngs Moduli (GPa) = 55.77807 35.18348 97.41556
#
# Poissons Ratio (x) = 0.10923 0.30909
# Poissons Ratio (y) = 0.17316 0.16916
# Poissons Ratio (z) = 0.17698 0.06110
#
# Static dielectric constant tensor:
#      x y z
#    x 1.556320 0.000000 0.057090 
#    y 0.000000 1.585640 0.000000 
#    z 0.057090 0.000000 1.647340 
# 
# From -- ./inp_files/8644.got.cif
#   From: 2010.05.17/outbox.cif.g08.bks.cpg/sg11_5_cif.got.tgz:8644.got - 2010.06.03 12:22:45.
