data_PCOD9155376
_publ_section_title
;
Structure prediction by ZEFSAII (Michael W. Deem and Ramdas Pophale) SiO2 
 PCOD9155376
Probable space group: P 2/M
;
_chemical_formula_sum "Si O2"
_cell_formula_units_Z 28
_cell_length_a 12.000000
_cell_length_b 9.000000
_cell_length_c 15.000000
_cell_angle_alpha 90.000000
_cell_angle_beta 60.000000
_cell_angle_gamma 90.000000
_cell_volume 1402.961154
_symmetry_space_group_name_H-M "P 2/M"
_symmetry_group_IT_number 10
_symmetry_cell_setting 'monoclinic'
loop_
_space_group_symop_operation_xyz
x,y,z
-x,y,-z
-x,-y,-z
x,-y,z
loop_
_atom_site_type_symbol
_atom_site_label
_atom_site_fract_x
_atom_site_fract_y
_atom_site_fract_z
Si Si1 0.209680 0.667451 0.414408
Si Si2 0.374598 0.673156 0.112804
Si Si3 0.177541 0.321667 0.039323
Si Si4 0.930448 0.825916 0.200666
Si Si5 0.003292 0.667642 0.347153
Si Si6 0.700632 0.676586 0.198920
Si Si7 0.559741 0.828314 0.728214
O O1 0.265356 0.500000 0.389762
O O2 0.108895 0.671328 0.534677
O O3 0.315853 0.791958 0.380077
O O4 0.131557 0.689930 0.353576
O O5 0.355179 0.500000 0.145784
O O6 0.256984 0.721149 0.096399
O O7 0.403889 0.768263 0.188046
O O8 0.500000 0.677804 0.000000
O O9 0.164891 0.500000 0.045612
O O10 0.039729 0.246299 0.095203
O O11 0.253731 0.281997 0.919511
O O12 0.974506 0.783454 0.282313
O O13 0.796080 0.750747 0.230505
O O14 0.923744 0.000000 0.190181
O O15 0.008153 0.500000 0.306230
O O16 0.706893 0.500000 0.204470
O O17 0.557444 0.735193 0.263434
O O18 0.527319 0.000000 0.744697
#
# Coordination Sequence:
#
# PCOD9155376 Si02
#       7
#     4   4   4   4   4   4   4
#     4   9  19  38  65  91 115 148 194 239 280 335
#     4  10  19  36  58  82 112 151 198 238 274 327
#     4  10  21  38  61  84 109 151 203 244 280 332
#     4  12  25  38  56  86 121 152 186 237 298 349
#     4   9  19  39  65  90 114 148 195 241 279 331
#     4  11  23  42  62  79 108 156 207 244 277 332
#     4  12  24  36  55  88 125 155 185 232 300 354
#
# _framework density 19.957787
#
# number of rings (size 3 to 8) (size 9 to 14) (size 15 to 20)
#    0.000    1.571    1.429    5.143    0.000    8.286 
#    0.000    2.143    0.000    4.286    0.000    0.000 
#    0.000    0.000    0.000    0.000    0.000    0.000 
#
# Total GULP energy -156469.224217 kJ/mol
# GULP energy per Si atom -5588.186579 kJ/mol
# Density = 1.991236 g / cm^3
# Si number density = 19.957787 Si / 1000 Ang^3
#
#
#
# Elastic Constant Matrix: (Units=GPa)
#
#
# Indices 1 2 3 4 5 6 
#
# 1 59.4314 25.2151 19.8127 0.0000 -4.0262 0.0000
# 2 25.2151 7.8200 0.1988 0.0000 1.7263 0.0000
# 3 19.8127 0.1988 28.4251 0.0000 -17.9860 0.0000
# 4 0.0000 0.0000 0.0000 -267.7172 0.0000-1991.7518
# 5 -4.0262 1.7263 -17.9860 0.0000 14.4526 0.0000
# 6 0.0000 0.0000 0.0000-1991.7518 0.0000**********
#
#
#
# Elastic Compliance Matrix: (Units=1/GPa)
#
#
# Indices 1 2 3 4 5 6 
#
# 1 -0.026799 0.079756 0.034673 0.000000 0.026158 0.000000
# 2 0.079756 -0.088149 -0.161158 0.000000 -0.167811 0.000000
# 3 0.034673 -0.161158 0.143176 0.000000 0.207090 0.000000
# 4 0.000000 0.000000 0.000000 0.008518 0.000000 -0.001647
# 5 0.026158 -0.167811 0.207090 0.000000 0.354244 0.000000
# 6 0.000000 0.000000 0.000000 -0.001647 0.000000 0.000221
#
#
# Mechanical properties :
#
#
# Convention : Reuss Voigt Hill
#
# Bulk Modulus (GPa) = -15.33067 20.68107 2.67520
# Shear Modulus (GPa) = 10.80085 -2107.52222 -1048.36068
#
# Velocity S-wave (km/s) = 2.32886 -32.53125 -22.94405
# Velocity P-wave (km/s) = 0.68320 37.42537 26.46814
#
# Compressibility (1/GPa) = -0.06522872
#
# Stress axis : x y z
#
# Youngs Moduli (GPa) = -37.31471 -11.34449 6.98442
#
# Poissons Ratio (x) = 0.90479 -0.24217
# Poissons Ratio (y) = 2.97607 1.12559
# Poissons Ratio (z) = 1.29382 -1.82825
#
# Static dielectric constant tensor:
#      x y z
#    x 1.705000 0.000000 -0.023250 
#    y 0.000000 1.669360 0.000000 
#    z -0.023250 0.000000 1.728120 
# 
# From -- ./inp_files/49353.got.cif
#   From: 2010.05.17/outbox.ucp.g08.bks.cvg/sg10_25_cif.got.tgz:49353.got - 2010.06.11 11:31:16.
