data_PCOD9155648
_publ_section_title
;
Structure prediction by ZEFSAII (Michael W. Deem and Ramdas Pophale) SiO2 
 PCOD9155648
Probable space group: P 2/M
;
_chemical_formula_sum "Si O2"
_cell_formula_units_Z 28
_cell_length_a 9.000000
_cell_length_b 9.000000
_cell_length_c 21.000000
_cell_angle_alpha 90.000000
_cell_angle_beta 130.000000
_cell_angle_gamma 90.000000
_cell_volume 1303.041598
_symmetry_space_group_name_H-M "P 2/M"
_symmetry_group_IT_number 10
_symmetry_cell_setting 'monoclinic'
loop_
_space_group_symop_operation_xyz
x,y,z
-x,y,-z
-x,-y,-z
x,-y,z
loop_
_atom_site_type_symbol
_atom_site_label
_atom_site_fract_x
_atom_site_fract_y
_atom_site_fract_z
Si Si1 0.398680 0.666333 0.151396
Si Si2 0.724053 0.672310 0.701231
Si Si3 0.716304 0.825798 0.574515
Si Si4 0.993450 0.663591 0.423285
Si Si5 0.000073 0.334130 0.100556
Si Si6 0.599468 0.828587 0.313849
Si Si7 0.376002 0.163956 0.028842
O O1 0.459846 0.500000 0.188386
O O2 0.166405 0.668137 0.092880
O O3 0.468545 0.795659 0.216647
O O4 0.458826 0.710604 0.098031
O O5 0.671420 0.500000 0.680550
O O6 0.802824 0.739046 0.658160
O O7 0.878552 0.684136 0.800624
O O8 0.531466 0.765031 0.665263
O O9 0.500000 0.773124 0.500000
O O10 0.848926 0.783404 0.552613
O O11 0.712219 0.000000 0.586249
O O12 0.028065 0.500000 0.404181
O O13 0.784877 0.729059 0.351062
O O14 0.000000 0.648772 0.500000
O O15 0.911373 0.500000 0.076507
O O16 0.841437 0.209881 0.048396
O O17 0.646625 0.000000 0.336228
O O18 0.379941 0.000000 0.059867
O O19 0.500000 0.160441 0.000000
#
# Coordination Sequence:
#
# PCOD9155648 Si02
#       7
#     4   4   4   4   4   4   4
#     4  10  21  39  62  86 114 149 193 239 286 346
#     4  10  21  39  62  88 119 153 194 241 290 349
#     4  11  24  40  60  88 121 156 195 242 295 346
#     4  11  24  41  62  87 117 156 199 241 289 347
#     4   9  20  38  60  85 111 146 191 237 285 341
#     4  11  22  38  62  90 120 152 191 240 294 349
#     4  11  24  38  54  82 118 153 191 237 289 343
#
# _framework density 21.488185999999999
#
# number of rings (size 3 to 8) (size 9 to 14) (size 15 to 20)
#    0.000    1.571    0.000    5.571    0.000   12.000 
#    0.000    2.857    0.000    0.000    0.000    0.000 
#    0.000    0.000    0.000    0.000    0.000    0.000 
#
# Total GULP energy -156213.946755 kJ/mol
# GULP energy per Si atom -5579.069527 kJ/mol
# Density = 2.143928 g / cm^3
# Si number density = 21.488186 Si / 1000 Ang^3
#
#
#
# Elastic Constant Matrix: (Units=GPa)
#
#
# Indices 1 2 3 4 5 6 
#
# 1 42.8891 4.2193 13.6167 0.0000 -10.8586 0.0000
# 2 4.2193 56.9782 17.2800 0.0000 -8.6538 0.0000
# 3 13.6167 17.2800 25.7771 0.0000 -10.3706 0.0000
# 4 0.0000 0.0000 0.0000 18.8479 0.0000 -4.5896
# 5 -10.8586 -8.6538 -10.3706 0.0000 24.2780 0.0000
# 6 0.0000 0.0000 0.0000 -4.5896 0.0000 29.3932
#
#
#
# Elastic Compliance Matrix: (Units=1/GPa)
#
#
# Indices 1 2 3 4 5 6 
#
# 1 0.029744 0.003526 -0.014754 0.000000 0.008258 0.000000
# 2 0.003526 0.022517 -0.015811 0.000000 0.002849 0.000000
# 3 -0.014754 -0.015811 0.063110 0.000000 0.014724 0.000000
# 4 0.000000 0.000000 0.000000 0.055153 0.000000 0.008612
# 5 0.008258 0.002849 0.014724 0.000000 0.052188 0.000000
# 6 0.000000 0.000000 0.000000 0.008612 0.000000 0.035366
#
#
# Mechanical properties :
#
#
# Convention : Reuss Voigt Hill
#
# Bulk Modulus (GPa) = 16.31468 21.76406 19.03937
# Shear Modulus (GPa) = 15.03363 20.53905 17.78634
#
# Velocity S-wave (km/s) = 2.64791 3.09500 2.88014
# Velocity P-wave (km/s) = 4.11794 4.78774 4.46542
#
# Compressibility (1/GPa) = 0.06129449
#
# Stress axis : x y z
#
# Youngs Moduli (GPa) = 33.62034 44.41029 15.84525
#
# Poissons Ratio (x) = -0.15659 0.23377
# Poissons Ratio (y) = -0.11855 0.25053
# Poissons Ratio (z) = 0.49602 0.70217
#
# Static dielectric constant tensor:
#      x y z
#    x 1.809840 0.000000 -0.030510 
#    y 0.000000 1.746660 0.000000 
#    z -0.030510 0.000000 1.829490 
# 
# From -- ./inp_files/82261.got.cif
#   From: 2010.05.17/outbox.ucp.g08.bks.cvg/sg10_42_cif.got.tgz:82261.got - 2010.06.11 11:31:16.
