data_PCOD9155076
_publ_section_title
;
Structure prediction by ZEFSAII (Michael W. Deem and Ramdas Pophale) SiO2 
 PCOD9155076
Probable space group: P 2/M
;
_chemical_formula_sum "Si O2"
_cell_formula_units_Z 28
_cell_length_a 26.888351
_cell_length_b 9.594505
_cell_length_c 7.665111
_cell_angle_alpha 90.000000
_cell_angle_beta 135.453418
_cell_angle_gamma 90.000000
_cell_volume 1387.158225
_symmetry_space_group_name_H-M "P 2/M"
_symmetry_group_IT_number 10
_symmetry_cell_setting 'monoclinic'
loop_
_space_group_symop_operation_xyz
x,y,z
-x,y,-z
-x,-y,-z
x,-y,z
loop_
_atom_site_type_symbol
_atom_site_label
_atom_site_fract_x
_atom_site_fract_y
_atom_site_fract_z
Si Si1 0.079690 0.658991 0.158573
Si Si2 0.920310 0.341009 0.260122
Si Si3 0.212735 0.160135 0.495962
Si Si4 0.500000 0.658986 0.292534
Si Si5 0.345708 0.659316 0.822099
Si Si6 0.787265 0.160135 0.932286
Si Si7 0.654292 0.659316 0.593561
O O1 0.087562 0.500000 0.245047
O O2 0.085974 0.652667 0.964936
O O3 0.141960 0.759306 0.376931
O O4 0.000000 0.706902 0.000000
O O5 0.912439 0.500000 0.307240
O O6 0.000000 0.293097 0.500000
O O7 0.858040 0.240694 0.167131
O O8 0.282011 0.245159 0.728438
O O9 0.212945 0.160022 0.282363
O O10 0.213830 0.000000 0.554600
O O11 0.500000 0.652256 0.500000
O O12 0.500000 0.500000 0.219688
O O13 0.575662 0.719925 0.427967
O O14 0.424339 0.719924 0.049658
O O15 0.343011 0.500000 0.885847
O O16 0.336552 0.649160 0.591380
O O17 0.717989 0.245159 0.818386
O O18 0.786170 0.000000 0.985452
O O19 0.656989 0.500000 0.670791
#
# Coordination Sequence:
#
# PCOD9155076 Si02
#       7
#     4   4   4   4   4   4   4
#     4   9  17  30  48  69  92 118 149 185 224 265
#     4   9  17  30  48  69  92 118 149 185 224 265
#     4   9  17  29  46  68  92 118 150 187 224 262
#     4   9  17  29  46  69  94 118 146 183 226 268
#     4   9  16  28  48  70  89 113 149 189 224 261
#     4   9  17  29  46  68  92 118 150 187 224 262
#     4   9  16  28  48  70  89 113 149 189 224 261
#
# _framework density 20.185153
#
# number of rings (size 3 to 8) (size 9 to 14) (size 15 to 20)
#    0.000    3.000    0.000    1.286    0.000    5.714 
#    0.000    2.143    0.000   13.714    0.000    0.000 
#    0.000    0.000    0.000    0.000    0.000    0.000 
#
# Total GULP energy -156135.889688 kJ/mol
# GULP energy per Si atom -5576.281775 kJ/mol
# Density = 2.013921 g / cm^3
# Si number density = 20.185153 Si / 1000 Ang^3
#
#
#
# Elastic Constant Matrix: (Units=GPa)
#
#
# Indices 1 2 3 4 5 6 
#
# 1 64.2455 49.5335 48.2029 0.0000 37.0397 0.0000
# 2 49.5335 109.1561 80.1604 0.0000 56.1061 0.0000
# 3 48.2029 80.1604 118.7781 0.0000 62.8592 0.0000
# 4 0.0000 0.0000 0.0000 210.0307 0.0000 158.0808
# 5 37.0397 56.1061 62.8592 0.0000 65.4294 0.0000
# 6 0.0000 0.0000 0.0000 158.0808 0.0000 123.7382
#
#
#
# Elastic Compliance Matrix: (Units=1/GPa)
#
#
# Indices 1 2 3 4 5 6 
#
# 1 0.026611 -0.006538 -0.002811 0.000000 -0.006758 0.000000
# 2 -0.006538 0.021917 -0.008443 0.000000 -0.006981 0.000000
# 3 -0.002811 -0.008443 0.021531 0.000000 -0.011854 0.000000
# 4 0.000000 0.000000 0.000000 0.123829 0.000000 -0.158197
# 5 -0.006758 -0.006981 -0.011854 0.000000 0.036484 0.000000
# 6 0.000000 0.000000 0.000000 -0.158197 0.000000 0.210185
#
#
# Mechanical properties :
#
#
# Convention : Reuss Voigt Hill
#
# Bulk Modulus (GPa) = 29.00661 71.99704 50.50183
# Shear Modulus (GPa) = 10.25359 87.45850 48.85605
#
# Velocity S-wave (km/s) = 2.25628 6.58955 4.92509
# Velocity P-wave (km/s) = 4.60317 9.67688 7.57731
#
# Compressibility (1/GPa) = 0.03447490
#
# Stress axis : x y z
#
# Youngs Moduli (GPa) = 37.57815 45.62708 46.44397
#
# Poissons Ratio (x) = 0.29832 0.13053
# Poissons Ratio (y) = 0.24570 0.39215
# Poissons Ratio (z) = 0.10561 0.38525
#
# Static dielectric constant tensor:
#      x y z
#    x 1.737220 0.000000 -0.017280 
#    y 0.000000 1.691200 0.000000 
#    z -0.017280 0.000000 1.727790 
# 
# From -- ./inp_files/37284.got.cif
#   From: 2010.05.17/outbox.cif.g08.bks.cpg/sg10_19_cif.got.tgz:37284.got - 2010.06.03 11:33:40.
