data_PCOD9155066
_publ_section_title
;
Structure prediction by ZEFSAII (Michael W. Deem and Ramdas Pophale) SiO2 
 PCOD9155066
Probable space group: P 2/M
;
_chemical_formula_sum "Si O2"
_cell_formula_units_Z 28
_cell_length_a 23.778245
_cell_length_b 9.603224
_cell_length_c 20.953558
_cell_angle_alpha 90.000000
_cell_angle_beta 19.159780
_cell_angle_gamma 90.000000
_cell_volume 1570.355678
_symmetry_space_group_name_H-M "P 2/M"
_symmetry_group_IT_number 10
_symmetry_cell_setting 'monoclinic'
loop_
_space_group_symop_operation_xyz
x,y,z
-x,y,-z
-x,-y,-z
x,-y,z
loop_
_atom_site_type_symbol
_atom_site_label
_atom_site_fract_x
_atom_site_fract_y
_atom_site_fract_z
Si Si1 0.856953 0.337883 0.337073
Si Si2 0.083011 0.840581 0.845789
Si Si3 0.731052 0.669643 0.931615
Si Si4 0.449023 0.662117 0.745002
Si Si5 0.893719 0.330358 0.443614
Si Si6 0.537425 0.670167 0.887731
Si Si7 0.488187 0.840581 0.440613
O O1 0.907146 0.500000 0.278450
O O2 0.945654 0.249714 0.186463
O O3 0.650930 0.331278 0.547210
O O4 0.893088 0.287872 0.370040
O O5 0.287188 0.843676 0.638434
O O6 0.022705 0.000000 0.901837
O O7 0.000000 0.784984 0.000000
O O8 0.725920 0.500000 0.937130
O O9 0.608440 0.715562 0.005780
O O10 0.928405 0.712399 0.714783
O O11 0.656216 0.712127 0.080656
O O12 0.407257 0.500000 0.778340
O O13 0.422229 0.750286 0.709888
O O14 0.888971 0.500000 0.447979
O O15 0.722664 0.284435 0.663116
O O16 0.537528 0.500000 0.887423
O O17 0.500000 0.714676 0.000000
O O18 0.500000 0.784987 0.500000
O O19 0.552749 0.000000 0.371793
#
# Coordination Sequence:
#
# PCOD9155066 Si02
#       7
#     4   4   4   4   4   4   4
#     4   9  16  28  45  62  85 119 154 190 232 276
#     4   9  18  31  45  62  87 118 150 188 234 279
#     4   9  16  26  41  62  88 119 155 192 231 274
#     4   9  16  28  45  62  85 119 154 190 232 276
#     4   9  16  26  41  62  88 119 155 192 231 274
#     4   9  16  26  40  60  91 127 157 189 231 279
#     4   9  18  31  45  62  87 118 150 188 234 279
#
# _framework density 17.830355999999998
#
# number of rings (size 3 to 8) (size 9 to 14) (size 15 to 20)
#    0.000    3.000    1.429    0.000    0.000    2.286 
#    0.000    2.857    0.000    0.000    0.000    0.000 
#    0.000    2.286    0.000    2.571    0.000    2.857 
#
# Total GULP energy -156021.997078 kJ/mol
# GULP energy per Si atom -5572.214181 kJ/mol
# Density = 1.778977 g / cm^3
# Si number density = 17.830356 Si / 1000 Ang^3
#
#
#
# Elastic Constant Matrix: (Units=GPa)
#
#
# Indices 1 2 3 4 5 6 
#
# 1 149.5681 32.4453 86.6754 0.0000 26.1197 0.0000
# 2 32.4453 16.5070 24.7395 0.0000 8.4483 0.0000
# 3 86.6754 24.7395 108.9806 0.0000 18.3815 0.0000
# 4 0.0000 0.0000 0.0000 1.0695 0.0000 -4.9603
# 5 26.1197 8.4483 18.3815 0.0000 28.0185 0.0000
# 6 0.0000 0.0000 0.0000 -4.9603 0.0000 -3.4526
#
#
#
# Elastic Compliance Matrix: (Units=1/GPa)
#
#
# Indices 1 2 3 4 5 6 
#
# 1 0.015662 -0.016647 -0.007940 0.000000 -0.004372 0.000000
# 2 -0.016647 0.116145 -0.011061 0.000000 -0.012246 0.000000
# 3 -0.007940 -0.011061 0.018205 0.000000 -0.001207 0.000000
# 4 0.000000 0.000000 0.000000 0.122016 0.000000 -0.175295
# 5 -0.004372 -0.012246 -0.001207 0.000000 0.044250 0.000000
# 6 0.000000 0.000000 0.000000 -0.175295 0.000000 -0.037795
#
#
# Mechanical properties :
#
#
# Convention : Reuss Voigt Hill
#
# Bulk Modulus (GPa) = 12.70373 62.53067 37.61720
# Shear Modulus (GPa) = 13.29729 13.87343 13.58536
#
# Velocity S-wave (km/s) = 2.73384 2.79243 2.76329
# Velocity P-wave (km/s) = 4.13587 6.74854 5.59679
#
# Compressibility (1/GPa) = 0.07871702
#
# Stress axis : x y z
#
# Youngs Moduli (GPa) = 63.84992 8.60994 54.92946
#
# Poissons Ratio (x) = 0.14333 0.43613
# Poissons Ratio (y) = 1.06289 0.60757
# Poissons Ratio (z) = 0.50696 0.09523
#
# Static dielectric constant tensor:
#      x y z
#    x 1.610720 0.000000 -0.023660 
#    y 0.000000 1.589280 0.000000 
#    z -0.023660 0.000000 1.632300 
# 
# From -- ./inp_files/34544.got.cif
#   From: 2010.05.17/outbox.cif.g08.bks.cpg/sg10_18_cif.got.tgz:34544.got - 2010.06.03 11:33:40.
