data_PCOD9155968
_publ_section_title
;
Structure prediction by ZEFSAII (Michael W. Deem and Ramdas Pophale) SiO2 
 PCOD9155968
Probable space group: P 21/M
;
_chemical_formula_sum "Si O2"
_cell_formula_units_Z 32
_cell_length_a 12.873687
_cell_length_b 7.297756
_cell_length_c 16.827693
_cell_angle_alpha 90.000000
_cell_angle_beta 47.515136
_cell_angle_gamma 90.000000
_cell_volume 1165.877312
_symmetry_space_group_name_H-M "P 21/M"
_symmetry_group_IT_number 11
_symmetry_cell_setting 'monoclinic'
loop_
_space_group_symop_operation_xyz
x,y,z
-x,1/2+y,-z
-x,-y,-z
x,1/2-y,z
loop_
_atom_site_type_symbol
_atom_site_label
_atom_site_fract_x
_atom_site_fract_y
_atom_site_fract_z
Si Si1 0.967266 0.474095 0.208474
Si Si2 0.856252 0.967115 0.027359
Si Si3 0.762773 0.958655 0.617300
Si Si4 0.110412 0.473315 0.286588
Si Si5 0.637033 0.526827 0.527677
Si Si6 0.349672 0.466316 0.040878
Si Si7 0.438629 0.470075 0.819367
Si Si8 0.671967 0.462226 0.322534
O O1 0.962201 0.250000 0.210173
O O2 0.827246 0.545782 0.238403
O O3 0.099168 0.529784 0.085117
O O4 0.984525 0.529045 0.291758
O O5 0.839102 0.750000 0.029909
O O6 0.710500 0.026374 0.146013
O O7 0.000000 0.000000 0.000000
O O8 0.811205 0.750000 0.582103
O O9 0.856885 0.037485 0.640498
O O10 0.747737 0.040543 0.536690
O O11 0.595986 0.954397 0.727659
O O12 0.108360 0.250000 0.292536
O O13 0.241089 0.533094 0.163564
O O14 0.636716 0.750000 0.529314
O O15 0.656728 0.467050 0.427627
O O16 0.477103 0.463345 0.632840
O O17 0.317646 0.250000 0.050665
O O18 0.500000 0.500000 0.000000
O O19 0.380654 0.528817 0.935693
O O20 0.456417 0.250000 0.807064
O O21 0.675727 0.250000 0.300084
#
# Coordination Sequence:
#
# PCOD9155968 Si02
#       8
#     4   4   4   4   4   4   4   4
#     4   9  17  32  54  75  99 135 175 206 240 301
#     4  10  21  35  50  72 104 139 172 211 250 292
#     4  10  20  32  52  78 103 134 170 209 253 299
#     4   9  16  29  48  72 101 133 170 205 240 292
#     4   9  19  35  53  77 102 122 158 213 264 303
#     4  10  17  28  46  68  96 132 171 205 237 281
#     4  10  20  32  47  72 105 138 170 207 251 292
#     4   9  18  34  57  77  93 126 169 206 252 307
#
# _framework density 27.447140000000001
#
# number of rings (size 3 to 8) (size 9 to 14) (size 15 to 20)
#    0.000    2.500    2.500    0.000    1.750    1.000 
#    0.000    1.250    0.000    2.250    0.000    0.000 
#    0.000    0.000    0.000    0.000    0.000    0.000 
#
# Total GULP energy -178600.857126 kJ/mol
# GULP energy per Si atom -5581.276785 kJ/mol
# Density = 2.738467 g / cm^3
# Si number density = 27.447140 Si / 1000 Ang^3
#
#
#
# Elastic Constant Matrix: (Units=GPa)
#
#
# Indices 1 2 3 4 5 6 
#
# 1 158.8767 10.9468 -20.4895 0.0000 29.9686 0.0000
# 2 10.9468 132.0489 4.9010 0.0000 10.7936 0.0000
# 3 -20.4895 4.9010 80.5581 0.0000 -2.9385 0.0000
# 4 0.0000 0.0000 0.0000 15.5163 0.0000 1.4748
# 5 29.9686 10.7936 -2.9385 0.0000 39.9613 0.0000
# 6 0.0000 0.0000 0.0000 1.4748 0.0000 6.2917
#
#
#
# Elastic Compliance Matrix: (Units=1/GPa)
#
#
# Indices 1 2 3 4 5 6 
#
# 1 0.007570 -0.000244 0.001740 0.000000 -0.005483 0.000000
# 2 -0.000244 0.007776 -0.000607 0.000000 -0.001962 0.000000
# 3 0.001740 -0.000607 0.012886 0.000000 -0.000194 0.000000
# 4 0.000000 0.000000 0.000000 0.065917 0.000000 -0.015452
# 5 -0.005483 -0.001962 -0.000194 0.000000 0.029652 0.000000
# 6 0.000000 0.000000 0.000000 -0.015452 0.000000 0.162561
#
#
# Mechanical properties :
#
#
# Convention : Reuss Voigt Hill
#
# Bulk Modulus (GPa) = 33.32161 40.24451 36.78306
# Shear Modulus (GPa) = 16.97300 37.42889 27.20094
#
# Velocity S-wave (km/s) = 2.48944 3.69680 3.15148
# Velocity P-wave (km/s) = 4.51992 5.73726 5.16458
#
# Compressibility (1/GPa) = 0.03001056
#
# Stress axis : x y z
#
# Youngs Moduli (GPa) = 132.10656 128.59973 77.60457
#
# Poissons Ratio (x) = 0.03137 -0.13504
# Poissons Ratio (y) = 0.03223 0.04708
# Poissons Ratio (z) = -0.22988 0.07802
#
# Static dielectric constant tensor:
#      x y z
#    x 2.351080 0.000000 0.081980 
#    y 0.000000 1.803210 0.000000 
#    z 0.081980 0.000000 2.236540 
# 
# From -- ./inp_files/59062.got.cif
#   From: 2010.05.17/outbox.cif.g08.bks.cpg/sg11_30_cif.got.tgz:59062.got - 2010.06.03 12:22:45.
