data_PCOD9155506
_publ_section_title
;
Structure prediction by ZEFSAII (Michael W. Deem and Ramdas Pophale) SiO2 
 PCOD9155506
Probable space group: P 2/M
;
_chemical_formula_sum "Si O2"
_cell_formula_units_Z 32
_cell_length_a 15.000000
_cell_length_b 9.000000
_cell_length_c 12.000000
_cell_angle_alpha 90.000000
_cell_angle_beta 90.000000
_cell_angle_gamma 90.000000
_cell_volume 1620.000000
_symmetry_space_group_name_H-M "P 2/M"
_symmetry_group_IT_number 10
_symmetry_cell_setting 'monoclinic'
loop_
_space_group_symop_operation_xyz
x,y,z
-x,y,-z
-x,-y,-z
x,-y,z
loop_
_atom_site_type_symbol
_atom_site_label
_atom_site_fract_x
_atom_site_fract_y
_atom_site_fract_z
Si Si1 0.692068 0.819518 0.766015
Si Si2 0.095286 0.327694 0.440117
Si Si3 0.270407 0.179051 0.486808
Si Si4 0.658635 0.178893 0.282927
Si Si5 0.505487 0.818589 0.871188
Si Si6 0.156233 0.825345 0.057186
Si Si7 0.987438 0.827755 0.762115
Si Si8 0.166357 0.324411 0.819488
O O1 0.703152 0.771880 0.637915
O O2 0.598261 0.771262 0.816818
O O3 0.769779 0.777823 0.852182
O O4 0.693377 0.000000 0.763155
O O5 0.114322 0.500000 0.415298
O O6 0.175719 0.256824 0.509345
O O7 0.081721 0.230641 0.329446
O O8 0.000000 0.319880 0.500000
O O9 0.339765 0.215359 0.585220
O O10 0.258878 0.000000 0.486280
O O11 0.575790 0.229784 0.207753
O O12 0.748450 0.245501 0.233024
O O13 0.661773 0.000000 0.274642
O O14 0.504427 0.000000 0.872385
O O15 0.500000 0.770498 0.000000
O O16 0.061796 0.816515 0.119463
O O17 0.171957 0.000000 0.028549
O O18 0.160529 0.728225 0.947419
O O19 0.075814 0.730942 0.761782
O O20 0.008632 0.000000 0.741058
O O21 0.174042 0.500000 0.810093
#
# Coordination Sequence:
#
# PCOD9155506 Si02
#       8
#     4   4   4   4   4   4   4   4
#     4   9  17  33  58  88 119 149 189 244 300 351
#     4  11  23  37  55  81 116 158 201 243 290 345
#     4  10  20  36  57  84 116 152 198 246 293 347
#     4  10  21  37  59  86 115 153 199 243 292 348
#     4   9  17  31  57  90 120 151 191 242 298 351
#     4  10  20  37  60  84 114 152 193 238 294 354
#     4  11  22  38  60  85 113 150 195 243 294 349
#     4  12  25  38  55  82 118 156 195 243 295 348
#
# _framework density 19.753086
#
# number of rings (size 3 to 8) (size 9 to 14) (size 15 to 20)
#    0.000    1.750    1.250    3.750    0.000    8.500 
#    0.000    2.500    0.000    4.125    0.000    1.750 
#    0.000    0.000    0.000    0.000    0.000    0.000 
#
# Total GULP energy -178719.718525 kJ/mol
# GULP energy per Si atom -5584.991204 kJ/mol
# Density = 1.970813 g / cm^3
# Si number density = 19.753086 Si / 1000 Ang^3
#
#
#
# Elastic Constant Matrix: (Units=GPa)
#
#
# Indices 1 2 3 4 5 6 
#
# 1 103.0663 3.5092 32.5932 0.0000 15.9691 0.0000
# 2 3.5092 3.6487 18.0327 0.0000 3.0849 0.0000
# 3 32.5932 18.0327 94.1129 0.0000 15.9737 0.0000
# 4 0.0000 0.0000 0.0000 -1.5542 0.0000 -7.1528
# 5 15.9691 3.0849 15.9737 0.0000 30.1889 0.0000
# 6 0.0000 0.0000 0.0000 -7.1528 0.0000 -8.4248
#
#
#
# Elastic Compliance Matrix: (Units=1/GPa)
#
#
# Indices 1 2 3 4 5 6 
#
# 1 0.020462 0.290287 -0.061345 0.000000 -0.008028 0.000000
# 2 0.290287 9.286239 -1.859739 0.000000 -0.118440 0.000000
# 3 -0.061345 -1.859739 0.385025 0.000000 0.018762 0.000000
# 4 0.000000 0.000000 0.000000 0.221303 0.000000 -0.187891
# 5 -0.008028 -0.118440 0.018762 0.000000 0.039547 0.000000
# 6 0.000000 0.000000 0.000000 -0.187891 0.000000 0.040826
#
#
# Mechanical properties :
#
#
# Convention : Reuss Voigt Hill
#
# Bulk Modulus (GPa) = 0.15552 34.34423 17.24987
# Shear Modulus (GPa) = 0.32471 13.82150 7.07310
#
# Velocity S-wave (km/s) = 0.40588 2.64808 1.89434
# Velocity P-wave (km/s) = 0.54640 5.17439 3.67919
#
# Compressibility (1/GPa) = 6.43013340
#
# Stress axis : x y z
#
# Youngs Moduli (GPa) = 48.87106 0.10769 2.59723
#
# Poissons Ratio (x) = -0.03126 0.15933
# Poissons Ratio (y) = -14.18662 4.83017
# Poissons Ratio (z) = 2.99799 0.20027
#
# Static dielectric constant tensor:
#      x y z
#    x 1.687310 0.000000 -0.001650 
#    y 0.000000 1.648030 0.000000 
#    z -0.001650 0.000000 1.722910 
# 
# From -- ./inp_files/49806.got.cif
#   From: 2010.05.17/outbox.ucp.g08.bks.cvg/sg10_25_cif.got.tgz:49806.got - 2010.06.11 11:31:16.
