data_PCOD9155562
_publ_section_title
;
Structure prediction by ZEFSAII (Michael W. Deem and Ramdas Pophale) SiO2 
 PCOD9155562
Probable space group: P 2/M
;
_chemical_formula_sum "Si O2"
_cell_formula_units_Z 32
_cell_length_a 24.000000
_cell_length_b 9.000000
_cell_length_c 15.000000
_cell_angle_alpha 90.000000
_cell_angle_beta 30.000000
_cell_angle_gamma 90.000000
_cell_volume 1620.000000
_symmetry_space_group_name_H-M "P 2/M"
_symmetry_group_IT_number 10
_symmetry_cell_setting 'monoclinic'
loop_
_space_group_symop_operation_xyz
x,y,z
-x,y,-z
-x,-y,-z
x,-y,z
loop_
_atom_site_type_symbol
_atom_site_label
_atom_site_fract_x
_atom_site_fract_y
_atom_site_fract_z
Si Si1 0.412813 0.174701 0.872307
Si Si2 0.212424 0.327593 0.066190
Si Si3 0.460309 0.669658 0.453399
Si Si4 0.985685 0.179090 0.417414
Si Si5 0.223610 0.329713 0.849245
Si Si6 0.003461 0.178023 0.096508
Si Si7 0.568504 0.819216 0.817486
Si Si8 0.821771 0.181555 0.492315
O O1 0.479942 0.210419 0.689638
O O2 0.494027 0.230944 0.837585
O O3 0.392651 0.000000 0.912632
O O4 0.294593 0.254841 0.023921
O O5 0.194303 0.500000 0.111684
O O6 0.096158 0.242941 0.219592
O O7 0.263773 0.316849 0.895897
O O8 0.500000 0.676736 0.500000
O O9 0.484083 0.500000 0.388526
O O10 0.327826 0.693840 0.640332
O O11 0.878006 0.225727 0.508922
O O12 0.000000 0.227655 0.500000
O O13 0.987931 0.000000 0.413014
O O14 0.184459 0.500000 0.893241
O O15 0.122331 0.222037 0.971049
O O16 0.904815 0.230759 0.298277
O O17 0.993823 0.000000 0.107066
O O18 0.000000 0.235128 0.000000
O O19 0.695935 0.767128 0.649011
O O20 0.573420 0.000000 0.805009
O O21 0.500000 0.780008 0.000000
O O22 0.819693 0.000000 0.495455
#
# Coordination Sequence:
#
# PCOD9155562 Si02
#       8
#     4   4   4   4   4   4   4   4
#     4  11  23  36  59  91 117 149 202 250 288 345
#     4  11  22  39  60  83 119 158 194 239 296 355
#     4  10  20  38  57  78 115 158 189 224 288 355
#     4  10  21  36  61  92 117 145 190 245 297 351
#     4  10  21  37  57  79 111 155 196 233 282 351
#     4  10  21  35  56  83 115 151 186 235 294 345
#     4   9  20  37  58  84 117 155 193 240 296 350
#     4   9  18  35  55  82 119 151 183 233 292 345
#
# _framework density 19.753086
#
# number of rings (size 3 to 8) (size 9 to 14) (size 15 to 20)
#    0.000    2.000    2.500    0.750    3.500    1.750 
#    0.000    0.000    0.000    3.000    0.000    0.000 
#    0.000    0.000    0.000    0.000    0.000    0.000 
#
# Total GULP energy -178455.510197 kJ/mol
# GULP energy per Si atom -5576.734694 kJ/mol
# Density = 1.970813 g / cm^3
# Si number density = 19.753086 Si / 1000 Ang^3
#
#
#
# Elastic Constant Matrix: (Units=GPa)
#
#
# Indices 1 2 3 4 5 6 
#
# 1 125.3839 9.5737 19.6794 0.0000 -16.4862 0.0000
# 2 9.5737 -18.7502 -10.5986 0.0000 1.9371 0.0000
# 3 19.6794 -10.5986 25.6494 0.0000 -15.2436 0.0000
# 4 0.0000 0.0000 0.0000 7.3376 0.0000 4.3128
# 5 -16.4862 1.9371 -15.2436 0.0000 31.0597 0.0000
# 6 0.0000 0.0000 0.0000 4.3128 0.0000 5.4512
#
#
#
# Elastic Compliance Matrix: (Units=1/GPa)
#
#
# Indices 1 2 3 4 5 6 
#
# 1 0.008268 0.005774 -0.002208 0.000000 0.002945 0.000000
# 2 0.005774 -0.037644 -0.023673 0.000000 -0.006206 0.000000
# 3 -0.002208 -0.023673 0.043878 0.000000 0.021839 0.000000
# 4 0.000000 0.000000 0.000000 0.254750 0.000000 -0.201551
# 5 0.002945 -0.006206 0.021839 0.000000 0.044865 0.000000
# 6 0.000000 0.000000 0.000000 -0.201551 0.000000 0.342908
#
#
# Mechanical properties :
#
#
# Convention : Reuss Voigt Hill
#
# Bulk Modulus (GPa) = -38.89274 18.84356 -10.02459
# Shear Modulus (GPa) = 7.26039 16.34495 11.80267
#
# Velocity S-wave (km/s) = 1.91926 2.87969 2.44705
# Velocity P-wave (km/s) = 3.84978 4.54060 1.70239
#
# Compressibility (1/GPa) = -0.02571174
#
# Stress axis : x y z
#
# Youngs Moduli (GPa) = 120.94251 -26.56443 22.79028
#
# Poissons Ratio (x) = 0.15338 0.05031
# Poissons Ratio (y) = -0.69831 0.53952
# Poissons Ratio (z) = 0.26700 -0.62887
#
# Static dielectric constant tensor:
#      x y z
#    x 1.799390 0.000000 0.017960 
#    y 0.000000 1.667200 0.000000 
#    z 0.017960 0.000000 1.722020 
# 
# From -- ./inp_files/71456.got.cif
#   From: 2010.05.17/outbox.ucp.g08.bks.cvg/sg10_36_cif.got.tgz:71456.got - 2010.06.11 11:31:16.
