data_PCOD9155716
_publ_section_title
;
Structure prediction by ZEFSAII (Michael W. Deem and Ramdas Pophale) SiO2 
 PCOD9155716
Probable space group: P 2/M
;
_chemical_formula_sum "Si O2"
_cell_formula_units_Z 20
_cell_length_a 9.000000
_cell_length_b 12.000000
_cell_length_c 18.000000
_cell_angle_alpha 90.000000
_cell_angle_beta 150.000000
_cell_angle_gamma 90.000000
_cell_volume 972.000000
_symmetry_space_group_name_H-M "P 2/M"
_symmetry_group_IT_number 10
_symmetry_cell_setting 'monoclinic'
loop_
_space_group_symop_operation_xyz
x,y,z
-x,y,-z
-x,-y,-z
x,-y,z
loop_
_atom_site_type_symbol
_atom_site_label
_atom_site_fract_x
_atom_site_fract_y
_atom_site_fract_z
Si Si1 0.169991 0.000000 0.262057
Si Si2 0.971256 0.367597 0.661270
Si Si3 0.874903 0.000000 0.590988
Si Si4 0.817805 0.794356 0.353488
Si Si5 0.685133 0.368210 0.688680
Si Si6 0.211405 0.818730 0.160249
O O1 0.521589 0.000000 0.430748
O O2 0.025360 0.000000 0.280019
O O3 0.111028 0.894186 0.185159
O O4 0.018273 0.500000 0.677216
O O5 0.911313 0.335888 0.720569
O O6 0.650588 0.341888 0.483962
O O7 0.220598 0.298804 0.726179
O O8 0.994561 0.891214 0.602790
O O9 0.532299 0.848910 0.266854
O O10 0.000000 0.740815 0.500000
O O11 0.699675 0.500000 0.702772
O O12 0.757498 0.304763 0.794498
O O13 0.000000 0.829159 0.000000
#
# Coordination Sequence:
#
# PCOD9155716 Si02
#       6
#     2   4   2   4   4   4
#     4  11  22  41  62  85 112 151 186 232 285 339
#     4   9  18  34  60  89 112 144 193 243 280 322
#     4  11  22  38  66  88 108 140 197 240 279 329
#     4  12  21  36  59  89 116 143 188 243 278 327
#     4   9  18  36  59  84 116 151 190 232 281 335
#     4  12  25  39  56  84 122 154 183 227 289 343
#
# _framework density 20.576132000000001
#
# number of rings (size 3 to 8) (size 9 to 14) (size 15 to 20)
#    0.000    1.400    4.000    3.600    0.000    4.800 
#    0.000    5.000    0.000    2.400    0.000    0.000 
#    0.000    0.000    0.000    0.000    0.000    0.000 
#
# Total GULP energy -111585.674049 kJ/mol
# GULP energy per Si atom -5579.283702 kJ/mol
# Density = 2.052930 g / cm^3
# Si number density = 20.576132 Si / 1000 Ang^3
#
#
#
# Elastic Constant Matrix: (Units=GPa)
#
#
# Indices 1 2 3 4 5 6 
#
# 1 102.3573 42.7483 15.7879 0.0000 -24.4551 0.0000
# 2 42.7483 56.1577 6.0876 0.0000 -12.7708 0.0000
# 3 15.7879 6.0876 47.2583 0.0000 -25.0232 0.0000
# 4 0.0000 0.0000 0.0000 -5.5924 0.0000 -5.7400
# 5 -24.4551 -12.7708 -25.0232 0.0000 18.9089 0.0000
# 6 0.0000 0.0000 0.0000 -5.7400 0.0000 54.6744
#
#
#
# Elastic Compliance Matrix: (Units=1/GPa)
#
#
# Indices 1 2 3 4 5 6 
#
# 1 0.021449 -0.007407 0.019473 0.000000 0.048507 0.000000
# 2 -0.007407 0.028025 0.012745 0.000000 0.026214 0.000000
# 3 0.019473 0.012745 0.103266 0.000000 0.170450 0.000000
# 4 0.000000 0.000000 0.000000 -0.161421 0.000000 -0.016947
# 5 0.048507 0.026214 0.170450 0.000000 0.358889 0.000000
# 6 0.000000 0.000000 0.000000 -0.016947 0.000000 0.016511
#
#
# Mechanical properties :
#
#
# Convention : Reuss Voigt Hill
#
# Bulk Modulus (GPa) = 4.94167 37.22454 21.08310
# Shear Modulus (GPa) = 13.00212 23.00815 18.00513
#
# Velocity S-wave (km/s) = 2.51649 3.34757 2.96133
# Velocity P-wave (km/s) = 3.29401 5.75083 4.68629
#
# Compressibility (1/GPa) = 0.20236087
#
# Stress axis : x y z
#
# Youngs Moduli (GPa) = 46.62229 35.68210 9.68374
#
# Poissons Ratio (x) = 0.26431 -0.18857
# Poissons Ratio (y) = 0.34534 -0.12342
# Poissons Ratio (z) = -0.90788 -0.45475
#
# Static dielectric constant tensor:
#      x y z
#    x 1.756390 0.000000 0.048240 
#    y 0.000000 1.737720 0.000000 
#    z 0.048240 0.000000 1.762840 
# 
# From -- ./inp_files/23608.got.cif
#   From: 2010.05.17/outbox.ucp.g08.bks.cvg/sg10_12_cif.got.tgz:23608.got - 2010.06.11 11:31:16.
