data_PCOD9155702
_publ_section_title
;
Structure prediction by ZEFSAII (Michael W. Deem and Ramdas Pophale) SiO2 
 PCOD9155702
Probable space group: P 2/M
;
_chemical_formula_sum "Si O2"
_cell_formula_units_Z 24
_cell_length_a 18.000000
_cell_length_b 12.000000
_cell_length_c 12.000000
_cell_angle_alpha 90.000000
_cell_angle_beta 30.000000
_cell_angle_gamma 90.000000
_cell_volume 1296.000000
_symmetry_space_group_name_H-M "P 2/M"
_symmetry_group_IT_number 10
_symmetry_cell_setting 'monoclinic'
loop_
_space_group_symop_operation_xyz
x,y,z
-x,y,-z
-x,-y,-z
x,-y,z
loop_
_atom_site_type_symbol
_atom_site_label
_atom_site_fract_x
_atom_site_fract_y
_atom_site_fract_z
Si Si1 0.637883 0.294767 0.741897
Si Si2 0.131100 0.500000 0.175976
Si Si3 0.185839 0.131492 0.134675
Si Si4 0.288274 0.312079 0.842213
Si Si5 0.214606 0.500000 0.318601
Si Si6 0.167645 0.131323 0.405228
Si Si7 0.392194 0.629575 0.474242
O O1 0.712092 0.395826 0.714383
O O2 0.751271 0.193146 0.601585
O O3 0.608705 0.325213 0.651102
O O4 0.500000 0.263610 0.000000
O O5 0.226763 0.500000 0.167557
O O6 0.960189 0.500000 0.431292
O O7 0.166634 0.393410 0.054084
O O8 0.223328 0.173389 0.211093
O O9 0.008535 0.148465 0.358157
O O10 0.214932 0.000000 0.093101
O O11 0.264567 0.194169 0.932236
O O12 0.442441 0.359971 0.690660
O O13 0.294526 0.313680 0.699921
O O14 0.194356 0.000000 0.372785
O O15 0.348869 0.500000 0.526261
#
# Coordination Sequence:
#
# PCOD9155702 Si02
#       7
#     4   2   4   4   2   4   4
#     4  12  23  36  56  81 115 149 177 229 284 332
#     4  11  20  34  57  79 104 144 184 235 267 318
#     4   9  18  36  62  85 112 144 183 235 279 319
#     4  11  20  37  60  80 106 147 195 224 274 331
#     4  11  23  33  51  84 112 134 186 231 274 327
#     4   9  19  37  59  86 113 144 186 230 277 328
#     4  11  22  39  55  80 114 152 187 225 276 335
#
# _framework density 18.518519000000001
#
# number of rings (size 3 to 8) (size 9 to 14) (size 15 to 20)
#    0.000    1.500    2.500    5.750    0.000    3.000 
#    0.000    7.500    0.000    2.000    0.000    0.000 
#    0.000    0.000    0.000    0.000    0.000    0.000 
#
# Total GULP energy -133834.267331 kJ/mol
# GULP energy per Si atom -5576.427805 kJ/mol
# Density = 1.847637 g / cm^3
# Si number density = 18.518519 Si / 1000 Ang^3
#
#
#
# Elastic Constant Matrix: (Units=GPa)
#
#
# Indices 1 2 3 4 5 6 
#
# 1 52.5330 23.0157 -42.8887 0.0000 16.5115 0.0000
# 2 23.0157 38.9141 19.8969 0.0000 5.1468 0.0000
# 3 -42.8887 19.8969 -27.9199 0.0000 15.4988 0.0000
# 4 0.0000 0.0000 0.0000 41.3913 0.0000 2.7989
# 5 16.5115 5.1468 15.4988 0.0000 32.7083 0.0000
# 6 0.0000 0.0000 0.0000 2.7989 0.0000 35.4826
#
#
#
# Elastic Compliance Matrix: (Units=1/GPa)
#
#
# Indices 1 2 3 4 5 6 
#
# 1 0.008572 0.000860 -0.011902 0.000000 0.001177 0.000000
# 2 0.000860 0.021478 0.009397 0.000000 -0.008266 0.000000
# 3 -0.011902 0.009397 -0.006590 0.000000 0.007652 0.000000
# 4 0.000000 0.000000 0.000000 0.024289 0.000000 -0.001916
# 5 0.001177 -0.008266 0.007652 0.000000 0.027654 0.000000
# 6 0.000000 0.000000 0.000000 -0.001916 0.000000 0.028334
#
#
# Mechanical properties :
#
#
# Convention : Reuss Voigt Hill
#
# Bulk Modulus (GPa) = 49.58002 7.06389 28.32195
# Shear Modulus (GPa) = 43.95543 26.14998 35.05271
#
# Velocity S-wave (km/s) = 4.87724 3.76187 4.35541
# Velocity P-wave (km/s) = 7.65166 4.76357 6.37337
#
# Compressibility (1/GPa) = 0.02016942
#
# Stress axis : x y z
#
# Youngs Moduli (GPa) = 116.65676 46.55950 -151.75238
#
# Poissons Ratio (x) = -0.04003 -1.80613
# Poissons Ratio (y) = -0.10030 1.42596
# Poissons Ratio (z) = 1.38843 -0.43750
#
# Static dielectric constant tensor:
#      x y z
#    x 1.636500 0.000000 -0.002470 
#    y 0.000000 1.628100 0.000000 
#    z -0.002470 0.000000 1.684130 
# 
# From -- ./inp_files/53613.got.cif
#   From: 2010.05.17/outbox.ucp.g08.bks.cvg/sg10_27_cif.got.tgz:53613.got - 2010.06.11 11:31:16.
