data_PCOD9155636
_publ_section_title
;
Structure prediction by ZEFSAII (Michael W. Deem and Ramdas Pophale) SiO2 
 PCOD9155636
Probable space group: P 2/M
;
_chemical_formula_sum "Si O2"
_cell_formula_units_Z 28
_cell_length_a 30.000000
_cell_length_b 9.000000
_cell_length_c 30.000000
_cell_angle_alpha 90.000000
_cell_angle_beta 170.000000
_cell_angle_gamma 90.000000
_cell_volume 1406.550239
_symmetry_space_group_name_H-M "P 2/M"
_symmetry_group_IT_number 10
_symmetry_cell_setting 'monoclinic'
loop_
_space_group_symop_operation_xyz
x,y,z
-x,y,-z
-x,-y,-z
x,-y,z
loop_
_atom_site_type_symbol
_atom_site_label
_atom_site_fract_x
_atom_site_fract_y
_atom_site_fract_z
Si Si1 0.377299 0.821659 0.622701
Si Si2 0.765081 0.336653 0.234919
Si Si3 0.525790 0.317938 0.474210
Si Si4 0.950940 0.324261 0.049060
Si Si5 0.191890 0.173159 0.808110
Si Si6 0.328593 0.321772 0.671408
Si Si7 0.102078 0.324720 0.897922
O O1 0.353161 0.746434 0.646840
O O2 0.138519 0.758593 0.360021
O O3 0.376128 0.000000 0.623874
O O4 0.639979 0.758593 0.861480
O O5 0.776904 0.500000 0.223096
O O6 0.781747 0.199995 0.218254
O O7 0.000000 0.332211 0.500000
O O8 0.500000 0.332211 0.000000
O O9 0.500000 0.279235 0.500000
O O10 0.527132 0.500000 0.472868
O O11 0.290248 0.259947 0.213789
O O12 0.786211 0.259947 0.709752
O O13 0.956664 0.500000 0.043336
O O14 0.924549 0.316633 0.075452
O O15 0.933589 0.256535 0.567488
O O16 0.185645 0.000000 0.814354
O O17 0.432512 0.256535 0.066410
O O18 0.328671 0.500000 0.671330
O O19 0.108740 0.500000 0.891259
#
# Coordination Sequence:
#
# PCOD9155636 Si02
#       7
#     4   4   4   4   4   4   4
#     4  12  25  42  62  89 122 154 196 250 304 353
#     4  10  21  38  61  89 123 164 208 251 298 356
#     4   9  15  24  40  67 106 147 182 225 288 348
#     4   9  17  28  45  71 105 145 187 232 282 344
#     4  12  25  42  65  96 130 162 202 255 309 356
#     4  12  25  44  67  91 122 163 206 245 298 366
#     4  11  22  39  61  86 118 158 201 242 295 361
#
# _framework density 19.906860999999999
#
# number of rings (size 3 to 8) (size 9 to 14) (size 15 to 20)
#    0.000    1.286    0.000    7.286    0.000    5.714 
#    0.000    0.000    0.000    0.000    0.000    0.000 
#    0.000   40.000    0.000    0.000    0.000    0.000 
#
# Total GULP energy -156371.223369 kJ/mol
# GULP energy per Si atom -5584.686549 kJ/mol
# Density = 1.986155 g / cm^3
# Si number density = 19.906861 Si / 1000 Ang^3
#
#
#
# Elastic Constant Matrix: (Units=GPa)
#
#
# Indices 1 2 3 4 5 6 
#
# 1 34.9669 39.4138 80.2088 0.0000 9.2767 0.0000
# 2 39.4138 156.8896 75.7650 0.0000 3.2051 0.0000
# 3 80.2088 75.7650 220.0305 0.0000 7.0395 0.0000
# 4 0.0000 0.0000 0.0000 23.5290 0.0000 6.6639
# 5 9.2767 3.2051 7.0395 0.0000 29.7916 0.0000
# 6 0.0000 0.0000 0.0000 6.6639 0.0000 -52.0557
#
#
#
# Elastic Compliance Matrix: (Units=1/GPa)
#
#
# Indices 1 2 3 4 5 6 
#
# 1 0.315169 -0.027997 -0.102985 0.000000 -0.070792 0.000000
# 2 -0.027997 0.010134 0.006522 0.000000 0.006087 0.000000
# 3 -0.102985 0.006522 0.039133 0.000000 0.022119 0.000000
# 4 0.000000 0.000000 0.000000 0.041014 0.000000 0.005250
# 5 -0.070792 0.006087 0.022119 0.000000 0.049729 0.000000
# 6 0.000000 0.000000 0.000000 0.005250 0.000000 -0.018538
#
#
# Mechanical properties :
#
#
# Convention : Reuss Voigt Hill
#
# Bulk Modulus (GPa) = 8.65686 89.18469 48.92077
# Shear Modulus (GPa) = 6.90545 14.68626 10.79586
#
# Velocity S-wave (km/s) = 1.86451 2.71910 2.33130
# Velocity P-wave (km/s) = 2.99889 7.39975 5.64578
#
# Compressibility (1/GPa) = 0.11551535
#
# Stress axis : x y z
#
# Youngs Moduli (GPa) = 3.17290 98.68256 25.55394
#
# Poissons Ratio (x) = 2.76285 2.63166
# Poissons Ratio (y) = 0.08883 -0.16666
# Poissons Ratio (z) = 0.32676 -0.64360
#
# Static dielectric constant tensor:
#      x y z
#    x 1.717830 0.000000 -0.001450 
#    y 0.000000 1.677230 0.000000 
#    z -0.001450 0.000000 1.701410 
# 
# From -- ./inp_files/96040.got.cif
#   From: 2010.05.17/outbox.ucp.g08.bks.cvg/sg10_49_cif.got.tgz:96040.got - 2010.06.11 11:31:16.
