data_PCOD9155876
_publ_section_title
;
Structure prediction by ZEFSAII (Michael W. Deem and Ramdas Pophale) SiO2 
 PCOD9155876
Probable space group: P 21/M
;
_chemical_formula_sum "Si O2"
_cell_formula_units_Z 32
_cell_length_a 23.454529
_cell_length_b 9.138735
_cell_length_c 16.845367
_cell_angle_alpha 90.000000
_cell_angle_beta 142.779283
_cell_angle_gamma 90.000000
_cell_volume 2184.075207
_symmetry_space_group_name_H-M "P 21/M"
_symmetry_group_IT_number 11
_symmetry_cell_setting 'monoclinic'
loop_
_space_group_symop_operation_xyz
x,y,z
-x,1/2+y,-z
-x,-y,-z
x,1/2-y,z
loop_
_atom_site_type_symbol
_atom_site_label
_atom_site_fract_x
_atom_site_fract_y
_atom_site_fract_z
Si Si1 0.930646 0.074921 0.485279
Si Si2 0.146519 0.418852 0.186169
Si Si3 0.055107 0.918321 0.945028
Si Si4 0.383782 0.424185 0.706324
Si Si5 0.457008 0.074996 0.030871
Si Si6 0.267977 0.422193 0.742264
Si Si7 0.240300 0.575707 0.432706
Si Si8 0.958153 0.076141 0.698378
O O1 0.934572 0.250000 0.482796
O O2 0.959004 0.035321 0.607147
O O3 0.824472 0.018942 0.354363
O O4 0.000000 0.000000 0.500000
O O5 0.175368 0.250000 0.211126
O O6 0.215937 0.509606 0.319716
O O7 0.045126 0.420879 0.118999
O O8 0.127115 0.492305 0.079789
O O9 0.083844 0.750000 0.969161
O O10 0.031792 0.991035 0.835006
O O11 0.394731 0.250000 0.709331
O O12 0.484058 0.501743 0.833266
O O13 0.320661 0.448221 0.716277
O O14 0.326684 0.495623 0.571064
O O15 0.472608 0.250000 0.046079
O O16 0.345310 0.050029 0.896861
O O17 0.500000 0.000000 0.000000
O O18 0.242834 0.250000 0.716616
O O19 0.254507 0.750000 0.444758
O O20 0.146692 0.548556 0.382740
O O21 0.974792 0.250000 0.724467
#
# Coordination Sequence:
#
# PCOD9155876 Si02
#       8
#     4   4   4   4   4   4   4   4
#     4  11  22  34  47  63  82 108 142 182 224 260
#     4   9  16  25  36  54  79 106 135 168 204 243
#     4   9  16  25  39  56  74 101 135 170 205 244
#     4  10  18  27  41  62  85 111 141 173 209 251
#     4   9  17  28  42  61  82 106 136 171 209 250
#     4   9  18  31  45  60  80 106 138 176 214 254
#     4  10  17  26  40  58  82 110 142 175 207 247
#     4   9  18  30  42  57  76 104 138 174 215 254
#
# _framework density 14.65151
#
# number of rings (size 3 to 8) (size 9 to 14) (size 15 to 20)
#    0.000    2.500    1.250    3.000    0.000    7.000 
#    0.000    0.000    0.000    0.000    0.000    0.000 
#    0.000    0.000    0.000    1.125    0.000   14.750 
#
# Total GULP energy -178284.901322 kJ/mol
# GULP energy per Si atom -5571.403166 kJ/mol
# Density = 1.461816 g / cm^3
# Si number density = 14.651510 Si / 1000 Ang^3
#
#
#
# Elastic Constant Matrix: (Units=GPa)
#
#
# Indices 1 2 3 4 5 6 
#
# 1 36.3763 33.5793 37.3568 0.0000 -7.3108 0.0000
# 2 33.5793 87.5982 80.0619 0.0000 -10.2378 0.0000
# 3 37.3568 80.0619 146.6285 0.0000 -20.3549 0.0000
# 4 0.0000 0.0000 0.0000 32.6524 0.0000 -2.2209
# 5 -7.3108 -10.2378 -20.3549 0.0000 10.8747 0.0000
# 6 0.0000 0.0000 0.0000 -2.2209 0.0000 14.7838
#
#
#
# Elastic Compliance Matrix: (Units=1/GPa)
#
#
# Indices 1 2 3 4 5 6 
#
# 1 0.045067 -0.013805 -0.002084 0.000000 0.013401 0.000000
# 2 -0.013805 0.027066 -0.012177 0.000000 -0.006591 0.000000
# 3 -0.002084 -0.012177 0.016501 0.000000 0.018022 0.000000
# 4 0.000000 0.000000 0.000000 0.030942 0.000000 0.004648
# 5 0.013401 -0.006591 0.018022 0.000000 0.128493 0.000000
# 6 0.000000 0.000000 0.000000 0.004648 0.000000 0.068340
#
#
# Mechanical properties :
#
#
# Convention : Reuss Voigt Hill
#
# Bulk Modulus (GPa) = 30.76548 63.62211 47.19380
# Shear Modulus (GPa) = 13.04204 19.63584 16.33894
#
# Velocity S-wave (km/s) = 2.98677 3.66483 3.34304
# Velocity P-wave (km/s) = 5.73918 7.83747 6.86892
#
# Compressibility (1/GPa) = 0.03250396
#
# Stress axis : x y z
#
# Youngs Moduli (GPa) = 22.18914 36.94618 60.60117
#
# Poissons Ratio (x) = 0.51005 0.12628
# Poissons Ratio (y) = 0.30632 0.73792
# Poissons Ratio (z) = 0.04624 0.44988
#
# Static dielectric constant tensor:
#      x y z
#    x 1.446480 0.000000 -0.007110 
#    y 0.000000 1.561110 0.000000 
#    z -0.007110 0.000000 1.500750 
# 
# From -- ./inp_files/51406.got.cif
#   From: 2010.05.17/outbox.cif.g08.bks.cpg/sg11_26_cif.got.tgz:51406.got - 2010.06.03 12:22:45.
