data_PCOD9155545
_publ_section_title
;
Structure prediction by ZEFSAII (Michael W. Deem and Ramdas Pophale) SiO2 
 PCOD9155545
Probable space group: P 2/M
;
_chemical_formula_sum "Si O2"
_cell_formula_units_Z 32
_cell_length_a 30.000000
_cell_length_b 9.000000
_cell_length_c 12.000000
_cell_angle_alpha 90.000000
_cell_angle_beta 30.000000
_cell_angle_gamma 90.000000
_cell_volume 1620.000000
_symmetry_space_group_name_H-M "P 2/M"
_symmetry_group_IT_number 10
_symmetry_cell_setting 'monoclinic'
loop_
_space_group_symop_operation_xyz
x,y,z
-x,y,-z
-x,-y,-z
x,-y,z
loop_
_atom_site_type_symbol
_atom_site_label
_atom_site_fract_x
_atom_site_fract_y
_atom_site_fract_z
Si Si1 0.717966 0.323105 0.961264
Si Si2 0.429306 0.677185 0.886720
Si Si3 0.060077 0.178897 0.143535
Si Si4 0.887479 0.675507 0.441516
Si Si5 0.622516 0.323898 0.545055
Si Si6 0.642024 0.825567 0.734131
Si Si7 0.774769 0.178177 0.070094
Si Si8 0.855820 0.825449 0.276320
O O1 0.715034 0.500000 0.991002
O O2 0.791988 0.296556 0.705420
O O3 0.624146 0.277598 0.108434
O O4 0.747207 0.241480 0.010052
O O5 0.413321 0.500000 0.935837
O O6 0.535089 0.700387 0.658594
O O7 0.392029 0.759818 0.076070
O O8 0.963254 0.250533 0.353250
O O9 0.052757 0.000000 0.160675
O O10 0.127154 0.222457 0.097357
O O11 0.102921 0.222344 0.930991
O O12 0.901535 0.500000 0.405895
O O13 0.889638 0.741189 0.312336
O O14 0.639651 0.500000 0.514198
O O15 0.605444 0.260937 0.705693
O O16 0.704985 0.239615 0.311644
O O17 0.749225 0.809348 0.499920
O O18 0.620304 0.000000 0.772562
O O19 0.771152 0.000000 0.076604
O O20 0.876560 0.000000 0.246180
#
# Coordination Sequence:
#
# PCOD9155545 Si02
#       8
#     4   4   4   4   4   4   4   4
#     4  10  23  43  62  84 119 158 200 249 299 353
#     4  10  22  41  62  88 123 162 201 240 297 364
#     4  10  22  41  61  85 121 159 193 239 300 362
#     4  11  23  38  61  92 121 153 198 248 292 348
#     4  11  23  39  63  90 121 161 199 243 300 359
#     4  11  21  36  61  92 125 158 198 247 296 351
#     4  11  24  43  64  87 117 155 204 252 298 354
#     4  10  20  37  60  86 121 161 194 235 299 359
#
# _framework density 19.753086
#
# number of rings (size 3 to 8) (size 9 to 14) (size 15 to 20)
#    0.000    1.500    2.500    2.250    0.000    8.500 
#    0.000    5.000    0.000    0.000    0.000    0.000 
#    0.000    0.000    0.000    0.000    0.000    0.000 
#
# Total GULP energy -178882.552435 kJ/mol
# GULP energy per Si atom -5590.079764 kJ/mol
# Density = 1.970813 g / cm^3
# Si number density = 19.753086 Si / 1000 Ang^3
#
#
#
# Elastic Constant Matrix: (Units=GPa)
#
#
# Indices 1 2 3 4 5 6 
#
# 1 158.3180 47.7816 10.5453 0.0000 -16.5111 0.0000
# 2 47.7816 36.5190 12.4457 0.0000 -11.5211 0.0000
# 3 10.5453 12.4457 10.0832 0.0000 -16.1843 0.0000
# 4 0.0000 0.0000 0.0000 -131.9902 0.0000 62.2513
# 5 -16.5111 -11.5211 -16.1843 0.0000 31.7005 0.0000
# 6 0.0000 0.0000 0.0000 62.2513 0.0000 8.7066
#
#
#
# Elastic Compliance Matrix: (Units=1/GPa)
#
#
# Indices 1 2 3 4 5 6 
#
# 1 0.078833 -0.310627 1.028294 0.000000 0.453149 0.000000
# 2 -0.310627 1.339346 -4.467777 0.000000 -1.955988 0.000000
# 3 1.028294 -4.467777 15.462009 0.000000 6.805762 0.000000
# 4 0.000000 0.000000 0.000000 -0.001733 0.000000 0.012390
# 5 0.453149 -1.955988 6.805762 0.000000 3.031284 0.000000
# 6 0.000000 0.000000 0.000000 0.012390 0.000000 0.026270
#
#
# Mechanical properties :
#
#
# Convention : Reuss Voigt Hill
#
# Bulk Modulus (GPa) = 0.10661 38.49616 19.30138
# Shear Modulus (GPa) = 0.16360 -9.37345 -4.60493
#
# Velocity S-wave (km/s) = 0.28810 -2.18074 -1.52850
# Velocity P-wave (km/s) = 0.40590 3.63183 2.58408
#
# Compressibility (1/GPa) = 9.37996884
#
# Stress axis : x y z
#
# Youngs Moduli (GPa) = 12.68509 0.74663 0.06467
#
# Poissons Ratio (x) = 0.23192 -0.06650
# Poissons Ratio (y) = 3.94033 0.28895
# Poissons Ratio (z) = -13.04401 3.33579
#
# Static dielectric constant tensor:
#      x y z
#    x 1.685960 0.000000 -0.028530 
#    y 0.000000 1.661610 0.000000 
#    z -0.028530 0.000000 1.695640 
# 
# From -- ./inp_files/49836.got.cif
#   From: 2010.05.17/outbox.ucp.g08.bks.cvg/sg10_25_cif.got.tgz:49836.got - 2010.06.11 11:31:16.
