data_PCOD9155531
_publ_section_title
;
Structure prediction by ZEFSAII (Michael W. Deem and Ramdas Pophale) SiO2 
 PCOD9155531
Probable space group: P 2/M
;
_chemical_formula_sum "Si O2"
_cell_formula_units_Z 26
_cell_length_a 9.000000
_cell_length_b 21.000000
_cell_length_c 9.000000
_cell_angle_alpha 90.000000
_cell_angle_beta 130.000000
_cell_angle_gamma 90.000000
_cell_volume 1303.041598
_symmetry_space_group_name_H-M "P 2/M"
_symmetry_group_IT_number 10
_symmetry_cell_setting 'monoclinic'
loop_
_space_group_symop_operation_xyz
x,y,z
-x,y,-z
-x,-y,-z
x,-y,z
loop_
_atom_site_type_symbol
_atom_site_label
_atom_site_fract_x
_atom_site_fract_y
_atom_site_fract_z
Si Si1 0.000000 0.829401 0.500000
Si Si2 0.557321 0.803968 0.209997
Si Si3 0.340744 0.926655 0.198089
Si Si4 0.804147 0.574549 0.471995
Si Si5 0.909059 0.428636 0.099183
Si Si6 0.962802 0.928053 0.740853
Si Si7 0.543639 0.335017 0.855323
O O1 0.791507 0.794242 0.365008
O O2 0.988458 0.874965 0.634818
O O3 0.483580 0.868401 0.246702
O O4 0.459363 0.737941 0.206274
O O5 0.500000 0.813617 0.000000
O O6 0.231416 0.918010 0.285656
O O7 0.420889 0.000000 0.243294
O O8 0.156059 0.925335 0.967077
O O9 0.741492 0.500000 0.430645
O O10 0.629679 0.620928 0.319023
O O11 0.000000 0.579619 0.500000
O O12 0.901651 0.592627 0.688846
O O13 0.843387 0.500000 0.113488
O O14 0.739211 0.377036 0.979763
O O15 0.000000 0.437695 0.000000
O O16 0.952078 0.000000 0.672846
O O17 0.500000 0.325728 0.000000
#
# Coordination Sequence:
#
# PCOD9155531 Si02
#       7
#     2   4   4   4   4   4   4
#     4  12  23  38  60  90 125 152 206 252 302 368
#     4  11  25  41  59  91 123 167 200 254 312 364
#     4   9  19  41  64  87 121 159 204 254 307 364
#     4  10  20  36  64  95 119 157 208 249 294 353
#     4  10  22  41  64  95 129 160 200 254 307 357
#     4   9  19  37  65  92 117 154 199 255 313 366
#     4  11  23  39  62  89 127 164 208 246 308 365
#
# _framework density 19.953315
#
# number of rings (size 3 to 8) (size 9 to 14) (size 15 to 20)
#    0.000    1.846    3.077    1.615    1.077    3.385 
#    2.769    5.385    0.000    0.000    0.000    0.000 
#    0.000    0.000    0.000    0.000    0.000    0.000 
#
# Total GULP energy -144920.566502 kJ/mol
# GULP energy per Si atom -5573.867942 kJ/mol
# Density = 1.990790 g / cm^3
# Si number density = 19.953315 Si / 1000 Ang^3
#
#
#
# Elastic Constant Matrix: (Units=GPa)
#
#
# Indices 1 2 3 4 5 6 
#
# 1 22.2435 22.0202 -6.4152 0.0000 -8.4983 0.0000
# 2 22.0202 136.5396 21.5254 0.0000 7.9846 0.0000
# 3 -6.4152 21.5254 78.4054 0.0000 -8.3498 0.0000
# 4 0.0000 0.0000 0.0000 10.8821 0.0000 7.4964
# 5 -8.4983 7.9846 -8.3498 0.0000 17.2536 0.0000
# 6 0.0000 0.0000 0.0000 7.4964 0.0000 20.4086
#
#
#
# Elastic Compliance Matrix: (Units=1/GPa)
#
#
# Indices 1 2 3 4 5 6 
#
# 1 0.104862 -0.024952 0.023365 0.000000 0.074504 0.000000
# 2 -0.024952 0.013990 -0.008309 0.000000 -0.022786 0.000000
# 3 0.023365 -0.008309 0.019592 0.000000 0.024835 0.000000
# 4 0.000000 0.000000 0.000000 0.123024 0.000000 -0.045189
# 5 0.074504 -0.022786 0.024835 0.000000 0.117220 0.000000
# 6 0.000000 0.000000 0.000000 -0.045189 0.000000 0.065597
#
#
# Mechanical properties :
#
#
# Convention : Reuss Voigt Hill
#
# Bulk Modulus (GPa) = 8.42804 34.60549 21.51677
# Shear Modulus (GPa) = 9.92796 23.04607 16.48702
#
# Velocity S-wave (km/s) = 2.23302 3.40222 2.87763
# Velocity P-wave (km/s) = 3.29872 5.72838 4.67418
#
# Compressibility (1/GPa) = 0.11865152
#
# Stress axis : x y z
#
# Youngs Moduli (GPa) = 9.53637 71.47799 51.04140
#
# Poissons Ratio (x) = 1.78350 -1.19256
# Poissons Ratio (y) = 0.23795 0.42411
# Poissons Ratio (z) = -0.22281 0.59392
#
# Static dielectric constant tensor:
#      x y z
#    x 1.708510 0.000000 -0.033430 
#    y 0.000000 1.744780 0.000000 
#    z -0.033430 0.000000 1.726560 
# 
# From -- ./inp_files/20481.got.cif
#   From: 2010.05.17/outbox.ucp.g08.bks.cvg/sg10_11_cif.got.tgz:20481.got - 2010.06.11 11:31:16.
