data_PCOD9155600
_publ_section_title
;
Structure prediction by ZEFSAII (Michael W. Deem and Ramdas Pophale) SiO2 
 PCOD9155600
Probable space group: P 2/M
;
_chemical_formula_sum "Si O2"
_cell_formula_units_Z 28
_cell_length_a 30.000000
_cell_length_b 9.000000
_cell_length_c 30.000000
_cell_angle_alpha 90.000000
_cell_angle_beta 170.000000
_cell_angle_gamma 90.000000
_cell_volume 1406.550239
_symmetry_space_group_name_H-M "P 2/M"
_symmetry_group_IT_number 10
_symmetry_cell_setting 'monoclinic'
loop_
_space_group_symop_operation_xyz
x,y,z
-x,y,-z
-x,-y,-z
x,-y,z
loop_
_atom_site_type_symbol
_atom_site_label
_atom_site_fract_x
_atom_site_fract_y
_atom_site_fract_z
Si Si1 0.981456 0.173261 0.035064
Si Si2 0.651805 0.321250 0.884264
Si Si3 0.557239 0.320474 0.462646
Si Si4 0.970392 0.167638 0.585767
Si Si5 0.184303 0.180431 0.371647
Si Si6 0.448907 0.171561 0.122892
Si Si7 0.242673 0.668937 0.771824
O O1 0.717907 0.246506 0.794982
O O2 0.999488 0.000000 0.069087
O O3 0.000000 0.166532 0.000000
O O4 0.226918 0.273271 0.289297
O O5 0.649931 0.500000 0.875016
O O6 0.396180 0.240481 0.614620
O O7 0.629678 0.279968 0.914432
O O8 0.906056 0.249899 0.111073
O O9 0.530864 0.500000 0.432243
O O10 0.690785 0.246822 0.550603
O O11 0.699876 0.221963 0.341157
O O12 0.117891 0.250875 0.691337
O O13 0.911291 0.000000 0.511820
O O14 0.190604 0.162734 0.839783
O O15 0.168073 0.000000 0.354459
O O16 0.506794 0.000000 0.195220
O O17 0.313783 0.500000 0.854911
O O18 0.000000 0.664956 0.500000
O O19 0.500000 0.730503 0.000000
#
# Coordination Sequence:
#
# PCOD9155600 Si02
#       7
#     4   4   4   4   4   4   4
#     4  11  24  43  66  93 127 168 212 255 306 373
#     4  12  25  42  65  96 127 159 206 259 308 361
#     4  12  25  42  65  95 129 163 207 262 313 364
#     4  10  21  36  57  83 112 148 193 240 285 346
#     4  12  25  44  67  91 125 169 209 250 309 373
#     4  10  21  38  58  84 117 154 194 237 294 358
#     4  10  21  36  54  78 109 145 185 232 289 350
#
# _framework density 19.906860999999999
#
# number of rings (size 3 to 8) (size 9 to 14) (size 15 to 20)
#    0.000    1.000    0.000    7.286    0.000    5.714 
#    0.000    0.000    0.000    0.000    0.000    0.000 
#    0.000    0.000    0.000    0.000    0.000    0.000 
#
# Total GULP energy -156232.266407 kJ/mol
# GULP energy per Si atom -5579.723800 kJ/mol
# Density = 1.986155 g / cm^3
# Si number density = 19.906861 Si / 1000 Ang^3
#
#
#
# Elastic Constant Matrix: (Units=GPa)
#
#
# Indices 1 2 3 4 5 6 
#
# 1 53.9097 15.0381 -22.4791 0.0000 13.6606 0.0000
# 2 15.0381 129.7428 -0.4038 0.0000 8.3502 0.0000
# 3 -22.4791 -0.4038 79.8837 0.0000 23.5917 0.0000
# 4 0.0000 0.0000 0.0000 32.0791 0.0000 17.4951
# 5 13.6606 8.3502 23.5917 0.0000 48.0983 0.0000
# 6 0.0000 0.0000 0.0000 17.4951 0.0000 23.1220
#
#
#
# Elastic Compliance Matrix: (Units=1/GPa)
#
#
# Indices 1 2 3 4 5 6 
#
# 1 0.027275 -0.002290 0.011500 0.000000 -0.012989 0.000000
# 2 -0.002290 0.008005 -0.000451 0.000000 -0.000518 0.000000
# 3 0.011500 -0.000451 0.019521 0.000000 -0.012763 0.000000
# 4 0.000000 0.000000 0.000000 0.053074 0.000000 -0.040158
# 5 -0.012989 -0.000518 -0.012763 0.000000 0.030830 0.000000
# 6 0.000000 0.000000 0.000000 -0.040158 0.000000 0.073634
#
#
# Mechanical properties :
#
#
# Convention : Reuss Voigt Hill
#
# Bulk Modulus (GPa) = 13.82760 27.53853 20.68307
# Shear Modulus (GPa) = 22.83871 38.75195 30.79533
#
# Velocity S-wave (km/s) = 3.39082 4.41689 3.93742
# Velocity P-wave (km/s) = 4.72139 6.31471 5.57526
#
# Compressibility (1/GPa) = 0.07231911
#
# Stress axis : x y z
#
# Youngs Moduli (GPa) = 36.66401 124.92366 51.22694
#
# Poissons Ratio (x) = 0.28602 -0.58909
# Poissons Ratio (y) = 0.08394 0.02309
# Poissons Ratio (z) = -0.42162 0.05631
#
# Static dielectric constant tensor:
#      x y z
#    x 1.814370 0.000000 -0.098590 
#    y 0.000000 1.714090 0.000000 
#    z -0.098590 0.000000 1.706410 
# 
# From -- ./inp_files/96037.got.cif
#   From: 2010.05.17/outbox.ucp.g08.bks.cvg/sg10_49_cif.got.tgz:96037.got - 2010.06.11 11:31:16.
