data_PCOD9155701
_publ_section_title
;
Structure prediction by ZEFSAII (Michael W. Deem and Ramdas Pophale) SiO2 
 PCOD9155701
Probable space group: P 2/M
;
_chemical_formula_sum "Si O2"
_cell_formula_units_Z 32
_cell_length_a 15.000000
_cell_length_b 21.000000
_cell_length_c 15.000000
_cell_angle_alpha 90.000000
_cell_angle_beta 160.000000
_cell_angle_gamma 90.000000
_cell_volume 1616.045177
_symmetry_space_group_name_H-M "P 2/M"
_symmetry_group_IT_number 10
_symmetry_cell_setting 'monoclinic'
loop_
_space_group_symop_operation_xyz
x,y,z
-x,y,-z
-x,-y,-z
x,-y,z
loop_
_atom_site_type_symbol
_atom_site_label
_atom_site_fract_x
_atom_site_fract_y
_atom_site_fract_z
Si Si1 0.313493 0.072099 0.055865
Si Si2 0.287014 0.274546 0.471158
Si Si3 0.495275 0.357647 0.160734
Si Si4 0.721888 0.758792 0.269206
Si Si5 0.822312 0.737234 0.912478
Si Si6 0.264531 0.114246 0.206921
Si Si7 0.007855 0.573706 0.613681
Si Si8 0.182692 0.850879 0.479977
O O1 0.324763 0.076865 0.173742
O O2 0.597695 0.096796 0.296260
O O3 0.261675 0.000000 0.979282
O O4 0.086661 0.118254 0.805354
O O5 0.409906 0.321024 0.660546
O O6 0.520759 0.280283 0.620680
O O7 0.283437 0.201369 0.502546
O O8 0.992067 0.283781 0.158932
O O9 0.560061 0.300959 0.153424
O O10 0.708065 0.413522 0.357152
O O11 0.212337 0.384248 0.864414
O O12 0.826066 0.808328 0.440271
O O13 0.000000 0.731891 0.500000
O O14 0.500000 0.791782 0.000000
O O15 0.812032 0.814018 0.896013
O O16 0.000000 0.712700 0.000000
O O17 0.500000 0.115490 0.500000
O O18 0.000000 0.086986 0.000000
O O19 0.080733 0.500000 0.694482
O O20 0.000000 0.586734 0.500000
#
# Coordination Sequence:
#
# PCOD9155701 Si02
#       8
#     4   4   4   4   4   4   4   4
#     4  12  24  39  58  77 107 145 187 230 271 343
#     4  11  20  36  56  82 113 145 185 234 281 324
#     4  11  22  35  58  87 119 151 193 235 265 322
#     4  11  22  37  62  87 110 141 180 239 287 330
#     4  11  20  33  55  81 114 149 179 220 286 350
#     4  11  21  34  55  78 108 144 181 221 266 332
#     4  11  22  37  56  83 125 168 195 219 261 323
#     4  11  22  40  57  80 109 138 183 228 290 344
#
# _framework density 19.801427
#
# number of rings (size 3 to 8) (size 9 to 14) (size 15 to 20)
#    0.000    0.875    2.500    7.125    0.000    5.500 
#    0.000    0.000    0.000    7.500    0.000    0.000 
#    0.000   35.000    0.000    0.000    0.000    0.000 
#
# Total GULP energy -178257.411134 kJ/mol
# GULP energy per Si atom -5570.544098 kJ/mol
# Density = 1.975636 g / cm^3
# Si number density = 19.801427 Si / 1000 Ang^3
#
#
#
# Elastic Constant Matrix: (Units=GPa)
#
#
# Indices 1 2 3 4 5 6 
#
# 1 18.5092 16.8047 5.1379 0.0000 -16.5154 0.0000
# 2 16.8047 60.4543 20.2051 0.0000 -17.7471 0.0000
# 3 5.1379 20.2051 147.8631 0.0000 -23.6006 0.0000
# 4 0.0000 0.0000 0.0000 31.1597 0.0000 -4.5077
# 5 -16.5154 -17.7471 -23.6006 0.0000 27.8514 0.0000
# 6 0.0000 0.0000 0.0000 -4.5077 0.0000 0.2273
#
#
#
# Elastic Compliance Matrix: (Units=1/GPa)
#
#
# Indices 1 2 3 4 5 6 
#
# 1 0.138855 -0.018837 0.010379 0.000000 0.079130 0.000000
# 2 -0.018837 0.022990 -0.002234 0.000000 0.001586 0.000000
# 3 0.010379 -0.002234 0.008630 0.000000 0.012044 0.000000
# 4 0.000000 0.000000 0.000000 -0.017169 0.000000 -0.340525
# 5 0.079130 0.001586 0.012044 0.000000 0.094045 0.000000
# 6 0.000000 0.000000 0.000000 -0.340525 0.000000 -2.353894
#
#
# Mechanical properties :
#
#
# Convention : Reuss Voigt Hill
#
# Bulk Modulus (GPa) = 6.70729 34.56913 20.63821
# Shear Modulus (GPa) = -2.45644 24.15961 10.85158
#
# Velocity S-wave (km/s) = -1.11500 3.49677 2.34352
# Velocity P-wave (km/s) = 1.31795 5.81369 4.21521
#
# Compressibility (1/GPa) = 0.14909143
#
# Stress axis : x y z
#
# Youngs Moduli (GPa) = 7.20175 43.49723 115.87510
#
# Poissons Ratio (x) = 0.81937 -1.20270
# Poissons Ratio (y) = 0.13566 0.25884
# Poissons Ratio (z) = -0.07475 0.09716
#
# Static dielectric constant tensor:
#      x y z
#    x 1.903470 0.000000 0.026800 
#    y 0.000000 1.698980 0.000000 
#    z 0.026800 0.000000 1.510020 
# 
# From -- ./inp_files/67979.got.cif
#   From: 2010.05.17/outbox.ucp.g08.bks.cvg/sg10_34_cif.got.tgz:67979.got - 2010.06.11 11:31:16.
