data_PCOD9155566
_publ_section_title
;
Structure prediction by ZEFSAII (Michael W. Deem and Ramdas Pophale) SiO2 
 PCOD9155566
Probable space group: P 2/M
;
_chemical_formula_sum "Si O2"
_cell_formula_units_Z 32
_cell_length_a 15.000000
_cell_length_b 24.000000
_cell_length_c 9.000000
_cell_angle_alpha 90.000000
_cell_angle_beta 150.000000
_cell_angle_gamma 90.000000
_cell_volume 1620.000000
_symmetry_space_group_name_H-M "P 2/M"
_symmetry_group_IT_number 10
_symmetry_cell_setting 'monoclinic'
loop_
_space_group_symop_operation_xyz
x,y,z
-x,y,-z
-x,-y,-z
x,-y,z
loop_
_atom_site_type_symbol
_atom_site_label
_atom_site_fract_x
_atom_site_fract_y
_atom_site_fract_z
Si Si1 0.337371 0.062523 0.848898
Si Si2 0.672623 0.674812 0.148441
Si Si3 0.827506 0.141890 0.152492
Si Si4 0.018385 0.939103 0.852614
Si Si5 0.971600 0.680918 0.136181
Si Si6 0.666873 0.746486 0.845091
Si Si7 0.959798 0.559375 0.114234
Si Si8 0.800094 0.559774 0.281184
O O1 0.265592 0.095120 0.884139
O O2 0.175753 0.059091 0.500994
O O3 0.392311 0.000000 0.971988
O O4 0.500000 0.091101 0.000000
O O5 0.684456 0.613500 0.091966
O O6 0.847377 0.682523 0.504981
O O7 0.500000 0.679783 0.000000
O O8 0.665130 0.715925 0.000094
O O9 0.000000 0.161330 0.500000
O O10 0.888244 0.112308 0.090172
O O11 0.689855 0.189496 0.917031
O O12 0.103157 0.000000 0.942974
O O13 0.000000 0.932644 0.000000
O O14 0.881224 0.619905 0.035875
O O15 0.842083 0.727545 0.009591
O O16 0.000000 0.685613 0.000000
O O17 0.500000 0.734158 0.500000
O O18 0.869965 0.500000 0.023460
O O19 0.148899 0.558867 0.471609
O O20 0.000000 0.559264 0.000000
O O21 0.723868 0.500000 0.128897
O O22 0.000000 0.564953 0.500000
#
# Coordination Sequence:
#
# PCOD9155566 Si02
#       8
#     4   4   4   4   4   4   4   4
#     4   9  18  34  58  87 117 148 182 223 274 333
#     4  11  22  38  60  85 115 152 193 238 291 348
#     4  10  21  38  59  81 111 151 192 234 282 336
#     4   9  18  34  58  88 119 149 181 221 275 338
#     4  10  20  38  62  85 112 148 189 236 293 350
#     4  12  26  42  58  80 112 152 202 250 290 339
#     4   8  14  26  49  80 108 135 170 215 272 337
#     4   9  17  31  54  83 113 146 183 227 283 346
#
# _framework density 19.753086
#
# number of rings (size 3 to 8) (size 9 to 14) (size 15 to 20)
#    0.000    2.250    0.000    3.750    0.000    3.750 
#    0.000    2.500    0.000    6.750    0.000    0.000 
#    0.000    0.000    0.000    0.000    0.000    0.000 
#
# Total GULP energy -178159.513686 kJ/mol
# GULP energy per Si atom -5567.484803 kJ/mol
# Density = 1.970813 g / cm^3
# Si number density = 19.753086 Si / 1000 Ang^3
#
#
#
# Elastic Constant Matrix: (Units=GPa)
#
#
# Indices 1 2 3 4 5 6 
#
# 1 85.9929 39.8555 47.1609 0.0000 -14.3993 0.0000
# 2 39.8555 54.1463 44.3478 0.0000 -21.6509 0.0000
# 3 47.1609 44.3478 58.6187 0.0000 -10.5025 0.0000
# 4 0.0000 0.0000 0.0000 24.4503 0.0000 -20.1456
# 5 -14.3993 -21.6509 -10.5025 0.0000 22.6049 0.0000
# 6 0.0000 0.0000 0.0000 -20.1456 0.0000 28.9133
#
#
#
# Elastic Compliance Matrix: (Units=1/GPa)
#
#
# Indices 1 2 3 4 5 6 
#
# 1 0.021581 -0.000452 -0.015964 0.000000 0.005897 0.000000
# 2 -0.000452 0.086732 -0.055000 0.000000 0.057230 0.000000
# 3 -0.015964 -0.055000 0.065724 0.000000 -0.032312 0.000000
# 4 0.000000 0.000000 0.000000 0.096028 0.000000 0.066908
# 5 0.005897 0.057230 -0.032312 0.000000 0.087798 0.000000
# 6 0.000000 0.000000 0.000000 0.066908 0.000000 0.081205
#
#
# Mechanical properties :
#
#
# Convention : Reuss Voigt Hill
#
# Bulk Modulus (GPa) = 32.04566 51.27625 41.66096
# Shear Modulus (GPa) = 8.44167 19.68661 14.06414
#
# Velocity S-wave (km/s) = 2.06951 3.16038 2.67122
# Velocity P-wave (km/s) = 4.68709 6.27154 5.53629
#
# Compressibility (1/GPa) = 0.03120547
#
# Stress axis : x y z
#
# Youngs Moduli (GPa) = 46.33709 11.52983 15.21514
#
# Poissons Ratio (x) = 0.00521 0.24290
# Poissons Ratio (y) = 0.02092 0.83683
# Poissons Ratio (z) = 0.73975 0.63414
#
# Static dielectric constant tensor:
#      x y z
#    x 1.704790 0.000000 -0.028320 
#    y 0.000000 1.828670 0.000000 
#    z -0.028320 0.000000 1.676520 
# 
# From -- ./inp_files/30612.got.cif
#   From: 2010.05.17/outbox.ucp.g08.bks.cvg/sg10_16_cif.got.tgz:30612.got - 2010.06.11 11:31:16.
