data_PCOD9155519
_publ_section_title
;
Structure prediction by ZEFSAII (Michael W. Deem and Ramdas Pophale) SiO2 
 PCOD9155519
Probable space group: P 2/M
;
_chemical_formula_sum "Si O2"
_cell_formula_units_Z 32
_cell_length_a 12.000000
_cell_length_b 9.000000
_cell_length_c 15.000000
_cell_angle_alpha 90.000000
_cell_angle_beta 90.000000
_cell_angle_gamma 90.000000
_cell_volume 1620.000000
_symmetry_space_group_name_H-M "P 2/M"
_symmetry_group_IT_number 10
_symmetry_cell_setting 'monoclinic'
loop_
_space_group_symop_operation_xyz
x,y,z
-x,y,-z
-x,-y,-z
x,-y,z
loop_
_atom_site_type_symbol
_atom_site_label
_atom_site_fract_x
_atom_site_fract_y
_atom_site_fract_z
Si Si1 0.495812 0.824712 0.362971
Si Si2 0.655849 0.325865 0.499888
Si Si3 0.146161 0.823880 0.253136
Si Si4 0.537924 0.328626 0.178637
Si Si5 0.099189 0.675267 0.440014
Si Si6 0.294231 0.670867 0.126208
Si Si7 0.970658 0.178175 0.100681
Si Si8 0.247855 0.678708 0.931570
O O1 0.395160 0.731539 0.406881
O O2 0.599363 0.774354 0.424730
O O3 0.520859 0.773901 0.263618
O O4 0.475325 0.000000 0.370144
O O5 0.628829 0.500000 0.486513
O O6 0.787114 0.310125 0.505285
O O7 0.112829 0.754623 0.346188
O O8 0.260132 0.761342 0.212998
O O9 0.059676 0.780815 0.175134
O O10 0.150829 0.000000 0.260501
O O11 0.556299 0.500000 0.209088
O O12 0.426709 0.329549 0.120248
O O13 0.639766 0.280840 0.118125
O O14 0.080282 0.500000 0.423064
O O15 0.000000 0.735346 0.500000
O O16 0.256557 0.500000 0.137535
O O17 0.248000 0.733895 0.033655
O O18 0.854327 0.254037 0.121273
O O19 0.960940 0.000000 0.099991
O O20 0.000000 0.226669 0.000000
O O21 0.241376 0.500000 0.935816
#
# Coordination Sequence:
#
# PCOD9155519 Si02
#       8
#     4   4   4   4   4   4   4   4
#     4  11  22  36  57  86 116 148 190 236 278 336
#     4  10  20  38  63  85 111 148 187 231 290 344
#     4  11  23  38  60  87 115 153 194 235 285 340
#     4  10  21  37  55  81 118 152 185 232 291 344
#     4  10  23  42  62  86 116 149 188 238 291 343
#     4  10  20  36  59  84 113 149 191 237 285 338
#     4  10  21  39  58  80 117 156 190 233 286 340
#     4  10  21  36  58  85 111 147 195 242 283 331
#
# _framework density 19.753086
#
# number of rings (size 3 to 8) (size 9 to 14) (size 15 to 20)
#    0.000    1.750    1.250    3.750    0.000    9.000 
#    0.000    3.750    0.000    2.250    0.000    0.000 
#    0.000    0.000    0.000    0.000    0.000    0.000 
#
# Total GULP energy -178608.062550 kJ/mol
# GULP energy per Si atom -5581.501955 kJ/mol
# Density = 1.970813 g / cm^3
# Si number density = 19.753086 Si / 1000 Ang^3
#
#
#
# Elastic Constant Matrix: (Units=GPa)
#
#
# Indices 1 2 3 4 5 6 
#
# 1 97.9438 17.0379 30.8544 0.0000 -18.9243 0.0000
# 2 17.0379 5.4920 -11.8134 0.0000 2.3671 0.0000
# 3 30.8544 -11.8134 7.0203 0.0000 4.5227 0.0000
# 4 0.0000 0.0000 0.0000 26.1196 0.0000 -0.0182
# 5 -18.9243 2.3671 4.5227 0.0000 11.0768 0.0000
# 6 0.0000 0.0000 0.0000 -0.0182 0.0000 34.9250
#
#
#
# Elastic Compliance Matrix: (Units=1/GPa)
#
#
# Indices 1 2 3 4 5 6 
#
# 1 0.003479 0.015231 0.011681 0.000000 -0.002081 0.000000
# 2 0.015231 0.029065 -0.041783 0.000000 0.036870 0.000000
# 3 0.011681 -0.041783 0.002967 0.000000 0.027674 0.000000
# 4 0.000000 0.000000 0.000000 0.038285 0.000000 0.000020
# 5 -0.002081 0.036870 0.027674 0.000000 0.067546 0.000000
# 6 0.000000 0.000000 0.000000 0.000020 0.000000 0.028633
#
#
# Mechanical properties :
#
#
# Convention : Reuss Voigt Hill
#
# Bulk Modulus (GPa) = 173.41239 20.29046 96.85143
# Shear Modulus (GPa) = 24.79669 19.38275 22.08972
#
# Velocity S-wave (km/s) = 3.54691 3.13589 3.34772
# Velocity P-wave (km/s) = 10.23497 4.83799 8.00502
#
# Compressibility (1/GPa) = 0.00576660
#
# Stress axis : x y z
#
# Youngs Moduli (GPa) = 287.46490 34.40619 337.05451
#
# Poissons Ratio (x) = -0.52403 -3.93710
# Poissons Ratio (y) = -4.37827 14.08324
# Poissons Ratio (z) = -3.35785 1.43760
#
# Static dielectric constant tensor:
#      x y z
#    x 1.726810 0.000000 0.015200 
#    y 0.000000 1.667250 0.000000 
#    z 0.015200 0.000000 1.675830 
# 
# From -- ./inp_files/63820.got.cif
#   From: 2010.05.17/outbox.ucp.g08.bks.cvg/sg10_32_cif.got.tgz:63820.got - 2010.06.11 11:31:16.
