data_PCOD9155182
_publ_section_title
;
Structure prediction by ZEFSAII (Michael W. Deem and Ramdas Pophale) SiO2 
 PCOD9155182
Probable space group: P 2/M
;
_chemical_formula_sum "Si O2"
_cell_formula_units_Z 24
_cell_length_a 18.000000
_cell_length_b 9.000000
_cell_length_c 24.000000
_cell_angle_alpha 90.000000
_cell_angle_beta 20.000000
_cell_angle_gamma 90.000000
_cell_volume 1329.774317
_symmetry_space_group_name_H-M "P 2/M"
_symmetry_group_IT_number 10
_symmetry_cell_setting 'monoclinic'
loop_
_space_group_symop_operation_xyz
x,y,z
-x,y,-z
-x,-y,-z
x,-y,z
loop_
_atom_site_type_symbol
_atom_site_label
_atom_site_fract_x
_atom_site_fract_y
_atom_site_fract_z
Si Si1 0.416123 0.181813 0.878103
Si Si2 0.930385 0.681578 0.207857
Si Si3 0.789667 0.679647 0.182597
Si Si4 0.582851 0.680780 0.645663
Si Si5 0.404851 0.319549 0.003814
Si Si6 0.927721 0.820203 0.325412
O O1 0.536553 0.245062 0.738275
O O2 0.413633 0.000000 0.882011
O O3 0.503421 0.249513 0.876098
O O4 0.172221 0.247353 0.039103
O O5 0.940493 0.500000 0.203988
O O6 0.811859 0.722914 0.232644
O O7 0.835759 0.748604 0.332196
O O8 0.794285 0.500000 0.181376
O O9 0.593723 0.717314 0.278737
O O10 0.000000 0.731968 0.000000
O O11 0.591529 0.500000 0.644703
O O12 0.795223 0.754562 0.470252
O O13 0.395646 0.500000 0.004292
O O14 0.168756 0.243496 0.165768
O O15 0.500000 0.290341 0.000000
O O16 0.925942 0.000000 0.323349
#
# Coordination Sequence:
#
# PCOD9155182 Si02
#       6
#     4   4   4   4   4   4
#     4  11  21  34  55  85 117 148 182 224 282 336
#     4  10  18  34  57  79 107 149 199 236 272 325
#     4   9  17  31  54  82 107 143 197 244 274 314
#     4  11  21  37  58  80 112 152 194 236 277 324
#     4  10  21  40  66  90 109 139 185 227 268 331
#     4  11  23  38  55  82 119 149 181 227 287 339
#
# _framework density 18.048175000000001
#
# number of rings (size 3 to 8) (size 9 to 14) (size 15 to 20)
#    0.000    1.667    1.667    6.500    0.000    2.000 
#    0.000    8.333    0.000    5.000    0.000    0.000 
#    0.000    0.000    0.000    0.000    0.000    0.000 
#
# Total GULP energy -133655.399477 kJ/mol
# GULP energy per Si atom -5568.974978 kJ/mol
# Density = 1.800710 g / cm^3
# Si number density = 18.048175 Si / 1000 Ang^3
#
#
#
# Elastic Constant Matrix: (Units=GPa)
#
#
# Indices 1 2 3 4 5 6 
#
# 1 187.5285 58.7127 40.6310 0.0000 27.6726 0.0000
# 2 58.7127 135.4682 25.4674 0.0000 12.7424 0.0000
# 3 40.6310 25.4674 71.1547 0.0000 30.5769 0.0000
# 4 0.0000 0.0000 0.0000 19.0263 0.0000 7.7101
# 5 27.6726 12.7424 30.5769 0.0000 37.7804 0.0000
# 6 0.0000 0.0000 0.0000 7.7101 0.0000 29.5510
#
#
#
# Elastic Compliance Matrix: (Units=1/GPa)
#
#
# Indices 1 2 3 4 5 6 
#
# 1 0.006889 -0.002370 -0.001933 0.000000 -0.002682 0.000000
# 2 -0.002370 0.008738 -0.001922 0.000000 0.000345 0.000000
# 3 -0.001933 -0.001922 0.022935 0.000000 -0.016498 0.000000
# 4 0.000000 0.000000 0.000000 0.058773 0.000000 -0.015334
# 5 -0.002682 0.000345 -0.016498 0.000000 0.041670 0.000000
# 6 0.000000 0.000000 0.000000 -0.015334 0.000000 0.037841
#
#
# Mechanical properties :
#
#
# Convention : Reuss Voigt Hill
#
# Bulk Modulus (GPa) = 38.29654 71.53040 54.91347
# Shear Modulus (GPa) = 25.25251 35.22752 30.24002
#
# Velocity S-wave (km/s) = 3.74461 4.42278 4.09775
# Velocity P-wave (km/s) = 6.32149 8.11174 7.27192
#
# Compressibility (1/GPa) = 0.02611202
#
# Stress axis : x y z
#
# Youngs Moduli (GPa) = 145.15484 114.44296 43.60095
#
# Poissons Ratio (x) = 0.27124 0.08428
# Poissons Ratio (y) = 0.34404 0.08381
# Poissons Ratio (z) = 0.28058 0.21997
#
# Static dielectric constant tensor:
#      x y z
#    x 1.639130 0.000000 0.026850 
#    y 0.000000 1.597280 0.000000 
#    z 0.026850 0.000000 1.737770 
# 
# From -- ./inp_files/90009.got.cif
#   From: 2010.05.17/outbox.ucp.g08.bks.cvg/sg10_46_cif.got.tgz:90009.got - 2010.06.11 11:31:16.
