data_PCOD9155443
_publ_section_title
;
Structure prediction by ZEFSAII (Michael W. Deem and Ramdas Pophale) SiO2 
 PCOD9155443
Probable space group: P 2/M
;
_chemical_formula_sum "Si O2"
_cell_formula_units_Z 32
_cell_length_a 15.000000
_cell_length_b 9.000000
_cell_length_c 12.000000
_cell_angle_alpha 90.000000
_cell_angle_beta 90.000000
_cell_angle_gamma 90.000000
_cell_volume 1620.000000
_symmetry_space_group_name_H-M "P 2/M"
_symmetry_group_IT_number 10
_symmetry_cell_setting 'monoclinic'
loop_
_space_group_symop_operation_xyz
x,y,z
-x,y,-z
-x,-y,-z
x,-y,z
loop_
_atom_site_type_symbol
_atom_site_label
_atom_site_fract_x
_atom_site_fract_y
_atom_site_fract_z
Si Si1 0.604299 0.676048 0.712184
Si Si2 0.284225 0.823719 0.108046
Si Si3 0.049694 0.322615 0.886174
Si Si4 0.102733 0.168544 0.226470
Si Si5 0.604755 0.673728 0.321902
Si Si6 0.709516 0.823284 0.509989
Si Si7 0.743799 0.324177 0.119704
Si Si8 0.099161 0.169828 0.488503
O O1 0.617046 0.500000 0.705018
O O2 0.638370 0.739623 0.828108
O O3 0.498994 0.705316 0.700597
O O4 0.668135 0.752068 0.620737
O O5 0.188478 0.774045 0.159425
O O6 0.290110 0.000000 0.125609
O O7 0.287432 0.777825 0.980892
O O8 0.048091 0.500000 0.890304
O O9 0.152095 0.280043 0.863919
O O10 0.984785 0.264124 0.791522
O O11 0.000000 0.268462 0.000000
O O12 0.120617 0.163422 0.357204
O O13 0.085413 0.000000 0.187756
O O14 0.610045 0.500000 0.358453
O O15 0.638970 0.782247 0.416487
O O16 0.673945 0.690518 0.220001
O O17 0.807206 0.764110 0.469151
O O18 0.718432 0.000000 0.525311
O O19 0.744346 0.500000 0.088301
O O20 0.000000 0.237665 0.500000
O O21 0.090904 0.000000 0.533862
#
# Coordination Sequence:
#
# PCOD9155443 Si02
#       8
#     4   4   4   4   4   4   4   4
#     4  11  23  41  65  87 113 155 201 243 297 359
#     4  11  22  38  61  90 121 151 197 250 295 347
#     4  10  20  34  55  83 113 148 191 234 279 335
#     4  10  20  35  56  82 115 152 191 236 285 347
#     4  10  24  43  61  85 118 158 200 242 295 358
#     4  11  22  39  64  92 121 153 195 246 295 345
#     4  10  22  41  60  83 122 161 196 242 294 352
#     4   9  19  36  56  83 119 155 187 227 287 351
#
# _framework density 19.753086
#
# number of rings (size 3 to 8) (size 9 to 14) (size 15 to 20)
#    0.000    1.750    2.500    1.500    1.750    4.750 
#    0.000    2.500    0.000    1.875    0.000    0.000 
#    0.000    0.000    0.000    0.000    0.000    0.000 
#
# Total GULP energy -178427.562546 kJ/mol
# GULP energy per Si atom -5575.861330 kJ/mol
# Density = 1.970813 g / cm^3
# Si number density = 19.753086 Si / 1000 Ang^3
#
#
#
# Elastic Constant Matrix: (Units=GPa)
#
#
# Indices 1 2 3 4 5 6 
#
# 1 129.1547 42.6217 11.5725 0.0000 14.6081 0.0000
# 2 42.6217 10.8064 20.4713 0.0000 8.2177 0.0000
# 3 11.5725 20.4713 25.4366 0.0000 10.3800 0.0000
# 4 0.0000 0.0000 0.0000 26.9165 0.0000 -0.2881
# 5 14.6081 8.2177 10.3800 0.0000 29.2559 0.0000
# 6 0.0000 0.0000 0.0000 -0.2881 0.0000 27.9584
#
#
#
# Elastic Compliance Matrix: (Units=1/GPa)
#
#
# Indices 1 2 3 4 5 6 
#
# 1 0.003162 0.018604 -0.015942 0.000000 -0.001148 0.000000
# 2 0.018604 -0.066908 0.048531 0.000000 -0.007715 0.000000
# 3 -0.015942 0.048531 0.011486 0.000000 -0.009747 0.000000
# 4 0.000000 0.000000 0.000000 0.037156 0.000000 0.000383
# 5 -0.001148 -0.007715 -0.009747 0.000000 0.040380 0.000000
# 6 0.000000 0.000000 0.000000 0.000383 0.000000 0.035771
#
#
# Mechanical properties :
#
#
# Convention : Reuss Voigt Hill
#
# Bulk Modulus (GPa) = 19.94981 34.96987 27.45984
# Shear Modulus (GPa) = -203.00302 22.87499 -90.06402
#
# Velocity S-wave (km/s) = -10.14857 3.40670 -6.75973
# Velocity P-wave (km/s) = 11.27843 5.76334 6.85518
#
# Compressibility (1/GPa) = 0.05012578
#
# Stress axis : x y z
#
# Youngs Moduli (GPa) = 316.29576 -14.94601 87.06238
#
# Poissons Ratio (x) = 0.27805 1.38797
# Poissons Ratio (y) = -5.88432 -4.22525
# Poissons Ratio (z) = 5.04248 0.72535
#
# Static dielectric constant tensor:
#      x y z
#    x 1.718250 0.000000 0.027250 
#    y 0.000000 1.673110 0.000000 
#    z 0.027250 0.000000 1.749240 
# 
# From -- ./inp_files/49856.got.cif
#   From: 2010.05.17/outbox.ucp.g08.bks.cvg/sg10_25_cif.got.tgz:49856.got - 2010.06.11 11:31:16.
