data_PCOD9155049
_publ_section_title
;
Structure prediction by ZEFSAII (Michael W. Deem and Ramdas Pophale) SiO2 
 PCOD9155049
Probable space group: P 2/M
;
_chemical_formula_sum "Si O2"
_cell_formula_units_Z 28
_cell_length_a 5.315487
_cell_length_b 11.070660
_cell_length_c 28.440017
_cell_angle_alpha 90.000000
_cell_angle_beta 78.999693
_cell_angle_gamma 90.000000
_cell_volume 1642.829713
_symmetry_space_group_name_H-M "P 2/M"
_symmetry_group_IT_number 10
_symmetry_cell_setting 'monoclinic'
loop_
_space_group_symop_operation_xyz
x,y,z
-x,y,-z
-x,-y,-z
x,-y,z
loop_
_atom_site_type_symbol
_atom_site_label
_atom_site_fract_x
_atom_site_fract_y
_atom_site_fract_z
Si Si1 0.124142 0.647280 0.638770
Si Si2 0.840915 0.355216 0.858874
Si Si3 0.600170 0.647589 0.194888
Si Si4 0.713251 0.868788 0.032871
Si Si5 0.221027 0.352744 0.528155
Si Si6 0.567477 0.352851 0.694833
Si Si7 0.099063 0.633893 0.943057
O O1 0.123843 0.500000 0.638575
O O2 0.166822 0.685866 0.583491
O O3 0.354316 0.685137 0.664694
O O4 0.849985 0.685965 0.668937
O O5 0.833480 0.500000 0.853414
O O6 0.111727 0.312838 0.827407
O O7 0.875288 0.337573 0.913685
O O8 0.601999 0.310281 0.837276
O O9 0.604373 0.500000 0.194581
O O10 0.508402 0.684939 0.249902
O O11 0.713073 0.747729 0.063529
O O12 0.675242 0.000000 0.057750
O O13 0.500000 0.858772 0.000000
O O14 0.000000 0.871818 0.000000
O O15 0.500000 0.314898 0.500000
O O16 0.219918 0.500000 0.528426
O O17 0.000000 0.314232 0.500000
O O18 0.568995 0.500000 0.694961
O O19 0.206781 0.500000 0.926709
O O20 0.000000 0.624430 0.000000
#
# Coordination Sequence:
#
# PCOD9155049 Si02
#       7
#     4   4   4   4   4   4   4
#     4   9  15  21  29  41  53  69  98 131 163 206
#     4   9  17  27  38  53  73  95 118 145 182 228
#     4   9  16  26  37  49  67  90 113 141 181 224
#     4   9  18  32  48  65  86 112 140 169 202 240
#     4   9  15  21  27  35  50  70  90 119 163 210
#     4   9  15  22  32  43  55  73 100 133 165 204
#     4   9  18  31  47  67  89 112 139 171 205 245
#
# _framework density 17.043761
#
# number of rings (size 3 to 8) (size 9 to 14) (size 15 to 20)
#    0.000    3.000    0.000    1.714    0.000    9.429 
#    0.000    4.286    0.000    0.000    0.000    0.000 
#    0.000    0.000    0.000    0.000    0.000    0.000 
#
# Total GULP energy -155888.681806 kJ/mol
# GULP energy per Si atom -5567.452922 kJ/mol
# Density = 1.700497 g / cm^3
# Si number density = 17.043761 Si / 1000 Ang^3
#
#
#
# Elastic Constant Matrix: (Units=GPa)
#
#
# Indices 1 2 3 4 5 6 
#
# 1 121.8222 5.2340 52.4495 0.0000 8.2643 0.0000
# 2 5.2340 55.2177 2.4969 0.0000 11.6438 0.0000
# 3 52.4495 2.4969 127.4328 0.0000 1.6367 0.0000
# 4 0.0000 0.0000 0.0000 0.5438 0.0000 0.6365
# 5 8.2643 11.6438 1.6367 0.0000 30.9122 0.0000
# 6 0.0000 0.0000 0.0000 0.6365 0.0000 1.6990
#
#
#
# Elastic Compliance Matrix: (Units=1/GPa)
#
#
# Indices 1 2 3 4 5 6 
#
# 1 0.010169 -0.000271 -0.004150 0.000000 -0.002397 0.000000
# 2 -0.000271 0.019691 -0.000180 0.000000 -0.007335 0.000000
# 3 -0.004150 -0.000180 0.009550 0.000000 0.000672 0.000000
# 4 0.000000 0.000000 0.000000 3.275060 0.000000 -1.226952
# 5 -0.002397 -0.007335 0.000672 0.000000 0.035718 0.000000
# 6 0.000000 0.000000 0.000000 -1.226952 0.000000 1.048246
#
#
# Mechanical properties :
#
#
# Convention : Reuss Voigt Hill
#
# Bulk Modulus (GPa) = 33.10248 47.20373 40.15310
# Shear Modulus (GPa) = 1.13181 22.91716 12.02448
#
# Velocity S-wave (km/s) = 0.81578 3.67087 2.65902
# Velocity P-wave (km/s) = 4.51127 6.76186 5.74779
#
# Compressibility (1/GPa) = 0.03020922
#
# Stress axis : x y z
#
# Youngs Moduli (GPa) = 98.33357 50.78544 104.71146
#
# Poissons Ratio (x) = 0.01376 0.43450
# Poissons Ratio (y) = 0.02663 0.01886
# Poissons Ratio (z) = 0.40804 0.00915
#
# Static dielectric constant tensor:
#      x y z
#    x 1.611150 0.000000 -0.012800 
#    y 0.000000 1.572560 0.000000 
#    z -0.012800 0.000000 1.596530 
# 
# From -- ./inp_files/13087.got.cif
#   From: 2010.05.17/outbox.cif.g08.bks.cpg/sg10_7_cif.got.tgz:13087.got - 2010.06.03 11:33:40.
