data_PCOD9155675
_publ_section_title
;
Structure prediction by ZEFSAII (Michael W. Deem and Ramdas Pophale) SiO2 
 PCOD9155675
Probable space group: P 2/M
;
_chemical_formula_sum "Si O2"
_cell_formula_units_Z 32
_cell_length_a 12.000000
_cell_length_b 9.000000
_cell_length_c 15.000000
_cell_angle_alpha 90.000000
_cell_angle_beta 90.000000
_cell_angle_gamma 90.000000
_cell_volume 1620.000000
_symmetry_space_group_name_H-M "P 2/M"
_symmetry_group_IT_number 10
_symmetry_cell_setting 'monoclinic'
loop_
_space_group_symop_operation_xyz
x,y,z
-x,y,-z
-x,-y,-z
x,-y,z
loop_
_atom_site_type_symbol
_atom_site_label
_atom_site_fract_x
_atom_site_fract_y
_atom_site_fract_z
Si Si1 0.987905 0.177099 0.149048
Si Si2 0.742209 0.672931 0.407619
Si Si3 0.672403 0.327522 0.735164
Si Si4 0.263605 0.177049 0.906041
Si Si5 0.413415 0.322559 0.757775
Si Si6 0.799073 0.671854 0.922666
Si Si7 0.005485 0.327234 0.661912
Si Si8 0.195130 0.826530 0.419080
O O1 0.081188 0.250671 0.087384
O O2 0.861240 0.220449 0.126257
O O3 0.011056 0.232406 0.248981
O O4 0.997291 0.000000 0.142530
O O5 0.724622 0.500000 0.432896
O O6 0.653376 0.713972 0.332426
O O7 0.866590 0.684609 0.367300
O O8 0.740140 0.776598 0.492984
O O9 0.678652 0.500000 0.703737
O O10 0.543416 0.288957 0.748728
O O11 0.737353 0.319442 0.828174
O O12 0.731501 0.221605 0.665038
O O13 0.353897 0.239866 0.838439
O O14 0.268766 0.000000 0.909068
O O15 0.273588 0.246286 0.003385
O O16 0.401726 0.500000 0.771663
O O17 0.813628 0.500000 0.946836
O O18 0.980473 0.500000 0.680477
O O19 0.919380 0.266061 0.589452
O O20 0.170382 0.000000 0.419405
#
# Coordination Sequence:
#
# PCOD9155675 Si02
#       8
#     4   4   4   4   4   4   4   4
#     4  11  22  37  60  91 126 160 195 244 309 367
#     4  10  22  40  64  91 121 158 201 251 301 359
#     4  10  23  43  65  88 118 158 208 260 301 349
#     4  11  24  40  61  91 128 162 195 249 310 365
#     4  10  22  43  67  89 116 158 210 256 301 355
#     4  11  23  39  63  91 121 162 207 251 298 358
#     4  11  21  37  63  92 122 157 200 247 298 360
#     4  12  25  39  61  91 126 163 198 245 305 367
#
# _framework density 19.753086
#
# number of rings (size 3 to 8) (size 9 to 14) (size 15 to 20)
#    0.000    1.250    2.500    3.375    0.000    8.000 
#    0.000    5.000    0.000    0.000    0.000    0.000 
#    0.000    0.000    0.000    0.000    0.000    0.000 
#
# Total GULP energy -178957.464054 kJ/mol
# GULP energy per Si atom -5592.420752 kJ/mol
# Density = 1.970813 g / cm^3
# Si number density = 19.753086 Si / 1000 Ang^3
#
#
#
# Elastic Constant Matrix: (Units=GPa)
#
#
# Indices 1 2 3 4 5 6 
#
# 1 83.9289 33.1583 9.2016 0.0000 -3.0390 0.0000
# 2 33.1583 19.8483 11.2916 0.0000 3.1724 0.0000
# 3 9.2016 11.2916 48.7589 0.0000 -3.2456 0.0000
# 4 0.0000 0.0000 0.0000 43.0122 0.0000 -0.1769
# 5 -3.0390 3.1724 -3.2456 0.0000 -3.3017 0.0000
# 6 0.0000 0.0000 0.0000 -0.1769 0.0000 20.3811
#
#
#
# Elastic Compliance Matrix: (Units=1/GPa)
#
#
# Indices 1 2 3 4 5 6 
#
# 1 0.021390 -0.028031 -0.000609 0.000000 -0.046023 0.000000
# 2 -0.028031 0.083009 -0.006483 0.000000 0.111931 0.000000
# 3 -0.000609 -0.006483 0.020412 0.000000 -0.025734 0.000000
# 4 0.000000 0.000000 0.000000 0.023250 0.000000 0.000202
# 5 -0.046023 0.111931 -0.025734 0.000000 -0.127673 0.000000
# 6 0.000000 0.000000 0.000000 0.000202 0.000000 0.049067
#
#
# Mechanical properties :
#
#
# Convention : Reuss Voigt Hill
#
# Bulk Modulus (GPa) = 18.32651 28.87101 23.59876
# Shear Modulus (GPa) = 31.66806 18.61064 25.13935
#
# Velocity S-wave (km/s) = 4.00834 3.07280 3.57133
# Velocity P-wave (km/s) = 5.54259 5.21892 5.38319
#
# Compressibility (1/GPa) = 0.05456576
#
# Stress axis : x y z
#
# Youngs Moduli (GPa) = 46.75172 12.04694 48.99028
#
# Poissons Ratio (x) = 0.33769 0.02981
# Poissons Ratio (y) = 1.31050 0.31758
# Poissons Ratio (z) = 0.02845 0.07810
#
# Static dielectric constant tensor:
#      x y z
#    x 1.665820 0.000000 0.010110 
#    y 0.000000 1.661580 0.000000 
#    z 0.010110 0.000000 1.704040 
# 
# From -- ./inp_files/63777.got.cif
#   From: 2010.05.17/outbox.ucp.g08.bks.cvg/sg10_32_cif.got.tgz:63777.got - 2010.06.11 11:31:16.
