data_PCOD9155301
_publ_section_title
;
Structure prediction by ZEFSAII (Michael W. Deem and Ramdas Pophale) SiO2 
 PCOD9155301
Probable space group: P 2/M
;
_chemical_formula_sum "Si O2"
_cell_formula_units_Z 28
_cell_length_a 15.000000
_cell_length_b 9.000000
_cell_length_c 18.000000
_cell_angle_alpha 90.000000
_cell_angle_beta 140.000000
_cell_angle_gamma 90.000000
_cell_volume 1561.973892
_symmetry_space_group_name_H-M "P 2/M"
_symmetry_group_IT_number 10
_symmetry_cell_setting 'monoclinic'
loop_
_space_group_symop_operation_xyz
x,y,z
-x,y,-z
-x,-y,-z
x,-y,z
loop_
_atom_site_type_symbol
_atom_site_label
_atom_site_fract_x
_atom_site_fract_y
_atom_site_fract_z
Si Si1 0.568716 0.820670 0.248145
Si Si2 0.726661 0.178623 0.770440
Si Si3 0.577402 0.321890 0.406831
Si Si4 0.353407 0.821218 0.868830
Si Si5 0.879935 0.323635 0.177768
Si Si6 0.265920 0.677568 0.071948
Si Si7 0.820787 0.678032 0.679226
O O1 0.629241 0.746786 0.361578
O O2 0.640583 0.783974 0.215237
O O3 0.413222 0.754037 0.147256
O O4 0.563525 0.000000 0.252089
O O5 0.569048 0.243527 0.668186
O O6 0.786234 0.247063 0.885256
O O7 0.803420 0.237303 0.745972
O O8 0.724754 0.000000 0.772271
O O9 0.557027 0.500000 0.386301
O O10 0.687015 0.296093 0.542256
O O11 0.223759 0.755263 0.831074
O O12 0.348058 0.000000 0.871296
O O13 0.500000 0.772948 0.000000
O O14 0.872555 0.500000 0.188035
O O15 0.041020 0.278165 0.277976
O O16 0.827725 0.299155 0.060040
O O17 0.282819 0.500000 0.093955
O O18 0.830202 0.500000 0.700156
#
# Coordination Sequence:
#
# PCOD9155301 Si02
#       7
#     4   4   4   4   4   4   4
#     4  10  19  33  55  82 111 140 175 223 269 315
#     4  11  22  35  56  83 109 140 181 225 268 319
#     4  10  20  36  59  81 106 142 182 225 269 315
#     4  10  20  35  56  82 112 144 176 216 271 324
#     4  10  22  37  56  81 109 143 183 224 265 318
#     4  10  19  33  54  81 110 140 177 222 270 317
#     4  10  22  40  56  76 109 146 182 223 271 316
#
# _framework density 17.926036
#
# number of rings (size 3 to 8) (size 9 to 14) (size 15 to 20)
#    0.000    1.857    1.429    4.714    0.000    6.000 
#    0.000    3.571    0.000    4.286    0.000    0.000 
#    0.000    0.000    0.000    0.000    0.000    0.000 
#
# Total GULP energy -156305.109426 kJ/mol
# GULP energy per Si atom -5582.325337 kJ/mol
# Density = 1.788524 g / cm^3
# Si number density = 17.926036 Si / 1000 Ang^3
#
#
#
# Elastic Constant Matrix: (Units=GPa)
#
#
# Indices 1 2 3 4 5 6 
#
# 1 124.7033 37.2807 9.3783 0.0000 -10.7405 0.0000
# 2 37.2807 79.9732 8.8004 0.0000 -8.4715 0.0000
# 3 9.3783 8.8004 12.4874 0.0000 -4.8835 0.0000
# 4 0.0000 0.0000 0.0000 5.5824 0.0000 -8.0008
# 5 -10.7405 -8.4715 -4.8835 0.0000 25.8859 0.0000
# 6 0.0000 0.0000 0.0000 -8.0008 0.0000 38.4185
#
#
#
# Elastic Compliance Matrix: (Units=1/GPa)
#
#
# Indices 1 2 3 4 5 6 
#
# 1 0.009629 -0.003865 -0.003714 0.000000 0.002030 0.000000
# 2 -0.003865 0.015303 -0.007073 0.000000 0.002070 0.000000
# 3 -0.003714 -0.007073 0.093224 0.000000 0.013732 0.000000
# 4 0.000000 0.000000 0.000000 0.255347 0.000000 0.053177
# 5 0.002030 0.002070 0.013732 0.000000 0.042741 0.000000
# 6 0.000000 0.000000 0.000000 0.053177 0.000000 0.037103
#
#
# Mechanical properties :
#
#
# Convention : Reuss Voigt Hill
#
# Bulk Modulus (GPa) = 11.25446 36.45362 23.85404
# Shear Modulus (GPa) = 9.76050 24.75766 17.25908
#
# Velocity S-wave (km/s) = 2.33596 3.72035 3.10626
# Velocity P-wave (km/s) = 3.68341 6.23172 5.11868
#
# Compressibility (1/GPa) = 0.08885363
#
# Stress axis : x y z
#
# Youngs Moduli (GPa) = 103.85785 65.34475 10.72681
#
# Poissons Ratio (x) = 0.25255 0.03984
# Poissons Ratio (y) = 0.40139 0.07587
# Poissons Ratio (z) = 0.38570 0.46217
#
# Static dielectric constant tensor:
#      x y z
#    x 1.599680 0.000000 -0.007170 
#    y 0.000000 1.600820 0.000000 
#    z -0.007170 0.000000 1.630860 
# 
# From -- ./inp_files/77788.got.cif
#   From: 2010.05.17/outbox.ucp.g08.bks.cvg/sg10_39_cif.got.tgz:77788.got - 2010.06.11 11:31:16.
