data_PCOD9155285
_publ_section_title
;
Structure prediction by ZEFSAII (Michael W. Deem and Ramdas Pophale) SiO2 
 PCOD9155285
Probable space group: P 2/M
;
_chemical_formula_sum "Si O2"
_cell_formula_units_Z 32
_cell_length_a 12.000000
_cell_length_b 9.000000
_cell_length_c 30.000000
_cell_angle_alpha 90.000000
_cell_angle_beta 30.000000
_cell_angle_gamma 90.000000
_cell_volume 1620.000000
_symmetry_space_group_name_H-M "P 2/M"
_symmetry_group_IT_number 10
_symmetry_cell_setting 'monoclinic'
loop_
_space_group_symop_operation_xyz
x,y,z
-x,y,-z
-x,-y,-z
x,-y,z
loop_
_atom_site_type_symbol
_atom_site_label
_atom_site_fract_x
_atom_site_fract_y
_atom_site_fract_z
Si Si1 0.608144 0.179182 0.035150
Si Si2 0.879936 0.824005 0.305518
Si Si3 0.966128 0.671743 0.664881
Si Si4 0.415375 0.680483 0.270229
Si Si5 0.743431 0.318626 0.581710
Si Si6 0.429452 0.672968 0.454181
Si Si7 0.168589 0.179736 0.129112
Si Si8 0.255470 0.320800 0.919382
O O1 0.379230 0.214716 0.088125
O O2 0.643959 0.252887 0.070393
O O3 0.615797 0.000000 0.037563
O O4 0.793031 0.230398 0.934633
O O5 0.043822 0.764835 0.286879
O O6 0.634847 0.766557 0.399916
O O7 0.956113 0.768025 0.230418
O O8 0.887163 0.000000 0.303197
O O9 0.911830 0.500000 0.693859
O O10 0.214552 0.678724 0.559701
O O11 0.805234 0.721305 0.681041
O O12 0.420201 0.500000 0.270809
O O13 0.397774 0.732879 0.326854
O O14 0.614296 0.729517 0.169868
O O15 0.745583 0.500000 0.579874
O O16 0.645573 0.271980 0.568499
O O17 0.000000 0.273472 0.500000
O O18 0.498862 0.500000 0.427437
O O19 0.164069 0.000000 0.128014
O O20 0.273708 0.500000 0.916319
O O21 0.000000 0.281029 0.000000
#
# Coordination Sequence:
#
# PCOD9155285 Si02
#       8
#     4   4   4   4   4   4   4   4
#     4   9  17  35  60  76  93 129 177 217 248 292
#     4  11  22  34  49  73 107 139 166 201 257 318
#     4  10  19  33  53  75 100 131 174 219 250 287
#     4   9  17  31  53  77 102 135 171 211 257 300
#     4   9  15  29  53  77  96 123 172 220 250 285
#     4  10  20  33  52  77 102 130 170 218 254 290
#     4   8  17  34  55  77  98 127 169 217 258 294
#     4  10  21  34  48  75 114 142 160 199 262 316
#
# _framework density 19.753086
#
# number of rings (size 3 to 8) (size 9 to 14) (size 15 to 20)
#    0.000    2.500    1.250    2.250    0.000    3.250 
#    0.000    4.375    0.000    1.875    0.000    0.000 
#    0.000    0.000    0.000    0.000    0.000    0.000 
#
# Total GULP energy -178383.032586 kJ/mol
# GULP energy per Si atom -5574.469768 kJ/mol
# Density = 1.970813 g / cm^3
# Si number density = 19.753086 Si / 1000 Ang^3
#
#
#
# Elastic Constant Matrix: (Units=GPa)
#
#
# Indices 1 2 3 4 5 6 
#
# 1 78.8040 10.8965 21.3604 0.0000 24.1263 0.0000
# 2 10.8965 9.6492 16.6798 0.0000 3.1714 0.0000
# 3 21.3604 16.6798 64.2979 0.0000 18.1054 0.0000
# 4 0.0000 0.0000 0.0000 -40.8042 0.0000 69.7533
# 5 24.1263 3.1714 18.1054 0.0000 27.6859 0.0000
# 6 0.0000 0.0000 0.0000 69.7533 0.0000 -73.6761
#
#
#
# Elastic Compliance Matrix: (Units=1/GPa)
#
#
# Indices 1 2 3 4 5 6 
#
# 1 0.020452 -0.025778 0.005001 0.000000 -0.018140 0.000000
# 2 -0.025778 0.224090 -0.059650 0.000000 0.035803 0.000000
# 3 0.005001 -0.059650 0.035139 0.000000 -0.020504 0.000000
# 4 0.000000 0.000000 0.000000 0.039627 0.000000 0.037517
# 5 -0.018140 0.035803 -0.020504 0.000000 0.061235 0.000000
# 6 0.000000 0.000000 0.000000 0.037517 0.000000 0.021947
#
#
# Mechanical properties :
#
#
# Convention : Reuss Voigt Hill
#
# Bulk Modulus (GPa) = 8.41564 27.84717 18.13141
# Shear Modulus (GPa) = 8.29251 -10.43791 -1.07270
#
# Velocity S-wave (km/s) = 2.05115 -2.30123 -0.73772
# Velocity P-wave (km/s) = 3.14313 2.65845 2.91090
#
# Compressibility (1/GPa) = 0.11882632
#
# Stress axis : x y z
#
# Youngs Moduli (GPa) = 48.89414 4.46250 28.45837
#
# Poissons Ratio (x) = 0.11504 -0.14231
# Poissons Ratio (y) = 1.26041 1.69754
# Poissons Ratio (z) = -0.24451 0.26619
#
# Static dielectric constant tensor:
#      x y z
#    x 1.667790 0.000000 0.018500 
#    y 0.000000 1.667450 0.000000 
#    z 0.018500 0.000000 1.758540 
# 
# From -- ./inp_files/63828.got.cif
#   From: 2010.05.17/outbox.ucp.g08.bks.cvg/sg10_32_cif.got.tgz:63828.got - 2010.06.11 11:31:16.
