data_PCOD9155457
_publ_section_title
;
Structure prediction by ZEFSAII (Michael W. Deem and Ramdas Pophale) SiO2 
 PCOD9155457
Probable space group: P 2/M
;
_chemical_formula_sum "Si O2"
_cell_formula_units_Z 32
_cell_length_a 27.000000
_cell_length_b 9.000000
_cell_length_c 21.000000
_cell_angle_alpha 90.000000
_cell_angle_beta 20.000000
_cell_angle_gamma 90.000000
_cell_volume 1745.328791
_symmetry_space_group_name_H-M "P 2/M"
_symmetry_group_IT_number 10
_symmetry_cell_setting 'monoclinic'
loop_
_space_group_symop_operation_xyz
x,y,z
-x,y,-z
-x,-y,-z
x,-y,z
loop_
_atom_site_type_symbol
_atom_site_label
_atom_site_fract_x
_atom_site_fract_y
_atom_site_fract_z
Si Si1 0.846435 0.671981 0.106211
Si Si2 0.787483 0.819969 0.913873
Si Si3 0.462973 0.180236 0.873696
Si Si4 0.348274 0.178939 0.148774
Si Si5 0.194726 0.327130 0.705824
Si Si6 0.899029 0.821495 0.914681
Si Si7 0.041567 0.677517 0.523460
Si Si8 0.228282 0.821667 0.535456
O O1 0.806349 0.500000 0.145490
O O2 0.020180 0.675685 0.908022
O O3 0.825249 0.762951 0.067899
O O4 0.775722 0.724674 0.257810
O O5 0.813771 0.775484 0.954837
O O6 0.918170 0.752172 0.715274
O O7 0.795791 0.000000 0.899821
O O8 0.633848 0.773554 0.069443
O O9 0.629192 0.232921 0.673721
O O10 0.470024 0.000000 0.864810
O O11 0.375947 0.221058 0.041962
O O12 0.199914 0.256693 0.348833
O O13 0.329578 0.000000 0.177085
O O14 0.500000 0.216245 0.000000
O O15 0.238715 0.500000 0.646186
O O16 0.252799 0.227578 0.578760
O O17 0.068119 0.768648 0.708074
O O18 0.903471 0.000000 0.911640
O O19 0.042293 0.500000 0.530698
O O20 0.000000 0.710468 0.500000
O O21 0.224499 0.000000 0.535770
#
# Coordination Sequence:
#
# PCOD9155457 Si02
#       8
#     4   4   4   4   4   4   4   4
#     4   8  14  26  45  67  97 129 159 198 243 293
#     4  10  20  35  55  74  98 135 173 207 249 305
#     4   9  18  33  51  73 100 131 165 203 251 302
#     4  10  21  36  59  83 102 133 174 214 257 308
#     4   8  14  26  44  68  95 128 164 196 238 295
#     4   9  18  29  47  75 100 123 160 209 249 290
#     4  11  23  38  55  77 106 136 171 215 258 305
#     4   9  17  29  46  71 101 126 156 205 254 292
#
# _framework density 18.334654
#
# number of rings (size 3 to 8) (size 9 to 14) (size 15 to 20)
#    0.000    2.750    1.250    1.125    1.750    1.750 
#    0.000    3.750    0.000    0.750    0.000    5.250 
#    0.000    0.000    0.000    0.000    0.000    0.000 
#
# Total GULP energy -178237.525583 kJ/mol
# GULP energy per Si atom -5569.922674 kJ/mol
# Density = 1.829292 g / cm^3
# Si number density = 18.334654 Si / 1000 Ang^3
#
#
#
# Elastic Constant Matrix: (Units=GPa)
#
#
# Indices 1 2 3 4 5 6 
#
# 1 86.6725 8.2266 -14.3763 0.0000 -10.1095 0.0000
# 2 8.2266 3.5121 -6.3498 0.0000 -5.9940 0.0000
# 3 -14.3763 -6.3498 8.4299 0.0000 -13.3616 0.0000
# 4 0.0000 0.0000 0.0000 4.7582 0.0000 -2.1721
# 5 -10.1095 -5.9940 -13.3616 0.0000 20.5791 0.0000
# 6 0.0000 0.0000 0.0000 -2.1721 0.0000 12.3129
#
#
#
# Elastic Compliance Matrix: (Units=1/GPa)
#
#
# Indices 1 2 3 4 5 6 
#
# 1 0.014818 -0.030356 0.002407 0.000000 0.000001 0.000000
# 2 -0.030356 0.064515 -0.102170 0.000000 -0.062458 0.000000
# 3 0.002407 -0.102170 -0.016379 0.000000 -0.039211 0.000000
# 4 0.000000 0.000000 0.000000 0.228571 0.000000 0.040322
# 5 0.000001 -0.062458 -0.039211 0.000000 0.004943 0.000000
# 6 0.000000 0.000000 0.000000 0.040322 0.000000 0.088328
#
#
# Mechanical properties :
#
#
# Convention : Reuss Voigt Hill
#
# Bulk Modulus (GPa) = -5.06887 8.17949 1.55531
# Shear Modulus (GPa) = 8.63151 14.93765 11.78458
#
# Velocity S-wave (km/s) = 2.17209 2.85743 2.53800
# Velocity P-wave (km/s) = 1.87616 3.91886 3.07225
#
# Compressibility (1/GPa) = -0.19728271
#
# Stress axis : x y z
#
# Youngs Moduli (GPa) = 67.48408 15.50033 -61.05541
#
# Poissons Ratio (x) = 0.47052 0.14698
# Poissons Ratio (y) = 2.04852 -6.23805
# Poissons Ratio (z) = -0.16246 1.58367
#
# Static dielectric constant tensor:
#      x y z
#    x 1.664880 0.000000 0.013850 
#    y 0.000000 1.611340 0.000000 
#    z 0.013850 0.000000 1.627810 
# 
# From -- ./inp_files/86730.got.cif
#   From: 2010.05.17/outbox.ucp.g08.bks.cvg/sg10_44_cif.got.tgz:86730.got - 2010.06.11 11:31:16.
