data_PCOD9155078
_publ_section_title
;
Structure prediction by ZEFSAII (Michael W. Deem and Ramdas Pophale) SiO2 
 PCOD9155078
Probable space group: P 2/M
;
_chemical_formula_sum "Si O2"
_cell_formula_units_Z 28
_cell_length_a 14.747163
_cell_length_b 9.330992
_cell_length_c 11.091170
_cell_angle_alpha 90.000000
_cell_angle_beta 79.421667
_cell_angle_gamma 90.000000
_cell_volume 1500.269626
_symmetry_space_group_name_H-M "P 2/M"
_symmetry_group_IT_number 10
_symmetry_cell_setting 'monoclinic'
loop_
_space_group_symop_operation_xyz
x,y,z
-x,y,-z
-x,-y,-z
x,-y,z
loop_
_atom_site_type_symbol
_atom_site_label
_atom_site_fract_x
_atom_site_fract_y
_atom_site_fract_z
Si Si1 0.103167 0.169985 0.481944
Si Si2 0.392284 0.830790 0.768835
Si Si3 0.446741 0.335298 0.383575
Si Si4 0.286423 0.829109 0.542151
Si Si5 0.105642 0.832100 0.209752
Si Si6 0.217622 0.828144 0.945997
Si Si7 0.942585 0.336657 0.140086
O O1 0.181591 0.224915 0.552641
O O2 0.141073 0.184349 0.336577
O O3 0.000000 0.231531 0.500000
O O4 0.092132 0.000000 0.512808
O O5 0.484577 0.740907 0.726710
O O6 0.329868 0.809841 0.663633
O O7 0.323532 0.789902 0.893787
O O8 0.414506 0.000000 0.770756
O O9 0.500000 0.332516 0.500000
O O10 0.429511 0.500000 0.356319
O O11 0.353407 0.249162 0.431720
O O12 0.287193 0.000000 0.518071
O O13 0.011913 0.743836 0.212694
O O14 0.082423 0.000000 0.198191
O O15 0.179383 0.793808 0.088522
O O16 0.149425 0.749916 0.869458
O O17 0.209747 0.000000 0.929896
O O18 0.923780 0.500000 0.180697
O O19 0.000000 0.339312 0.000000
#
# Coordination Sequence:
#
# PCOD9155078 Si02
#       7
#     4   4   4   4   4   4   4
#     4   9  18  30  48  71  94 125 163 198 228 268
#     4   9  17  28  47  73  97 118 149 192 236 284
#     4   9  17  30  48  70  96 122 149 187 238 285
#     4   9  17  30  48  69  93 123 157 191 230 276
#     4   9  17  30  47  65  91 123 159 197 232 274
#     4   9  17  28  45  70  94 120 152 193 241 279
#     4   9  17  28  42  62  89 122 157 191 231 277
#
# _framework density 18.663312999999999
#
# number of rings (size 3 to 8) (size 9 to 14) (size 15 to 20)
#    0.000    3.000    0.000    0.857    2.000    4.000 
#    0.000    0.714    0.000    1.714    0.000    6.000 
#    0.000    0.000    0.000    0.000    0.000    0.000 
#
# Total GULP energy -156009.165348 kJ/mol
# GULP energy per Si atom -5571.755905 kJ/mol
# Density = 1.862083 g / cm^3
# Si number density = 18.663313 Si / 1000 Ang^3
#
#
#
# Elastic Constant Matrix: (Units=GPa)
#
#
# Indices 1 2 3 4 5 6 
#
# 1 64.1645 13.7442 14.6728 0.0000 -21.3247 0.0000
# 2 13.7442 26.7269 18.2130 0.0000 -10.8489 0.0000
# 3 14.6728 18.2130 44.8852 0.0000 -25.4429 0.0000
# 4 0.0000 0.0000 0.0000 7.4376 0.0000 -0.1579
# 5 -21.3247 -10.8489 -25.4429 0.0000 30.7091 0.0000
# 6 0.0000 0.0000 0.0000 -0.1579 0.0000 3.1053
#
#
#
# Elastic Compliance Matrix: (Units=1/GPa)
#
#
# Indices 1 2 3 4 5 6 
#
# 1 0.021660 -0.008264 0.005927 0.000000 0.017033 0.000000
# 2 -0.008264 0.054914 -0.022319 0.000000 -0.004830 0.000000
# 3 0.005927 -0.022319 0.051401 0.000000 0.038818 0.000000
# 4 0.000000 0.000000 0.000000 0.134597 0.000000 0.006844
# 5 0.017033 -0.004830 0.038818 0.000000 0.074846 0.000000
# 6 0.000000 0.000000 0.000000 0.006844 0.000000 0.322381
#
#
# Mechanical properties :
#
#
# Convention : Reuss Voigt Hill
#
# Bulk Modulus (GPa) = 12.71220 25.44851 19.08035
# Shear Modulus (GPa) = 6.79966 14.19351 10.49658
#
# Velocity S-wave (km/s) = 1.91082 2.76071 2.37411
# Velocity P-wave (km/s) = 3.41971 4.88132 4.21436
#
# Compressibility (1/GPa) = 0.07866461
#
# Stress axis : x y z
#
# Youngs Moduli (GPa) = 46.16723 18.21039 19.45479
#
# Poissons Ratio (x) = 0.15049 -0.11532
# Poissons Ratio (y) = 0.38153 0.43420
# Poissons Ratio (z) = -0.27365 0.40643
#
# Static dielectric constant tensor:
#      x y z
#    x 1.643940 0.000000 -0.013490 
#    y 0.000000 1.628190 0.000000 
#    z -0.013490 0.000000 1.681480 
# 
# From -- ./inp_files/49206.got.cif
#   From: 2010.05.17/outbox.cif.g08.bks.cpg/sg10_25_cif.got.tgz:49206.got - 2010.06.03 11:33:40.
