data_PCOD9155846
_publ_section_title
;
Structure prediction by ZEFSAII (Michael W. Deem and Ramdas Pophale) SiO2 
 PCOD9155846
Probable space group: P 21/M
;
_chemical_formula_sum "Si O2"
_cell_formula_units_Z 32
_cell_length_a 16.733665
_cell_length_b 8.850486
_cell_length_c 14.622733
_cell_angle_alpha 90.000000
_cell_angle_beta 84.115908
_cell_angle_gamma 90.000000
_cell_volume 2154.232292
_symmetry_space_group_name_H-M "P 21/M"
_symmetry_group_IT_number 11
_symmetry_cell_setting 'monoclinic'
loop_
_space_group_symop_operation_xyz
x,y,z
-x,1/2+y,-z
-x,-y,-z
x,1/2-y,z
loop_
_atom_site_type_symbol
_atom_site_label
_atom_site_fract_x
_atom_site_fract_y
_atom_site_fract_z
Si Si1 0.265224 0.429554 0.939746
Si Si2 0.028097 0.576019 0.856049
Si Si3 0.806810 0.431878 0.238154
Si Si4 0.117569 0.577508 0.043395
Si Si5 0.319688 0.068758 0.620917
Si Si6 0.438942 0.931238 0.934451
Si Si7 0.427185 0.068691 0.450000
Si Si8 0.533890 0.431771 0.278950
O O1 0.271025 0.250000 0.930575
O O2 0.238051 0.499520 0.845346
O O3 0.350188 0.500602 0.956423
O O4 0.195522 0.475116 0.019343
O O5 0.007654 0.750000 0.838419
O O6 0.099295 0.523891 0.780545
O O7 0.947497 0.480335 0.876124
O O8 0.071451 0.574167 0.950693
O O9 0.802632 0.250000 0.232359
O O10 0.760241 0.491377 0.331824
O O11 0.141342 0.750000 0.057826
O O12 0.312500 0.250000 0.627526
O O13 0.347246 0.023924 0.514741
O O14 0.392222 0.013985 0.678889
O O15 0.436068 0.750000 0.942859
O O16 0.466391 0.969153 0.827585
O O17 0.500000 0.000000 0.000000
O O18 0.430448 0.250000 0.456219
O O19 0.451769 0.029700 0.343385
O O20 0.500000 0.000000 0.500000
O O21 0.546987 0.250000 0.285600
#
# Coordination Sequence:
#
# PCOD9155846 Si02
#       8
#     4   4   4   4   4   4   4   4
#     4  11  20  30  44  59  77 103 137 174 210 247
#     4   8  15  25  36  53  76 104 136 167 196 233
#     4  10  18  27  39  56  82 112 140 168 203 243
#     4   9  16  26  40  56  76 101 132 167 203 243
#     4  10  17  24  39  61  83 105 136 171 202 241
#     4  11  22  34  47  62  81 106 139 178 218 254
#     4   8  15  26  39  58  78 101 132 166 202 242
#     4   9  17  30  45  56  76 106 135 169 210 250
#
# _framework density 14.854481
#
# number of rings (size 3 to 8) (size 9 to 14) (size 15 to 20)
#    0.000    2.500    1.250    3.375    0.000    4.500 
#    0.000    0.000    0.000    0.000    0.000    0.000 
#    0.000    0.000    0.000    1.125    0.000   13.000 
#
# Total GULP energy -178159.685811 kJ/mol
# GULP energy per Si atom -5567.490182 kJ/mol
# Density = 1.482067 g / cm^3
# Si number density = 14.854481 Si / 1000 Ang^3
#
#
#
# Elastic Constant Matrix: (Units=GPa)
#
#
# Indices 1 2 3 4 5 6 
#
# 1 79.6460 33.5707 48.4168 0.0000 -33.0610 0.0000
# 2 33.5707 55.2892 27.6889 0.0000 -12.1125 0.0000
# 3 48.4168 27.6889 58.4611 0.0000 -26.7852 0.0000
# 4 0.0000 0.0000 0.0000 14.4386 0.0000 -6.4658
# 5 -33.0610 -12.1125 -26.7852 0.0000 31.9032 0.0000
# 6 0.0000 0.0000 0.0000 -6.4658 0.0000 23.9759
#
#
#
# Elastic Compliance Matrix: (Units=1/GPa)
#
#
# Indices 1 2 3 4 5 6 
#
# 1 0.032603 -0.008473 -0.014597 0.000000 0.018313 0.000000
# 2 -0.008473 0.025922 -0.007758 0.000000 -0.005453 0.000000
# 3 -0.014597 -0.007758 0.039960 0.000000 0.015477 0.000000
# 4 0.000000 0.000000 0.000000 0.078772 0.000000 0.021243
# 5 0.018313 -0.005453 0.015477 0.000000 0.061247 0.000000
# 6 0.000000 0.000000 0.000000 0.021243 0.000000 0.047437
#
#
# Mechanical properties :
#
#
# Convention : Reuss Voigt Hill
#
# Bulk Modulus (GPa) = 27.15366 45.86103 36.50735
# Shear Modulus (GPa) = 13.89369 19.64485 16.76927
#
# Velocity S-wave (km/s) = 3.06162 3.64055 3.36356
# Velocity P-wave (km/s) = 5.55135 6.97223 6.30196
#
# Compressibility (1/GPa) = 0.03682744
#
# Stress axis : x y z
#
# Youngs Moduli (GPa) = 30.67245 38.57656 25.02476
#
# Poissons Ratio (x) = 0.32688 0.36529
# Poissons Ratio (y) = 0.25990 0.19415
# Poissons Ratio (z) = 0.44773 0.29929
#
# Static dielectric constant tensor:
#      x y z
#    x 1.493300 0.000000 -0.056780 
#    y 0.000000 1.498710 0.000000 
#    z -0.056780 0.000000 1.502100 
# 
# From -- ./inp_files/51328.got.cif
#   From: 2010.05.17/outbox.cif.g08.bks.cpg/sg11_26_cif.got.tgz:51328.got - 2010.06.03 12:22:45.
