data_PCOD9155764
_publ_section_title
;
Structure prediction by ZEFSAII (Michael W. Deem and Ramdas Pophale) SiO2 
 PCOD9155764
Probable space group: P 21/M
;
_chemical_formula_sum "Si O2"
_cell_formula_units_Z 32
_cell_length_a 11.496239
_cell_length_b 8.566582
_cell_length_c 19.642541
_cell_angle_alpha 90.000000
_cell_angle_beta 95.530379
_cell_angle_gamma 90.000000
_cell_volume 1925.461204
_symmetry_space_group_name_H-M "P 21/M"
_symmetry_group_IT_number 11
_symmetry_cell_setting 'monoclinic'
loop_
_space_group_symop_operation_xyz
x,y,z
-x,1/2+y,-z
-x,-y,-z
x,1/2-y,z
loop_
_atom_site_type_symbol
_atom_site_label
_atom_site_fract_x
_atom_site_fract_y
_atom_site_fract_z
Si Si1 0.015443 0.563781 0.794885
Si Si2 0.732029 0.937593 0.236996
Si Si3 0.805729 0.063935 0.376554
Si Si4 0.128193 0.063672 0.484981
Si Si5 0.579826 0.561793 0.102293
Si Si6 0.924060 0.061872 0.932834
Si Si7 0.669122 0.438145 0.967782
Si Si8 0.060177 0.563860 0.345272
O O1 0.024576 0.750000 0.791836
O O2 0.143314 0.491786 0.786768
O O3 0.971072 0.508614 0.865405
O O4 0.929806 0.503808 0.729942
O O5 0.733257 0.750000 0.243102
O O6 0.633581 0.986752 0.177361
O O7 0.720183 0.010866 0.311404
O O8 0.816824 0.250000 0.378513
O O9 0.786105 0.000863 0.451694
O O10 0.929775 0.989975 0.360248
O O11 0.125931 0.250000 0.486100
O O12 0.143878 0.002996 0.408965
O O13 0.000000 0.000000 0.500000
O O14 0.581757 0.750000 0.100891
O O15 0.447283 0.509871 0.079136
O O16 0.657370 0.501658 0.043722
O O17 0.931138 0.250000 0.930300
O O18 0.789711 0.015640 0.939445
O O19 0.000000 0.000000 0.000000
O O20 0.667049 0.250000 0.971128
O O21 0.065743 0.750000 0.344866
#
# Coordination Sequence:
#
# PCOD9155764 Si02
#       8
#     4   4   4   4   4   4   4   4
#     4  11  21  32  45  64  91 121 154 188 224 267
#     4  10  18  29  45  65  90 119 151 186 226 269
#     4  10  17  25  37  57  85 116 150 184 220 263
#     4  10  16  24  37  55  81 114 150 184 221 262
#     4   9  18  32  50  69  89 114 146 184 225 269
#     4  11  22  35  50  68  92 120 151 186 225 267
#     4   9  19  34  50  68  89 115 147 184 225 268
#     4  10  17  27  41  58  82 114 151 186 223 264
#
# _framework density 16.619395000000001
#
# number of rings (size 3 to 8) (size 9 to 14) (size 15 to 20)
#    0.000    2.000    0.000    9.000    0.000    4.000 
#    0.000    0.000    0.000    0.000    0.000    0.000 
#    0.000    1.000    0.000    2.750    0.000    6.250 
#
# Total GULP energy -178430.462162 kJ/mol
# GULP energy per Si atom -5575.951943 kJ/mol
# Density = 1.658157 g / cm^3
# Si number density = 16.619395 Si / 1000 Ang^3
#
#
#
# Elastic Constant Matrix: (Units=GPa)
#
#
# Indices 1 2 3 4 5 6 
#
# 1 32.4896 10.1298 30.4286 0.0000 8.1986 0.0000
# 2 10.1298 79.8955 34.4906 0.0000 6.0252 0.0000
# 3 30.4286 34.4906 158.2969 0.0000 28.4137 0.0000
# 4 0.0000 0.0000 0.0000 32.6580 0.0000 3.0957
# 5 8.1986 6.0252 28.4137 0.0000 21.0893 0.0000
# 6 0.0000 0.0000 0.0000 3.0957 0.0000 11.0551
#
#
#
# Elastic Compliance Matrix: (Units=1/GPa)
#
#
# Indices 1 2 3 4 5 6 
#
# 1 0.038461 -0.001875 -0.005800 0.000000 -0.006603 0.000000
# 2 -0.001875 0.013908 -0.002753 0.000000 0.000465 0.000000
# 3 -0.005800 -0.002753 0.009874 0.000000 -0.010262 0.000000
# 4 0.000000 0.000000 0.000000 0.031455 0.000000 -0.008808
# 5 -0.006603 0.000465 -0.010262 0.000000 0.063677 0.000000
# 6 0.000000 0.000000 0.000000 -0.008808 0.000000 0.092923
#
#
# Mechanical properties :
#
#
# Convention : Reuss Voigt Hill
#
# Bulk Modulus (GPa) = 24.16194 46.75333 35.45764
# Shear Modulus (GPa) = 17.54695 26.00267 21.77481
#
# Velocity S-wave (km/s) = 3.25285 3.95979 3.62360
# Velocity P-wave (km/s) = 5.35519 7.00710 6.23608
#
# Compressibility (1/GPa) = 0.04138740
#
# Stress axis : x y z
#
# Youngs Moduli (GPa) = 26.00007 71.90313 101.27649
#
# Poissons Ratio (x) = 0.13481 0.58736
# Poissons Ratio (y) = 0.04875 0.27885
# Poissons Ratio (z) = 0.15079 0.19797
#
# Static dielectric constant tensor:
#      x y z
#    x 1.552850 0.000000 0.034190 
#    y 0.000000 1.573680 0.000000 
#    z 0.034190 0.000000 1.610970 
# 
# From -- ./inp_files/58701.got.cif
#   From: 2010.05.17/outbox.cif.g08.bks.cpg/sg11_30_cif.got.tgz:58701.got - 2010.06.03 12:22:45.
