data_PCOD9155634
_publ_section_title
;
Structure prediction by ZEFSAII (Michael W. Deem and Ramdas Pophale) SiO2 
 PCOD9155634
Probable space group: P 2/M
;
_chemical_formula_sum "Si O2"
_cell_formula_units_Z 28
_cell_length_a 30.000000
_cell_length_b 9.000000
_cell_length_c 30.000000
_cell_angle_alpha 90.000000
_cell_angle_beta 170.000000
_cell_angle_gamma 90.000000
_cell_volume 1406.550239
_symmetry_space_group_name_H-M "P 2/M"
_symmetry_group_IT_number 10
_symmetry_cell_setting 'monoclinic'
loop_
_space_group_symop_operation_xyz
x,y,z
-x,y,-z
-x,-y,-z
x,-y,z
loop_
_atom_site_type_symbol
_atom_site_label
_atom_site_fract_x
_atom_site_fract_y
_atom_site_fract_z
Si Si1 0.591310 0.325850 0.754109
Si Si2 0.368856 0.327168 0.100266
Si Si3 0.393231 0.326909 0.944986
Si Si4 0.888437 0.173000 0.581212
Si Si5 0.886425 0.176558 0.762735
Si Si6 0.123938 0.173222 0.536912
Si Si7 0.763359 0.326466 0.733292
O O1 0.583177 0.500000 0.733430
O O2 0.632367 0.315961 0.847492
O O3 0.325141 0.248818 0.478258
O O4 0.833720 0.246847 0.969955
O O5 0.340496 0.500000 0.060084
O O6 0.638585 0.264730 0.348908
O O7 0.136827 0.235577 0.850625
O O8 0.375116 0.500000 0.939499
O O9 0.113765 0.253974 0.673496
O O10 0.500000 0.316219 0.000000
O O11 0.603730 0.245727 0.182789
O O12 0.923128 0.184471 0.562269
O O13 0.849824 0.000000 0.554462
O O14 0.797522 0.222068 0.724611
O O15 0.895395 0.000000 0.765799
O O16 0.129262 0.000000 0.554752
O O17 0.500000 0.297661 0.500000
O O18 0.760362 0.500000 0.715541
O O19 0.000000 0.308055 0.000000
#
# Coordination Sequence:
#
# PCOD9155634 Si02
#       7
#     4   4   4   4   4   4   4
#     4  11  24  43  64  88 123 164 205 248 297 362
#     4  11  24  41  64  92 120 158 207 252 297 355
#     4  11  24  41  62  90 122 157 200 251 304 354
#     4  11  24  41  62  90 125 160 197 248 305 360
#     4  12  25  40  63  95 126 158 201 254 307 355
#     4  11  24  41  62  90 122 160 203 244 297 363
#     4  10  21  38  61  87 118 160 203 242 295 361
#
# _framework density 19.906860999999999
#
# number of rings (size 3 to 8) (size 9 to 14) (size 15 to 20)
#    0.000    1.000    0.000    6.429    0.000   16.000 
#    0.000    0.000    0.000    0.000    0.000    0.000 
#    0.000    0.000    0.000    0.000    0.000    0.000 
#
# Total GULP energy -156754.022268 kJ/mol
# GULP energy per Si atom -5598.357938 kJ/mol
# Density = 1.986155 g / cm^3
# Si number density = 19.906861 Si / 1000 Ang^3
#
#
#
# Elastic Constant Matrix: (Units=GPa)
#
#
# Indices 1 2 3 4 5 6 
#
# 1 25.8571 27.1218 -7.8972 0.0000 1.9320 0.0000
# 2 27.1218 104.3426 -4.8095 0.0000 1.9909 0.0000
# 3 -7.8972 -4.8095 63.8847 0.0000 5.1832 0.0000
# 4 0.0000 0.0000 0.0000 34.9631 0.0000 -0.4581
# 5 1.9320 1.9909 5.1832 0.0000 37.1289 0.0000
# 6 0.0000 0.0000 0.0000 -0.4581 0.0000 16.6194
#
#
#
# Elastic Compliance Matrix: (Units=1/GPa)
#
#
# Indices 1 2 3 4 5 6 
#
# 1 0.055531 -0.014099 0.006045 0.000000 -0.002977 0.000000
# 2 -0.014099 0.013211 -0.000759 0.000000 0.000131 0.000000
# 3 0.006045 -0.000759 0.016553 0.000000 -0.002585 0.000000
# 4 0.000000 0.000000 0.000000 0.028612 0.000000 0.000789
# 5 -0.002977 0.000131 -0.002585 0.000000 0.027442 0.000000
# 6 0.000000 0.000000 0.000000 0.000789 0.000000 0.060192
#
#
# Mechanical properties :
#
#
# Convention : Reuss Voigt Hill
#
# Bulk Modulus (GPa) = 14.77777 24.76827 19.77302
# Shear Modulus (GPa) = 20.68479 29.72026 25.20252
#
# Velocity S-wave (km/s) = 3.22697 3.86808 3.56198
# Velocity P-wave (km/s) = 4.61779 5.69373 5.18375
#
# Compressibility (1/GPa) = 0.06766919
#
# Stress axis : x y z
#
# Youngs Moduli (GPa) = 18.00794 75.69436 60.41205
#
# Poissons Ratio (x) = 1.06720 -0.36517
# Poissons Ratio (y) = 0.25389 0.04585
# Poissons Ratio (z) = -0.10885 0.05744
#
# Static dielectric constant tensor:
#      x y z
#    x 1.690650 0.000000 -0.005240 
#    y 0.000000 1.676270 0.000000 
#    z -0.005240 0.000000 1.646900 
# 
# From -- ./inp_files/13569.got.cif
#   From: 2010.05.17/outbox.ucp.g08.bks.cvg/sg10_7_cif.got.tgz:13569.got - 2010.06.11 11:31:16.
