data_PCOD9155037
_publ_section_title
;
Structure prediction by ZEFSAII (Michael W. Deem and Ramdas Pophale) SiO2 
 PCOD9155037
Probable space group: P 2/M
;
_chemical_formula_sum "Si O2"
_cell_formula_units_Z 28
_cell_length_a 24.367361
_cell_length_b 7.867553
_cell_length_c 20.186248
_cell_angle_alpha 90.000000
_cell_angle_beta 25.343515
_cell_angle_gamma 90.000000
_cell_volume 1656.504313
_symmetry_space_group_name_H-M "P 2/M"
_symmetry_group_IT_number 10
_symmetry_cell_setting 'monoclinic'
loop_
_space_group_symop_operation_xyz
x,y,z
-x,y,-z
-x,-y,-z
x,-y,z
loop_
_atom_site_type_symbol
_atom_site_label
_atom_site_fract_x
_atom_site_fract_y
_atom_site_fract_z
Si Si1 0.172881 0.000000 0.245379
Si Si2 0.077139 0.205546 0.736517
Si Si3 0.883290 0.311335 0.451424
Si Si4 0.779108 0.794487 0.043112
Si Si5 0.358437 0.208048 0.674282
Si Si6 0.193117 0.688674 0.132699
Si Si7 0.861847 0.000000 0.565378
Si Si8 0.865862 0.207744 0.179526
O O1 0.223743 0.834482 0.151723
O O2 0.196702 0.000000 0.297590
O O3 0.017309 0.000000 0.405717
O O4 0.138361 0.276525 0.602672
O O5 0.137358 0.260875 0.740350
O O6 0.082676 0.000000 0.726459
O O7 0.925899 0.251762 0.901560
O O8 0.840371 0.500000 0.516435
O O9 0.038470 0.304560 0.290667
O O10 0.829766 0.165450 0.557059
O O11 0.687071 0.739352 0.202925
O O12 0.775820 0.000000 0.042165
O O13 0.750271 0.723698 0.001878
O O14 0.500000 0.264085 0.500000
O O15 0.252707 0.262888 0.736030
O O16 0.357652 0.000000 0.675264
O O17 0.226510 0.500000 0.119173
O O18 0.866392 0.000000 0.178852
O O19 0.000000 0.260725 0.000000
#
# Coordination Sequence:
#
# PCOD9155037 Si02
#       8
#     2   4   4   4   4   4   2   4
#     4   9  16  26  38  56  80 111 146 181 215 265
#     4   9  14  22  39  56  77 107 148 190 221 262
#     4   9  16  25  37  56  81 110 144 181 222 266
#     4   9  14  23  39  55  77 110 145 185 228 267
#     4   9  16  24  36  59  88 115 148 192 238 277
#     4   9  16  25  38  57  79 107 146 186 221 259
#     4   9  16  26  38  54  82 114 144 174 221 271
#     4   9  14  22  36  59  81 110 153 192 230 271
#
# _framework density 16.903065000000002
#
# number of rings (size 3 to 8) (size 9 to 14) (size 15 to 20)
#    0.000    3.000    2.857    0.000    0.000    0.571 
#    0.000    2.857    0.000    1.714    0.000    0.000 
#    0.000    0.000    0.000    2.571    0.000    4.857 
#
# Total GULP energy -155996.575173 kJ/mol
# GULP energy per Si atom -5571.306256 kJ/mol
# Density = 1.686459 g / cm^3
# Si number density = 16.903065 Si / 1000 Ang^3
#
#
#
# Elastic Constant Matrix: (Units=GPa)
#
#
# Indices 1 2 3 4 5 6 
#
# 1 94.0041 50.2644 63.1390 0.0000 35.7076 0.0000
# 2 50.2644 82.9843 41.3859 0.0000 28.3001 0.0000
# 3 63.1390 41.3859 73.8245 0.0000 24.9952 0.0000
# 4 0.0000 0.0000 0.0000 -1.5425 0.0000 -3.3776
# 5 35.7076 28.3001 24.9952 0.0000 35.5655 0.0000
# 6 0.0000 0.0000 0.0000 -3.3776 0.0000 -2.9834
#
#
#
# Elastic Compliance Matrix: (Units=1/GPa)
#
#
# Indices 1 2 3 4 5 6 
#
# 1 0.031844 -0.004458 -0.019831 0.000000 -0.014487 0.000000
# 2 -0.004458 0.019762 -0.004537 0.000000 -0.008061 0.000000
# 3 -0.019831 -0.004537 0.032919 0.000000 0.000385 0.000000
# 4 0.000000 0.000000 0.000000 0.438315 0.000000 -0.496230
# 5 -0.014487 -0.008061 0.000385 0.000000 0.048806 0.000000
# 6 0.000000 0.000000 0.000000 -0.496230 0.000000 0.226612
#
#
# Mechanical properties :
#
#
# Convention : Reuss Voigt Hill
#
# Bulk Modulus (GPa) = 37.20970 62.26570 49.73770
# Shear Modulus (GPa) = 5.78123 12.60950 9.19536
#
# Velocity S-wave (km/s) = 1.85139 2.73424 2.33492
# Velocity P-wave (km/s) = 5.16058 6.84726 6.06286
#
# Compressibility (1/GPa) = 0.02687471
#
# Stress axis : x y z
#
# Youngs Moduli (GPa) = 31.40311 50.60147 30.37739
#
# Poissons Ratio (x) = 0.22556 0.60241
# Poissons Ratio (y) = 0.13998 0.13782
# Poissons Ratio (z) = 0.62275 0.22958
#
# Static dielectric constant tensor:
#      x y z
#    x 1.553750 0.000000 0.019150 
#    y 0.000000 1.609310 0.000000 
#    z 0.019150 0.000000 1.542980 
# 
# From -- ./inp_files/79861.got.cif
#   From: 2010.05.17/outbox.cif.g08.bks.cpg/sg10_40_cif.got.tgz:79861.got - 2010.06.03 11:33:40.
