data_PCOD9155034
_publ_section_title
;
Structure prediction by ZEFSAII (Michael W. Deem and Ramdas Pophale) SiO2 
 PCOD9155034
Probable space group: P 2/M
;
_chemical_formula_sum "Si O2"
_cell_formula_units_Z 24
_cell_length_a 8.006403
_cell_length_b 17.216161
_cell_length_c 8.006444
_cell_angle_alpha 90.000000
_cell_angle_beta 63.165860
_cell_angle_gamma 90.000000
_cell_volume 984.764990
_symmetry_space_group_name_H-M "P 2/M"
_symmetry_group_IT_number 10
_symmetry_cell_setting 'monoclinic'
loop_
_space_group_symop_operation_xyz
x,y,z
-x,y,-z
-x,-y,-z
x,-y,z
loop_
_atom_site_type_symbol
_atom_site_label
_atom_site_fract_x
_atom_site_fract_y
_atom_site_fract_z
Si Si1 0.379945 0.089550 0.379946
Si Si2 0.560377 0.334534 0.202078
Si Si3 0.294112 0.175500 0.944190
Si Si4 0.055809 0.824499 0.705889
Si Si5 0.797923 0.665466 0.439622
Si Si6 0.062121 0.500000 0.699792
Si Si7 0.300209 0.500000 0.937877
O O1 0.500000 0.092155 0.500000
O O2 0.514721 0.130762 0.184567
O O3 0.184566 0.130763 0.514722
O O4 0.349672 0.000000 0.349674
O O5 0.653082 0.265785 0.055200
O O6 0.347558 0.317419 0.347559
O O7 0.675255 0.333509 0.324745
O O8 0.585031 0.420700 0.121932
O O9 0.174322 0.171158 0.825678
O O10 0.151166 0.147455 0.151165
O O11 0.055198 0.734215 0.653083
O O12 0.878069 0.579300 0.414968
O O13 0.175645 0.500000 0.824355
O O14 0.844906 0.500000 0.844908
#
# Coordination Sequence:
#
# PCOD9155034 Si02
#       7
#     4   4   4   4   4   2   2
#     4   9  16  24  30  35  41  45  51  62  70  76
#     4   9  14  20  27  33  41  50  56  60  65  71
#     4   9  15  22  30  36  41  48  54  59  67  75
#     4   9  15  22  30  36  41  48  54  59  67  75
#     4   9  14  20  27  33  41  50  56  60  65  71
#     4   9  15  19  23  33  43  49  57  62  63  69
#     4   9  15  19  23  33  43  49  57  62  63  69
#
# _framework density 24.371300000000002
#
# number of rings (size 3 to 8) (size 9 to 14) (size 15 to 20)
#    0.000    3.000    1.667    1.500    0.000    6.667 
#    0.000    3.333    0.000    0.000    0.000    0.000 
#    0.000    0.000    0.000    0.000    0.000    0.000 
#
# Total GULP energy -134273.591930 kJ/mol
# GULP energy per Si atom -5594.732997 kJ/mol
# Density = 2.431583 g / cm^3
# Si number density = 24.371300 Si / 1000 Ang^3
#
#
#
# Elastic Constant Matrix: (Units=GPa)
#
#
# Indices 1 2 3 4 5 6 
#
# 1 102.1692 5.0616 47.0029 0.0000 0.9423 0.0000
# 2 5.0616 158.3443 86.7545 0.0000 -34.2751 0.0000
# 3 47.0029 86.7545 201.4097 0.0000 -42.5801 0.0000
# 4 0.0000 0.0000 0.0000 -22.3528 0.0000 -12.1132
# 5 0.9423 -34.2751 -42.5801 0.0000 44.7168 0.0000
# 6 0.0000 0.0000 0.0000 -12.1132 0.0000 -51.2231
#
#
#
# Elastic Compliance Matrix: (Units=1/GPa)
#
#
# Indices 1 2 3 4 5 6 
#
# 1 0.011501 0.001043 -0.003776 0.000000 -0.003038 0.000000
# 2 0.001043 0.008877 -0.003297 0.000000 0.003643 0.000000
# 3 -0.003776 -0.003297 0.008450 0.000000 0.005599 0.000000
# 4 0.000000 0.000000 0.000000 -0.051313 0.000000 0.012134
# 5 -0.003038 0.003643 0.005599 0.000000 0.030550 0.000000
# 6 0.000000 0.000000 0.000000 0.012134 0.000000 -0.022392
#
#
# Mechanical properties :
#
#
# Convention : Reuss Voigt Hill
#
# Bulk Modulus (GPa) = 59.63301 82.17346 70.90324
# Shear Modulus (GPa) = 1505.55211 15.76846 760.66028
#
# Velocity S-wave (km/s) = 24.88167 2.54640 17.68589
# Velocity P-wave (km/s) = 29.15450 6.51429 21.12369
#
# Compressibility (1/GPa) = 0.01676924
#
# Stress axis : x y z
#
# Youngs Moduli (GPa) = 86.94903 112.65252 118.34533
#
# Poissons Ratio (x) = -0.11754 0.44683
# Poissons Ratio (y) = -0.09072 0.39019
# Poissons Ratio (z) = 0.32829 0.37142
#
# Static dielectric constant tensor:
#      x y z
#    x 1.995010 0.000000 0.043490 
#    y 0.000000 1.856990 0.000000 
#    z 0.043490 0.000000 1.891360 
# 
# From -- ./inp_files/47744.got.cif
#   From: 2010.05.17/outbox.cif.g08.bks.cpg/sg10_24_cif.got.tgz:47744.got - 2010.06.03 11:33:40.
