data_PCOD9155925
_publ_section_title
;
Structure prediction by ZEFSAII (Michael W. Deem and Ramdas Pophale) SiO2 
 PCOD9155925
Probable space group: P 21/M
;
_chemical_formula_sum "Si O2"
_cell_formula_units_Z 32
_cell_length_a 9.844568
_cell_length_b 7.847443
_cell_length_c 21.238349
_cell_angle_alpha 90.000000
_cell_angle_beta 93.531154
_cell_angle_gamma 90.000000
_cell_volume 1637.646930
_symmetry_space_group_name_H-M "P 21/M"
_symmetry_group_IT_number 11
_symmetry_cell_setting 'monoclinic'
loop_
_space_group_symop_operation_xyz
x,y,z
-x,1/2+y,-z
-x,-y,-z
x,1/2-y,z
loop_
_atom_site_type_symbol
_atom_site_label
_atom_site_fract_x
_atom_site_fract_y
_atom_site_fract_z
Si Si1 0.450349 0.541579 0.384036
Si Si2 0.784994 0.455683 0.533572
Si Si3 0.157506 0.449999 0.009089
Si Si4 0.743392 0.455266 0.735707
Si Si5 0.403838 0.547384 0.937983
Si Si6 0.755120 0.549627 0.393109
Si Si7 0.346361 0.454743 0.127553
Si Si8 0.977910 0.041727 0.655463
O O1 0.451600 0.750000 0.385314
O O2 0.361061 0.490056 0.441903
O O3 0.368201 0.489912 0.319179
O O4 0.603666 0.475887 0.387464
O O5 0.787264 0.250000 0.528261
O O6 0.808474 0.531635 0.465930
O O7 0.893343 0.504369 0.590197
O O8 0.156021 0.250000 0.018515
O O9 0.240843 0.524251 0.071628
O O10 0.253414 0.483164 0.950962
O O11 0.000000 0.500000 0.000000
O O12 0.745206 0.250000 0.734282
O O13 0.705091 0.507877 0.804408
O O14 0.889270 0.514618 0.712678
O O15 0.391501 0.750000 0.933314
O O16 0.499057 0.484096 0.883180
O O17 0.500000 0.500000 0.000000
O O18 0.741643 0.750000 0.378428
O O19 0.868960 0.478596 0.349353
O O20 0.351161 0.250000 0.120511
O O21 0.980976 0.250000 0.656728
#
# Coordination Sequence:
#
# PCOD9155925 Si02
#       8
#     4   4   4   4   4   4   4   4
#     4   8  16  29  44  62  86 115 147 189 234 273
#     4   9  16  28  43  61  87 114 142 180 232 289
#     4  10  20  34  53  79 110 137 162 197 245 293
#     4   9  17  32  50  64  84 123 165 191 223 279
#     4   9  17  31  51  75 104 134 165 201 241 285
#     4  10  17  27  44  64  85 110 145 190 236 279
#     4   9  19  34  52  75 101 129 160 200 245 282
#     4   8  16  29  44  62  87 118 150 188 231 274
#
# _framework density 19.540233000000001
#
# number of rings (size 3 to 8) (size 9 to 14) (size 15 to 20)
#    0.000    3.000    0.000    3.750    0.000    3.000 
#    0.000    5.000    0.000    1.500    0.000    0.000 
#    0.000    0.000    0.000    0.000    0.000    0.000 
#
# Total GULP energy -178265.450262 kJ/mol
# GULP energy per Si atom -5570.795321 kJ/mol
# Density = 1.949576 g / cm^3
# Si number density = 19.540233 Si / 1000 Ang^3
#
#
#
# Elastic Constant Matrix: (Units=GPa)
#
#
# Indices 1 2 3 4 5 6 
#
# 1 152.5884 7.8791 42.9426 0.0000 -43.8692 0.0000
# 2 7.8791 17.8898 -6.7669 0.0000 1.2208 0.0000
# 3 42.9426 -6.7669 79.7744 0.0000 -34.4847 0.0000
# 4 0.0000 0.0000 0.0000 22.8732 0.0000 -3.2894
# 5 -43.8692 1.2208 -34.4847 0.0000 27.4209 0.0000
# 6 0.0000 0.0000 0.0000 -3.2894 0.0000 16.1148
#
#
#
# Elastic Compliance Matrix: (Units=1/GPa)
#
#
# Indices 1 2 3 4 5 6 
#
# 1 0.013426 -0.006346 0.003598 0.000000 0.026287 0.000000
# 2 -0.006346 0.061535 0.006711 0.000000 -0.004453 0.000000
# 3 0.003598 0.006711 0.029641 0.000000 0.042733 0.000000
# 4 0.000000 0.000000 0.000000 0.045042 0.000000 0.009194
# 5 0.026287 -0.004453 0.042733 0.000000 0.132463 0.000000
# 6 0.000000 0.000000 0.000000 0.009194 0.000000 0.063931
#
#
# Mechanical properties :
#
#
# Convention : Reuss Voigt Hill
#
# Bulk Modulus (GPa) = 8.88675 37.59577 23.24126
# Shear Modulus (GPa) = 13.31124 27.02830 20.16977
#
# Velocity S-wave (km/s) = 2.61285 3.72319 3.21630
# Velocity P-wave (km/s) = 3.69601 6.14531 5.07076
#
# Compressibility (1/GPa) = 0.11252701
#
# Stress axis : x y z
#
# Youngs Moduli (GPa) = 74.48055 16.25083 33.73755
#
# Poissons Ratio (x) = 0.10313 -0.12137
# Poissons Ratio (y) = 0.47268 -0.22642
# Poissons Ratio (z) = -0.26794 -0.10906
#
# Static dielectric constant tensor:
#      x y z
#    x 1.741780 0.000000 -0.016540 
#    y 0.000000 1.708100 0.000000 
#    z -0.016540 0.000000 1.674440 
# 
# From -- ./inp_files/67801.got.cif
#   From: 2010.05.17/outbox.cif.g08.bks.cpg/sg11_34_cif.got.tgz:67801.got - 2010.06.03 12:22:45.
