data_PCOD9155282
_publ_section_title
;
Structure prediction by ZEFSAII (Michael W. Deem and Ramdas Pophale) SiO2 
 PCOD9155282
Probable space group: P 2/M
;
_chemical_formula_sum "Si O2"
_cell_formula_units_Z 32
_cell_length_a 27.000000
_cell_length_b 9.000000
_cell_length_c 21.000000
_cell_angle_alpha 90.000000
_cell_angle_beta 20.000000
_cell_angle_gamma 90.000000
_cell_volume 1745.328791
_symmetry_space_group_name_H-M "P 2/M"
_symmetry_group_IT_number 10
_symmetry_cell_setting 'monoclinic'
loop_
_space_group_symop_operation_xyz
x,y,z
-x,y,-z
-x,-y,-z
x,-y,z
loop_
_atom_site_type_symbol
_atom_site_label
_atom_site_fract_x
_atom_site_fract_y
_atom_site_fract_z
Si Si1 0.105457 0.674101 0.558211
Si Si2 0.725027 0.819005 0.192640
Si Si3 0.659601 0.181905 0.537722
Si Si4 0.409919 0.172466 0.168685
Si Si5 0.432637 0.819300 0.487973
Si Si6 0.394610 0.828675 0.942260
Si Si7 0.912313 0.675771 0.666844
Si Si8 0.964941 0.179286 0.228358
O O1 0.107461 0.500000 0.571616
O O2 0.267565 0.733857 0.353610
O O3 0.033021 0.765827 0.702160
O O4 0.015126 0.694980 0.603224
O O5 0.600613 0.773782 0.292581
O O6 0.659352 0.772440 0.339678
O O7 0.728974 0.000000 0.187509
O O8 0.887708 0.768075 0.983332
O O9 0.642953 0.227708 0.485139
O O10 0.514194 0.233483 0.748936
O O11 0.812041 0.230700 0.383275
O O12 0.658839 0.000000 0.543013
O O13 0.518122 0.173087 0.097149
O O14 0.366964 0.000000 0.208840
O O15 0.500000 0.228946 0.000000
O O16 0.433563 0.000000 0.487332
O O17 0.364617 0.000000 0.960686
O O18 0.243094 0.747405 0.132909
O O19 0.889026 0.500000 0.684416
O O20 0.000000 0.736411 0.500000
O O21 0.963564 0.000000 0.227948
#
# Coordination Sequence:
#
# PCOD9155282 Si02
#       8
#     4   4   4   4   4   4   4   4
#     4  11  23  37  54  78 107 141 179 219 263 314
#     4   8  15  26  45  73 104 139 172 209 259 309
#     4   9  17  29  46  72 108 138 166 213 260 307
#     4  10  20  36  58  81 107 137 172 217 264 315
#     4   8  14  26  43  72 108 135 170 213 257 311
#     4  10  20  34  53  81 108 135 172 214 264 315
#     4  10  23  41  56  74 103 137 176 222 267 314
#     4  10  19  33  52  76 107 140 174 215 263 310
#
# _framework density 18.334654
#
# number of rings (size 3 to 8) (size 9 to 14) (size 15 to 20)
#    0.000    2.500    1.250    1.875    1.750    2.500 
#    0.000    2.500    0.000    0.000    0.000    4.375 
#    0.000    0.000    0.000    0.000    0.000    0.000 
#
# Total GULP energy -178326.418387 kJ/mol
# GULP energy per Si atom -5572.700575 kJ/mol
# Density = 1.829292 g / cm^3
# Si number density = 18.334654 Si / 1000 Ang^3
#
#
#
# Elastic Constant Matrix: (Units=GPa)
#
#
# Indices 1 2 3 4 5 6 
#
# 1 14.3028 20.4274 22.7838 0.0000 12.5680 0.0000
# 2 20.4274 5.7394 32.9184 0.0000 -11.1045 0.0000
# 3 22.7838 32.9184 157.9826 0.0000 -5.7692 0.0000
# 4 0.0000 0.0000 0.0000 58.4207 0.0000 54.3640
# 5 12.5680 -11.1045 -5.7692 0.0000 20.0598 0.0000
# 6 0.0000 0.0000 0.0000 54.3640 0.0000 67.7262
#
#
#
# Elastic Compliance Matrix: (Units=1/GPa)
#
#
# Indices 1 2 3 4 5 6 
#
# 1 0.011833 0.043670 -0.010302 0.000000 0.013798 0.000000
# 2 0.043670 -0.003848 -0.006643 0.000000 -0.031401 0.000000
# 3 -0.010302 -0.006643 0.009400 0.000000 0.005481 0.000000
# 4 0.000000 0.000000 0.000000 0.067647 0.000000 -0.054301
# 5 0.013798 -0.031401 0.005481 0.000000 0.025400 0.000000
# 6 0.000000 0.000000 0.000000 -0.054301 0.000000 0.058353
#
#
# Mechanical properties :
#
#
# Convention : Reuss Voigt Hill
#
# Bulk Modulus (GPa) = 14.11740 36.69822 25.40781
# Shear Modulus (GPa) = 35.98539 36.03435 36.00987
#
# Velocity S-wave (km/s) = 4.43504 4.43806 4.43655
# Velocity P-wave (km/s) = 5.82603 6.80595 6.33497
#
# Compressibility (1/GPa) = 0.07083455
#
# Stress axis : x y z
#
# Youngs Moduli (GPa) = 84.51272 -259.87358 106.38514
#
# Poissons Ratio (x) = 11.34865 1.09597
# Poissons Ratio (y) = -3.69066 0.70670
# Poissons Ratio (z) = 0.87064 -1.72630
#
# Static dielectric constant tensor:
#      x y z
#    x 1.607910 0.000000 0.024720 
#    y 0.000000 1.624280 0.000000 
#    z 0.024720 0.000000 1.621460 
# 
# From -- ./inp_files/86776.got.cif
#   From: 2010.05.17/outbox.ucp.g08.bks.cvg/sg10_44_cif.got.tgz:86776.got - 2010.06.11 11:31:16.
