data_PCOD9155274
_publ_section_title
;
Structure prediction by ZEFSAII (Michael W. Deem and Ramdas Pophale) SiO2 
 PCOD9155274
Probable space group: P 2/M
;
_chemical_formula_sum "Si O2"
_cell_formula_units_Z 28
_cell_length_a 21.000000
_cell_length_b 9.000000
_cell_length_c 15.000000
_cell_angle_alpha 90.000000
_cell_angle_beta 30.000000
_cell_angle_gamma 90.000000
_cell_volume 1417.500000
_symmetry_space_group_name_H-M "P 2/M"
_symmetry_group_IT_number 10
_symmetry_cell_setting 'monoclinic'
loop_
_space_group_symop_operation_xyz
x,y,z
-x,y,-z
-x,-y,-z
x,-y,z
loop_
_atom_site_type_symbol
_atom_site_label
_atom_site_fract_x
_atom_site_fract_y
_atom_site_fract_z
Si Si1 0.411257 0.328244 0.685678
Si Si2 0.972360 0.826526 0.206466
Si Si3 0.563852 0.318983 0.142791
Si Si4 0.283645 0.321822 0.523705
Si Si5 0.200730 0.679183 0.262084
Si Si6 0.004650 0.823192 0.619154
Si Si7 0.177063 0.670031 0.843455
O O1 0.500000 0.259549 0.500000
O O2 0.459485 0.500000 0.637952
O O3 0.402657 0.268373 0.796438
O O4 0.273670 0.331035 0.808822
O O5 0.028624 0.806489 0.236787
O O6 0.839107 0.742868 0.373819
O O7 0.951948 0.000000 0.215370
O O8 0.057583 0.761712 0.023630
O O9 0.570472 0.500000 0.133720
O O10 0.415681 0.273403 0.318558
O O11 0.662113 0.273721 0.945827
O O12 0.284305 0.500000 0.520815
O O13 0.257559 0.278458 0.659305
O O14 0.198952 0.500000 0.275445
O O15 0.099379 0.731480 0.310250
O O16 0.142304 0.758340 0.420828
O O17 0.001142 0.000000 0.603295
O O18 0.137968 0.500000 0.872942
#
# Coordination Sequence:
#
# PCOD9155274 Si02
#       7
#     4   4   4   4   4   4   4
#     4   9  14  25  48  78 109 134 161 202 252 308
#     4  11  24  38  52  72 103 144 185 222 260 302
#     4   9  17  30  50  81 113 137 165 209 265 317
#     4  10  20  35  54  77 107 141 178 216 258 314
#     4  10  19  33  59  89 110 129 163 216 272 317
#     4  10  21  38  56  76 106 141 177 215 260 314
#     4  10  19  32  55  82 105 137 178 218 263 313
#
# _framework density 19.753086
#
# number of rings (size 3 to 8) (size 9 to 14) (size 15 to 20)
#    0.000    2.143    1.429    3.429    0.000    5.714 
#    0.000    2.143    0.000    5.571    0.000    0.000 
#    0.000    0.000    0.000    0.000    0.000    0.000 
#
# Total GULP energy -155956.960885 kJ/mol
# GULP energy per Si atom -5569.891460 kJ/mol
# Density = 1.970813 g / cm^3
# Si number density = 19.753086 Si / 1000 Ang^3
#
#
#
# Elastic Constant Matrix: (Units=GPa)
#
#
# Indices 1 2 3 4 5 6 
#
# 1 21.3158 9.1549 0.4481 0.0000 -2.8284 0.0000
# 2 9.1549 15.6267 23.0078 0.0000 4.7301 0.0000
# 3 0.4481 23.0078 153.6377 0.0000 2.0539 0.0000
# 4 0.0000 0.0000 0.0000 -12.4989 0.0000 12.3283
# 5 -2.8284 4.7301 2.0539 0.0000 29.1365 0.0000
# 6 0.0000 0.0000 0.0000 12.3283 0.0000 14.4247
#
#
#
# Elastic Compliance Matrix: (Units=1/GPa)
#
#
# Indices 1 2 3 4 5 6 
#
# 1 0.075950 -0.062812 0.008958 0.000000 0.016938 0.000000
# 2 -0.062812 0.138833 -0.020244 0.000000 -0.027209 0.000000
# 3 0.008958 -0.020244 0.009468 0.000000 0.003489 0.000000
# 4 0.000000 0.000000 0.000000 -0.043411 0.000000 0.037102
# 5 0.016938 -0.027209 0.003489 0.000000 0.040137 0.000000
# 6 0.000000 0.000000 0.000000 0.037102 0.000000 0.037616
#
#
# Mechanical properties :
#
#
# Convention : Reuss Voigt Hill
#
# Bulk Modulus (GPa) = 13.14825 28.42241 20.78533
# Shear Modulus (GPa) = 11.57040 16.74373 14.15707
#
# Velocity S-wave (km/s) = 2.42286 2.91460 2.68003
# Velocity P-wave (km/s) = 3.80759 5.07411 4.48578
#
# Compressibility (1/GPa) = 0.07605577
#
# Stress axis : x y z
#
# Youngs Moduli (GPa) = 13.16662 7.20292 105.62323
#
# Poissons Ratio (x) = 0.45243 -0.94620
# Poissons Ratio (y) = 0.82702 2.13821
# Poissons Ratio (z) = -0.11795 0.14581
#
# Static dielectric constant tensor:
#      x y z
#    x 1.763510 0.000000 -0.013830 
#    y 0.000000 1.674310 0.000000 
#    z -0.013830 0.000000 1.716590 
# 
# From -- ./inp_files/70208.got.cif
#   From: 2010.05.17/outbox.ucp.g08.bks.cvg/sg10_36_cif.got.tgz:70208.got - 2010.06.11 11:31:16.
