data_PCOD9155252
_publ_section_title
;
Structure prediction by ZEFSAII (Michael W. Deem and Ramdas Pophale) SiO2 
 PCOD9155252
Probable space group: P 2/M
;
_chemical_formula_sum "Si O2"
_cell_formula_units_Z 32
_cell_length_a 21.000000
_cell_length_b 9.000000
_cell_length_c 12.000000
_cell_angle_alpha 90.000000
_cell_angle_beta 50.000000
_cell_angle_gamma 90.000000
_cell_volume 1737.388797
_symmetry_space_group_name_H-M "P 2/M"
_symmetry_group_IT_number 10
_symmetry_cell_setting 'monoclinic'
loop_
_space_group_symop_operation_xyz
x,y,z
-x,y,-z
-x,-y,-z
x,-y,z
loop_
_atom_site_type_symbol
_atom_site_label
_atom_site_fract_x
_atom_site_fract_y
_atom_site_fract_z
Si Si1 0.614193 0.670979 0.298836
Si Si2 0.757042 0.821164 0.549420
Si Si3 0.468664 0.824780 0.813456
Si Si4 0.094779 0.821233 0.011104
Si Si5 0.375697 0.675689 0.451467
Si Si6 0.689944 0.179349 0.866966
Si Si7 0.779849 0.669922 0.972744
Si Si8 0.097555 0.180411 0.761185
O O1 0.581474 0.500000 0.319962
O O2 0.572737 0.785647 0.259677
O O3 0.606795 0.709363 0.437468
O O4 0.708198 0.668940 0.148363
O O5 0.701055 0.766220 0.510298
O O6 0.719929 0.770491 0.710514
O O7 0.848518 0.771210 0.405701
O O8 0.755638 0.000000 0.555739
O O9 0.550085 0.725251 0.713799
O O10 0.488296 0.000000 0.798790
O O11 0.404262 0.786349 0.985088
O O12 0.145322 0.755199 0.055302
O O13 0.998759 0.777486 0.133146
O O14 0.099473 0.000000 0.007764
O O15 0.126982 0.772038 0.852164
O O16 0.361344 0.500000 0.461449
O O17 0.746043 0.250326 0.900508
O O18 0.696478 0.000000 0.863904
O O19 0.799883 0.500000 0.923848
O O20 0.100389 0.000000 0.758388
#
# Coordination Sequence:
#
# PCOD9155252 Si02
#       8
#     4   4   4   4   4   4   4   4
#     4   9  19  34  50  72 104 134 160 198 248 299
#     4  10  20  36  55  73  96 129 171 210 244 287
#     4  10  20  34  52  74  98 127 167 210 248 287
#     4   9  16  30  53  80 107 130 158 198 245 296
#     4  11  22  34  50  74 103 132 161 199 252 305
#     4   9  20  37  54  71  95 130 170 212 249 282
#     4  10  19  32  52  76 101 132 168 202 242 294
#     4   8  16  31  53  79 104 131 161 199 246 293
#
# _framework density 18.418444999999998
#
# number of rings (size 3 to 8) (size 9 to 14) (size 15 to 20)
#    0.000    2.500    0.000    3.000    0.000    4.500 
#    0.000    5.000    0.000    3.750    0.000    0.000 
#    0.000    0.000    0.000    0.000    0.000    0.000 
#
# Total GULP energy -178260.980473 kJ/mol
# GULP energy per Si atom -5570.655640 kJ/mol
# Density = 1.837652 g / cm^3
# Si number density = 18.418445 Si / 1000 Ang^3
#
#
#
# Elastic Constant Matrix: (Units=GPa)
#
#
# Indices 1 2 3 4 5 6 
#
# 1 16.5376 -4.7268 12.9265 0.0000 -8.4542 0.0000
# 2 -4.7268 2.4951 13.9034 0.0000 -0.3406 0.0000
# 3 12.9265 13.9034 134.0891 0.0000 9.2011 0.0000
# 4 0.0000 0.0000 0.0000 54.5185 0.0000 -50.0053
# 5 -8.4542 -0.3406 9.2011 0.0000 11.4708 0.0000
# 6 0.0000 0.0000 0.0000 -50.0053 0.0000 89.8349
#
#
#
# Elastic Compliance Matrix: (Units=1/GPa)
#
#
# Indices 1 2 3 4 5 6 
#
# 1 -0.019937 -0.159321 0.020926 0.000000 -0.036210 0.000000
# 2 -0.159321 -0.160621 0.042751 0.000000 -0.156484 0.000000
# 3 0.020926 0.042751 -0.000146 0.000000 0.016809 0.000000
# 4 0.000000 0.000000 0.000000 0.037476 0.000000 0.020860
# 5 -0.036210 -0.156484 0.016809 0.000000 0.042360 0.000000
# 6 0.000000 0.000000 0.000000 0.020860 0.000000 0.022743
#
#
# Mechanical properties :
#
#
# Convention : Reuss Voigt Hill
#
# Bulk Modulus (GPa) = -2.68824 21.92532 9.61854
# Shear Modulus (GPa) = -461.49843 39.89942 -210.79951
#
# Velocity S-wave (km/s) = -15.84636 4.65938 -10.70975
# Velocity P-wave (km/s) = 18.33773 6.39345 12.15311
#
# Compressibility (1/GPa) = -0.37199089
#
# Stress axis : x y z
#
# Youngs Moduli (GPa) = -50.15803 -6.22583 -6858.38928
#
# Poissons Ratio (x) = -0.99191 143.52052
# Poissons Ratio (y) = -7.99122 293.20315
# Poissons Ratio (z) = 1.04962 0.26616
#
# Static dielectric constant tensor:
#      x y z
#    x 1.666300 0.000000 -0.053290 
#    y 0.000000 1.612200 0.000000 
#    z -0.053290 0.000000 1.659330 
# 
# From -- ./inp_files/55287.got.cif
#   From: 2010.05.17/outbox.ucp.g08.bks.cvg/sg10_28_cif.got.tgz:55287.got - 2010.06.11 11:31:16.
