data_PCOD9155609
_publ_section_title
;
Structure prediction by ZEFSAII (Michael W. Deem and Ramdas Pophale) SiO2 
 PCOD9155609
Probable space group: P 2/M
;
_chemical_formula_sum "Si O2"
_cell_formula_units_Z 32
_cell_length_a 12.000000
_cell_length_b 9.000000
_cell_length_c 21.000000
_cell_angle_alpha 90.000000
_cell_angle_beta 50.000000
_cell_angle_gamma 90.000000
_cell_volume 1737.388797
_symmetry_space_group_name_H-M "P 2/M"
_symmetry_group_IT_number 10
_symmetry_cell_setting 'monoclinic'
loop_
_space_group_symop_operation_xyz
x,y,z
-x,y,-z
-x,-y,-z
x,-y,z
loop_
_atom_site_type_symbol
_atom_site_label
_atom_site_fract_x
_atom_site_fract_y
_atom_site_fract_z
Si Si1 0.592580 0.674849 0.029996
Si Si2 0.431049 0.674732 0.594852
Si Si3 0.124099 0.175241 0.710856
Si Si4 0.075833 0.669893 0.604949
Si Si5 0.843600 0.164727 0.626077
Si Si6 0.654011 0.171887 0.821201
Si Si7 0.681257 0.831510 0.552903
Si Si8 0.840063 0.822481 0.875889
O O1 0.607675 0.500000 0.026209
O O2 0.492424 0.734354 0.122873
O O3 0.500000 0.714962 0.000000
O O4 0.747926 0.750231 0.965423
O O5 0.500000 0.707616 0.500000
O O6 0.446687 0.500000 0.600908
O O7 0.265536 0.724769 0.658356
O O8 0.517578 0.776113 0.612737
O O9 0.047048 0.215089 0.672316
O O10 0.008642 0.215680 0.807530
O O11 0.156475 0.000000 0.701282
O O12 0.066256 0.500000 0.628820
O O13 0.232878 0.712881 0.521093
O O14 0.963022 0.709589 0.591105
O O15 0.734918 0.179375 0.724931
O O16 0.754646 0.171809 0.594360
O O17 0.914688 0.000000 0.602863
O O18 0.760670 0.223531 0.838884
O O19 0.617547 0.000000 0.848009
O O20 0.692890 0.000000 0.523043
O O21 0.830254 0.000000 0.882980
#
# Coordination Sequence:
#
# PCOD9155609 Si02
#       8
#     4   4   4   4   4   4   4   4
#     4   9  17  27  42  69 103 135 166 200 244 301
#     4  11  23  38  55  77 103 132 170 217 268 312
#     4  11  21  35  56  78 101 135 178 216 256 305
#     4  12  23  34  51  76 107 139 171 211 263 310
#     4  10  21  37  54  76 103 137 179 216 252 302
#     4   9  16  30  49  70 100 135 169 205 247 296
#     4  11  23  38  57  75  98 136 180 220 256 302
#     4   9  17  30  49  72  99 132 169 207 249 298
#
# _framework density 18.418444999999998
#
# number of rings (size 3 to 8) (size 9 to 14) (size 15 to 20)
#    0.000    1.750    2.500    3.000    0.000    6.000 
#    0.000    0.000    0.000    0.000    0.000    0.875 
#    0.000    7.000    0.000    0.000    0.000    0.000 
#
# Total GULP energy -178351.610338 kJ/mol
# GULP energy per Si atom -5573.487823 kJ/mol
# Density = 1.837652 g / cm^3
# Si number density = 18.418445 Si / 1000 Ang^3
#
#
#
# Elastic Constant Matrix: (Units=GPa)
#
#
# Indices 1 2 3 4 5 6 
#
# 1 49.2179 19.4210 16.2782 0.0000 -16.2383 0.0000
# 2 19.4210 17.6410 17.9729 0.0000 -14.4828 0.0000
# 3 16.2782 17.9729 67.0968 0.0000 -28.2807 0.0000
# 4 0.0000 0.0000 0.0000 18.2758 0.0000 -14.1570
# 5 -16.2383 -14.4828 -28.2807 0.0000 17.3467 0.0000
# 6 0.0000 0.0000 0.0000 -14.1570 0.0000 25.5564
#
#
#
# Elastic Compliance Matrix: (Units=1/GPa)
#
#
# Indices 1 2 3 4 5 6 
#
# 1 0.037531 -0.029067 0.010421 0.000000 0.027855 0.000000
# 2 -0.029067 0.270365 0.058510 0.000000 0.293909 0.000000
# 3 0.010421 0.058510 0.068421 0.000000 0.170154 0.000000
# 4 0.000000 0.000000 0.000000 0.095845 0.000000 0.053093
# 5 0.027855 0.293909 0.170154 0.000000 0.606513 0.000000
# 6 0.000000 0.000000 0.000000 0.053093 0.000000 0.068540
#
#
# Mechanical properties :
#
#
# Convention : Reuss Voigt Hill
#
# Bulk Modulus (GPa) = 2.19276 26.81111 14.50193
# Shear Modulus (GPa) = 4.10004 17.58802 10.84403
#
# Velocity S-wave (km/s) = 1.49361 3.09352 2.42907
# Velocity P-wave (km/s) = 2.04147 5.22954 3.96962
#
# Compressibility (1/GPa) = 0.45604586
#
# Stress axis : x y z
#
# Youngs Moduli (GPa) = 26.64480 3.69870 14.61539
#
# Poissons Ratio (x) = 0.10751 -0.15231
# Poissons Ratio (y) = 0.77449 -0.85515
# Poissons Ratio (z) = -0.27767 -0.21641
#
# Static dielectric constant tensor:
#      x y z
#    x 1.693010 0.000000 -0.022760 
#    y 0.000000 1.608760 0.000000 
#    z -0.022760 0.000000 1.668340 
# 
# From -- ./inp_files/54860.got.cif
#   From: 2010.05.17/outbox.ucp.g08.bks.cvg/sg10_28_cif.got.tgz:54860.got - 2010.06.11 11:31:16.
