data_PCOD9155554
_publ_section_title
;
Structure prediction by ZEFSAII (Michael W. Deem and Ramdas Pophale) SiO2 
 PCOD9155554
Probable space group: P 2/M
;
_chemical_formula_sum "Si O2"
_cell_formula_units_Z 28
_cell_length_a 27.000000
_cell_length_b 9.000000
_cell_length_c 9.000000
_cell_angle_alpha 90.000000
_cell_angle_beta 140.000000
_cell_angle_gamma 90.000000
_cell_volume 1405.776502
_symmetry_space_group_name_H-M "P 2/M"
_symmetry_group_IT_number 10
_symmetry_cell_setting 'monoclinic'
loop_
_space_group_symop_operation_xyz
x,y,z
-x,y,-z
-x,-y,-z
x,-y,z
loop_
_atom_site_type_symbol
_atom_site_label
_atom_site_fract_x
_atom_site_fract_y
_atom_site_fract_z
Si Si1 0.215062 0.836373 0.939836
Si Si2 0.780953 0.825679 0.396069
Si Si3 0.080256 0.323911 0.111172
Si Si4 0.514581 0.832497 0.207849
Si Si5 0.941078 0.167838 0.242434
Si Si6 0.624455 0.325037 0.963501
Si Si7 0.642465 0.327296 0.660189
O O1 0.196904 0.804588 0.726402
O O2 0.138763 0.846426 0.857038
O O3 0.254609 0.000000 0.033171
O O4 0.268085 0.711255 0.132211
O O5 0.844970 0.750171 0.644158
O O6 0.778012 0.000000 0.422373
O O7 0.695399 0.757795 0.205147
O O8 0.086918 0.500000 0.143654
O O9 0.071067 0.274718 0.921673
O O10 0.000000 0.273555 0.000000
O O11 0.454637 0.722316 0.145383
O O12 0.598237 0.774148 0.442829
O O13 0.502658 0.000000 0.236490
O O14 0.500000 0.831609 0.000000
O O15 0.000000 0.225414 0.500000
O O16 0.966267 0.000000 0.253262
O O17 0.638246 0.500000 0.005082
O O18 0.619310 0.287692 0.776605
O O19 0.626731 0.500000 0.597800
#
# Coordination Sequence:
#
# PCOD9155554 Si02
#       7
#     4   4   4   4   4   4   4
#     4   9  19  36  59  86 113 143 183 231 280 332
#     4  10  20  37  62  87 112 146 187 230 278 331
#     4  11  24  39  56  82 116 152 189 231 280 333
#     4  11  24  39  56  81 113 149 190 234 278 327
#     4  10  21  38  60  85 113 147 189 235 281 332
#     4  10  21  38  60  86 115 146 184 229 279 336
#     4  10  21  37  59  85 112 146 186 228 278 336
#
# _framework density 19.917818
#
# number of rings (size 3 to 8) (size 9 to 14) (size 15 to 20)
#    0.000    1.857    0.000    3.429    0.000    9.429 
#    0.000    1.429    0.000    0.000    0.000    0.000 
#    0.000    0.000    0.000    0.000    0.000    0.000 
#
# Total GULP energy -156256.503228 kJ/mol
# GULP energy per Si atom -5580.589401 kJ/mol
# Density = 1.987248 g / cm^3
# Si number density = 19.917818 Si / 1000 Ang^3
#
#
#
# Elastic Constant Matrix: (Units=GPa)
#
#
# Indices 1 2 3 4 5 6 
#
# 1 27.5651 3.5200 6.6307 0.0000 4.3715 0.0000
# 2 3.5200 33.1272 46.4735 0.0000 -6.9331 0.0000
# 3 6.6307 46.4735 91.6935 0.0000 -21.1880 0.0000
# 4 0.0000 0.0000 0.0000 19.2005 0.0000 5.2025
# 5 4.3715 -6.9331 -21.1880 0.0000 -4.9891 0.0000
# 6 0.0000 0.0000 0.0000 5.2025 0.0000 10.3908
#
#
#
# Elastic Compliance Matrix: (Units=1/GPa)
#
#
# Indices 1 2 3 4 5 6 
#
# 1 0.033250 -0.007326 0.005246 0.000000 0.017037 0.000000
# 2 -0.007326 0.092210 -0.039013 0.000000 0.031125 0.000000
# 3 0.005246 -0.039013 0.022151 0.000000 -0.035263 0.000000
# 4 0.000000 0.000000 0.000000 0.060256 0.000000 -0.030169
# 5 0.017037 0.031125 -0.035263 0.000000 -0.079004 0.000000
# 6 0.000000 0.000000 0.000000 -0.030169 0.000000 0.111344
#
#
# Mechanical properties :
#
#
# Convention : Reuss Voigt Hill
#
# Bulk Modulus (GPa) = 15.28512 29.51489 22.40000
# Shear Modulus (GPa) = 14.52628 11.30455 12.91542
#
# Velocity S-wave (km/s) = 2.70351 2.38494 2.54920
# Velocity P-wave (km/s) = 4.17564 4.73650 4.46489
#
# Compressibility (1/GPa) = 0.06542311
#
# Stress axis : x y z
#
# Youngs Moduli (GPa) = 30.07557 10.84479 45.14378
#
# Poissons Ratio (x) = 0.07945 -0.23681
# Poissons Ratio (y) = 0.22035 1.76121
# Poissons Ratio (z) = -0.15777 0.42309
#
# Static dielectric constant tensor:
#      x y z
#    x 1.704350 0.000000 0.005320 
#    y 0.000000 1.707820 0.000000 
#    z 0.005320 0.000000 1.666160 
# 
# From -- ./inp_files/36819.got.cif
#   From: 2010.05.17/outbox.ucp.g08.bks.cvg/sg10_19_cif.got.tgz:36819.got - 2010.06.11 11:31:16.
