data_PCOD9155450
_publ_section_title
;
Structure prediction by ZEFSAII (Michael W. Deem and Ramdas Pophale) SiO2 
 PCOD9155450
Probable space group: P 2/M
;
_chemical_formula_sum "Si O2"
_cell_formula_units_Z 32
_cell_length_a 24.000000
_cell_length_b 9.000000
_cell_length_c 15.000000
_cell_angle_alpha 90.000000
_cell_angle_beta 30.000000
_cell_angle_gamma 90.000000
_cell_volume 1620.000000
_symmetry_space_group_name_H-M "P 2/M"
_symmetry_group_IT_number 10
_symmetry_cell_setting 'monoclinic'
loop_
_space_group_symop_operation_xyz
x,y,z
-x,y,-z
-x,-y,-z
x,-y,z
loop_
_atom_site_type_symbol
_atom_site_label
_atom_site_fract_x
_atom_site_fract_y
_atom_site_fract_z
Si Si1 0.274119 0.671932 0.662628
Si Si2 0.054521 0.179400 0.020753
Si Si3 0.097028 0.825556 0.601623
Si Si4 0.494677 0.821151 0.612983
Si Si5 0.277925 0.333403 0.451445
Si Si6 0.119380 0.667390 0.380767
Si Si7 0.510580 0.832778 0.878844
Si Si8 0.315372 0.826764 0.008197
O O1 0.282144 0.500000 0.678606
O O2 0.393415 0.749534 0.503853
O O3 0.240515 0.676725 0.605315
O O4 0.178867 0.756185 0.849032
O O5 0.987507 0.228122 0.202617
O O6 0.056894 0.000000 0.018358
O O7 0.000000 0.222454 0.000000
O O8 0.216483 0.788851 0.478425
O O9 0.099971 0.750245 0.501319
O O10 0.078982 0.000000 0.615255
O O11 0.500000 0.785756 0.500000
O O12 0.387167 0.774785 0.821860
O O13 0.500189 0.000000 0.614200
O O14 0.254771 0.500000 0.450807
O O15 0.407220 0.294547 0.267606
O O16 0.158737 0.500000 0.345153
O O17 0.000000 0.662931 0.500000
O O18 0.206019 0.741588 0.191920
O O19 0.397280 0.819139 0.980401
O O20 0.553789 0.000000 0.797873
O O21 0.500000 0.822465 0.000000
O O22 0.287278 0.000000 0.031475
#
# Coordination Sequence:
#
# PCOD9155450 Si02
#       8
#     4   4   4   4   4   4   4   4
#     4  11  23  37  58  89 125 165 203 248 308 367
#     4  10  21  38  61  89 123 165 210 256 307 365
#     4  11  23  40  65  93 122 162 211 260 308 364
#     4  10  22  41  65  92 123 162 209 257 304 360
#     4  11  22  35  56  88 125 162 198 244 306 369
#     4  11  26  46  66  90 124 164 205 256 314 369
#     4  10  20  34  56  87 119 156 202 249 300 358
#     4  10  21  39  64  92 122 159 205 257 305 357
#
# _framework density 19.753086
#
# number of rings (size 3 to 8) (size 9 to 14) (size 15 to 20)
#    0.000    1.500    2.500    2.250    0.000    6.750 
#    0.000    3.750    0.000    0.000    0.000    0.000 
#    0.000    0.000    0.000    0.000    0.000    0.000 
#
# Total GULP energy -178552.457536 kJ/mol
# GULP energy per Si atom -5579.764298 kJ/mol
# Density = 1.970813 g / cm^3
# Si number density = 19.753086 Si / 1000 Ang^3
#
#
#
# Elastic Constant Matrix: (Units=GPa)
#
#
# Indices 1 2 3 4 5 6 
#
# 1 66.9369 26.2980 40.4182 0.0000 18.3312 0.0000
# 2 26.2980 36.2984 55.5964 0.0000 11.8896 0.0000
# 3 40.4182 55.5964 148.4965 0.0000 12.1611 0.0000
# 4 0.0000 0.0000 0.0000 100.0656 0.0000 3.9326
# 5 18.3312 11.8896 12.1611 0.0000 24.8605 0.0000
# 6 0.0000 0.0000 0.0000 3.9326 0.0000 15.0142
#
#
#
# Elastic Compliance Matrix: (Units=1/GPa)
#
#
# Indices 1 2 3 4 5 6 
#
# 1 0.023127 -0.011448 -0.001105 0.000000 -0.011038 0.000000
# 2 -0.011448 0.081264 -0.025853 0.000000 -0.017777 0.000000
# 3 -0.001105 -0.025853 0.016287 0.000000 0.005212 0.000000
# 4 0.000000 0.000000 0.000000 0.010097 0.000000 -0.002645
# 5 -0.011038 -0.017777 0.005212 0.000000 0.054316 0.000000
# 6 0.000000 0.000000 0.000000 -0.002645 0.000000 0.067296
#
#
# Mechanical properties :
#
#
# Convention : Reuss Voigt Hill
#
# Bulk Modulus (GPa) = 22.79624 55.15079 38.97351
# Shear Modulus (GPa) = 14.54241 36.61601 25.57921
#
# Velocity S-wave (km/s) = 2.71626 4.31012 3.60244
# Velocity P-wave (km/s) = 4.62635 7.26293 6.08906
#
# Compressibility (1/GPa) = 0.04386689
#
# Stress axis : x y z
#
# Youngs Moduli (GPa) = 43.23973 12.30552 61.39707
#
# Poissons Ratio (x) = 0.14087 0.06783
# Poissons Ratio (y) = 0.49500 1.58732
# Poissons Ratio (z) = 0.04777 0.31814
#
# Static dielectric constant tensor:
#      x y z
#    x 1.728250 0.000000 0.010530 
#    y 0.000000 1.685990 0.000000 
#    z 0.010530 0.000000 1.698500 
# 
# From -- ./inp_files/71424.got.cif
#   From: 2010.05.17/outbox.ucp.g08.bks.cvg/sg10_36_cif.got.tgz:71424.got - 2010.06.11 11:31:16.
