data_PCOD9155891
_publ_section_title
;
Structure prediction by ZEFSAII (Michael W. Deem and Ramdas Pophale) SiO2 
 PCOD9155891
Probable space group: P 21/M
;
_chemical_formula_sum "Si O2"
_cell_formula_units_Z 30
_cell_length_a 16.202231
_cell_length_b 14.254952
_cell_length_c 16.364598
_cell_angle_alpha 90.000000
_cell_angle_beta 161.488899
_cell_angle_gamma 90.000000
_cell_volume 1199.979329
_symmetry_space_group_name_H-M "P 21/M"
_symmetry_group_IT_number 11
_symmetry_cell_setting 'monoclinic'
loop_
_space_group_symop_operation_xyz
x,y,z
-x,1/2+y,-z
-x,-y,-z
x,1/2-y,z
loop_
_atom_site_type_symbol
_atom_site_label
_atom_site_fract_x
_atom_site_fract_y
_atom_site_fract_z
Si Si1 0.781864 0.636489 0.770582
Si Si2 0.811226 0.115200 0.537015
Si Si3 0.864266 0.634480 0.661441
Si Si4 0.216231 0.908613 0.666351
Si Si5 0.681714 0.750000 0.970279
Si Si6 0.676581 0.610237 0.188323
Si Si7 0.782797 0.365511 0.691791
Si Si8 0.416724 0.637867 0.119760
O O1 0.795711 0.750000 0.783934
O O2 0.852726 0.607705 0.745512
O O3 0.488611 0.613105 0.519493
O O4 0.984127 0.606579 0.029747
O O5 0.816694 0.058958 0.457250
O O6 0.539768 0.171203 0.266688
O O7 0.794758 0.085620 0.615412
O O8 0.087127 0.170517 0.795521
O O9 0.863358 0.750000 0.658788
O O10 0.614634 0.604153 0.375092
O O11 0.128023 0.600816 0.865226
O O12 0.966283 0.850082 0.457851
O O13 0.252530 0.000350 0.756050
O O14 0.485681 0.855346 0.937943
O O15 0.532844 0.622731 0.138940
O O16 0.797822 0.250000 0.692054
O O17 0.399398 0.750000 0.112632
#
# Coordination Sequence:
#
# PCOD9155891 Si02
#       8
#     4   4   4   4   2   4   4   4
#     4   9  17  26  42  69  99 140 173 199 246 311
#     4  11  20  34  51  75 106 151 169 217 261 309
#     4   9  17  30  48  72 106 135 167 208 261 316
#     4  10  22  39  58  74 106 136 185 218 257 309
#     4  10  20  32  48  72 112 134 174 208 262 306
#     4  10  21  40  58  79  99 139 178 227 258 315
#     4  10  17  26  43  67 104 136 172 202 248 302
#     4  10  19  33  53  78 106 130 166 219 274 311
#
# _framework density 25.000430999999999
#
# number of rings (size 3 to 8) (size 9 to 14) (size 15 to 20)
#    0.000    2.133    1.333    3.200    1.867    3.200 
#    7.200    0.000    0.000    0.000    0.000    5.600 
#    0.000    0.000    0.000    0.000    0.000    0.000 
#
# Total GULP energy -167123.808557 kJ/mol
# GULP energy per Si atom -5570.793619 kJ/mol
# Density = 2.494353 g / cm^3
# Si number density = 25.000431 Si / 1000 Ang^3
#
#
#
# Elastic Constant Matrix: (Units=GPa)
#
#
# Indices 1 2 3 4 5 6 
#
# 1 182.5307 16.6482 110.5859 0.0000 -17.3603 0.0000
# 2 16.6482 69.3440 26.5856 0.0000 -5.3882 0.0000
# 3 110.5859 26.5856 307.6688 0.0000 -4.4174 0.0000
# 4 0.0000 0.0000 0.0000 18.9975 0.0000 -21.1939
# 5 -17.3603 -5.3882 -4.4174 0.0000 47.5021 0.0000
# 6 0.0000 0.0000 0.0000 -21.1939 0.0000 31.7196
#
#
#
# Elastic Compliance Matrix: (Units=1/GPa)
#
#
# Indices 1 2 3 4 5 6 
#
# 1 0.007294 -0.000595 -0.002536 0.000000 0.002362 0.000000
# 2 -0.000595 0.015082 -0.001069 0.000000 0.001394 0.000000
# 3 -0.002536 -0.001069 0.004245 0.000000 -0.000654 0.000000
# 4 0.000000 0.000000 0.000000 0.206762 0.000000 0.138151
# 5 0.002362 0.001394 -0.000654 0.000000 0.022012 0.000000
# 6 0.000000 0.000000 0.000000 0.138151 0.000000 0.123834
#
#
# Mechanical properties :
#
#
# Convention : Reuss Voigt Hill
#
# Bulk Modulus (GPa) = 54.88682 96.35366 75.62024
# Shear Modulus (GPa) = 12.69990 46.69210 29.69600
#
# Velocity S-wave (km/s) = 2.25630 4.32632 3.45021
# Velocity P-wave (km/s) = 5.36562 7.97374 6.79597
#
# Compressibility (1/GPa) = 0.01821931
#
# Stress axis : x y z
#
# Youngs Moduli (GPa) = 137.09567 66.30417 235.57535
#
# Poissons Ratio (x) = 0.03946 0.59751
# Poissons Ratio (y) = 0.08160 0.25190
# Poissons Ratio (z) = 0.34773 0.07090
#
# Static dielectric constant tensor:
#      x y z
#    x 1.941300 0.000000 0.064090 
#    y 0.000000 2.105860 0.000000 
#    z 0.064090 0.000000 2.031760 
# 
# From -- ./inp_files/6990.got.cif
#   From: 2010.05.17/outbox.cif.g08.bks.cpg/sg11_4_cif.got.tgz:6990.got - 2010.06.03 12:22:45.
