data_PCOD9155581
_publ_section_title
;
Structure prediction by ZEFSAII (Michael W. Deem and Ramdas Pophale) SiO2 
 PCOD9155581
Probable space group: P 2/M
;
_chemical_formula_sum "Si O2"
_cell_formula_units_Z 26
_cell_length_a 9.000000
_cell_length_b 15.000000
_cell_length_c 12.000000
_cell_angle_alpha 90.000000
_cell_angle_beta 120.000000
_cell_angle_gamma 90.000000
_cell_volume 1402.961154
_symmetry_space_group_name_H-M "P 2/M"
_symmetry_group_IT_number 10
_symmetry_cell_setting 'monoclinic'
loop_
_space_group_symop_operation_xyz
x,y,z
-x,y,-z
-x,-y,-z
x,-y,z
loop_
_atom_site_type_symbol
_atom_site_label
_atom_site_fract_x
_atom_site_fract_y
_atom_site_fract_z
Si Si1 0.385095 0.105342 0.150174
Si Si2 0.201403 0.205721 0.890332
Si Si3 0.671892 0.394697 0.753323
Si Si4 0.628519 0.739605 0.281757
Si Si5 0.000000 0.674445 0.000000
Si Si6 0.697457 0.735533 0.555452
Si Si7 0.126537 0.898448 0.258305
O O1 0.539284 0.162916 0.261060
O O2 0.222150 0.111493 0.173921
O O3 0.419567 0.000000 0.145687
O O4 0.344567 0.161153 0.023170
O O5 0.271742 0.252569 0.801558
O O6 0.088691 0.268931 0.931843
O O7 0.074689 0.122694 0.819723
O O8 0.627872 0.500000 0.727271
O O9 0.523940 0.335431 0.761470
O O10 0.845968 0.381474 0.888275
O O11 0.708623 0.348673 0.645525
O O12 0.731816 0.721245 0.436430
O O13 0.500000 0.762108 0.500000
O O14 0.803882 0.818927 0.639476
O O15 0.160581 0.000000 0.307662
#
# Coordination Sequence:
#
# PCOD9155581 Si02
#       7
#     4   4   4   4   2   4   4
#     4  11  21  37  62  91 125 168 214 255 302 366
#     4  12  21  39  62  88 129 164 204 254 309 366
#     4  11  23  44  70  94 120 158 206 256 317 379
#     4  11  24  38  62  92 128 164 204 257 308 366
#     4  12  21  42  67  92 118 160 199 248 315 368
#     4  10  20  41  61  91 120 166 208 249 310 365
#     4  11  21  37  63  90 123 170 215 252 300 368
#
# _framework density 18.532230999999999
#
# number of rings (size 3 to 8) (size 9 to 14) (size 15 to 20)
#    0.000    0.923    7.692    1.154    0.000    7.385 
#    0.000    3.077    0.000    0.923    0.000    0.000 
#    0.000    0.000    0.000    0.000    0.000    0.000 
#
# Total GULP energy -144884.515344 kJ/mol
# GULP energy per Si atom -5572.481359 kJ/mol
# Density = 1.849005 g / cm^3
# Si number density = 18.532231 Si / 1000 Ang^3
#
#
#
# Elastic Constant Matrix: (Units=GPa)
#
#
# Indices 1 2 3 4 5 6 
#
# 1 91.0897 38.8158 33.6796 0.0000 -32.3182 0.0000
# 2 38.8158 132.7501 35.1392 0.0000 -15.9448 0.0000
# 3 33.6796 35.1392 92.7769 0.0000 -23.7096 0.0000
# 4 0.0000 0.0000 0.0000 10.8426 0.0000 2.8260
# 5 -32.3182 -15.9448 -23.7096 0.0000 38.5637 0.0000
# 6 0.0000 0.0000 0.0000 2.8260 0.0000 22.6238
#
#
#
# Elastic Compliance Matrix: (Units=1/GPa)
#
#
# Indices 1 2 3 4 5 6 
#
# 1 0.017290 -0.003075 -0.002057 0.000000 0.011954 0.000000
# 2 -0.003075 0.009025 -0.002381 0.000000 -0.000310 0.000000
# 3 -0.002057 -0.002381 0.013922 0.000000 0.005851 0.000000
# 4 0.000000 0.000000 0.000000 0.095333 0.000000 -0.011908
# 5 0.011954 -0.000310 0.005851 0.000000 0.039419 0.000000
# 6 0.000000 0.000000 0.000000 -0.011908 0.000000 0.045689
#
#
# Mechanical properties :
#
#
# Convention : Reuss Voigt Hill
#
# Bulk Modulus (GPa) = 39.66478 59.09844 49.38161
# Shear Modulus (GPa) = 20.48267 28.33816 24.41041
#
# Velocity S-wave (km/s) = 3.32813 3.91465 3.63324
# Velocity P-wave (km/s) = 6.01816 7.23819 6.65619
#
# Compressibility (1/GPa) = 0.02521128
#
# Stress axis : x y z
#
# Youngs Moduli (GPa) = 57.83540 110.80018 71.82650
#
# Poissons Ratio (x) = 0.34075 0.14775
# Poissons Ratio (y) = 0.17787 0.17102
# Poissons Ratio (z) = 0.11897 0.26382
#
# Static dielectric constant tensor:
#      x y z
#    x 1.655680 0.000000 0.021390 
#    y 0.000000 1.623670 0.000000 
#    z 0.021390 0.000000 1.737640 
# 
# From -- ./inp_files/42585.got.cif
#   From: 2010.05.17/outbox.ucp.g08.bks.cvg/sg10_22_cif.got.tgz:42585.got - 2010.06.11 11:31:16.
