data_PCOD9155939
_publ_section_title
;
Structure prediction by ZEFSAII (Michael W. Deem and Ramdas Pophale) SiO2 
 PCOD9155939
Probable space group: P 21/M
;
_chemical_formula_sum "Si O2"
_cell_formula_units_Z 28
_cell_length_a 15.668838
_cell_length_b 18.148362
_cell_length_c 9.031622
_cell_angle_alpha 90.000000
_cell_angle_beta 39.819397
_cell_angle_gamma 90.000000
_cell_volume 1644.639781
_symmetry_space_group_name_H-M "P 21/M"
_symmetry_group_IT_number 11
_symmetry_cell_setting 'monoclinic'
loop_
_space_group_symop_operation_xyz
x,y,z
-x,1/2+y,-z
-x,-y,-z
x,1/2-y,z
loop_
_atom_site_type_symbol
_atom_site_label
_atom_site_fract_x
_atom_site_fract_y
_atom_site_fract_z
Si Si1 0.243393 0.831953 0.989501
Si Si2 0.599178 0.165026 0.526088
Si Si3 0.613085 0.945949 0.544604
Si Si4 0.633832 0.954517 0.186846
Si Si5 0.319534 0.576516 0.325754
Si Si6 0.510892 0.332658 0.109914
Si Si7 0.145611 0.531686 0.282993
O O1 0.180634 0.750000 0.065678
O O2 0.319155 0.845819 0.734108
O O3 0.357698 0.827757 0.962946
O O4 0.151479 0.899889 0.159909
O O5 0.561326 0.250000 0.587056
O O6 0.467352 0.113666 0.703840
O O7 0.693971 0.140978 0.535249
O O8 0.681737 0.949766 0.293237
O O9 0.602077 0.866258 0.633445
O O10 0.463120 0.974843 0.707025
O O11 0.664197 0.003620 0.597411
O O12 0.754292 0.969230 0.915003
O O13 0.207074 0.561969 0.354742
O O14 0.451015 0.605068 0.061508
O O15 0.483168 0.250000 0.090180
O O16 0.000000 0.500000 0.500000
#
# Coordination Sequence:
#
# PCOD9155939 Si02
#       7
#     4   4   4   4   4   4   4
#     4   9  17  33  54  76 102 136 176 213 264 324
#     4  10  19  32  56  86 111 131 164 224 285 329
#     4  10  17  30  52  75 104 130 163 220 276 313
#     4  10  18  32  51  76 106 137 170 208 265 328
#     4  10  20  31  48  79 107 136 175 220 264 314
#     4  10  17  27  46  76 106 131 159 203 266 323
#     4  11  22  37  52  73 105 151 186 219 252 309
#
# _framework density 17.025006000000001
#
# number of rings (size 3 to 8) (size 9 to 14) (size 15 to 20)
#    0.000    2.000    4.286    2.571    2.000    0.571 
#    0.000    3.571    0.000    0.857    0.000    0.000 
#    0.000    0.000    0.000    0.000    0.000    0.000 
#
# Total GULP energy -155885.668522 kJ/mol
# GULP energy per Si atom -5567.345304 kJ/mol
# Density = 1.698626 g / cm^3
# Si number density = 17.025006 Si / 1000 Ang^3
#
#
#
# Elastic Constant Matrix: (Units=GPa)
#
#
# Indices 1 2 3 4 5 6 
#
# 1 67.2665 32.7936 41.7875 0.0000 21.4278 0.0000
# 2 32.7936 124.1485 50.4298 0.0000 -1.1485 0.0000
# 3 41.7875 50.4298 84.4726 0.0000 5.2281 0.0000
# 4 0.0000 0.0000 0.0000 22.5370 0.0000 -1.4119
# 5 21.4278 -1.1485 5.2281 0.0000 20.4495 0.0000
# 6 0.0000 0.0000 0.0000 -1.4119 0.0000 7.6020
#
#
#
# Elastic Compliance Matrix: (Units=1/GPa)
#
#
# Indices 1 2 3 4 5 6 
#
# 1 0.036431 -0.004633 -0.013084 0.000000 -0.035088 0.000000
# 2 -0.004633 0.011326 -0.004887 0.000000 0.006740 0.000000
# 3 -0.013084 -0.004887 0.020725 0.000000 0.008137 0.000000
# 4 0.000000 0.000000 0.000000 0.044894 0.000000 0.008338
# 5 -0.035088 0.006740 0.008137 0.000000 0.083966 0.000000
# 6 0.000000 0.000000 0.000000 0.008338 0.000000 0.133094
#
#
# Mechanical properties :
#
#
# Convention : Reuss Voigt Hill
#
# Bulk Modulus (GPa) = 42.96793 58.43439 50.70116
# Shear Modulus (GPa) = 13.04118 20.17614 16.60866
#
# Velocity S-wave (km/s) = 2.77068 3.44625 3.12676
# Velocity P-wave (km/s) = 5.96057 7.08750 6.54833
#
# Compressibility (1/GPa) = 0.02327317
#
# Stress axis : x y z
#
# Youngs Moduli (GPa) = 27.44950 88.29183 48.25158
#
# Poissons Ratio (x) = 0.40903 0.63134
# Poissons Ratio (y) = 0.12717 0.23581
# Poissons Ratio (z) = 0.35916 0.43148
#
# Static dielectric constant tensor:
#      x y z
#    x 1.599740 0.000000 0.053690 
#    y 0.000000 1.630060 0.000000 
#    z 0.053690 0.000000 1.590810 
# 
# From -- ./inp_files/22717.got.cif
#   From: 2010.05.17/outbox.cif.g08.bks.cpg/sg11_12_cif.got.tgz:22717.got - 2010.06.03 12:22:45.
