data_PCOD9155043
_publ_section_title
;
Structure prediction by ZEFSAII (Michael W. Deem and Ramdas Pophale) SiO2 
 PCOD9155043
Probable space group: P 2/M
;
_chemical_formula_sum "Si O2"
_cell_formula_units_Z 32
_cell_length_a 20.757773
_cell_length_b 9.231888
_cell_length_c 10.342103
_cell_angle_alpha 90.000000
_cell_angle_beta 83.646514
_cell_angle_gamma 90.000000
_cell_volume 1969.720110
_symmetry_space_group_name_H-M "P 2/M"
_symmetry_group_IT_number 10
_symmetry_cell_setting 'monoclinic'
loop_
_space_group_symop_operation_xyz
x,y,z
-x,y,-z
-x,-y,-z
x,-y,z
loop_
_atom_site_type_symbol
_atom_site_label
_atom_site_fract_x
_atom_site_fract_y
_atom_site_fract_z
Si Si1 0.943651 0.173949 0.412471
Si Si2 0.188344 0.665582 0.549718
Si Si3 0.057991 0.174203 0.889682
Si Si4 0.322367 0.827380 0.825611
Si Si5 0.191222 0.666230 0.862970
Si Si6 0.681860 0.172380 0.483145
Si Si7 0.456241 0.823433 0.389143
Si Si8 0.535791 0.823211 0.121739
O O1 0.876651 0.248217 0.468457
O O2 0.956675 0.211557 0.258117
O O3 0.000000 0.215374 0.500000
O O4 0.936356 0.000000 0.418878
O O5 0.185442 0.500000 0.506569
O O6 0.191542 0.666066 0.705880
O O7 0.253542 0.744577 0.490876
O O8 0.125564 0.249559 0.913426
O O9 0.066153 0.000000 0.893413
O O10 0.000000 0.214133 0.000000
O O11 0.257866 0.745625 0.886022
O O12 0.329479 0.806046 0.668630
O O13 0.389470 0.778777 0.876579
O O14 0.314176 0.000000 0.847416
O O15 0.189786 0.500000 0.907284
O O16 0.617715 0.221533 0.572634
O O17 0.690764 0.000000 0.499409
O O18 0.500000 0.777609 0.500000
O O19 0.491975 0.776122 0.251937
O O20 0.455452 0.000000 0.389786
O O21 0.537146 0.000000 0.122961
O O22 0.500000 0.776620 0.000000
#
# Coordination Sequence:
#
# PCOD9155043 Si02
#       8
#     4   4   4   4   4   4   4   4
#     4   9  17  30  49  71  94 119 148 181 218 264
#     4   9  17  28  43  66  94 120 149 185 222 260
#     4   9  17  30  49  72  95 117 144 183 226 262
#     4   9  15  25  43  65  87 114 148 186 225 264
#     4   9  17  28  44  67  92 118 151 187 219 259
#     4   9  15  24  43  66  87 113 148 188 225 262
#     4   9  14  23  40  64  88 111 143 182 223 265
#     4   9  16  25  40  64  91 114 142 183 227 266
#
# _framework density 16.245963
#
# number of rings (size 3 to 8) (size 9 to 14) (size 15 to 20)
#    0.000    3.000    1.250    0.750    0.000    3.500 
#    0.000    0.000    2.750    1.500    0.000    0.000 
#    0.000    0.000    0.000    0.000    0.000    0.000 
#
# Total GULP energy -178177.244083 kJ/mol
# GULP energy per Si atom -5568.038878 kJ/mol
# Density = 1.620899 g / cm^3
# Si number density = 16.245963 Si / 1000 Ang^3
#
#
#
# Elastic Constant Matrix: (Units=GPa)
#
#
# Indices 1 2 3 4 5 6 
#
# 1 204.1349 60.3180 72.9430 0.0000 -6.3560 0.0000
# 2 60.3180 31.5684 25.9624 0.0000 -1.5098 0.0000
# 3 72.9430 25.9624 70.8773 0.0000 -2.2665 0.0000
# 4 0.0000 0.0000 0.0000 6.3520 0.0000 1.5831
# 5 -6.3560 -1.5098 -2.2665 0.0000 25.9806 0.0000
# 6 0.0000 0.0000 0.0000 1.5831 0.0000 -4.3499
#
#
#
# Elastic Compliance Matrix: (Units=1/GPa)
#
#
# Indices 1 2 3 4 5 6 
#
# 1 0.012896 -0.019597 -0.006046 0.000000 0.001489 0.000000
# 2 -0.019597 0.075151 -0.007394 0.000000 -0.001072 0.000000
# 3 -0.006046 -0.007394 0.023043 0.000000 0.000101 0.000000
# 4 0.000000 0.000000 0.000000 0.144338 0.000000 0.052532
# 5 0.001489 -0.001072 0.000101 0.000000 0.038801 0.000000
# 6 0.000000 0.000000 0.000000 0.052532 0.000000 -0.210772
#
#
# Mechanical properties :
#
#
# Convention : Reuss Voigt Hill
#
# Bulk Modulus (GPa) = 22.21436 69.44749 45.83093
# Shear Modulus (GPa) = 30.38853 15.42037 22.90445
#
# Velocity S-wave (km/s) = 4.32965 3.08422 3.75888
# Velocity P-wave (km/s) = 6.22077 7.45141 6.86373
#
# Compressibility (1/GPa) = 0.04501592
#
# Stress axis : x y z
#
# Youngs Moduli (GPa) = 77.54383 13.30652 43.39800
#
# Poissons Ratio (x) = 0.26077 0.26237
# Poissons Ratio (y) = 1.51963 0.32089
# Poissons Ratio (z) = 0.46881 0.09839
#
# Static dielectric constant tensor:
#      x y z
#    x 1.537060 0.000000 -0.002350 
#    y 0.000000 1.538010 0.000000 
#    z -0.002350 0.000000 1.538010 
# 
# From -- ./inp_files/52718.got.cif
#   From: 2010.05.17/outbox.cif.g08.bks.cpg/sg10_27_cif.got.tgz:52718.got - 2010.06.03 11:33:40.
