data_PCOD9155317
_publ_section_title
;
Structure prediction by ZEFSAII (Michael W. Deem and Ramdas Pophale) SiO2 
 PCOD9155317
Probable space group: P 2/M
;
_chemical_formula_sum "Si O2"
_cell_formula_units_Z 32
_cell_length_a 12.000000
_cell_length_b 9.000000
_cell_length_c 30.000000
_cell_angle_alpha 90.000000
_cell_angle_beta 150.000000
_cell_angle_gamma 90.000000
_cell_volume 1620.000000
_symmetry_space_group_name_H-M "P 2/M"
_symmetry_group_IT_number 10
_symmetry_cell_setting 'monoclinic'
loop_
_space_group_symop_operation_xyz
x,y,z
-x,y,-z
-x,-y,-z
x,-y,z
loop_
_atom_site_type_symbol
_atom_site_label
_atom_site_fract_x
_atom_site_fract_y
_atom_site_fract_z
Si Si1 0.600909 0.166640 0.154340
Si Si2 0.584155 0.673147 0.287896
Si Si3 0.982454 0.177683 0.587233
Si Si4 0.740503 0.674616 0.901304
Si Si5 0.305336 0.676466 0.901369
Si Si6 0.186572 0.323869 0.287820
Si Si7 0.388446 0.176020 0.609099
Si Si8 0.119913 0.833653 0.354266
O O1 0.412496 0.218077 0.122682
O O2 0.613748 0.286543 0.119913
O O3 0.849705 0.161852 0.260436
O O4 0.555571 0.000000 0.121565
O O5 0.601503 0.500000 0.305732
O O6 0.353737 0.693906 0.181336
O O7 0.605389 0.774930 0.338046
O O8 0.797237 0.723204 0.332858
O O9 0.839930 0.220089 0.494641
O O10 0.824433 0.200067 0.575511
O O11 0.036375 0.000000 0.604379
O O12 0.698978 0.500000 0.898133
O O13 0.000000 0.703260 0.000000
O O14 0.292715 0.500000 0.904543
O O15 0.049877 0.732782 0.814779
O O16 0.500000 0.739144 0.000000
O O17 0.194136 0.500000 0.284765
O O18 0.398540 0.250112 0.339405
O O19 0.186842 0.280891 0.339887
O O20 0.403402 0.000000 0.609874
O O21 0.199646 0.000000 0.370036
#
# Coordination Sequence:
#
# PCOD9155317 Si02
#       8
#     4   4   4   4   4   4   4   4
#     4  10  19  33  56  83 111 142 182 238 285 328
#     4  11  23  39  61  86 115 150 193 245 289 334
#     4  10  21  39  62  86 113 153 197 233 283 352
#     4  10  22  39  58  82 113 151 190 229 284 349
#     4   9  19  36  58  81 109 150 192 230 281 347
#     4  10  21  37  57  83 116 149 190 240 288 336
#     4  11  24  40  59  82 117 160 194 232 288 351
#     4   9  18  35  59  83 111 146 186 231 282 342
#
# _framework density 19.753086
#
# number of rings (size 3 to 8) (size 9 to 14) (size 15 to 20)
#    0.000    2.000    1.250    1.875    0.000    6.500 
#    0.000    7.500    0.000    0.000    0.000    0.000 
#    0.000    0.000    0.000    0.000    0.000    0.000 
#
# Total GULP energy -178419.238562 kJ/mol
# GULP energy per Si atom -5575.601205 kJ/mol
# Density = 1.970813 g / cm^3
# Si number density = 19.753086 Si / 1000 Ang^3
#
#
#
# Elastic Constant Matrix: (Units=GPa)
#
#
# Indices 1 2 3 4 5 6 
#
# 1 33.5986 2.4982 5.0262 0.0000 0.7117 0.0000
# 2 2.4982 12.0824 17.0232 0.0000 5.1709 0.0000
# 3 5.0262 17.0232 70.0450 0.0000 -10.2099 0.0000
# 4 0.0000 0.0000 0.0000 22.2948 0.0000 4.8261
# 5 0.7117 5.1709 -10.2099 0.0000 15.8759 0.0000
# 6 0.0000 0.0000 0.0000 4.8261 0.0000 27.8581
#
#
#
# Elastic Compliance Matrix: (Units=1/GPa)
#
#
# Indices 1 2 3 4 5 6 
#
# 1 0.030279 -0.003973 -0.001342 0.000000 -0.000927 0.000000
# 2 -0.003973 0.258563 -0.082541 0.000000 -0.137121 0.000000
# 3 -0.001342 -0.082541 0.042328 0.000000 0.054166 0.000000
# 4 0.000000 0.000000 0.000000 0.046601 0.000000 -0.008073
# 5 -0.000927 -0.137121 0.054166 0.000000 0.142526 0.000000
# 6 0.000000 0.000000 0.000000 -0.008073 0.000000 0.037295
#
#
# Mechanical properties :
#
#
# Convention : Reuss Voigt Hill
#
# Bulk Modulus (GPa) = 6.43261 18.31350 12.37306
# Shear Modulus (GPa) = 6.36841 19.28430 12.82636
#
# Velocity S-wave (km/s) = 1.79750 3.12792 2.55097
# Velocity P-wave (km/s) = 2.75165 4.72615 3.86705
#
# Compressibility (1/GPa) = 0.15545779
#
# Stress axis : x y z
#
# Youngs Moduli (GPa) = 33.02625 3.86752 23.62478
#
# Poissons Ratio (x) = 0.01537 0.03171
# Poissons Ratio (y) = 0.13122 1.95002
# Poissons Ratio (z) = 0.04433 0.31923
#
# Static dielectric constant tensor:
#      x y z
#    x 1.741120 0.000000 -0.043660 
#    y 0.000000 1.681560 0.000000 
#    z -0.043660 0.000000 1.721370 
# 
# From -- ./inp_files/58151.got.cif
#   From: 2010.05.17/outbox.ucp.g08.bks.cvg/sg10_30_cif.got.tgz:58151.got - 2010.06.11 11:31:16.
