data_PCOD9155330
_publ_section_title
;
Structure prediction by ZEFSAII (Michael W. Deem and Ramdas Pophale) SiO2 
 PCOD9155330
Probable space group: P 2/M
;
_chemical_formula_sum "Si O2"
_cell_formula_units_Z 32
_cell_length_a 27.000000
_cell_length_b 9.000000
_cell_length_c 21.000000
_cell_angle_alpha 90.000000
_cell_angle_beta 20.000000
_cell_angle_gamma 90.000000
_cell_volume 1745.328791
_symmetry_space_group_name_H-M "P 2/M"
_symmetry_group_IT_number 10
_symmetry_cell_setting 'monoclinic'
loop_
_space_group_symop_operation_xyz
x,y,z
-x,y,-z
-x,-y,-z
x,-y,z
loop_
_atom_site_type_symbol
_atom_site_label
_atom_site_fract_x
_atom_site_fract_y
_atom_site_fract_z
Si Si1 0.642393 0.677608 0.697449
Si Si2 0.145994 0.820887 0.460347
Si Si3 0.343004 0.821787 0.098492
Si Si4 0.658843 0.180962 0.280510
Si Si5 0.712337 0.180235 0.476920
Si Si6 0.414828 0.819570 0.772795
Si Si7 0.811533 0.180232 0.845909
Si Si8 0.026643 0.819275 0.041433
O O1 0.637365 0.500000 0.700300
O O2 0.778424 0.735508 0.573596
O O3 0.660741 0.748528 0.605397
O O4 0.496374 0.739645 0.907368
O O5 0.245389 0.791660 0.278232
O O6 0.978406 0.775081 0.653987
O O7 0.149125 0.000000 0.467544
O O8 0.249222 0.779934 0.149864
O O9 0.371077 0.000000 0.062957
O O10 0.500000 0.226540 0.500000
O O11 0.647939 0.225430 0.219666
O O12 0.660824 0.000000 0.282391
O O13 0.813583 0.229236 0.125213
O O14 0.583189 0.220610 0.582958
O O15 0.877475 0.224490 0.258692
O O16 0.711744 0.000000 0.483165
O O17 0.413325 0.000000 0.775469
O O18 0.304625 0.767987 0.961103
O O19 0.812233 0.000000 0.847823
O O20 0.029848 0.000000 0.039673
O O21 0.000000 0.775932 0.000000
#
# Coordination Sequence:
#
# PCOD9155330 Si02
#       8
#     4   4   4   4   4   4   4   4
#     4  12  25  38  53  77 112 150 188 226 274 328
#     4  10  21  35  58  84 108 138 179 230 282 335
#     4  10  19  37  60  83 106 137 181 230 281 334
#     4   9  16  25  40  70 112 146 171 207 264 324
#     4  10  19  34  56  78 107 143 184 229 273 320
#     4   9  16  27  47  74 103 137 173 218 267 316
#     4   9  17  31  54  83 109 133 176 228 280 331
#     4   9  17  28  47  79 114 145 176 216 267 320
#
# _framework density 18.334654
#
# number of rings (size 3 to 8) (size 9 to 14) (size 15 to 20)
#    0.000    2.250    1.250    2.625    1.750    6.500 
#    0.000    0.625    0.000    1.875    0.000    0.000 
#    0.000    2.000    0.000    0.000    0.000    0.000 
#
# Total GULP energy -178413.100960 kJ/mol
# GULP energy per Si atom -5575.409405 kJ/mol
# Density = 1.829292 g / cm^3
# Si number density = 18.334654 Si / 1000 Ang^3
#
#
#
# Elastic Constant Matrix: (Units=GPa)
#
#
# Indices 1 2 3 4 5 6 
#
# 1 115.9517 12.8523 45.6618 0.0000 -19.7475 0.0000
# 2 12.8523 14.8753 17.2489 0.0000 -2.5193 0.0000
# 3 45.6618 17.2489 133.5789 0.0000 -20.8705 0.0000
# 4 0.0000 0.0000 0.0000 3.9418 0.0000 1.6432
# 5 -19.7475 -2.5193 -20.8705 0.0000 40.7017 0.0000
# 6 0.0000 0.0000 0.0000 1.6432 0.0000 1.1499
#
#
#
# Elastic Compliance Matrix: (Units=1/GPa)
#
#
# Indices 1 2 3 4 5 6 
#
# 1 0.010846 -0.006016 -0.002355 0.000000 0.003682 0.000000
# 2 -0.006016 0.082406 -0.008962 0.000000 -0.002413 0.000000
# 3 -0.002355 -0.008962 0.009983 0.000000 0.003422 0.000000
# 4 0.000000 0.000000 0.000000 0.627463 0.000000 -0.896624
# 5 0.003682 -0.002413 0.003422 0.000000 0.027960 0.000000
# 6 0.000000 0.000000 0.000000 -0.896624 0.000000 2.150861
#
#
# Mechanical properties :
#
#
# Convention : Reuss Voigt Hill
#
# Bulk Modulus (GPa) = 14.58382 46.21465 30.39923
# Shear Modulus (GPa) = 1.68518 21.73489 11.71004
#
# Velocity S-wave (km/s) = 0.95975 3.44678 2.52996
# Velocity P-wave (km/s) = 3.03309 6.41103 5.01502
#
# Compressibility (1/GPa) = 0.06856914
#
# Stress axis : x y z
#
# Youngs Moduli (GPa) = 92.20243 12.13502 100.16893
#
# Poissons Ratio (x) = 0.07300 0.23593
# Poissons Ratio (y) = 0.55469 0.89767
# Poissons Ratio (z) = 0.21717 0.10875
#
# Static dielectric constant tensor:
#      x y z
#    x 1.651320 0.000000 0.006970 
#    y 0.000000 1.599960 0.000000 
#    z 0.006970 0.000000 1.632110 
# 
# From -- ./inp_files/86847.got.cif
#   From: 2010.05.17/outbox.ucp.g08.bks.cvg/sg10_44_cif.got.tgz:86847.got - 2010.06.11 11:31:16.
