data_PCOD9155278
_publ_section_title
;
Structure prediction by ZEFSAII (Michael W. Deem and Ramdas Pophale) SiO2 
 PCOD9155278
Probable space group: P 2/M
;
_chemical_formula_sum "Si O2"
_cell_formula_units_Z 32
_cell_length_a 30.000000
_cell_length_b 9.000000
_cell_length_c 12.000000
_cell_angle_alpha 90.000000
_cell_angle_beta 150.000000
_cell_angle_gamma 90.000000
_cell_volume 1620.000000
_symmetry_space_group_name_H-M "P 2/M"
_symmetry_group_IT_number 10
_symmetry_cell_setting 'monoclinic'
loop_
_space_group_symop_operation_xyz
x,y,z
-x,y,-z
-x,-y,-z
x,-y,z
loop_
_atom_site_type_symbol
_atom_site_label
_atom_site_fract_x
_atom_site_fract_y
_atom_site_fract_z
Si Si1 0.023311 0.831301 0.171571
Si Si2 0.742235 0.331229 0.608892
Si Si3 0.283469 0.326980 0.886999
Si Si4 0.203327 0.319453 0.939288
Si Si5 0.772752 0.166866 0.446911
Si Si6 0.542670 0.166791 0.712797
Si Si7 0.077416 0.668862 0.852891
Si Si8 0.640589 0.176976 0.574586
O O1 0.128904 0.837258 0.392832
O O2 0.985250 0.000000 0.087696
O O3 0.000000 0.760051 0.000000
O O4 0.989268 0.754836 0.210106
O O5 0.710945 0.500000 0.529054
O O6 0.769087 0.262139 0.550077
O O7 0.831010 0.333723 0.877114
O O8 0.670175 0.233629 0.517826
O O9 0.267854 0.500000 0.834636
O O10 0.214560 0.276928 0.834361
O O11 0.382103 0.289213 0.140854
O O12 0.282383 0.241457 0.769217
O O13 0.206684 0.500000 0.953746
O O14 0.113691 0.272779 0.811968
O O15 0.289598 0.254208 0.189594
O O16 0.744742 0.000000 0.412646
O O17 0.500000 0.150313 0.500000
O O18 0.461866 0.210774 0.619036
O O19 0.577126 0.000000 0.818494
O O20 0.044596 0.500000 0.766502
O O21 0.651687 0.000000 0.608926
#
# Coordination Sequence:
#
# PCOD9155278 Si02
#       8
#     4   4   4   4   4   4   4   4
#     4  10  20  35  55  82 111 141 185 232 275 328
#     4  10  20  35  55  82 115 146 184 228 277 333
#     4  11  23  38  58  82 114 152 189 229 279 335
#     4   9  19  35  53  80 114 147 184 227 276 328
#     4  11  23  39  58  80 113 150 186 231 282 336
#     4  10  20  36  57  85 116 146 187 232 275 328
#     4   9  18  32  54  82 110 141 180 228 275 323
#     4  10  19  32  56  85 113 145 183 229 277 324
#
# _framework density 19.753086
#
# number of rings (size 3 to 8) (size 9 to 14) (size 15 to 20)
#    0.000    2.000    2.500    2.250    0.000    5.000 
#    0.000    1.250    0.000    7.500    0.000    0.000 
#    0.000    0.000    0.000    0.000    0.000    0.000 
#
# Total GULP energy -178315.194123 kJ/mol
# GULP energy per Si atom -5572.349816 kJ/mol
# Density = 1.970813 g / cm^3
# Si number density = 19.753086 Si / 1000 Ang^3
#
#
#
# Elastic Constant Matrix: (Units=GPa)
#
#
# Indices 1 2 3 4 5 6 
#
# 1 98.7757 13.9456 -10.1881 0.0000 24.1228 0.0000
# 2 13.9456 16.9108 -0.5389 0.0000 0.2245 0.0000
# 3 -10.1881 -0.5389 6.0682 0.0000 -1.9096 0.0000
# 4 0.0000 0.0000 0.0000 2.5650 0.0000 13.6316
# 5 24.1228 0.2245 -1.9096 0.0000 11.3485 0.0000
# 6 0.0000 0.0000 0.0000 13.6316 0.0000 25.3477
#
#
#
# Elastic Compliance Matrix: (Units=1/GPa)
#
#
# Indices 1 2 3 4 5 6 
#
# 1 0.032214 -0.024709 0.032201 0.000000 -0.062568 0.000000
# 2 -0.024709 0.078255 -0.019527 0.000000 0.047688 0.000000
# 3 0.032201 -0.019527 0.206646 0.000000 -0.033290 0.000000
# 4 0.000000 0.000000 0.000000 -0.209829 0.000000 0.112842
# 5 -0.062568 0.047688 -0.033290 0.000000 0.214569 0.000000
# 6 0.000000 0.000000 0.000000 0.112842 0.000000 -0.021233
#
#
# Mechanical properties :
#
#
# Convention : Reuss Voigt Hill
#
# Bulk Modulus (GPa) = 3.41245 14.24353 8.82799
# Shear Modulus (GPa) = 11.83786 15.75466 13.79626
#
# Velocity S-wave (km/s) = 2.45070 2.82721 2.64566
# Velocity P-wave (km/s) = 3.12077 4.22894 3.71639
#
# Compressibility (1/GPa) = 0.29304428
#
# Stress axis : x y z
#
# Youngs Moduli (GPa) = 31.04240 12.77878 4.83920
#
# Poissons Ratio (x) = 0.31575 -0.15583
# Poissons Ratio (y) = 0.76702 0.09450
# Poissons Ratio (z) = -0.99960 0.24954
#
# Static dielectric constant tensor:
#      x y z
#    x 1.712000 0.000000 -0.019850 
#    y 0.000000 1.707260 0.000000 
#    z -0.019850 0.000000 1.799790 
# 
# From -- ./inp_files/49872.got.cif
#   From: 2010.05.17/outbox.ucp.g08.bks.cvg/sg10_25_cif.got.tgz:49872.got - 2010.06.11 11:31:16.
