data_PCOD9155896
_publ_section_title
;
Structure prediction by ZEFSAII (Michael W. Deem and Ramdas Pophale) SiO2 
 PCOD9155896
Probable space group: P 21/M
;
_chemical_formula_sum "Si O2"
_cell_formula_units_Z 32
_cell_length_a 17.206937
_cell_length_b 7.393017
_cell_length_c 10.230362
_cell_angle_alpha 90.000000
_cell_angle_beta 101.530836
_cell_angle_gamma 90.000000
_cell_volume 1275.150257
_symmetry_space_group_name_H-M "P 21/M"
_symmetry_group_IT_number 11
_symmetry_cell_setting 'monoclinic'
loop_
_space_group_symop_operation_xyz
x,y,z
-x,1/2+y,-z
-x,-y,-z
x,1/2-y,z
loop_
_atom_site_type_symbol
_atom_site_label
_atom_site_fract_x
_atom_site_fract_y
_atom_site_fract_z
Si Si1 0.752053 0.469144 0.885428
Si Si2 0.005596 0.031949 0.843368
Si Si3 0.347032 0.471424 0.801281
Si Si4 0.424671 0.456137 0.084063
Si Si5 0.311095 0.464817 0.508507
Si Si6 0.559838 0.966511 0.637539
Si Si7 0.172694 0.454751 0.827646
Si Si8 0.157358 0.966308 0.338071
O O1 0.750778 0.250000 0.890930
O O2 0.666405 0.541790 0.894280
O O3 0.786690 0.530188 0.760620
O O4 0.812091 0.543979 0.012400
O O5 0.008627 0.250000 0.835079
O O6 0.929467 0.968148 0.733344
O O7 0.085075 0.962243 0.796902
O O8 0.000000 0.000000 0.000000
O O9 0.347355 0.250000 0.807891
O O10 0.354226 0.531240 0.654467
O O11 0.256838 0.532203 0.806908
O O12 0.410742 0.532177 0.932730
O O13 0.449766 0.250000 0.074957
O O14 0.463662 0.541886 0.227162
O O15 0.322785 0.250000 0.510122
O O16 0.357987 0.539078 0.397890
O O17 0.215842 0.493117 0.479026
O O18 0.565344 0.750000 0.658578
O O19 0.500000 0.000000 0.500000
O O20 0.168958 0.250000 0.773636
O O21 0.151828 0.750000 0.333789
#
# Coordination Sequence:
#
# PCOD9155896 Si02
#       8
#     4   4   4   4   4   4   4   4
#     4  10  17  26  45  73 102 129 163 211 257 294
#     4  10  19  30  45  70 103 136 173 216 263 307
#     4   8  16  32  55  77  98 132 176 217 247 286
#     4   9  17  33  54  77 102 132 170 203 246 301
#     4  10  20  36  56  77 100 131 176 213 244 301
#     4  10  21  35  55  81 107 133 162 202 250 301
#     4   9  17  30  49  70  98 136 174 212 257 304
#     4  10  20  31  45  71 104 136 167 212 267 304
#
# _framework density 25.095082999999999
#
# number of rings (size 3 to 8) (size 9 to 14) (size 15 to 20)
#    0.000    2.500    2.500    1.125    0.000    2.000 
#    0.000    3.750    0.000    0.000    0.000    0.000 
#    0.000    0.000    0.000    0.000    0.000    0.000 
#
# Total GULP energy -178397.043256 kJ/mol
# GULP energy per Si atom -5574.907602 kJ/mol
# Density = 2.503797 g / cm^3
# Si number density = 25.095083 Si / 1000 Ang^3
#
#
#
# Elastic Constant Matrix: (Units=GPa)
#
#
# Indices 1 2 3 4 5 6 
#
# 1 88.0510 16.6108 45.4239 0.0000 14.6762 0.0000
# 2 16.6108 110.2766 2.7691 0.0000 -2.7998 0.0000
# 3 45.4239 2.7691 180.2324 0.0000 9.1193 0.0000
# 4 0.0000 0.0000 0.0000 16.4773 0.0000 5.4829
# 5 14.6762 -2.7998 9.1193 0.0000 41.9598 0.0000
# 6 0.0000 0.0000 0.0000 5.4829 0.0000 11.4865
#
#
#
# Elastic Compliance Matrix: (Units=1/GPa)
#
#
# Indices 1 2 3 4 5 6 
#
# 1 0.014215 -0.002169 -0.003327 0.000000 -0.004394 0.000000
# 2 -0.002169 0.009420 0.000335 0.000000 0.001314 0.000000
# 3 -0.003327 0.000335 0.006392 0.000000 -0.000203 0.000000
# 4 0.000000 0.000000 0.000000 0.072149 0.000000 -0.034439
# 5 -0.004394 0.001314 -0.000203 0.000000 0.025501 0.000000
# 6 0.000000 0.000000 0.000000 -0.034439 0.000000 0.103498
#
#
# Mechanical properties :
#
#
# Convention : Reuss Voigt Hill
#
# Bulk Modulus (GPa) = 50.74752 56.46306 53.60529
# Shear Modulus (GPa) = 20.15604 34.90179 27.52892
#
# Velocity S-wave (km/s) = 2.83713 3.73336 3.31567
# Velocity P-wave (km/s) = 5.56762 6.41346 6.00545
#
# Compressibility (1/GPa) = 0.01970540
#
# Stress axis : x y z
#
# Youngs Moduli (GPa) = 70.34866 106.15940 156.44534
#
# Poissons Ratio (x) = 0.23028 0.52049
# Poissons Ratio (y) = 0.15260 -0.05248
# Poissons Ratio (z) = 0.23405 -0.03561
#
# Static dielectric constant tensor:
#      x y z
#    x 2.041440 0.000000 0.033680 
#    y 0.000000 2.141540 0.000000 
#    z 0.033680 0.000000 2.085840 
# 
# From -- ./inp_files/42557.got.cif
#   From: 2010.05.17/outbox.cif.g08.bks.cpg/sg11_22_cif.got.tgz:42557.got - 2010.06.03 12:22:45.
