data_PCOD9155250
_publ_section_title
;
Structure prediction by ZEFSAII (Michael W. Deem and Ramdas Pophale) SiO2 
 PCOD9155250
Probable space group: P 2/M
;
_chemical_formula_sum "Si O2"
_cell_formula_units_Z 28
_cell_length_a 18.000000
_cell_length_b 9.000000
_cell_length_c 15.000000
_cell_angle_alpha 90.000000
_cell_angle_beta 140.000000
_cell_angle_gamma 90.000000
_cell_volume 1561.973892
_symmetry_space_group_name_H-M "P 2/M"
_symmetry_group_IT_number 10
_symmetry_cell_setting 'monoclinic'
loop_
_space_group_symop_operation_xyz
x,y,z
-x,y,-z
-x,-y,-z
x,-y,z
loop_
_atom_site_type_symbol
_atom_site_label
_atom_site_fract_x
_atom_site_fract_y
_atom_site_fract_z
Si Si1 0.682413 0.820236 0.324465
Si Si2 0.561599 0.675997 0.853949
Si Si3 0.365989 0.829587 0.909797
Si Si4 0.020800 0.179329 0.914948
Si Si5 0.259012 0.677684 0.131855
Si Si6 0.630206 0.820808 0.598955
Si Si7 0.202996 0.819904 0.399208
O O1 0.560166 0.758148 0.246677
O O2 0.701441 0.776498 0.239645
O O3 0.779427 0.772429 0.483354
O O4 0.673568 0.000000 0.315992
O O5 0.542500 0.500000 0.836361
O O6 0.634343 0.718782 0.834111
O O7 0.637479 0.724743 0.008806
O O8 0.335561 0.000000 0.904874
O O9 0.500000 0.831867 0.000000
O O10 0.911020 0.230161 0.756511
O O11 0.031137 0.000000 0.918827
O O12 0.137919 0.254775 0.989742
O O13 0.000000 0.215720 0.000000
O O14 0.252448 0.500000 0.130738
O O15 0.286464 0.749348 0.252014
O O16 0.500000 0.772106 0.500000
O O17 0.682508 0.778927 0.551585
O O18 0.634280 0.000000 0.610489
O O19 0.198588 0.000000 0.394297
#
# Coordination Sequence:
#
# PCOD9155250 Si02
#       7
#     4   4   4   4   4   4   4
#     4   9  17  31  52  77 103 128 158 199 249 298
#     4  10  20  32  47  71 103 135 165 199 241 292
#     4   8  15  28  48  74 100 127 160 199 242 293
#     4  10  19  35  56  73  93 125 172 215 245 288
#     4  11  23  35  48  70 102 134 167 207 247 290
#     4  10  19  32  52  75  99 130 164 198 244 298
#     4   9  17  31  51  75  99 124 159 205 247 289
#
# _framework density 17.926036
#
# number of rings (size 3 to 8) (size 9 to 14) (size 15 to 20)
#    0.000    2.429    1.429    2.571    0.000    6.571 
#    0.000    1.429    0.000    0.857    0.000    6.000 
#    0.000    0.000    0.000    0.000    0.000    0.000 
#
# Total GULP energy -156025.259982 kJ/mol
# GULP energy per Si atom -5572.330714 kJ/mol
# Density = 1.788524 g / cm^3
# Si number density = 17.926036 Si / 1000 Ang^3
#
#
#
# Elastic Constant Matrix: (Units=GPa)
#
#
# Indices 1 2 3 4 5 6 
#
# 1 6.4976 -0.5133 3.3171 0.0000 -6.8584 0.0000
# 2 -0.5133 -4.6172 -3.2829 0.0000 -1.9355 0.0000
# 3 3.3171 -3.2829 105.4865 0.0000 -13.6790 0.0000
# 4 0.0000 0.0000 0.0000 -3.8440 0.0000 4.8589
# 5 -6.8584 -1.9355 -13.6790 0.0000 31.1195 0.0000
# 6 0.0000 0.0000 0.0000 4.8589 0.0000 16.5797
#
#
#
# Elastic Compliance Matrix: (Units=1/GPa)
#
#
# Indices 1 2 3 4 5 6 
#
# 1 0.193788 -0.036604 -0.002110 0.000000 0.039505 0.000000
# 2 -0.036604 -0.196780 -0.008066 0.000000 -0.023852 0.000000
# 3 -0.002110 -0.008066 0.009724 0.000000 0.003308 0.000000
# 4 0.000000 0.000000 0.000000 -0.189827 0.000000 0.055632
# 5 0.039505 -0.023852 0.003308 0.000000 0.040811 0.000000
# 6 0.000000 0.000000 0.000000 0.055632 0.000000 0.044011
#
#
# Mechanical properties :
#
#
# Convention : Reuss Voigt Hill
#
# Bulk Modulus (GPa) = -11.51696 11.82318 0.15311
# Shear Modulus (GPa) = -148.56288 15.96078 -66.30105
#
# Velocity S-wave (km/s) = -9.11347 2.98714 -6.08820
# Velocity P-wave (km/s) = 10.82493 4.30200 7.02396
#
# Compressibility (1/GPa) = -0.08682847
#
# Stress axis : x y z
#
# Youngs Moduli (GPa) = 5.16028 -5.08181 102.83698
#
# Poissons Ratio (x) = -0.18601 0.21700
# Poissons Ratio (y) = 0.18889 0.82949
# Poissons Ratio (z) = 0.01089 -0.04099
#
# Static dielectric constant tensor:
#      x y z
#    x 1.601930 0.000000 -0.028850 
#    y 0.000000 1.592320 0.000000 
#    z -0.028850 0.000000 1.669500 
# 
# From -- ./inp_files/68672.got.cif
#   From: 2010.05.17/outbox.ucp.g08.bks.cvg/sg10_35_cif.got.tgz:68672.got - 2010.06.11 11:31:16.
