data_PCOD9155306
_publ_section_title
;
Structure prediction by ZEFSAII (Michael W. Deem and Ramdas Pophale) SiO2 
 PCOD9155306
Probable space group: P 2/M
;
_chemical_formula_sum "Si O2"
_cell_formula_units_Z 24
_cell_length_a 12.000000
_cell_length_b 9.000000
_cell_length_c 12.000000
_cell_angle_alpha 90.000000
_cell_angle_beta 90.000000
_cell_angle_gamma 90.000000
_cell_volume 1296.000000
_symmetry_space_group_name_H-M "P 2/M"
_symmetry_group_IT_number 10
_symmetry_cell_setting 'monoclinic'
loop_
_space_group_symop_operation_xyz
x,y,z
-x,y,-z
-x,-y,-z
x,-y,z
loop_
_atom_site_type_symbol
_atom_site_label
_atom_site_fract_x
_atom_site_fract_y
_atom_site_fract_z
Si Si1 0.258195 0.174317 0.162006
Si Si2 0.921749 0.826920 0.645033
Si Si3 0.513687 0.322256 0.867372
Si Si4 0.721252 0.679789 0.223973
Si Si5 0.877471 0.321233 0.030969
Si Si6 0.864860 0.324172 0.418236
O O1 0.173495 0.192769 0.264102
O O2 0.381568 0.234950 0.180690
O O3 0.207242 0.273128 0.064155
O O4 0.260670 0.000000 0.132215
O O5 0.873963 0.775898 0.526519
O O6 0.028515 0.720302 0.657354
O O7 0.955636 0.000000 0.644073
O O8 0.528057 0.500000 0.849931
O O9 0.399200 0.268880 0.812520
O O10 0.500000 0.299533 0.000000
O O11 0.720469 0.500000 0.211641
O O12 0.754957 0.710581 0.349419
O O13 0.819289 0.735152 0.143139
O O14 0.885135 0.500000 0.036836
O O15 0.000000 0.262802 0.000000
O O16 0.870255 0.500000 0.443815
#
# Coordination Sequence:
#
# PCOD9155306 Si02
#       6
#     4   4   4   4   4   4
#     4  11  23  36  52  78 111 144 182 223 262 318
#     4  10  21  37  54  76 112 148 177 214 269 323
#     4  10  19  36  59  77 104 145 182 221 271 320
#     4   9  18  33  53  82 109 133 173 224 273 317
#     4  10  19  33  55  80 108 140 174 218 272 326
#     4  10  19  34  59  85 107 134 179 227 266 317
#
# _framework density 18.518519000000001
#
# number of rings (size 3 to 8) (size 9 to 14) (size 15 to 20)
#    0.000    2.000    1.667    3.500    0.000    4.667 
#    0.000    4.167    0.000    5.000    0.000    0.000 
#    0.000    0.000    0.000    0.000    0.000    0.000 
#
# Total GULP energy -133781.129667 kJ/mol
# GULP energy per Si atom -5574.213736 kJ/mol
# Density = 1.847637 g / cm^3
# Si number density = 18.518519 Si / 1000 Ang^3
#
#
#
# Elastic Constant Matrix: (Units=GPa)
#
#
# Indices 1 2 3 4 5 6 
#
# 1 -21.3955 -51.0733 0.7535 0.0000 35.5619 0.0000
# 2 -51.0733 -12.4770 -17.8562 0.0000 -2.7335 0.0000
# 3 0.7535 -17.8562 26.6150 0.0000 11.7292 0.0000
# 4 0.0000 0.0000 0.0000 -44.6005 0.0000 -56.9938
# 5 35.5619 -2.7335 11.7292 0.0000 25.0701 0.0000
# 6 0.0000 0.0000 0.0000 -56.9938 0.0000 -22.8585
#
#
#
# Elastic Compliance Matrix: (Units=1/GPa)
#
#
# Indices 1 2 3 4 5 6 
#
# 1 0.018427 -0.042640 -0.019603 0.000000 -0.021617 0.000000
# 2 -0.042640 0.059882 0.014927 0.000000 0.060031 0.000000
# 3 -0.019603 0.014927 0.044306 0.000000 0.008705 0.000000
# 4 0.000000 0.000000 0.000000 0.010256 0.000000 -0.025572
# 5 -0.021617 0.060031 0.008705 0.000000 0.073025 0.000000
# 6 0.000000 0.000000 0.000000 -0.025572 0.000000 0.020011
#
#
# Mechanical properties :
#
#
# Convention : Reuss Voigt Hill
#
# Bulk Modulus (GPa) = 35.73599 -15.95659 9.88970
# Shear Modulus (GPa) = 15.15764 -4.41656 5.37054
#
# Velocity S-wave (km/s) = 2.86407 -1.54600 1.70481
# Velocity P-wave (km/s) = 5.50241 3.43833 3.03763
#
# Compressibility (1/GPa) = 0.02798299
#
# Stress axis : x y z
#
# Youngs Moduli (GPa) = 54.26732 16.69955 22.57032
#
# Poissons Ratio (x) = 0.71207 0.44244
# Poissons Ratio (y) = 2.31397 -0.33690
# Poissons Ratio (z) = 1.06379 -0.24927
#
# Static dielectric constant tensor:
#      x y z
#    x 1.671240 0.000000 -0.001750 
#    y 0.000000 1.626220 0.000000 
#    z -0.001750 0.000000 1.688030 
# 
# From -- ./inp_files/45169.got.cif
#   From: 2010.05.17/outbox.ucp.g08.bks.cvg/sg10_23_cif.got.tgz:45169.got - 2010.06.11 11:31:16.
