data_PCOD9155773
_publ_section_title
;
Structure prediction by ZEFSAII (Michael W. Deem and Ramdas Pophale) SiO2 
 PCOD9155773
Probable space group: P 21/M
;
_chemical_formula_sum "Si O2"
_cell_formula_units_Z 20
_cell_length_a 12.542855
_cell_length_b 17.721688
_cell_length_c 14.594641
_cell_angle_alpha 90.000000
_cell_angle_beta 19.822789
_cell_angle_gamma 90.000000
_cell_volume 1100.115337
_symmetry_space_group_name_H-M "P 21/M"
_symmetry_group_IT_number 11
_symmetry_cell_setting 'monoclinic'
loop_
_space_group_symop_operation_xyz
x,y,z
-x,1/2+y,-z
-x,-y,-z
x,1/2-y,z
loop_
_atom_site_type_symbol
_atom_site_label
_atom_site_fract_x
_atom_site_fract_y
_atom_site_fract_z
Si Si1 0.065991 0.626347 0.598075
Si Si2 0.911019 0.044979 0.784589
Si Si3 0.799548 0.666417 0.998681
Si Si4 0.825242 0.577945 0.612529
Si Si5 0.868776 0.014318 0.206621
O O1 0.993265 0.539953 0.685555
O O2 0.874800 0.670087 0.829776
O O3 0.948889 0.636261 0.588807
O O4 0.436438 0.642763 0.305557
O O5 0.087614 0.093883 0.563822
O O6 0.543196 0.063025 0.077359
O O7 0.005146 0.041557 0.815247
O O8 0.851851 0.750000 0.996372
O O9 0.021627 0.599491 0.856564
O O10 0.000000 0.500000 0.500000
O O11 0.500000 0.000000 0.500000
O O12 0.000000 0.000000 0.000000
#
# Coordination Sequence:
#
# PCOD9155773 Si02
#       5
#     4   4   4   4   4
#     4  10  18  31  50  76 107 135 164 206 261 325
#     4  10  18  29  47  75 106 132 168 214 262 310
#     4  11  22  36  53  78 108 140 177 220 276 339
#     4  10  16  27  47  74 104 132 158 195 252 317
#     4  11  21  35  53  77 107 139 183 237 277 305
#
# _framework density 18.179912000000002
#
# number of rings (size 3 to 8) (size 9 to 14) (size 15 to 20)
#    0.000    1.600    0.000   12.600    0.000    0.000 
#    0.000    0.000    0.000    0.000    0.000   28.000 
#    0.000    0.000    0.000    0.000    0.000    0.000 
#
# Total GULP energy -111400.799791 kJ/mol
# GULP energy per Si atom -5570.039990 kJ/mol
# Density = 1.813853 g / cm^3
# Si number density = 18.179912 Si / 1000 Ang^3
#
#
#
# Elastic Constant Matrix: (Units=GPa)
#
#
# Indices 1 2 3 4 5 6 
#
# 1 128.8833 27.5120 38.4263 0.0000 21.2318 0.0000
# 2 27.5120 51.0710 28.6641 0.0000 -3.4893 0.0000
# 3 38.4263 28.6641 157.4291 0.0000 9.5191 0.0000
# 4 0.0000 0.0000 0.0000 37.6003 0.0000 8.1023
# 5 21.2318 -3.4893 9.5191 0.0000 40.6437 0.0000
# 6 0.0000 0.0000 0.0000 8.1023 0.0000 14.0526
#
#
#
# Elastic Compliance Matrix: (Units=1/GPa)
#
#
# Indices 1 2 3 4 5 6 
#
# 1 0.010112 -0.005144 -0.001202 0.000000 -0.005443 0.000000
# 2 -0.005144 0.024755 -0.003594 0.000000 0.005654 0.000000
# 3 -0.001202 -0.003594 0.007385 0.000000 -0.001410 0.000000
# 4 0.000000 0.000000 0.000000 0.030369 0.000000 -0.017510
# 5 -0.005443 0.005654 -0.001410 0.000000 0.028263 0.000000
# 6 0.000000 0.000000 0.000000 -0.017510 0.000000 0.081257
#
#
# Mechanical properties :
#
#
# Convention : Reuss Voigt Hill
#
# Bulk Modulus (GPa) = 44.69952 58.50982 51.60467
# Shear Modulus (GPa) = 23.86873 34.64470 29.25672
#
# Velocity S-wave (km/s) = 3.62735 4.37012 4.01595
# Velocity P-wave (km/s) = 6.49494 7.59721 7.06760
#
# Compressibility (1/GPa) = 0.02237161
#
# Stress axis : x y z
#
# Youngs Moduli (GPa) = 98.89042 40.39569 135.40718
#
# Poissons Ratio (x) = 0.20781 0.16283
# Poissons Ratio (y) = 0.50873 0.48659
# Poissons Ratio (z) = 0.11892 0.14516
#
# Static dielectric constant tensor:
#      x y z
#    x 1.704990 0.000000 0.028080 
#    y 0.000000 1.639490 0.000000 
#    z 0.028080 0.000000 1.601830 
# 
# From -- ./inp_files/50571.got.cif
#   From: 2010.05.17/outbox.cif.g08.bks.cpg/sg11_26_cif.got.tgz:50571.got - 2010.06.03 12:22:45.
