data_PCOD9155767
_publ_section_title
;
Structure prediction by ZEFSAII (Michael W. Deem and Ramdas Pophale) SiO2 
 PCOD9155767
Probable space group: P 21/M
;
_chemical_formula_sum "Si O2"
_cell_formula_units_Z 24
_cell_length_a 8.053214
_cell_length_b 16.740176
_cell_length_c 9.302556
_cell_angle_alpha 90.000000
_cell_angle_beta 108.803344
_cell_angle_gamma 90.000000
_cell_volume 1187.167565
_symmetry_space_group_name_H-M "P 21/M"
_symmetry_group_IT_number 11
_symmetry_cell_setting 'monoclinic'
loop_
_space_group_symop_operation_xyz
x,y,z
-x,1/2+y,-z
-x,-y,-z
x,1/2-y,z
loop_
_atom_site_type_symbol
_atom_site_label
_atom_site_fract_x
_atom_site_fract_y
_atom_site_fract_z
Si Si1 0.718874 0.338365 0.802244
Si Si2 0.212034 0.500605 0.684882
Si Si3 0.661381 0.660512 0.150135
Si Si4 0.129280 0.944205 0.946625
Si Si5 0.398194 0.437358 0.141858
Si Si6 0.702565 0.495600 0.607442
O O1 0.752162 0.250000 0.753443
O O2 0.522357 0.339562 0.813627
O O3 0.850566 0.359937 0.969982
O O4 0.734575 0.410098 0.692715
O O5 0.223317 0.409687 0.746905
O O6 0.403084 0.542516 0.761569
O O7 0.186125 0.499168 0.507120
O O8 0.096609 0.548634 0.768894
O O9 0.734935 0.750000 0.178302
O O10 0.624949 0.635418 0.974214
O O11 0.316675 0.987651 0.031462
O O12 0.000000 0.000000 0.000000
O O13 0.292207 0.438433 0.263236
O O14 0.500000 0.500000 0.500000
#
# Coordination Sequence:
#
# PCOD9155767 Si02
#       6
#     4   4   4   4   4   4
#     4  10  18  31  48  73 101 128 162 206 247 284
#     4  10  16  32  49  71  98 126 161 198 241 299
#     4  10  16  26  47  71  95 126 159 203 243 274
#     4  10  18  31  51  72  91 129 170 201 236 291
#     4   9  16  31  46  67  97 125 159 195 240 292
#     4   9  16  28  49  71  98 129 155 197 245 293
#
# _framework density 20.216187000000001
#
# number of rings (size 3 to 8) (size 9 to 14) (size 15 to 20)
#    0.000    2.333    6.667    1.000    0.000    0.000 
#    0.000   11.667    0.000    0.000    0.000    4.667 
#    0.000    0.000    0.000    0.000    0.000    0.000 
#
# Total GULP energy -133686.471159 kJ/mol
# GULP energy per Si atom -5570.269632 kJ/mol
# Density = 2.017017 g / cm^3
# Si number density = 20.216187 Si / 1000 Ang^3
#
#
#
# Elastic Constant Matrix: (Units=GPa)
#
#
# Indices 1 2 3 4 5 6 
#
# 1 47.9541 -2.2675 21.8519 0.0000 -17.4235 0.0000
# 2 -2.2675 111.7380 36.5504 0.0000 -6.0611 0.0000
# 3 21.8519 36.5504 178.8240 0.0000 -29.2613 0.0000
# 4 0.0000 0.0000 0.0000 23.0233 0.0000 -1.4599
# 5 -17.4235 -6.0611 -29.2613 0.0000 35.8688 0.0000
# 6 0.0000 0.0000 0.0000 -1.4599 0.0000 9.7171
#
#
#
# Elastic Compliance Matrix: (Units=1/GPa)
#
#
# Indices 1 2 3 4 5 6 
#
# 1 0.025857 0.001679 -0.001617 0.000000 0.011525 0.000000
# 2 0.001679 0.009700 -0.002061 0.000000 0.000773 0.000000
# 3 -0.001617 -0.002061 0.006954 0.000000 0.004539 0.000000
# 4 0.000000 0.000000 0.000000 0.043852 0.000000 0.006588
# 5 0.011525 0.000773 0.004539 0.000000 0.037311 0.000000
# 6 0.000000 0.000000 0.000000 0.006588 0.000000 0.103901
#
#
# Mechanical properties :
#
#
# Convention : Reuss Voigt Hill
#
# Bulk Modulus (GPa) = 25.96624 50.08730 38.02677
# Shear Modulus (GPa) = 20.45737 32.54725 26.50231
#
# Velocity S-wave (km/s) = 3.18454 4.01678 3.62463
# Velocity P-wave (km/s) = 5.13750 6.80752 6.03060
#
# Compressibility (1/GPa) = 0.03851155
#
# Stress axis : x y z
#
# Youngs Moduli (GPa) = 38.67442 103.09551 143.80833
#
# Poissons Ratio (x) = -0.17308 0.23253
# Poissons Ratio (y) = -0.06493 0.29642
# Poissons Ratio (z) = 0.06254 0.21250
#
# Static dielectric constant tensor:
#      x y z
#    x 1.830490 0.000000 -0.006770 
#    y 0.000000 1.705780 0.000000 
#    z -0.006770 0.000000 1.787560 
# 
# From -- ./inp_files/13214.got.cif
#   From: 2010.05.17/outbox.cif.g08.bks.cpg/sg11_7_cif.got.tgz:13214.got - 2010.06.03 12:22:45.
