data_PCOD9155469
_publ_section_title
;
Structure prediction by ZEFSAII (Michael W. Deem and Ramdas Pophale) SiO2 
 PCOD9155469
Probable space group: P 2/M
;
_chemical_formula_sum "Si O2"
_cell_formula_units_Z 28
_cell_length_a 9.000000
_cell_length_b 9.000000
_cell_length_c 27.000000
_cell_angle_alpha 90.000000
_cell_angle_beta 140.000000
_cell_angle_gamma 90.000000
_cell_volume 1405.776502
_symmetry_space_group_name_H-M "P 2/M"
_symmetry_group_IT_number 10
_symmetry_cell_setting 'monoclinic'
loop_
_space_group_symop_operation_xyz
x,y,z
-x,y,-z
-x,-y,-z
x,-y,z
loop_
_atom_site_type_symbol
_atom_site_label
_atom_site_fract_x
_atom_site_fract_y
_atom_site_fract_z
Si Si1 0.247777 0.681572 0.714799
Si Si2 0.973673 0.672240 0.163365
Si Si3 0.757989 0.325953 0.566511
Si Si4 0.508660 0.674113 0.325439
Si Si5 0.773238 0.165559 0.474838
Si Si6 0.568931 0.678319 0.135348
Si Si7 0.716428 0.827976 0.016936
O O1 0.242861 0.500000 0.713537
O O2 0.357759 0.723802 0.690307
O O3 0.397269 0.729929 0.799875
O O4 0.980609 0.732019 0.652845
O O5 0.917532 0.500000 0.138325
O O6 0.798990 0.719257 0.162519
O O7 0.926954 0.762288 0.101607
O O8 0.236595 0.681894 0.246704
O O9 0.500000 0.259471 0.500000
O O10 0.735759 0.500000 0.573219
O O11 0.826615 0.293308 0.527886
O O12 0.568210 0.500000 0.350340
O O13 0.573615 0.775687 0.388206
O O14 0.000000 0.153566 0.500000
O O15 0.726720 0.000000 0.483924
O O16 0.553255 0.500000 0.131579
O O17 0.354557 0.743526 0.050713
O O18 0.746934 0.000000 0.014400
O O19 0.500000 0.810163 0.000000
#
# Coordination Sequence:
#
# PCOD9155469 Si02
#       7
#     4   4   4   4   4   4   4
#     4   9  18  33  52  78 107 136 170 218 270 312
#     4   9  18  31  53  80 102 130 172 218 261 310
#     4  10  21  36  59  84 108 139 181 229 273 316
#     4  10  20  35  56  79 105 138 179 222 267 317
#     4  11  23  38  55  77 109 148 185 219 266 322
#     4   9  17  31  52  76 104 133 169 215 262 312
#     4   9  17  31  51  75 104 135 170 209 256 312
#
# _framework density 19.917818
#
# number of rings (size 3 to 8) (size 9 to 14) (size 15 to 20)
#    0.000    2.429    1.429    0.857    2.000    3.143 
#    0.000    2.143    0.000    4.286    0.000    0.000 
#    0.000    0.000    0.000    0.000    0.000    0.000 
#
# Total GULP energy -155957.238661 kJ/mol
# GULP energy per Si atom -5569.901381 kJ/mol
# Density = 1.987248 g / cm^3
# Si number density = 19.917818 Si / 1000 Ang^3
#
#
#
# Elastic Constant Matrix: (Units=GPa)
#
#
# Indices 1 2 3 4 5 6 
#
# 1 -5.6007 -14.8782 -18.7104 0.0000 1.3527 0.0000
# 2 -14.8782 -11.8579 9.2326 0.0000 5.1560 0.0000
# 3 -18.7104 9.2326 59.3091 0.0000 -17.9310 0.0000
# 4 0.0000 0.0000 0.0000 -7.1238 0.0000 8.6163
# 5 1.3527 5.1560 -17.9310 0.0000 19.6083 0.0000
# 6 0.0000 0.0000 0.0000 8.6163 0.0000 11.0219
#
#
#
# Elastic Compliance Matrix: (Units=1/GPa)
#
#
# Indices 1 2 3 4 5 6 
#
# 1 -0.130461 0.070237 -0.075952 0.000000 -0.078923 0.000000
# 2 0.070237 -0.094161 0.059205 0.000000 0.074055 0.000000
# 3 -0.075952 0.059205 -0.026866 0.000000 -0.034897 0.000000
# 4 0.000000 0.000000 0.000000 -0.072153 0.000000 0.056405
# 5 -0.078923 0.074055 -0.034897 0.000000 0.005059 0.000000
# 6 0.000000 0.000000 0.000000 0.056405 0.000000 0.046635
#
#
# Mechanical properties :
#
#
# Convention : Reuss Voigt Hill
#
# Bulk Modulus (GPa) = -6.92001 -0.76237 -3.84119
# Shear Modulus (GPa) = -11.70693 9.11504 -1.29594
#
# Velocity S-wave (km/s) = -2.42701 2.14156 -0.80750
# Velocity P-wave (km/s) = 3.36685 2.39404 1.67395
#
# Compressibility (1/GPa) = -0.14450842
#
# Stress axis : x y z
#
# Youngs Moduli (GPa) = -7.66512 -10.62008 -37.22112
#
# Poissons Ratio (x) = 0.74592 -2.82700
# Poissons Ratio (y) = 0.53837 2.20367
# Poissons Ratio (z) = -0.58218 0.62876
#
# Static dielectric constant tensor:
#      x y z
#    x 1.727810 0.000000 -0.003670 
#    y 0.000000 1.702410 0.000000 
#    z -0.003670 0.000000 1.704730 
# 
# From -- ./inp_files/36951.got.cif
#   From: 2010.05.17/outbox.ucp.g08.bks.cvg/sg10_19_cif.got.tgz:36951.got - 2010.06.11 11:31:16.
