data_PCOD9155468
_publ_section_title
;
Structure prediction by ZEFSAII (Michael W. Deem and Ramdas Pophale) SiO2 
 PCOD9155468
Probable space group: P 2/M
;
_chemical_formula_sum "Si O2"
_cell_formula_units_Z 32
_cell_length_a 12.000000
_cell_length_b 15.000000
_cell_length_c 18.000000
_cell_angle_alpha 90.000000
_cell_angle_beta 30.000000
_cell_angle_gamma 90.000000
_cell_volume 1620.000000
_symmetry_space_group_name_H-M "P 2/M"
_symmetry_group_IT_number 10
_symmetry_cell_setting 'monoclinic'
loop_
_space_group_symop_operation_xyz
x,y,z
-x,y,-z
-x,-y,-z
x,-y,z
loop_
_atom_site_type_symbol
_atom_site_label
_atom_site_fract_x
_atom_site_fract_y
_atom_site_fract_z
Si Si1 0.522726 0.601859 0.255821
Si Si2 0.967014 0.104695 0.164278
Si Si3 0.601946 0.785935 0.864477
Si Si4 0.843688 0.599413 0.410395
Si Si5 0.305750 0.404698 0.225672
Si Si6 0.945064 0.793056 0.324542
Si Si7 0.329907 0.796004 0.871941
Si Si8 0.510841 0.896178 0.625084
O O1 0.621860 0.500000 0.198033
O O2 0.384710 0.612236 0.411781
O O3 0.343956 0.602061 0.291555
O O4 0.665269 0.691214 0.155398
O O5 0.026960 0.150991 0.207005
O O6 0.701481 0.109453 0.306743
O O7 0.030467 0.000000 0.123263
O O8 0.090884 0.164273 0.031630
O O9 0.572870 0.678823 0.880132
O O10 0.484801 0.812648 0.855666
O O11 0.867321 0.799601 0.719633
O O12 0.500000 0.821974 0.000000
O O13 0.839069 0.500000 0.377549
O O14 0.898563 0.688742 0.332605
O O15 0.048785 0.597209 0.350385
O O16 0.400572 0.500000 0.146872
O O17 0.717066 0.837675 0.480712
O O18 0.428612 0.855515 0.749698
O O19 0.573490 0.000000 0.594839
#
# Coordination Sequence:
#
# PCOD9155468 Si02
#       8
#     4   4   4   4   4   4   4   4
#     4   9  16  29  52  84 122 159 194 236 287 346
#     4  11  24  43  66  86 115 155 201 257 309 349
#     4  10  20  35  55  85 128 163 184 225 303 377
#     4   9  16  29  52  84 122 159 194 236 287 346
#     4   8  15  25  46  79 114 157 202 237 274 330
#     4  11  21  39  63  91 123 158 196 244 297 359
#     4  11  21  39  63  91 123 158 196 244 297 359
#     4  11  24  43  66  90 109 145 211 267 297 337
#
# _framework density 19.753086
#
# number of rings (size 3 to 8) (size 9 to 14) (size 15 to 20)
#    0.000    2.000    2.500    1.875    0.000    4.250 
#    0.000    4.375    0.000    4.500    0.000    0.000 
#    0.000    0.000    0.000    0.000    0.000    0.000 
#
# Total GULP energy -178281.302039 kJ/mol
# GULP energy per Si atom -5571.290689 kJ/mol
# Density = 1.970813 g / cm^3
# Si number density = 19.753086 Si / 1000 Ang^3
#
#
#
# Elastic Constant Matrix: (Units=GPa)
#
#
# Indices 1 2 3 4 5 6 
#
# 1 39.7950 -1.1617 -13.1691 0.0000 -10.3818 0.0000
# 2 -1.1617 74.4157 -18.6492 0.0000 -37.9429 0.0000
# 3 -13.1691 -18.6492 6.3376 0.0000 -17.6711 0.0000
# 4 0.0000 0.0000 0.0000 26.1889 0.0000 -6.6565
# 5 -10.3818 -37.9429 -17.6711 0.0000 7.0757 0.0000
# 6 0.0000 0.0000 0.0000 -6.6565 0.0000 9.6838
#
#
#
# Elastic Compliance Matrix: (Units=1/GPa)
#
#
# Indices 1 2 3 4 5 6 
#
# 1 0.020969 -0.006004 -0.003677 0.000000 -0.010610 0.000000
# 2 -0.006004 0.006453 -0.013152 0.000000 -0.007052 0.000000
# 3 -0.003677 -0.013152 0.016808 0.000000 -0.033942 0.000000
# 4 0.000000 0.000000 0.000000 0.046268 0.000000 0.031804
# 5 -0.010610 -0.007052 -0.033942 0.000000 0.003176 0.000000
# 6 0.000000 0.000000 0.000000 0.031804 0.000000 0.125127
#
#
# Mechanical properties :
#
#
# Convention : Reuss Voigt Hill
#
# Bulk Modulus (GPa) = -697.26346 6.06537 -345.59904
# Shear Modulus (GPa) = 18.94035 18.82488 18.88262
#
# Velocity S-wave (km/s) = 3.09990 3.09043 3.09517
# Velocity P-wave (km/s) = 18.46465 3.97639 12.75013
#
# Compressibility (1/GPa) = -0.00143418
#
# Stress axis : x y z
#
# Youngs Moduli (GPa) = 47.68937 154.97628 59.49590
#
# Poissons Ratio (x) = 0.93042 0.21875
# Poissons Ratio (y) = 0.28631 0.78246
# Poissons Ratio (z) = 0.17534 2.03818
#
# Static dielectric constant tensor:
#      x y z
#    x 1.711750 0.000000 0.029690 
#    y 0.000000 1.712770 0.000000 
#    z 0.029690 0.000000 1.757270 
# 
# From -- ./inp_files/54050.got.cif
#   From: 2010.05.17/outbox.ucp.g08.bks.cvg/sg10_28_cif.got.tgz:54050.got - 2010.06.11 11:31:16.
