data_PCOD9155737
_publ_section_title
;
Structure prediction by ZEFSAII (Michael W. Deem and Ramdas Pophale) SiO2 
 PCOD9155737
Probable space group: P 21/M
;
_chemical_formula_sum "Si O2"
_cell_formula_units_Z 28
_cell_length_a 20.216752
_cell_length_b 16.470738
_cell_length_c 9.262527
_cell_angle_alpha 90.000000
_cell_angle_beta 28.929894
_cell_angle_gamma 90.000000
_cell_volume 1491.987253
_symmetry_space_group_name_H-M "P 21/M"
_symmetry_group_IT_number 11
_symmetry_cell_setting 'monoclinic'
loop_
_space_group_symop_operation_xyz
x,y,z
-x,1/2+y,-z
-x,-y,-z
x,1/2-y,z
loop_
_atom_site_type_symbol
_atom_site_label
_atom_site_fract_x
_atom_site_fract_y
_atom_site_fract_z
Si Si1 0.405923 0.420461 0.708747
Si Si2 0.260432 0.885925 0.612174
Si Si3 0.737828 0.460861 0.834626
Si Si4 0.739075 0.581289 0.317828
Si Si5 0.037210 0.575594 0.827066
Si Si6 0.313852 0.661913 0.821916
Si Si7 0.517470 0.408597 0.024984
O O1 0.500000 0.500000 0.500000
O O2 0.315365 0.405493 0.740128
O O3 0.522900 0.353838 0.507542
O O4 0.312459 0.449690 0.020921
O O5 0.136218 0.871119 0.739104
O O6 0.251861 0.843400 0.781158
O O7 0.264677 0.983329 0.642620
O O8 0.398897 0.864523 0.260593
O O9 0.871185 0.456402 0.481009
O O10 0.750406 0.407498 0.954831
O O11 0.617099 0.418798 0.972327
O O12 0.629015 0.619698 0.638428
O O13 0.893290 0.610244 0.048290
O O14 0.000000 0.500000 0.000000
O O15 0.290948 0.750000 0.931743
O O16 0.500000 0.500000 0.000000
#
# Coordination Sequence:
#
# PCOD9155737 Si02
#       7
#     4   4   4   4   4   4   4
#     4  10  16  30  54  80 107 135 172 229 280 304
#     4   9  17  32  48  76 111 136 170 220 269 311
#     4  10  18  34  54  81 111 141 176 227 279 318
#     4  10  15  29  52  84 106 131 171 221 276 318
#     4   9  20  31  50  86 112 134 174 221 274 334
#     4  11  21  34  55  79 105 144 191 223 262 333
#     4   9  15  26  52  76 103 137 169 214 270 312
#
# _framework density 18.766916999999999
#
# number of rings (size 3 to 8) (size 9 to 14) (size 15 to 20)
#    0.000    2.286    5.714    1.714    0.000    0.571 
#    0.000    2.857    0.000    1.714    0.000    1.000 
#    0.000    0.000    0.000    0.000    0.000    0.000 
#
# Total GULP energy -155925.687224 kJ/mol
# GULP energy per Si atom -5568.774544 kJ/mol
# Density = 1.872420 g / cm^3
# Si number density = 18.766917 Si / 1000 Ang^3
#
#
#
# Elastic Constant Matrix: (Units=GPa)
#
#
# Indices 1 2 3 4 5 6 
#
# 1 101.7440 -6.8876 49.2459 0.0000 -1.6384 0.0000
# 2 -6.8876 19.8236 2.1939 0.0000 2.7662 0.0000
# 3 49.2459 2.1939 144.9511 0.0000 -0.3613 0.0000
# 4 0.0000 0.0000 0.0000 0.6742 0.0000 0.9129
# 5 -1.6384 2.7662 -0.3613 0.0000 34.5804 0.0000
# 6 0.0000 0.0000 0.0000 0.9129 0.0000 3.8045
#
#
#
# Elastic Compliance Matrix: (Units=1/GPa)
#
#
# Indices 1 2 3 4 5 6 
#
# 1 0.012186 0.004678 -0.004210 0.000000 0.000159 0.000000
# 2 0.004678 0.052899 -0.002400 0.000000 -0.004035 0.000000
# 3 -0.004210 -0.002400 0.008366 0.000000 0.000080 0.000000
# 4 0.000000 0.000000 0.000000 2.197270 0.000000 -0.527271
# 5 0.000159 -0.004035 0.000080 0.000000 0.029249 0.000000
# 6 0.000000 0.000000 0.000000 -0.527271 0.000000 0.389376
#
#
# Mechanical properties :
#
#
# Convention : Reuss Voigt Hill
#
# Bulk Modulus (GPa) = 14.37088 39.51367 26.94228
# Shear Modulus (GPa) = 1.84067 22.60957 12.22512
#
# Velocity S-wave (km/s) = 0.99143 3.47473 2.55506
# Velocity P-wave (km/s) = 2.99746 6.09910 4.80540
#
# Compressibility (1/GPa) = 0.06958514
#
# Stress axis : x y z
#
# Youngs Moduli (GPa) = 82.06336 18.90398 119.53363
#
# Poissons Ratio (x) = -0.08843 0.50328
# Poissons Ratio (y) = -0.38386 0.28687
# Poissons Ratio (z) = 0.34552 0.04537
#
# Static dielectric constant tensor:
#      x y z
#    x 1.744710 0.000000 0.006500 
#    y 0.000000 1.601340 0.000000 
#    z 0.006500 0.000000 1.687910 
# 
# From -- ./inp_files/19227.got.cif
#   From: 2010.05.17/outbox.cif.g08.bks.cpg/sg11_10_cif.got.tgz:19227.got - 2010.06.03 12:22:45.
