data_PCOD9155460
_publ_section_title
;
Structure prediction by ZEFSAII (Michael W. Deem and Ramdas Pophale) SiO2 
 PCOD9155460
Probable space group: P 2/M
;
_chemical_formula_sum "Si O2"
_cell_formula_units_Z 32
_cell_length_a 24.000000
_cell_length_b 9.000000
_cell_length_c 15.000000
_cell_angle_alpha 90.000000
_cell_angle_beta 30.000000
_cell_angle_gamma 90.000000
_cell_volume 1620.000000
_symmetry_space_group_name_H-M "P 2/M"
_symmetry_group_IT_number 10
_symmetry_cell_setting 'monoclinic'
loop_
_space_group_symop_operation_xyz
x,y,z
-x,y,-z
-x,-y,-z
x,-y,z
loop_
_atom_site_type_symbol
_atom_site_label
_atom_site_fract_x
_atom_site_fract_y
_atom_site_fract_z
Si Si1 0.748759 0.174558 0.353225
Si Si2 0.520129 0.169922 0.874633
Si Si3 0.488135 0.676958 0.296123
Si Si4 0.912390 0.173469 0.692561
Si Si5 0.843151 0.668793 0.060885
Si Si6 0.214468 0.167134 0.504359
Si Si7 0.716599 0.677475 0.054139
Si Si8 0.038513 0.665905 0.664315
O O1 0.630092 0.256072 0.512988
O O2 0.822050 0.220075 0.168895
O O3 0.809372 0.213437 0.361401
O O4 0.726447 0.000000 0.387839
O O5 0.480704 0.263010 0.845165
O O6 0.653127 0.161358 0.682764
O O7 0.475320 0.000000 0.933684
O O8 0.500000 0.234433 0.000000
O O9 0.479536 0.500000 0.306498
O O10 0.588904 0.722121 0.220943
O O11 0.000000 0.235791 0.500000
O O12 0.978642 0.208154 0.690682
O O13 0.895687 0.000000 0.698737
O O14 0.794143 0.250697 0.870903
O O15 0.811848 0.500000 0.130640
O O16 0.767831 0.711316 0.079698
O O17 0.969057 0.665446 0.851851
O O18 0.163243 0.285001 0.508606
O O19 0.171544 0.000000 0.546377
O O20 0.724629 0.500000 0.032989
O O21 0.026234 0.500000 0.642607
#
# Coordination Sequence:
#
# PCOD9155460 Si02
#       8
#     4   4   4   4   4   4   4   4
#     4  10  21  36  54  78 106 137 174 215 261 309
#     4   9  19  36  55  76 106 141 175 215 262 310
#     4  10  20  35  55  78 106 138 174 217 260 307
#     4  10  21  36  55  79 106 138 175 214 258 308
#     4   9  19  36  54  74 103 137 172 211 259 312
#     4   9  19  35  53  75 105 138 173 215 260 307
#     4   9  20  37  55  78 107 139 174 213 260 308
#     4  10  21  36  55  78 105 138 174 214 260 310
#
# _framework density 19.753086
#
# number of rings (size 3 to 8) (size 9 to 14) (size 15 to 20)
#    0.000    2.500    0.000    3.000    0.000    9.250 
#    0.000    8.750    0.000    0.000    0.000    0.000 
#    0.000    0.000    0.000    0.000    0.000    0.000 
#
# Total GULP energy -178169.092957 kJ/mol
# GULP energy per Si atom -5567.784155 kJ/mol
# Density = 1.970813 g / cm^3
# Si number density = 19.753086 Si / 1000 Ang^3
#
#
#
# Elastic Constant Matrix: (Units=GPa)
#
#
# Indices 1 2 3 4 5 6 
#
# 1 15.8518 7.6554 5.7466 0.0000 -11.3152 0.0000
# 2 7.6554 -12.9337 2.6449 0.0000 -4.4206 0.0000
# 3 5.7466 2.6449 8.9760 0.0000 12.8788 0.0000
# 4 0.0000 0.0000 0.0000 26.4151 0.0000 18.6536
# 5 -11.3152 -4.4206 12.8788 0.0000 22.4265 0.0000
# 6 0.0000 0.0000 0.0000 18.6536 0.0000 143.4093
#
#
#
# Elastic Compliance Matrix: (Units=1/GPa)
#
#
# Indices 1 2 3 4 5 6 
#
# 1 -0.021947 0.024749 0.088883 0.000000 -0.057238 0.000000
# 2 0.024749 -0.060367 0.006245 0.000000 -0.002998 0.000000
# 3 0.088883 0.006245 -0.076393 0.000000 0.089947 0.000000
# 4 0.000000 0.000000 0.000000 0.041686 0.000000 -0.005422
# 5 -0.057238 -0.002998 0.089947 0.000000 -0.036534 0.000000
# 6 0.000000 0.000000 0.000000 -0.005422 0.000000 0.007678
#
#
# Mechanical properties :
#
#
# Convention : Reuss Voigt Hill
#
# Bulk Modulus (GPa) = 12.33831 4.88753 8.61292
# Shear Modulus (GPa) = -13.94257 38.17333 12.11538
#
# Velocity S-wave (km/s) = -2.65965 4.40082 2.47926
# Velocity P-wave (km/s) = 1.78097 5.32002 3.54477
#
# Compressibility (1/GPa) = 0.08104837
#
# Stress axis : x y z
#
# Youngs Moduli (GPa) = -45.56444 -16.56540 -13.09029
#
# Poissons Ratio (x) = 0.40998 1.16351
# Poissons Ratio (y) = 1.12769 0.08175
# Poissons Ratio (z) = 4.04992 0.10345
#
# Static dielectric constant tensor:
#      x y z
#    x 1.742750 0.000000 0.018420 
#    y 0.000000 1.681810 0.000000 
#    z 0.018420 0.000000 1.716580 
# 
# From -- ./inp_files/71505.got.cif
#   From: 2010.05.17/outbox.ucp.g08.bks.cvg/sg10_36_cif.got.tgz:71505.got - 2010.06.11 11:31:16.
