data_PCOD9155332
_publ_section_title
;
Structure prediction by ZEFSAII (Michael W. Deem and Ramdas Pophale) SiO2 
 PCOD9155332
Probable space group: P 2/M
;
_chemical_formula_sum "Si O2"
_cell_formula_units_Z 24
_cell_length_a 15.000000
_cell_length_b 9.000000
_cell_length_c 9.000000
_cell_angle_alpha 90.000000
_cell_angle_beta 90.000000
_cell_angle_gamma 90.000000
_cell_volume 1215.000000
_symmetry_space_group_name_H-M "P 2/M"
_symmetry_group_IT_number 10
_symmetry_cell_setting 'monoclinic'
loop_
_space_group_symop_operation_xyz
x,y,z
-x,y,-z
-x,-y,-z
x,-y,z
loop_
_atom_site_type_symbol
_atom_site_label
_atom_site_fract_x
_atom_site_fract_y
_atom_site_fract_z
Si Si1 0.709402 0.830278 0.786310
Si Si2 0.900204 0.821703 0.323981
Si Si3 0.901213 0.820614 0.677266
Si Si4 0.595933 0.832255 0.072998
Si Si5 0.402729 0.321388 0.446429
Si Si6 0.282270 0.674951 0.711005
O O1 0.809838 0.770810 0.758006
O O2 0.630518 0.738584 0.709423
O O3 0.707688 0.000000 0.727396
O O4 0.676393 0.836733 0.954452
O O5 0.894766 0.787538 0.501097
O O6 0.811204 0.753619 0.252838
O O7 0.999335 0.769859 0.272548
O O8 0.896737 0.000000 0.307643
O O9 0.903580 0.000000 0.691986
O O10 0.632564 0.713780 0.188052
O O11 0.587905 0.000000 0.137640
O O12 0.500000 0.799158 0.000000
O O13 0.500000 0.267519 0.500000
O O14 0.406116 0.500000 0.446863
O O15 0.320662 0.274549 0.552085
O O16 0.266520 0.500000 0.710032
#
# Coordination Sequence:
#
# PCOD9155332 Si02
#       6
#     4   4   4   4   4   4
#     4  10  19  34  56  80 103 132 176 221 261 308
#     4   9  16  31  55  79 106 136 169 215 266 311
#     4   8  15  29  53  82 105 132 170 215 266 311
#     4  10  22  38  55  77 106 141 179 218 262 311
#     4  10  21  35  51  75 106 137 173 216 261 312
#     4  11  22  35  53  79 108 141 178 213 259 316
#
# _framework density 19.753086
#
# number of rings (size 3 to 8) (size 9 to 14) (size 15 to 20)
#    0.000    2.333    1.667    2.500    0.000    2.000 
#    0.000    3.333    0.000    5.000    0.000    0.000 
#    0.000    0.000    0.000    0.000    0.000    0.000 
#
# Total GULP energy -133631.139640 kJ/mol
# GULP energy per Si atom -5567.964152 kJ/mol
# Density = 1.970813 g / cm^3
# Si number density = 19.753086 Si / 1000 Ang^3
#
#
#
# Elastic Constant Matrix: (Units=GPa)
#
#
# Indices 1 2 3 4 5 6 
#
# 1 138.9729 23.9325 0.3378 0.0000 1.9683 0.0000
# 2 23.9325 -9.2967 4.1882 0.0000 -0.8142 0.0000
# 3 0.3378 4.1882 12.6890 0.0000 -3.0674 0.0000
# 4 0.0000 0.0000 0.0000 19.1034 0.0000 20.1795
# 5 1.9683 -0.8142 -3.0674 0.0000 26.2812 0.0000
# 6 0.0000 0.0000 0.0000 20.1795 0.0000 43.9893
#
#
#
# Elastic Compliance Matrix: (Units=1/GPa)
#
#
# Indices 1 2 3 4 5 6 
#
# 1 0.005212 0.011617 -0.004096 0.000000 -0.000509 0.000000
# 2 0.011617 -0.067735 0.021949 0.000000 -0.000407 0.000000
# 3 -0.004096 0.021949 0.073999 0.000000 0.009624 0.000000
# 4 0.000000 0.000000 0.000000 0.101560 0.000000 -0.046589
# 5 -0.000509 -0.000407 0.009624 0.000000 0.039199 0.000000
# 6 0.000000 0.000000 0.000000 -0.046589 0.000000 0.044105
#
#
# Mechanical properties :
#
#
# Convention : Reuss Voigt Hill
#
# Bulk Modulus (GPa) = 14.20120 22.14246 18.17183
# Shear Modulus (GPa) = 31.08085 25.46859 28.27472
#
# Velocity S-wave (km/s) = 3.97100 3.59464 3.78750
# Velocity P-wave (km/s) = 5.31320 5.33503 5.32413
#
# Compressibility (1/GPa) = 0.07041657
#
# Stress axis : x y z
#
# Youngs Moduli (GPa) = 191.85648 -14.76332 13.51371
#
# Poissons Ratio (x) = 0.17151 0.05535
# Poissons Ratio (y) = -2.22882 -0.29662
# Poissons Ratio (z) = 0.78585 0.32405
#
# Static dielectric constant tensor:
#      x y z
#    x 1.699550 0.000000 -0.020390 
#    y 0.000000 1.686340 0.000000 
#    z -0.020390 0.000000 1.754940 
# 
# From -- ./inp_files/27192.got.cif
#   From: 2010.05.17/outbox.ucp.g08.bks.cvg/sg10_14_cif.got.tgz:27192.got - 2010.06.11 11:31:16.
