data_PCOD9155874
_publ_section_title
;
Structure prediction by ZEFSAII (Michael W. Deem and Ramdas Pophale) SiO2 
 PCOD9155874
Probable space group: P 21/M
;
_chemical_formula_sum "Si O2"
_cell_formula_units_Z 32
_cell_length_a 24.839154
_cell_length_b 9.232009
_cell_length_c 12.495191
_cell_angle_alpha 90.000000
_cell_angle_beta 130.655975
_cell_angle_gamma 90.000000
_cell_volume 2173.746483
_symmetry_space_group_name_H-M "P 21/M"
_symmetry_group_IT_number 11
_symmetry_cell_setting 'monoclinic'
loop_
_space_group_symop_operation_xyz
x,y,z
-x,1/2+y,-z
-x,-y,-z
x,1/2-y,z
loop_
_atom_site_type_symbol
_atom_site_label
_atom_site_fract_x
_atom_site_fract_y
_atom_site_fract_z
Si Si1 0.036791 0.423585 0.948493
Si Si2 0.377607 0.583405 0.154813
Si Si3 0.999042 0.077612 0.661704
Si Si4 0.525669 0.924087 0.423606
Si Si5 0.336905 0.581969 0.355658
Si Si6 0.241260 0.421285 0.922128
Si Si7 0.113330 0.921773 0.659660
Si Si8 0.800124 0.922497 0.883685
O O1 0.032634 0.250000 0.955725
O O2 0.000286 0.460971 0.787797
O O3 0.120013 0.461831 0.044838
O O4 0.000000 0.500000 0.000000
O O5 0.367408 0.750000 0.108019
O O6 0.461203 0.546721 0.257781
O O7 0.358443 0.576982 0.257066
O O8 0.321296 0.481329 0.024221
O O9 0.015921 0.250000 0.675033
O O10 0.925318 0.052990 0.504164
O O11 0.059359 0.990061 0.676576
O O12 0.530042 0.750000 0.443488
O O13 0.500000 0.000000 0.500000
O O14 0.602680 0.992638 0.503405
O O15 0.336144 0.750000 0.386311
O O16 0.259849 0.508975 0.258331
O O17 0.239469 0.250000 0.902574
O O18 0.188599 0.502542 0.773818
O O19 0.211918 0.449829 0.005025
O O20 0.119463 0.750000 0.684268
O O21 0.790253 0.750000 0.855510
#
# Coordination Sequence:
#
# PCOD9155874 Si02
#       8
#     4   4   4   4   4   4   4   4
#     4  10  20  34  48  63  84 110 141 177 218 259
#     4   8  15  24  33  50  75 102 136 170 198 238
#     4   9  18  33  46  61  84 108 136 172 215 257
#     4   9  15  23  34  49  71 100 134 169 203 240
#     4   9  16  24  36  53  73  98 133 173 205 241
#     4  10  17  26  40  57  81 110 137 170 211 249
#     4  10  18  27  45  65  83 107 137 175 212 251
#     4   9  17  29  42  55  77 107 137 171 210 251
#
# _framework density 14.721128999999999
#
# number of rings (size 3 to 8) (size 9 to 14) (size 15 to 20)
#    0.000    2.750    1.250    2.250    0.000    5.500 
#    0.000    0.000    0.000    0.000    0.000    0.000 
#    0.000    0.000    0.000    1.125    0.000   13.625 
#
# Total GULP energy -178163.355223 kJ/mol
# GULP energy per Si atom -5567.604851 kJ/mol
# Density = 1.468762 g / cm^3
# Si number density = 14.721129 Si / 1000 Ang^3
#
#
#
# Elastic Constant Matrix: (Units=GPa)
#
#
# Indices 1 2 3 4 5 6 
#
# 1 45.6657 33.4655 53.1710 0.0000 10.0438 0.0000
# 2 33.4655 66.0945 69.0009 0.0000 20.7311 0.0000
# 3 53.1710 69.0009 120.4758 0.0000 29.2595 0.0000
# 4 0.0000 0.0000 0.0000 24.7922 0.0000 7.5628
# 5 10.0438 20.7311 29.2595 0.0000 23.5195 0.0000
# 6 0.0000 0.0000 0.0000 7.5628 0.0000 19.0831
#
#
#
# Elastic Compliance Matrix: (Units=1/GPa)
#
#
# Indices 1 2 3 4 5 6 
#
# 1 0.047257 -0.006840 -0.019348 0.000000 0.009918 0.000000
# 2 -0.006840 0.040032 -0.017265 0.000000 -0.010886 0.000000
# 3 -0.019348 -0.017265 0.030128 0.000000 -0.014000 0.000000
# 4 0.000000 0.000000 0.000000 0.045882 0.000000 -0.018184
# 5 0.009918 -0.010886 -0.014000 0.000000 0.065295 0.000000
# 6 0.000000 0.000000 0.000000 -0.018184 0.000000 0.059609
#
#
# Mechanical properties :
#
#
# Convention : Reuss Voigt Hill
#
# Bulk Modulus (GPa) = 32.77462 60.39010 46.58236
# Shear Modulus (GPa) = 12.97760 18.58555 15.78157
#
# Velocity S-wave (km/s) = 2.97233 3.55703 3.27775
# Velocity P-wave (km/s) = 5.83881 7.61458 6.78504
#
# Compressibility (1/GPa) = 0.03051141
#
# Stress axis : x y z
#
# Youngs Moduli (GPa) = 21.16082 24.98002 33.19160
#
# Poissons Ratio (x) = 0.17086 0.64219
# Poissons Ratio (y) = 0.14473 0.57306
# Poissons Ratio (z) = 0.40942 0.43129
#
# Static dielectric constant tensor:
#      x y z
#    x 1.461070 0.000000 0.032540 
#    y 0.000000 1.491680 0.000000 
#    z 0.032540 0.000000 1.505610 
# 
# From -- ./inp_files/43762.got.cif
#   From: 2010.05.17/outbox.cif.g08.bks.cpg/sg11_22_cif.got.tgz:43762.got - 2010.06.03 12:22:45.
