data_PCOD9155053
_publ_section_title
;
Structure prediction by ZEFSAII (Michael W. Deem and Ramdas Pophale) SiO2 
 PCOD9155053
Probable space group: P 2/M
;
_chemical_formula_sum "Si O2"
_cell_formula_units_Z 32
_cell_length_a 9.442936
_cell_length_b 7.406162
_cell_length_c 21.430916
_cell_angle_alpha 90.000000
_cell_angle_beta 90.000000
_cell_angle_gamma 90.000000
_cell_volume 1498.790693
_symmetry_space_group_name_H-M "P 2/M"
_symmetry_group_IT_number 10
_symmetry_cell_setting 'monoclinic'
loop_
_space_group_symop_operation_xyz
x,y,z
-x,y,-z
-x,-y,-z
x,-y,z
loop_
_atom_site_type_symbol
_atom_site_label
_atom_site_fract_x
_atom_site_fract_y
_atom_site_fract_z
Si Si1 0.588045 0.784642 0.197387
Si Si2 0.088046 0.784642 0.802613
Si Si3 0.413472 0.220362 0.561169
Si Si4 0.086528 0.220362 0.561169
Si Si5 0.589324 0.716230 0.058319
Si Si6 0.412983 0.779211 0.316530
Si Si7 0.910676 0.716230 0.058319
Si Si8 0.087017 0.220789 0.316530
O O1 0.750000 0.713914 0.200995
O O2 0.531607 0.751742 0.127627
O O3 0.489186 0.718072 0.253023
O O4 0.597035 0.000000 0.205056
O O5 0.031608 0.751741 0.872373
O O6 0.989186 0.718072 0.746977
O O7 0.097035 0.000000 0.794944
O O8 0.500000 0.277225 0.500000
O O9 0.250000 0.278581 0.560209
O O10 0.495377 0.276414 0.623621
O O11 0.412095 0.000000 0.560984
O O12 0.000000 0.277225 0.500000
O O13 0.004623 0.276413 0.623621
O O14 0.087905 0.000000 0.560984
O O15 0.596286 0.500000 0.052046
O O16 0.750000 0.786735 0.056803
O O17 0.500000 0.785707 0.000000
O O18 0.250000 0.721487 0.320607
O O19 0.411920 0.000000 0.316392
O O20 0.903714 0.500000 0.052046
O O21 0.000000 0.785708 0.000000
O O22 0.088080 0.000000 0.316392
#
# Coordination Sequence:
#
# PCOD9155053 Si02
#       8
#     4   4   4   4   4   4   4   4
#     4   9  17  29  44  62  85 113 143 175 213 256
#     4   9  17  29  44  62  85 113 143 175 213 256
#     4   9  15  22  33  50  75 109 146 180 214 254
#     4   9  15  22  33  50  75 109 146 180 214 254
#     4   9  18  32  48  65  86 112 141 174 213 256
#     4   9  16  25  37  55  80 109 141 177 216 256
#     4   9  18  32  48  65  86 112 141 174 213 256
#     4   9  16  25  37  55  80 109 141 177 216 256
#
# _framework density 21.350546999999999
#
# number of rings (size 3 to 8) (size 9 to 14) (size 15 to 20)
#    0.000    3.000    0.000    1.500    0.000    7.500 
#    0.000    0.000    0.000    0.000    0.000    0.000 
#    0.000    1.000    0.000    2.750    0.000    5.000 
#
# Total GULP energy -178663.932827 kJ/mol
# GULP energy per Si atom -5583.247901 kJ/mol
# Density = 2.130195 g / cm^3
# Si number density = 21.350547 Si / 1000 Ang^3
#
#
#
# Elastic Constant Matrix: (Units=GPa)
#
#
# Indices 1 2 3 4 5 6 
#
# 1 171.6798 4.8804 146.2472 0.0000 -0.0002 0.0000
# 2 4.8804 71.4100 0.2348 0.0000 -0.0001 0.0000
# 3 146.2472 0.2348 258.6645 0.0000 -0.0005 0.0000
# 4 0.0000 0.0000 0.0000 42.3141 0.0000 -0.0010
# 5 -0.0002 -0.0001 -0.0005 0.0000 38.2471 0.0000
# 6 0.0000 0.0000 0.0000 -0.0010 0.0000 -89.3223
#
#
#
# Elastic Compliance Matrix: (Units=1/GPa)
#
#
# Indices 1 2 3 4 5 6 
#
# 1 0.011277 -0.000750 -0.006375 0.000000 0.000000 0.000000
# 2 -0.000750 0.014054 0.000411 0.000000 0.000000 0.000000
# 3 -0.006375 0.000411 0.007470 0.000000 0.000000 0.000000
# 4 0.000000 0.000000 0.000000 0.023633 0.000000 0.000000
# 5 0.000000 0.000000 0.000000 0.000000 0.026146 0.000000
# 6 0.000000 0.000000 0.000000 0.000000 0.000000 -0.011195
#
#
# Mechanical properties :
#
#
# Convention : Reuss Voigt Hill
#
# Bulk Modulus (GPa) = 51.61833 89.38656 70.50244
# Shear Modulus (GPa) = 54.78313 21.60723 38.19518
#
# Velocity S-wave (km/s) = 5.07096 3.18468 4.23419
# Velocity P-wave (km/s) = 7.64952 7.44849 7.54967
#
# Compressibility (1/GPa) = 0.01937296
#
# Stress axis : x y z
#
# Youngs Moduli (GPa) = 88.67692 71.15651 133.86642
#
# Poissons Ratio (x) = 0.05335 0.85343
# Poissons Ratio (y) = 0.06648 -0.05504
# Poissons Ratio (z) = 0.56533 -0.02926
#
# Static dielectric constant tensor:
#      x y z
#    x 1.734430 0.000000 0.000000 
#    y 0.000000 1.814890 0.000000 
#    z 0.000000 0.000000 1.736710 
# 
# From -- ./inp_files/32171.got.cif
#   From: 2010.05.17/outbox.cif.g08.bks.cpg/sg10_17_cif.got.tgz:32171.got - 2010.06.03 11:33:40.
