data_PCOD9155448
_publ_section_title
;
Structure prediction by ZEFSAII (Michael W. Deem and Ramdas Pophale) SiO2 
 PCOD9155448
Probable space group: P 2/M
;
_chemical_formula_sum "Si O2"
_cell_formula_units_Z 26
_cell_length_a 9.000000
_cell_length_b 21.000000
_cell_length_c 15.000000
_cell_angle_alpha 90.000000
_cell_angle_beta 30.000000
_cell_angle_gamma 90.000000
_cell_volume 1417.500000
_symmetry_space_group_name_H-M "P 2/M"
_symmetry_group_IT_number 10
_symmetry_cell_setting 'monoclinic'
loop_
_space_group_symop_operation_xyz
x,y,z
-x,y,-z
-x,-y,-z
x,-y,z
loop_
_atom_site_type_symbol
_atom_site_label
_atom_site_fract_x
_atom_site_fract_y
_atom_site_fract_z
Si Si1 0.763372 0.927752 0.292044
Si Si2 0.949968 0.699227 0.237627
Si Si3 0.392875 0.721802 0.411029
Si Si4 0.282355 0.825030 0.032063
Si Si5 0.000000 0.628507 0.500000
Si Si6 0.174174 0.427862 0.215573
Si Si7 0.351680 0.153079 0.807062
O O1 0.500000 0.924410 0.500000
O O2 0.639510 0.908995 0.258646
O O3 0.000167 0.871964 0.188889
O O4 0.884341 0.000000 0.229061
O O5 0.689257 0.692775 0.301169
O O6 0.827297 0.732133 0.391438
O O7 0.185907 0.750186 0.076424
O O8 0.033450 0.629606 0.231031
O O9 0.480265 0.789432 0.326471
O O10 0.249209 0.674448 0.413990
O O11 0.500000 0.830822 0.000000
O O12 0.451171 0.849605 0.856570
O O13 0.865683 0.590925 0.657417
O O14 0.049792 0.500000 0.270963
O O15 0.500000 0.430357 0.000000
O O16 0.000000 0.169905 0.000000
#
# Coordination Sequence:
#
# PCOD9155448 Si02
#       7
#     4   4   4   4   2   4   4
#     4  10  21  41  63  82 115 161 200 238 295 361
#     4  10  20  37  58  81 119 153 196 238 294 365
#     4  10  20  35  55  87 113 152 192 245 294 344
#     4  11  23  35  57  91 120 151 193 251 296 346
#     4  10  23  36  60  88 115 154 196 260 299 352
#     4  10  22  40  60  84 118 159 197 246 306 363
#     4  10  20  34  56  86 113 150 192 239 293 348
#
# _framework density 18.342151999999999
#
# number of rings (size 3 to 8) (size 9 to 14) (size 15 to 20)
#    0.000    1.846    3.077    1.615    6.462    3.077 
#    0.000    6.923    0.000    3.692    0.000    0.000 
#    0.000    0.000    0.000    0.000    0.000    0.000 
#
# Total GULP energy -144766.480136 kJ/mol
# GULP energy per Si atom -5567.941544 kJ/mol
# Density = 1.830040 g / cm^3
# Si number density = 18.342152 Si / 1000 Ang^3
#
#
#
# Elastic Constant Matrix: (Units=GPa)
#
#
# Indices 1 2 3 4 5 6 
#
# 1 111.6044 31.1992 11.7703 0.0000 8.8054 0.0000
# 2 31.1992 108.8077 19.9106 0.0000 2.2501 0.0000
# 3 11.7703 19.9106 45.7849 0.0000 13.2552 0.0000
# 4 0.0000 0.0000 0.0000 3.9417 0.0000 1.3460
# 5 8.8054 2.2501 13.2552 0.0000 12.2921 0.0000
# 6 0.0000 0.0000 0.0000 1.3460 0.0000 20.7543
#
#
#
# Elastic Compliance Matrix: (Units=1/GPa)
#
#
# Indices 1 2 3 4 5 6 
#
# 1 0.010309 -0.002959 0.000898 0.000000 -0.007812 0.000000
# 2 -0.002959 0.010982 -0.005884 0.000000 0.006454 0.000000
# 3 0.000898 -0.005884 0.034957 0.000000 -0.037262 0.000000
# 4 0.000000 0.000000 0.000000 0.259446 0.000000 -0.016826
# 5 -0.007812 0.006454 -0.037262 0.000000 0.125949 0.000000
# 6 0.000000 0.000000 0.000000 -0.016826 0.000000 0.049274
#
#
# Mechanical properties :
#
#
# Convention : Reuss Voigt Hill
#
# Bulk Modulus (GPa) = 24.77759 43.55081 34.16420
# Shear Modulus (GPa) = 9.61060 20.95207 15.28133
#
# Velocity S-wave (km/s) = 2.29151 3.38345 2.88952
# Velocity P-wave (km/s) = 4.53202 6.24970 5.45884
#
# Compressibility (1/GPa) = 0.04035905
#
# Stress axis : x y z
#
# Youngs Moduli (GPa) = 97.00299 91.05732 28.60676
#
# Poissons Ratio (x) = 0.26942 -0.02569
# Poissons Ratio (y) = 0.28701 0.16831
# Poissons Ratio (z) = -0.08711 0.53575
#
# Static dielectric constant tensor:
#      x y z
#    x 1.676970 0.000000 0.008140 
#    y 0.000000 1.625060 0.000000 
#    z 0.008140 0.000000 1.672970 
# 
# From -- ./inp_files/30340.got.cif
#   From: 2010.05.17/outbox.ucp.g08.bks.cvg/sg10_16_cif.got.tgz:30340.got - 2010.06.11 11:31:16.
