data_PCOD9155100
_publ_section_title
;
Structure prediction by ZEFSAII (Michael W. Deem and Ramdas Pophale) SiO2 
 PCOD9155100
Probable space group: P 2/M
;
_chemical_formula_sum "Si O2"
_cell_formula_units_Z 30
_cell_length_a 12.000000
_cell_length_b 9.000000
_cell_length_c 15.000000
_cell_angle_alpha 90.000000
_cell_angle_beta 90.000000
_cell_angle_gamma 90.000000
_cell_volume 1620.000000
_symmetry_space_group_name_H-M "P 2/M"
_symmetry_group_IT_number 10
_symmetry_cell_setting 'monoclinic'
loop_
_space_group_symop_operation_xyz
x,y,z
-x,y,-z
-x,-y,-z
x,-y,z
loop_
_atom_site_type_symbol
_atom_site_label
_atom_site_fract_x
_atom_site_fract_y
_atom_site_fract_z
Si Si1 0.633676 0.321838 0.997583
Si Si2 0.120225 0.319487 0.668120
Si Si3 0.242436 0.668545 0.493845
Si Si4 0.500000 0.727062 0.500000
Si Si5 0.489039 0.320743 0.307303
Si Si6 0.139478 0.678912 0.311275
Si Si7 0.700313 0.823005 0.815231
Si Si8 0.710569 0.322643 0.190117
O O1 0.653219 0.500000 0.986231
O O2 0.683918 0.232482 0.915555
O O3 0.500000 0.302750 0.000000
O O4 0.683482 0.267400 0.091579
O O5 0.134609 0.500000 0.668157
O O6 0.181830 0.262037 0.579156
O O7 0.183545 0.263338 0.756053
O O8 0.989605 0.291885 0.669076
O O9 0.198739 0.500000 0.488632
O O10 0.374870 0.660557 0.507536
O O11 0.209806 0.731443 0.397852
O O12 0.509922 0.778497 0.602917
O O13 0.475434 0.500000 0.329444
O O14 0.391774 0.265575 0.243123
O O15 0.604037 0.304591 0.254313
O O16 0.155107 0.500000 0.297983
O O17 0.183913 0.767171 0.226451
O O18 0.686775 0.000000 0.807759
O O19 0.724784 0.500000 0.178878
#
# Coordination Sequence:
#
# PCOD9155100 Si02
#       8
#     4   4   4   2   4   4   4   4
#     4  10  19  35  60  86 109 139 177 225 284 343
#     4   9  17  30  51  84 116 142 180 232 275 315
#     4  10  17  26  48  85 119 144 175 221 271 319
#     4  12  19  26  53  92 125 146 173 220 277 332
#     4  11  19  33  56  85 117 150 181 219 272 330
#     4  10  20  35  56  79 109 149 192 230 266 317
#     4  12  25  38  54  79 112 149 186 231 277 328
#     4   9  17  30  53  84 115 139 172 224 280 330
#
# _framework density 18.518519000000001
#
# number of rings (size 3 to 8) (size 9 to 14) (size 15 to 20)
#    0.000    1.733    4.000    2.800    0.000    1.867 
#    0.000    1.000    0.000    7.200    0.000    0.000 
#    0.000    0.000    0.000    0.000    0.000    0.000 
#
# Total GULP energy -167042.542961 kJ/mol
# GULP energy per Si atom -5568.084765 kJ/mol
# Density = 1.847637 g / cm^3
# Si number density = 18.518519 Si / 1000 Ang^3
#
#
#
# Elastic Constant Matrix: (Units=GPa)
#
#
# Indices 1 2 3 4 5 6 
#
# 1 88.9373 23.3318 45.0109 0.0000 -6.9123 0.0000
# 2 23.3318 24.2255 19.4804 0.0000 -5.6762 0.0000
# 3 45.0109 19.4804 149.9188 0.0000 -7.1251 0.0000
# 4 0.0000 0.0000 0.0000 -2.2978 0.0000 0.5051
# 5 -6.9123 -5.6762 -7.1251 0.0000 21.2863 0.0000
# 6 0.0000 0.0000 0.0000 0.5051 0.0000 -0.3994
#
#
#
# Elastic Compliance Matrix: (Units=1/GPa)
#
#
# Indices 1 2 3 4 5 6 
#
# 1 0.016316 -0.012979 -0.003175 0.000000 0.000774 0.000000
# 2 -0.012979 0.058829 -0.003254 0.000000 0.010383 0.000000
# 3 -0.003175 -0.003254 0.008085 0.000000 0.000807 0.000000
# 4 0.000000 0.000000 0.000000 -0.602767 0.000000 -0.762270
# 5 0.000774 0.010383 0.000807 0.000000 0.050269 0.000000
# 6 0.000000 0.000000 0.000000 -0.762270 0.000000 -3.467737
#
#
# Mechanical properties :
#
#
# Convention : Reuss Voigt Hill
#
# Bulk Modulus (GPa) = 22.51619 48.74754 35.63186
# Shear Modulus (GPa) = -1.28754 15.40173 7.05710
#
# Velocity S-wave (km/s) = -0.83473 2.88704 1.95425
# Velocity P-wave (km/s) = 3.35501 6.12325 4.93712
#
# Compressibility (1/GPa) = 0.04441249
#
# Stress axis : x y z
#
# Youngs Moduli (GPa) = 61.28919 16.99853 123.68894
#
# Poissons Ratio (x) = 0.22063 0.39275
# Poissons Ratio (y) = 0.79549 0.40247
# Poissons Ratio (z) = 0.19461 0.05531
#
# Static dielectric constant tensor:
#      x y z
#    x 1.637010 0.000000 0.005650 
#    y 0.000000 1.621320 0.000000 
#    z 0.005650 0.000000 1.674590 
# 
# From -- ./inp_files/63448.got.cif
#   From: 2010.05.17/outbox.ucp.g08.bks.cvg/sg10_32_cif.got.tgz:63448.got - 2010.06.11 11:31:16.
