data_PCOD9155535
_publ_section_title
;
Structure prediction by ZEFSAII (Michael W. Deem and Ramdas Pophale) SiO2 
 PCOD9155535
Probable space group: P 2/M
;
_chemical_formula_sum "Si O2"
_cell_formula_units_Z 28
_cell_length_a 12.000000
_cell_length_b 15.000000
_cell_length_c 9.000000
_cell_angle_alpha 90.000000
_cell_angle_beta 120.000000
_cell_angle_gamma 90.000000
_cell_volume 1402.961154
_symmetry_space_group_name_H-M "P 2/M"
_symmetry_group_IT_number 10
_symmetry_cell_setting 'monoclinic'
loop_
_space_group_symop_operation_xyz
x,y,z
-x,y,-z
-x,-y,-z
x,-y,z
loop_
_atom_site_type_symbol
_atom_site_label
_atom_site_fract_x
_atom_site_fract_y
_atom_site_fract_z
Si Si1 0.739485 0.400508 0.286762
Si Si2 0.787442 0.396852 0.666950
Si Si3 0.369410 0.103871 0.511467
Si Si4 0.294044 0.278974 0.145635
Si Si5 0.080563 0.396568 0.844621
Si Si6 0.560513 0.764983 0.185387
Si Si7 0.844149 0.103068 0.882504
O O1 0.690349 0.500000 0.208832
O O2 0.756903 0.400199 0.473648
O O3 0.876773 0.390067 0.297967
O O4 0.650580 0.316185 0.192021
O O5 0.770486 0.500000 0.709872
O O6 0.704178 0.320455 0.688301
O O7 0.936493 0.366997 0.782415
O O8 0.500000 0.123330 0.500000
O O9 0.371780 0.168437 0.654692
O O10 0.235945 0.110414 0.327599
O O11 0.382139 0.000000 0.563838
O O12 0.437922 0.277404 0.185254
O O13 0.229734 0.181885 0.081560
O O14 0.194555 0.346137 0.002340
O O15 0.082659 0.500000 0.886914
O O16 0.500000 0.811917 0.000000
O O17 0.823433 0.000000 0.917452
O O18 0.000000 0.117956 0.000000
#
# Coordination Sequence:
#
# PCOD9155535 Si02
#       7
#     4   4   4   4   4   4   4
#     4  10  22  38  57  82 119 164 203 248 308 370
#     4  10  21  36  58  87 114 151 207 262 310 362
#     4  10  21  41  68  93 120 162 206 254 312 368
#     4  12  22  36  58  89 119 156 202 258 305 362
#     4  10  20  37  58  82 118 160 202 249 307 372
#     4  12  25  40  58  87 125 168 212 253 304 371
#     4  10  21  38  64  97 126 153 194 251 314 374
#
# _framework density 19.957787
#
# number of rings (size 3 to 8) (size 9 to 14) (size 15 to 20)
#    0.000    1.429    2.857    3.000    0.000    4.571 
#    0.000    1.429    0.000    0.000    0.000    3.000 
#    0.000    0.000    0.000    0.000    0.000    0.000 
#
# Total GULP energy -156098.314877 kJ/mol
# GULP energy per Si atom -5574.939817 kJ/mol
# Density = 1.991236 g / cm^3
# Si number density = 19.957787 Si / 1000 Ang^3
#
#
#
# Elastic Constant Matrix: (Units=GPa)
#
#
# Indices 1 2 3 4 5 6 
#
# 1 80.1262 23.4555 14.1698 0.0000 -0.2558 0.0000
# 2 23.4555 51.6402 12.7398 0.0000 -1.4370 0.0000
# 3 14.1698 12.7398 81.3070 0.0000 6.4552 0.0000
# 4 0.0000 0.0000 0.0000 28.5983 0.0000 2.5935
# 5 -0.2558 -1.4370 6.4552 0.0000 31.0027 0.0000
# 6 0.0000 0.0000 0.0000 2.5935 0.0000 19.2676
#
#
#
# Elastic Compliance Matrix: (Units=1/GPa)
#
#
# Indices 1 2 3 4 5 6 
#
# 1 0.014584 -0.006230 -0.001578 0.000000 0.000160 0.000000
# 2 -0.006230 0.022885 -0.002624 0.000000 0.001556 0.000000
# 3 -0.001578 -0.002624 0.013214 0.000000 -0.002886 0.000000
# 4 0.000000 0.000000 0.000000 0.035399 0.000000 -0.004765
# 5 0.000160 0.001556 -0.002886 0.000000 0.032930 0.000000
# 6 0.000000 0.000000 0.000000 -0.004765 0.000000 0.052542
#
#
# Mechanical properties :
#
#
# Convention : Reuss Voigt Hill
#
# Bulk Modulus (GPa) = 33.53529 34.86706 34.20118
# Shear Modulus (GPa) = 24.70873 26.62093 25.66483
#
# Velocity S-wave (km/s) = 3.52241 3.65617 3.58991
# Velocity P-wave (km/s) = 5.77778 5.94405 5.86151
#
# Compressibility (1/GPa) = 0.02981933
#
# Stress axis : x y z
#
# Youngs Moduli (GPa) = 68.56966 43.69643 75.67566
#
# Poissons Ratio (x) = 0.27224 0.11942
# Poissons Ratio (y) = 0.42721 0.19854
# Poissons Ratio (z) = 0.10821 0.11464
#
# Static dielectric constant tensor:
#      x y z
#    x 1.701080 0.000000 -0.052150 
#    y 0.000000 1.729030 0.000000 
#    z -0.052150 0.000000 1.797910 
# 
# From -- ./inp_files/25169.got.cif
#   From: 2010.05.17/outbox.ucp.g08.bks.cvg/sg10_13_cif.got.tgz:25169.got - 2010.06.11 11:31:16.
