data_PCOD9155061
_publ_section_title
;
Structure prediction by ZEFSAII (Michael W. Deem and Ramdas Pophale) SiO2 
 PCOD9155061
Probable space group: P 2/M
;
_chemical_formula_sum "Si O2"
_cell_formula_units_Z 28
_cell_length_a 14.516757
_cell_length_b 9.478506
_cell_length_c 29.335763
_cell_angle_alpha 90.000000
_cell_angle_beta 28.795322
_cell_angle_gamma 90.000000
_cell_volume 1944.318530
_symmetry_space_group_name_H-M "P 2/M"
_symmetry_group_IT_number 10
_symmetry_cell_setting 'monoclinic'
loop_
_space_group_symop_operation_xyz
x,y,z
-x,y,-z
-x,-y,-z
x,-y,z
loop_
_atom_site_type_symbol
_atom_site_label
_atom_site_fract_x
_atom_site_fract_y
_atom_site_fract_z
Si Si1 0.768726 0.162424 0.594060
Si Si2 0.441167 0.666645 0.129447
Si Si3 0.702103 0.328196 0.432635
Si Si4 0.084950 0.667439 0.215123
Si Si5 0.680373 0.162424 0.956841
Si Si6 0.184746 0.332561 0.515187
Si Si7 0.729334 0.333354 0.700060
O O1 0.732286 0.246175 0.563201
O O2 0.688121 0.242210 0.673225
O O3 0.000000 0.164396 0.500000
O O4 0.707974 0.000000 0.618091
O O5 0.487825 0.500000 0.106885
O O6 0.246671 0.685200 0.184177
O O7 0.393333 0.704209 0.202222
O O8 0.604094 0.757793 0.034565
O O9 0.500000 0.281357 0.500000
O O10 0.704085 0.500000 0.431975
O O11 0.735489 0.285788 0.470505
O O12 0.882494 0.285790 0.323508
O O13 0.077610 0.500000 0.207954
O O14 0.154171 0.753824 0.141317
O O15 0.729785 0.000000 0.944150
O O16 0.500000 0.164396 0.000000
O O17 0.220925 0.500000 0.493512
O O18 0.954137 0.314795 0.615022
O O19 0.703709 0.500000 0.701592
#
# Coordination Sequence:
#
# PCOD9155061 Si02
#       7
#     4   4   4   4   4   4   4
#     4   9  17  26  36  54  78 105 135 165 200 240
#     4   9  15  24  39  58  79 105 136 165 196 239
#     4   9  16  26  43  65  83 103 139 181 210 233
#     4   9  15  26  41  56  77 106 137 168 202 237
#     4   9  17  26  36  54  78 105 135 165 200 240
#     4   9  15  26  41  56  77 106 137 168 202 237
#     4   9  15  24  39  58  79 105 136 165 196 239
#
# _framework density 14.400931999999999
#
# number of rings (size 3 to 8) (size 9 to 14) (size 15 to 20)
#    0.000    3.000    1.429    0.857    0.000    4.000 
#    0.000    0.714    0.000    1.714    0.000    0.000 
#    0.000    1.143    0.000   13.143    0.000    3.714 
#
# Total GULP energy -155889.817397 kJ/mol
# GULP energy per Si atom -5567.493478 kJ/mol
# Density = 1.436816 g / cm^3
# Si number density = 14.400932 Si / 1000 Ang^3
#
#
#
# Elastic Constant Matrix: (Units=GPa)
#
#
# Indices 1 2 3 4 5 6 
#
# 1 72.4902 50.0070 64.1226 0.0000 25.4458 0.0000
# 2 50.0070 67.8328 65.1889 0.0000 27.3843 0.0000
# 3 64.1226 65.1889 106.5330 0.0000 35.9742 0.0000
# 4 0.0000 0.0000 0.0000 4.8031 0.0000 -1.2161
# 5 25.4458 27.3843 35.9742 0.0000 30.2227 0.0000
# 6 0.0000 0.0000 0.0000 -1.2161 0.0000 5.4794
#
#
#
# Elastic Compliance Matrix: (Units=1/GPa)
#
#
# Indices 1 2 3 4 5 6 
#
# 1 0.033818 -0.012377 -0.011627 0.000000 -0.003418 0.000000
# 2 -0.012377 0.042485 -0.015161 0.000000 -0.010028 0.000000
# 3 -0.011627 -0.015161 0.029626 0.000000 -0.011737 0.000000
# 4 0.000000 0.000000 0.000000 0.220596 0.000000 0.048959
# 5 -0.003418 -0.010028 -0.011737 0.000000 0.059023 0.000000
# 6 0.000000 0.000000 0.000000 0.048959 0.000000 0.193368
#
#
# Mechanical properties :
#
#
# Convention : Reuss Voigt Hill
#
# Bulk Modulus (GPa) = 36.23403 67.27700 51.75551
# Shear Modulus (GPa) = 7.50246 12.60352 10.05299
#
# Velocity S-wave (km/s) = 2.28495 2.96157 2.64499
# Velocity P-wave (km/s) = 5.67247 7.64938 6.73387
#
# Compressibility (1/GPa) = 0.02759837
#
# Stress axis : x y z
#
# Youngs Moduli (GPa) = 29.56973 23.53761 33.75410
#
# Poissons Ratio (x) = 0.29133 0.39247
# Poissons Ratio (y) = 0.36599 0.51175
# Poissons Ratio (z) = 0.34382 0.35686
#
# Static dielectric constant tensor:
#      x y z
#    x 1.455810 0.000000 0.012770 
#    y 0.000000 1.475570 0.000000 
#    z 0.012770 0.000000 1.462880 
# 
# From -- ./inp_files/54966.got.cif
#   From: 2010.05.17/outbox.cif.g08.bks.cpg/sg10_28_cif.got.tgz:54966.got - 2010.06.03 11:33:40.
