data_PCOD9155067
_publ_section_title
;
Structure prediction by ZEFSAII (Michael W. Deem and Ramdas Pophale) SiO2 
 PCOD9155067
Probable space group: P 2/M
;
_chemical_formula_sum "Si O2"
_cell_formula_units_Z 28
_cell_length_a 20.935665
_cell_length_b 12.866199
_cell_length_c 9.383596
_cell_angle_alpha 90.000000
_cell_angle_beta 47.753914
_cell_angle_gamma 90.000000
_cell_volume 1871.082724
_symmetry_space_group_name_H-M "P 2/M"
_symmetry_group_IT_number 10
_symmetry_cell_setting 'monoclinic'
loop_
_space_group_symop_operation_xyz
x,y,z
-x,y,-z
-x,-y,-z
x,-y,z
loop_
_atom_site_type_symbol
_atom_site_label
_atom_site_fract_x
_atom_site_fract_y
_atom_site_fract_z
Si Si1 0.100823 0.292684 0.018798
Si Si2 0.895175 0.500000 0.493659
Si Si3 0.757776 0.878540 0.533256
Si Si4 0.584472 0.126463 0.959309
Si Si5 0.899177 0.292684 0.321266
Si Si6 0.415528 0.126463 0.712725
Si Si7 0.895175 0.500000 0.820815
Si Si8 0.242224 0.878540 0.806583
O O1 0.130069 0.395342 0.058873
O O2 1.000000 0.272021 0.203815
O O3 0.105765 0.312181 0.841353
O O4 0.161666 0.195223 0.960930
O O5 0.869931 0.395342 0.449079
O O6 0.866090 0.500000 0.700864
O O7 1.000000 0.500000 0.335993
O O8 0.672722 0.845495 0.746814
O O9 0.838334 0.804777 0.445926
O O10 0.740646 0.871538 0.389030
O O11 0.775852 0.000000 0.537922
O O12 0.582014 0.000000 0.963560
O O13 0.500000 0.161820 0.000000
O O14 0.583245 0.160920 0.125133
O O15 0.500000 0.161820 0.500000
O O16 0.327278 0.154505 0.764981
O O17 0.417986 0.000000 0.709603
O O18 0.224148 0.000000 0.865479
#
# Coordination Sequence:
#
# PCOD9155067 Si02
#       8
#     4   2   4   4   4   4   2   4
#     4   9  17  29  45  64  87 116 148 181 216 254
#     4   9  17  29  45  63  82 107 144 189 227 255
#     4   9  17  28  42  63  91 119 146 176 212 257
#     4   9  16  26  41  60  83 112 145 180 216 253
#     4   9  17  29  45  64  87 116 148 181 216 254
#     4   9  16  26  41  60  83 112 145 180 216 253
#     4   9  17  29  45  63  82 107 144 189 227 255
#     4   9  17  28  42  63  91 119 146 176 212 257
#
# _framework density 14.964596999999999
#
# number of rings (size 3 to 8) (size 9 to 14) (size 15 to 20)
#    0.000    3.000    0.000    1.286    0.000    6.857 
#    0.000    2.857    0.000    0.000    0.000    9.000 
#    0.000    0.000    0.000    0.000    0.000    0.000 
#
# Total GULP energy -155913.069280 kJ/mol
# GULP energy per Si atom -5568.323903 kJ/mol
# Density = 1.493054 g / cm^3
# Si number density = 14.964597 Si / 1000 Ang^3
#
#
#
# Elastic Constant Matrix: (Units=GPa)
#
#
# Indices 1 2 3 4 5 6 
#
# 1 104.4979 59.1102 55.0120 0.0000 -6.2892 0.0000
# 2 59.1102 77.5916 57.4392 0.0000 -4.7412 0.0000
# 3 55.0120 57.4392 98.6359 0.0000 -10.3433 0.0000
# 4 0.0000 0.0000 0.0000 7.6194 0.0000 6.6423
# 5 -6.2892 -4.7412 -10.3433 0.0000 12.1322 0.0000
# 6 0.0000 0.0000 0.0000 6.6423 0.0000 5.2781
#
#
#
# Elastic Compliance Matrix: (Units=1/GPa)
#
#
# Indices 1 2 3 4 5 6 
#
# 1 0.017527 -0.010811 -0.003262 0.000000 0.002080 0.000000
# 2 -0.010811 0.029398 -0.011501 0.000000 -0.003921 0.000000
# 3 -0.003262 -0.011501 0.019774 0.000000 0.010673 0.000000
# 4 0.000000 0.000000 0.000000 -1.351789 0.000000 1.701175
# 5 0.002080 -0.003921 0.010673 0.000000 0.091071 0.000000
# 6 0.000000 0.000000 0.000000 1.701175 0.000000 -1.951404
#
#
# Mechanical properties :
#
#
# Convention : Reuss Voigt Hill
#
# Bulk Modulus (GPa) = 64.30013 69.31647 66.80830
# Shear Modulus (GPa) = -1.61860 12.28353 5.33247
#
# Velocity S-wave (km/s) = -1.04114 2.86814 1.88974
# Velocity P-wave (km/s) = 6.45106 7.57556 7.03581
#
# Compressibility (1/GPa) = 0.01555207
#
# Stress axis : x y z
#
# Youngs Moduli (GPa) = 57.05482 34.01561 50.57036
#
# Poissons Ratio (x) = 0.36773 0.16495
# Poissons Ratio (y) = 0.61679 0.58163
# Poissons Ratio (z) = 0.18610 0.39123
#
# Static dielectric constant tensor:
#      x y z
#    x 1.491200 0.000000 0.011860 
#    y 0.000000 1.470430 0.000000 
#    z 0.011860 0.000000 1.495380 
# 
# From -- ./inp_files/34579.got.cif
#   From: 2010.05.17/outbox.cif.g08.bks.cpg/sg10_18_cif.got.tgz:34579.got - 2010.06.03 11:33:40.
