data_PCOD9155418
_publ_section_title
;
Structure prediction by ZEFSAII (Michael W. Deem and Ramdas Pophale) SiO2 
 PCOD9155418
Probable space group: P 2/M
;
_chemical_formula_sum "Si O2"
_cell_formula_units_Z 28
_cell_length_a 15.000000
_cell_length_b 9.000000
_cell_length_c 18.000000
_cell_angle_alpha 90.000000
_cell_angle_beta 140.000000
_cell_angle_gamma 90.000000
_cell_volume 1561.973892
_symmetry_space_group_name_H-M "P 2/M"
_symmetry_group_IT_number 10
_symmetry_cell_setting 'monoclinic'
loop_
_space_group_symop_operation_xyz
x,y,z
-x,y,-z
-x,-y,-z
x,-y,z
loop_
_atom_site_type_symbol
_atom_site_label
_atom_site_fract_x
_atom_site_fract_y
_atom_site_fract_z
Si Si1 0.750128 0.324502 0.733979
Si Si2 0.959613 0.824096 0.118895
Si Si3 0.109516 0.674318 0.511408
Si Si4 0.307021 0.177679 0.146426
Si Si5 0.394731 0.821725 0.661153
Si Si6 0.653515 0.832002 0.532036
Si Si7 0.028954 0.164440 0.320549
O O1 0.742841 0.500000 0.726172
O O2 0.709603 0.261225 0.787274
O O3 0.652509 0.255899 0.607717
O O4 0.907621 0.270035 0.820100
O O5 0.932421 0.806102 0.189061
O O6 0.991616 0.000000 0.126943
O O7 0.823479 0.784660 0.987023
O O8 0.128594 0.500000 0.534333
O O9 0.258520 0.751705 0.608809
O O10 0.000000 0.734565 0.500000
O O11 0.039811 0.709930 0.388074
O O12 0.457624 0.210983 0.208235
O O13 0.304225 0.000000 0.158937
O O14 0.405730 0.767507 0.582248
O O15 0.374743 0.000000 0.645058
O O16 0.817508 0.842177 0.617135
O O17 0.602384 0.000000 0.507882
O O18 0.001116 0.000000 0.334841
#
# Coordination Sequence:
#
# PCOD9155418 Si02
#       7
#     4   4   4   4   4   4   4
#     4  11  21  30  44  69  97 127 168 208 238 273
#     4   9  18  33  51  69  93 127 165 202 238 276
#     4  10  20  33  52  78 103 124 147 182 233 290
#     4  10  20  34  50  67  93 129 164 200 242 281
#     4   9  19  34  52  73  94 122 160 197 237 286
#     4   8  15  30  48  66  92 124 159 199 241 281
#     4   8  15  29  50  74  95 120 157 196 233 274
#
# _framework density 17.926036
#
# number of rings (size 3 to 8) (size 9 to 14) (size 15 to 20)
#    0.000    2.714    0.000    3.857    0.000    9.714 
#    0.000    2.857    0.000    0.857    0.000    6.000 
#    0.000    0.000    0.000    0.000    0.000    0.000 
#
# Total GULP energy -155939.188518 kJ/mol
# GULP energy per Si atom -5569.256733 kJ/mol
# Density = 1.788524 g / cm^3
# Si number density = 17.926036 Si / 1000 Ang^3
#
#
#
# Elastic Constant Matrix: (Units=GPa)
#
#
# Indices 1 2 3 4 5 6 
#
# 1 60.1014 17.4291 34.6364 0.0000 12.4002 0.0000
# 2 17.4291 -0.0096 33.2421 0.0000 13.9194 0.0000
# 3 34.6364 33.2421 87.9862 0.0000 23.7908 0.0000
# 4 0.0000 0.0000 0.0000 -6.7446 0.0000 -5.9065
# 5 12.4002 13.9194 23.7908 0.0000 9.9478 0.0000
# 6 0.0000 0.0000 0.0000 -5.9065 0.0000 16.8914
#
#
#
# Elastic Compliance Matrix: (Units=1/GPa)
#
#
# Indices 1 2 3 4 5 6 
#
# 1 0.022807 0.000100 -0.003654 0.000000 -0.019832 0.000000
# 2 0.000100 -0.051318 -0.000094 0.000000 0.071905 0.000000
# 3 -0.003654 -0.000094 0.032751 0.000000 -0.073640 0.000000
# 4 0.000000 0.000000 0.000000 -0.113509 0.000000 -0.039691
# 5 -0.019832 0.071905 -0.073640 0.000000 0.200746 0.000000
# 6 0.000000 0.000000 0.000000 -0.039691 0.000000 0.045323
#
#
# Mechanical properties :
#
#
# Convention : Reuss Voigt Hill
#
# Bulk Modulus (GPa) = -327.43513 35.41034 -146.01240
# Shear Modulus (GPa) = 34.94639 8.20362 21.57501
#
# Velocity S-wave (km/s) = 4.42008 2.14157 3.47300
# Velocity P-wave (km/s) = 12.53021 5.09034 8.09613
#
# Compressibility (1/GPa) = -0.00305404
#
# Stress axis : x y z
#
# Youngs Moduli (GPa) = 43.84675 -19.48649 30.53368
#
# Poissons Ratio (x) = 0.00196 0.11156
# Poissons Ratio (y) = -0.00440 0.00286
# Poissons Ratio (z) = 0.16020 -0.00183
#
# Static dielectric constant tensor:
#      x y z
#    x 1.638680 0.000000 -0.011830 
#    y 0.000000 1.607000 0.000000 
#    z -0.011830 0.000000 1.665210 
# 
# From -- ./inp_files/77790.got.cif
#   From: 2010.05.17/outbox.ucp.g08.bks.cvg/sg10_39_cif.got.tgz:77790.got - 2010.06.11 11:31:16.
