data_PCOD9155966
_publ_section_title
;
Structure prediction by ZEFSAII (Michael W. Deem and Ramdas Pophale) SiO2 
 PCOD9155966
Probable space group: P 21/M
;
_chemical_formula_sum "Si O2"
_cell_formula_units_Z 32
_cell_length_a 24.377786
_cell_length_b 8.445322
_cell_length_c 30.573233
_cell_angle_alpha 90.000000
_cell_angle_beta 16.567648
_cell_angle_gamma 90.000000
_cell_volume 1794.820246
_symmetry_space_group_name_H-M "P 21/M"
_symmetry_group_IT_number 11
_symmetry_cell_setting 'monoclinic'
loop_
_space_group_symop_operation_xyz
x,y,z
-x,1/2+y,-z
-x,-y,-z
x,1/2-y,z
loop_
_atom_site_type_symbol
_atom_site_label
_atom_site_fract_x
_atom_site_fract_y
_atom_site_fract_z
Si Si1 0.399237 0.059242 0.621446
Si Si2 0.375889 0.061949 0.851572
Si Si3 0.202177 0.058616 0.475998
Si Si4 0.398642 0.558246 0.932956
Si Si5 0.024489 0.059813 0.865050
Si Si6 0.773753 0.059501 0.378504
Si Si7 0.977119 0.059090 0.731623
Si Si8 0.169132 0.059241 0.401432
O O1 0.399326 0.250000 0.621343
O O2 0.177316 0.008970 0.785788
O O3 0.549629 0.009533 0.543946
O O4 0.500000 0.000000 0.500000
O O5 0.380839 0.250000 0.847766
O O6 0.581346 0.996473 0.679057
O O7 0.352486 0.001559 0.919451
O O8 0.190888 0.003425 0.966314
O O9 0.202951 0.250000 0.475049
O O10 0.054744 0.002347 0.625619
O O11 0.151225 0.005775 0.465696
O O12 0.395296 0.750000 0.933801
O O13 0.616547 0.508953 0.777361
O O14 0.233862 0.503479 0.092058
O O15 0.019310 0.250000 0.867200
O O16 0.111881 0.998360 0.752116
O O17 0.783789 0.250000 0.372092
O O18 0.874557 0.990470 0.344011
O O19 0.970700 0.250000 0.735026
O O20 0.165396 0.250000 0.404190
O O21 0.000000 0.000000 0.500000
#
# Coordination Sequence:
#
# PCOD9155966 Si02
#       8
#     4   4   4   4   4   4   4   4
#     4   8  16  27  40  62  94 130 165 206 254 301
#     4  11  20  30  48  75 102 130 166 216 265 297
#     4   9  20  37  54  74 101 135 172 205 245 303
#     4   9  18  33  53  76 102 133 169 205 243 297
#     4  10  17  28  46  67  95 133 174 210 249 303
#     4  10  18  28  44  71 103 130 163 211 262 300
#     4  10  19  33  54  75  99 135 173 207 249 303
#     4   9  18  34  55  77 103 134 167 205 243 287
#
# _framework density 17.829083000000001
#
# number of rings (size 3 to 8) (size 9 to 14) (size 15 to 20)
#    0.000    2.500    1.250    2.625    0.000    3.500 
#    0.000    0.625    0.000    0.750    0.000    0.000 
#    0.000    0.000    0.000    0.000    0.000    0.000 
#
# Total GULP energy -178323.823399 kJ/mol
# GULP energy per Si atom -5572.619481 kJ/mol
# Density = 1.778850 g / cm^3
# Si number density = 17.829083 Si / 1000 Ang^3
#
#
#
# Elastic Constant Matrix: (Units=GPa)
#
#
# Indices 1 2 3 4 5 6 
#
# 1 81.0131 8.4156 79.3112 0.0000 -16.2559 0.0000
# 2 8.4156 8.9923 19.3590 0.0000 0.8692 0.0000
# 3 79.3112 19.3590 145.1235 0.0000 -12.0969 0.0000
# 4 0.0000 0.0000 0.0000 17.5981 0.0000 -10.6308
# 5 -16.2559 0.8692 -12.0969 0.0000 35.1132 0.0000
# 6 0.0000 0.0000 0.0000 -10.6308 0.0000 15.8970
#
#
#
# Elastic Compliance Matrix: (Units=1/GPa)
#
#
# Indices 1 2 3 4 5 6 
#
# 1 0.028903 0.006784 -0.016061 0.000000 0.007680 0.000000
# 2 0.006784 0.162129 -0.026159 0.000000 -0.009885 0.000000
# 3 -0.016061 -0.026159 0.019141 0.000000 -0.000193 0.000000
# 4 0.000000 0.000000 0.000000 0.095338 0.000000 0.063755
# 5 0.007680 -0.009885 -0.000193 0.000000 0.032213 0.000000
# 6 0.000000 0.000000 0.000000 0.063755 0.000000 0.105539
#
#
# Mechanical properties :
#
#
# Convention : Reuss Voigt Hill
#
# Bulk Modulus (GPa) = 7.17863 49.92228 28.55045
# Shear Modulus (GPa) = 8.91951 22.25787 15.58869
#
# Velocity S-wave (km/s) = 2.23912 3.53711 2.96013
# Velocity P-wave (km/s) = 3.27414 6.68900 5.26606
#
# Compressibility (1/GPa) = 0.13930235
#
# Stress axis : x y z
#
# Youngs Moduli (GPa) = 34.59801 6.16795 52.24254
#
# Poissons Ratio (x) = -0.04185 0.83906
# Poissons Ratio (y) = -0.23473 1.36662
# Poissons Ratio (z) = 0.55567 0.16135
#
# Static dielectric constant tensor:
#      x y z
#    x 1.593730 0.000000 -0.017150 
#    y 0.000000 1.610380 0.000000 
#    z -0.017150 0.000000 1.637720 
# 
# From -- ./inp_files/72028.got.cif
#   From: 2010.05.17/outbox.cif.g08.bks.cpg/sg11_37_cif.got.tgz:72028.got - 2010.06.03 12:22:45.
