data_PCOD9155195
_publ_section_title
;
Structure prediction by ZEFSAII (Michael W. Deem and Ramdas Pophale) SiO2 
 PCOD9155195
Probable space group: P 2/M
;
_chemical_formula_sum "Si O2"
_cell_formula_units_Z 32
_cell_length_a 21.000000
_cell_length_b 9.000000
_cell_length_c 15.000000
_cell_angle_alpha 90.000000
_cell_angle_beta 40.000000
_cell_angle_gamma 90.000000
_cell_volume 1822.302873
_symmetry_space_group_name_H-M "P 2/M"
_symmetry_group_IT_number 10
_symmetry_cell_setting 'monoclinic'
loop_
_space_group_symop_operation_xyz
x,y,z
-x,y,-z
-x,-y,-z
x,-y,z
loop_
_atom_site_type_symbol
_atom_site_label
_atom_site_fract_x
_atom_site_fract_y
_atom_site_fract_z
Si Si1 0.061609 0.325440 0.235044
Si Si2 0.382717 0.821751 0.728564
Si Si3 0.167793 0.671994 0.464424
Si Si4 0.402819 0.819813 0.498797
Si Si5 0.777736 0.823739 0.424636
Si Si6 0.812718 0.678069 0.062119
Si Si7 0.891872 0.673240 0.159053
Si Si8 0.883169 0.831174 0.652603
O O1 0.084132 0.500000 0.222902
O O2 0.120628 0.231523 0.244359
O O3 0.946019 0.308650 0.380147
O O4 0.096282 0.283291 0.099418
O O5 0.390162 0.779649 0.615717
O O6 0.489120 0.776462 0.652017
O O7 0.287962 0.741487 0.869243
O O8 0.371478 0.000000 0.746265
O O9 0.192579 0.500000 0.443709
O O10 0.228752 0.767282 0.468579
O O11 0.171569 0.730100 0.360291
O O12 0.314753 0.764301 0.532681
O O13 0.400913 0.000000 0.500007
O O14 0.871963 0.762406 0.269540
O O15 0.780003 0.000000 0.420529
O O16 0.809587 0.500000 0.072449
O O17 0.826447 0.735664 0.147712
O O18 0.869743 0.500000 0.201455
O O19 0.000000 0.678018 0.000000
O O20 0.000000 0.827858 0.500000
O O21 0.849444 0.000000 0.682898
#
# Coordination Sequence:
#
# PCOD9155195 Si02
#       8
#     4   4   4   4   4   4   4   4
#     4   9  18  32  48  66  94 130 160 186 227 282
#     4   9  16  31  50  65  86 120 157 192 237 286
#     4  10  19  32  49  68  94 130 161 186 228 283
#     4   8  16  30  48  66  88 119 154 194 239 284
#     4  11  20  31  47  69  93 120 158 200 235 269
#     4  10  19  30  45  68  94 121 157 197 230 267
#     4  10  20  33  45  60  91 132 164 188 222 273
#     4   9  17  30  48  71  95 118 153 201 237 263
#
# _framework density 17.560198
#
# number of rings (size 3 to 8) (size 9 to 14) (size 15 to 20)
#    0.000    2.500    1.250    2.625    0.000    4.750 
#    0.000    3.750    0.000    0.000    0.000    0.875 
#    0.000    7.000    0.000    0.000    0.000    0.000 
#
# Total GULP energy -178150.236805 kJ/mol
# GULP energy per Si atom -5567.194900 kJ/mol
# Density = 1.752023 g / cm^3
# Si number density = 17.560198 Si / 1000 Ang^3
#
#
#
# Elastic Constant Matrix: (Units=GPa)
#
#
# Indices 1 2 3 4 5 6 
#
# 1 42.9135 42.0214 13.8085 0.0000 7.6469 0.0000
# 2 42.0214 13.7316 11.5604 0.0000 3.4591 0.0000
# 3 13.8085 11.5604 15.4892 0.0000 -6.1398 0.0000
# 4 0.0000 0.0000 0.0000 14.8261 0.0000 6.1164
# 5 7.6469 3.4591 -6.1398 0.0000 18.5685 0.0000
# 6 0.0000 0.0000 0.0000 6.1164 0.0000 20.1659
#
#
#
# Elastic Compliance Matrix: (Units=1/GPa)
#
#
# Indices 1 2 3 4 5 6 
#
# 1 -0.001790 0.041137 -0.036658 0.000000 -0.019047 0.000000
# 2 0.041137 -0.032572 -0.019189 0.000000 -0.017218 0.000000
# 3 -0.036658 -0.019189 0.136908 0.000000 0.063940 0.000000
# 4 0.000000 0.000000 0.000000 0.077095 0.000000 -0.023383
# 5 -0.019047 -0.017218 0.063940 0.000000 0.086049 0.000000
# 6 0.000000 0.000000 0.000000 -0.023383 0.000000 0.056681
#
#
# Mechanical properties :
#
#
# Convention : Reuss Voigt Hill
#
# Bulk Modulus (GPa) = 13.67455 22.99054 18.33254
# Shear Modulus (GPa) = 13.29202 11.02835 12.16018
#
# Velocity S-wave (km/s) = 2.75424 2.50877 2.63437
# Velocity P-wave (km/s) = 4.23304 4.63819 4.44023
#
# Compressibility (1/GPa) = 0.07312856
#
# Stress axis : x y z
#
# Youngs Moduli (GPa) = -558.65404 -30.70139 7.30416
#
# Poissons Ratio (x) = 1.26298 0.26775
# Poissons Ratio (y) = 22.98162 0.14016
# Poissons Ratio (z) = -20.47887 -0.58913
#
# Static dielectric constant tensor:
#      x y z
#    x 1.653850 0.000000 -0.038800 
#    y 0.000000 1.582160 0.000000 
#    z -0.038800 0.000000 1.605290 
# 
# From -- ./inp_files/65995.got.cif
#   From: 2010.05.17/outbox.ucp.g08.bks.cvg/sg10_33_cif.got.tgz:65995.got - 2010.06.11 11:31:16.
