data_PCOD9155977
_publ_section_title
;
Structure prediction by ZEFSAII (Michael W. Deem and Ramdas Pophale) SiO2 
 PCOD9155977
Probable space group: P 21/M
;
_chemical_formula_sum "Si O2"
_cell_formula_units_Z 32
_cell_length_a 13.180574
_cell_length_b 7.365021
_cell_length_c 27.488314
_cell_angle_alpha 90.000000
_cell_angle_beta 31.240382
_cell_angle_gamma 90.000000
_cell_volume 1383.929076
_symmetry_space_group_name_H-M "P 21/M"
_symmetry_group_IT_number 11
_symmetry_cell_setting 'monoclinic'
loop_
_space_group_symop_operation_xyz
x,y,z
-x,1/2+y,-z
-x,-y,-z
x,1/2-y,z
loop_
_atom_site_type_symbol
_atom_site_label
_atom_site_fract_x
_atom_site_fract_y
_atom_site_fract_z
Si Si1 0.813888 0.027967 0.171181
Si Si2 0.661676 0.031294 0.134161
Si Si3 0.770701 0.530622 0.645801
Si Si4 0.394271 0.033333 0.384265
Si Si5 0.547210 0.468368 0.078005
Si Si6 0.103801 0.534570 0.581375
Si Si7 0.893935 0.972232 0.760935
Si Si8 0.884564 0.962870 0.873627
O O1 0.818721 0.250000 0.167372
O O2 0.803968 0.965987 0.118990
O O3 0.610513 0.973277 0.280655
O O4 0.985837 0.961418 0.135372
O O5 0.682627 0.250000 0.123729
O O6 0.440855 0.993747 0.243580
O O7 0.663168 0.963033 0.078303
O O8 0.788893 0.750000 0.637033
O O9 0.753685 0.464477 0.597215
O O10 0.943386 0.460049 0.608909
O O11 0.398517 0.250000 0.378220
O O12 0.312994 0.992686 0.470759
O O13 0.543788 0.250000 0.082231
O O14 0.321929 0.526881 0.169102
O O15 0.662102 0.519748 0.982391
O O16 0.072942 0.750000 0.596214
O O17 0.053435 0.468076 0.655926
O O18 0.893422 0.750000 0.762888
O O19 0.920889 0.037031 0.805023
O O20 0.932907 0.750000 0.851168
#
# Coordination Sequence:
#
# PCOD9155977 Si02
#       8
#     4   4   4   4   4   4   4   4
#     4   8  16  31  49  67  93 128 160 185 221 278
#     4   8  13  25  47  71  92 120 155 188 222 274
#     4   8  13  24  44  67  92 120 150 182 222 276
#     4   9  17  29  46  69  93 120 153 188 227 271
#     4  10  18  31  52  74  93 117 154 196 236 276
#     4  10  17  28  47  70  92 119 154 189 227 272
#     4   9  18  32  50  70  94 124 157 189 227 280
#     4  10  20  34  50  68  92 125 160 193 229 273
#
# _framework density 23.122572999999999
#
# number of rings (size 3 to 8) (size 9 to 14) (size 15 to 20)
#    0.000    3.000    1.250    2.250    0.000    0.500 
#    0.000    2.500    0.000    3.000    0.000    0.000 
#    0.000    0.000    0.000    0.000    0.000    0.000 
#
# Total GULP energy -178631.352453 kJ/mol
# GULP energy per Si atom -5582.229764 kJ/mol
# Density = 2.306994 g / cm^3
# Si number density = 23.122573 Si / 1000 Ang^3
#
#
#
# Elastic Constant Matrix: (Units=GPa)
#
#
# Indices 1 2 3 4 5 6 
#
# 1 105.2996 6.6214 34.8117 0.0000 22.7992 0.0000
# 2 6.6214 82.9797 -7.6404 0.0000 0.5071 0.0000
# 3 34.8117 -7.6404 92.5098 0.0000 35.8352 0.0000
# 4 0.0000 0.0000 0.0000 12.3047 0.0000 4.5274
# 5 22.7992 0.5071 35.8352 0.0000 34.3740 0.0000
# 6 0.0000 0.0000 0.0000 4.5274 0.0000 -14.0027
#
#
#
# Elastic Compliance Matrix: (Units=1/GPa)
#
#
# Indices 1 2 3 4 5 6 
#
# 1 0.011468 -0.001111 -0.002461 0.000000 -0.005024 0.000000
# 2 -0.001111 0.012338 0.002050 0.000000 -0.001582 0.000000
# 3 -0.002461 0.002050 0.018928 0.000000 -0.018131 0.000000
# 4 0.000000 0.000000 0.000000 0.072629 0.000000 0.023483
# 5 -0.005024 -0.001582 -0.018131 0.000000 0.051349 0.000000
# 6 0.000000 0.000000 0.000000 0.023483 0.000000 -0.063822
#
#
# Mechanical properties :
#
#
# Convention : Reuss Voigt Hill
#
# Bulk Modulus (GPa) = 25.19474 38.70825 31.95150
# Shear Modulus (GPa) = 41.95869 23.00164 32.48017
#
# Velocity S-wave (km/s) = 4.26446 3.15742 3.75199
# Velocity P-wave (km/s) = 5.93020 5.48354 5.71124
#
# Compressibility (1/GPa) = 0.03969082
#
# Stress axis : x y z
#
# Youngs Moduli (GPa) = 87.19901 81.04894 52.83093
#
# Poissons Ratio (x) = 0.09004 0.13001
# Poissons Ratio (y) = 0.09688 -0.10830
# Poissons Ratio (z) = 0.21459 -0.16615
#
# Static dielectric constant tensor:
#      x y z
#    x 1.876280 0.000000 0.021400 
#    y 0.000000 1.885890 0.000000 
#    z 0.021400 0.000000 1.857730 
# 
# From -- ./inp_files/49820.got.cif
#   From: 2010.05.17/outbox.cif.g08.bks.cpg/sg11_25_cif.got.tgz:49820.got - 2010.06.03 12:22:45.
