data_PCOD9155900
_publ_section_title
;
Structure prediction by ZEFSAII (Michael W. Deem and Ramdas Pophale) SiO2 
 PCOD9155900
Probable space group: P 21/M
;
_chemical_formula_sum "Si O2"
_cell_formula_units_Z 26
_cell_length_a 19.622630
_cell_length_b 7.463704
_cell_length_c 9.898013
_cell_angle_alpha 90.000000
_cell_angle_beta 44.265786
_cell_angle_gamma 90.000000
_cell_volume 1011.829801
_symmetry_space_group_name_H-M "P 21/M"
_symmetry_group_IT_number 11
_symmetry_cell_setting 'monoclinic'
loop_
_space_group_symop_operation_xyz
x,y,z
-x,1/2+y,-z
-x,-y,-z
x,1/2-y,z
loop_
_atom_site_type_symbol
_atom_site_label
_atom_site_fract_x
_atom_site_fract_y
_atom_site_fract_z
Si Si1 0.552205 0.033298 0.669529
Si Si2 0.267710 0.969123 0.776482
Si Si3 0.310341 0.967983 0.295663
Si Si4 0.128374 0.965052 0.747201
Si Si5 0.985628 0.438760 0.727048
Si Si6 0.088072 0.250000 0.350472
Si Si7 0.328812 0.543940 0.973351
O O1 0.546013 0.250000 0.676561
O O2 0.634991 0.978601 0.444947
O O3 0.594068 0.976091 0.756087
O O4 0.445532 0.960979 0.791436
O O5 0.270130 0.750000 0.771490
O O6 0.171945 0.025116 0.829097
O O7 0.280732 0.037077 0.909300
O O8 0.314296 0.750000 0.282888
O O9 0.217582 0.011086 0.518778
O O10 0.305553 0.040598 0.151087
O O11 0.119543 0.750000 0.762036
O O12 0.033151 0.036646 0.806759
O O13 0.929154 0.250000 0.805081
O O14 0.925940 0.595799 0.746075
O O15 0.072935 0.403530 0.493685
O O16 0.296831 0.750000 0.024957
#
# Coordination Sequence:
#
# PCOD9155900 Si02
#       7
#     4   4   4   4   4   2   4
#     4   9  16  28  41  55  75 106 139 181 232 267
#     4   8  16  27  40  57  79 109 145 175 221 268
#     4   8  16  27  40  57  79 109 145 175 221 268
#     4   9  15  27  43  58  84 119 141 172 217 263
#     4   9  15  26  43  68  97 122 144 174 218 259
#     4   8  16  26  42  70 100 118 140 180 216 254
#     4  10  17  27  41  57  77 105 145 188 217 260
#
# _framework density 25.696023
#
# number of rings (size 3 to 8) (size 9 to 14) (size 15 to 20)
#    0.462    2.769    0.769    2.769    0.000    0.000 
#    0.000    4.615    0.000    0.000    0.000    0.000 
#    0.000    7.385    0.000    0.462    0.000    0.462 
#
# Total GULP energy -144886.135498 kJ/mol
# GULP energy per Si atom -5572.543673 kJ/mol
# Density = 2.563754 g / cm^3
# Si number density = 25.696023 Si / 1000 Ang^3
#
#
#
# Elastic Constant Matrix: (Units=GPa)
#
#
# Indices 1 2 3 4 5 6 
#
# 1 229.1851 41.5990 34.2971 0.0000 52.2042 0.0000
# 2 41.5990 110.7472 -10.9006 0.0000 21.7232 0.0000
# 3 34.2971 -10.9006 193.7718 0.0000 16.0446 0.0000
# 4 0.0000 0.0000 0.0000 -1.8392 0.0000 10.0173
# 5 52.2042 21.7232 16.0446 0.0000 73.2415 0.0000
# 6 0.0000 0.0000 0.0000 10.0173 0.0000 21.1204
#
#
#
# Elastic Compliance Matrix: (Units=1/GPa)
#
#
# Indices 1 2 3 4 5 6 
#
# 1 0.005506 -0.001496 -0.000785 0.000000 -0.003309 0.000000
# 2 -0.001496 0.010114 0.001012 0.000000 -0.002155 0.000000
# 3 -0.000785 0.001012 0.005434 0.000000 -0.000931 0.000000
# 4 0.000000 0.000000 0.000000 -0.151737 0.000000 0.071968
# 5 -0.003309 -0.002155 -0.000931 0.000000 0.016855 0.000000
# 6 0.000000 0.000000 0.000000 0.071968 0.000000 0.013214
#
#
# Mechanical properties :
#
#
# Convention : Reuss Voigt Hill
#
# Bulk Modulus (GPa) = 54.00782 73.74390 63.87586
# Shear Modulus (GPa) = -54.40382 49.75179 -2.32602
#
# Velocity S-wave (km/s) = -4.60630 4.40496 -0.95246
# Velocity P-wave (km/s) = 2.68833 7.39138 4.86854
#
# Compressibility (1/GPa) = 0.01851584
#
# Stress axis : x y z
#
# Youngs Moduli (GPa) = 181.61981 98.87305 184.03807
#
# Poissons Ratio (x) = 0.14795 0.14443
# Poissons Ratio (y) = 0.27177 -0.18629
# Poissons Ratio (z) = 0.14253 -0.10008
#
# Static dielectric constant tensor:
#      x y z
#    x 1.992020 0.000000 -0.027000 
#    y 0.000000 1.972310 0.000000 
#    z -0.027000 0.000000 2.083840 
# 
# From -- ./inp_files/25546.got.cif
#   From: 2010.05.17/outbox.cif.g08.bks.cpg/sg11_13_cif.got.tgz:25546.got - 2010.06.03 12:22:45.
