data_PCOD9155038
_publ_section_title
;
Structure prediction by ZEFSAII (Michael W. Deem and Ramdas Pophale) SiO2 
 PCOD9155038
Probable space group: P 2/M
;
_chemical_formula_sum "Si O2"
_cell_formula_units_Z 28
_cell_length_a 17.360504
_cell_length_b 7.404884
_cell_length_c 15.604226
_cell_angle_alpha 90.000000
_cell_angle_beta 141.509844
_cell_angle_gamma 90.000000
_cell_volume 1248.471307
_symmetry_space_group_name_H-M "P 2/M"
_symmetry_group_IT_number 10
_symmetry_cell_setting 'monoclinic'
loop_
_space_group_symop_operation_xyz
x,y,z
-x,y,-z
-x,-y,-z
x,-y,z
loop_
_atom_site_type_symbol
_atom_site_label
_atom_site_fract_x
_atom_site_fract_y
_atom_site_fract_z
Si Si1 0.791559 0.720058 0.572753
Si Si2 0.200880 0.706697 0.795290
Si Si3 0.638044 0.720666 0.596667
Si Si4 0.741336 0.291671 0.343055
Si Si5 0.863836 0.720306 0.915264
Si Si6 0.468690 0.203495 0.073686
Si Si7 0.066079 0.720102 0.841099
O O1 0.786134 0.500000 0.563730
O O2 0.681886 0.776899 0.539987
O O3 0.788272 0.788708 0.472594
O O4 0.922839 0.766793 0.728582
O O5 0.160911 0.500000 0.747628
O O6 0.218029 0.786289 0.714373
O O7 0.111648 0.788918 0.788641
O O8 0.335462 0.705443 0.958337
O O9 0.500000 0.780180 0.500000
O O10 0.637312 0.500000 0.597481
O O11 0.746658 0.778129 0.756791
O O12 0.781264 0.500000 0.376037
O O13 0.591780 0.288823 0.219372
O O14 0.864030 0.500000 0.912430
O O15 0.856977 0.776200 0.008805
O O16 0.000000 0.775594 0.000000
O O17 0.456312 0.000000 0.095460
O O18 0.500000 0.197584 0.000000
O O19 0.073269 0.500000 0.844208
#
# Coordination Sequence:
#
# PCOD9155038 Si02
#       7
#     4   4   4   4   4   4   4
#     4   9  16  26  39  58  87 123 155 183 225 279
#     4   9  17  28  43  67  94 119 151 188 225 270
#     4   9  16  24  35  55  84 118 155 192 230 276
#     4   9  17  28  44  65  93 124 149 183 229 273
#     4   9  14  23  38  54  81 123 157 183 228 280
#     4   9  17  30  47  64  86 120 158 192 228 271
#     4   9  16  25  40  61  87 122 158 187 223 278
#
# _framework density 22.427427000000002
#
# number of rings (size 3 to 8) (size 9 to 14) (size 15 to 20)
#    0.000    3.000    1.429    0.429    0.000    3.429 
#    0.000    7.143    0.000    0.857    0.000    4.000 
#    0.000    5.714    0.000    0.143    0.000    0.000 
#
# Total GULP energy -156085.829383 kJ/mol
# GULP energy per Si atom -5574.493907 kJ/mol
# Density = 2.237638 g / cm^3
# Si number density = 22.427427 Si / 1000 Ang^3
#
#
#
# Elastic Constant Matrix: (Units=GPa)
#
#
# Indices 1 2 3 4 5 6 
#
# 1 160.1421 5.2340 67.2875 0.0000 -6.4987 0.0000
# 2 5.2340 74.1505 -1.7079 0.0000 -3.3973 0.0000
# 3 67.2875 -1.7079 116.3283 0.0000 -16.3802 0.0000
# 4 0.0000 0.0000 0.0000 -53.3427 0.0000 -21.0033
# 5 -6.4987 -3.3973 -16.3802 0.0000 34.6626 0.0000
# 6 0.0000 0.0000 0.0000 -21.0033 0.0000 -27.1253
#
#
#
# Elastic Compliance Matrix: (Units=1/GPa)
#
#
# Indices 1 2 3 4 5 6 
#
# 1 0.008308 -0.000739 -0.004936 0.000000 -0.000847 0.000000
# 2 -0.000739 0.013631 0.000853 0.000000 0.001601 0.000000
# 3 -0.004936 0.000853 0.012154 0.000000 0.004902 0.000000
# 4 0.000000 0.000000 0.000000 -0.026969 0.000000 0.020882
# 5 -0.000847 0.001601 0.004902 0.000000 0.031164 0.000000
# 6 0.000000 0.000000 0.000000 0.020882 0.000000 -0.053035
#
#
# Mechanical properties :
#
#
# Convention : Reuss Voigt Hill
#
# Bulk Modulus (GPa) = 40.90011 54.69424 47.79717
# Shear Modulus (GPa) = 1641.07070 9.49275 825.28173
#
# Velocity S-wave (km/s) = 27.07976 2.05957 19.20358
# Velocity P-wave (km/s) = 31.55990 5.48598 22.65087
#
# Compressibility (1/GPa) = 0.02444981
#
# Stress axis : x y z
#
# Youngs Moduli (GPa) = 120.36431 73.36101 82.27682
#
# Poissons Ratio (x) = 0.05421 0.40610
# Poissons Ratio (y) = 0.08894 -0.07018
# Poissons Ratio (z) = 0.59409 -0.06257
#
# Static dielectric constant tensor:
#      x y z
#    x 1.826840 0.000000 -0.012900 
#    y 0.000000 1.853920 0.000000 
#    z -0.012900 0.000000 1.819010 
# 
# From -- ./inp_files/66648.got.cif
#   From: 2010.05.17/outbox.cif.g08.bks.cpg/sg10_34_cif.got.tgz:66648.got - 2010.06.03 11:33:40.
