data_PCOD9155602
_publ_section_title
;
Structure prediction by ZEFSAII (Michael W. Deem and Ramdas Pophale) SiO2 
 PCOD9155602
Probable space group: P 2/M
;
_chemical_formula_sum "Si O2"
_cell_formula_units_Z 32
_cell_length_a 30.000000
_cell_length_b 9.000000
_cell_length_c 12.000000
_cell_angle_alpha 90.000000
_cell_angle_beta 150.000000
_cell_angle_gamma 90.000000
_cell_volume 1620.000000
_symmetry_space_group_name_H-M "P 2/M"
_symmetry_group_IT_number 10
_symmetry_cell_setting 'monoclinic'
loop_
_space_group_symop_operation_xyz
x,y,z
-x,y,-z
-x,-y,-z
x,-y,z
loop_
_atom_site_type_symbol
_atom_site_label
_atom_site_fract_x
_atom_site_fract_y
_atom_site_fract_z
Si Si1 0.117440 0.174138 0.405615
Si Si2 0.056693 0.327007 0.916524
Si Si3 0.400534 0.170002 0.277345
Si Si4 0.152094 0.675996 0.917319
Si Si5 0.220565 0.671409 0.435949
Si Si6 0.319952 0.836844 0.347308
Si Si7 0.779181 0.321811 0.169936
Si Si8 0.401126 0.174670 0.755188
O O1 0.174599 0.219957 0.423495
O O2 0.163533 0.262269 0.605413
O O3 0.016633 0.232213 0.179424
O O4 0.119487 0.000000 0.429682
O O5 0.027417 0.500000 0.850562
O O6 0.073371 0.269262 0.826777
O O7 0.151771 0.324425 0.183787
O O8 0.500000 0.234486 0.500000
O O9 0.368650 0.162580 0.335573
O O10 0.406102 0.000000 0.245150
O O11 0.321630 0.258592 0.045951
O O12 0.139224 0.500000 0.882579
O O13 0.170132 0.732852 0.832533
O O14 0.244924 0.712958 0.179112
O O15 0.223114 0.500000 0.480711
O O16 0.319308 0.730163 0.625008
O O17 0.388279 0.817370 0.594731
O O18 0.276162 0.000000 0.268494
O O19 0.775405 0.500000 0.159375
O O20 0.392010 0.000000 0.768632
O O21 0.500000 0.225153 0.000000
#
# Coordination Sequence:
#
# PCOD9155602 Si02
#       8
#     4   4   4   4   4   4   4   4
#     4  12  26  41  59  85 121 159 197 243 302 365
#     4  10  21  39  63  89 117 152 197 244 298 355
#     4   9  18  33  55  83 115 155 200 241 290 348
#     4   9  18  35  60  86 112 149 190 237 290 345
#     4  11  23  41  64  87 117 155 201 251 297 351
#     4   9  17  31  52  78 111 149 190 238 285 337
#     4  10  21  38  59  84 118 154 197 246 297 350
#     4  10  21  36  56  86 122 159 199 242 294 349
#
# _framework density 19.753086
#
# number of rings (size 3 to 8) (size 9 to 14) (size 15 to 20)
#    0.000    2.000    1.250    2.250    0.000    5.500 
#    0.000    5.000    0.000    0.000    0.000    0.000 
#    0.000    0.000    0.000    0.000    0.000    0.000 
#
# Total GULP energy -178373.964827 kJ/mol
# GULP energy per Si atom -5574.186401 kJ/mol
# Density = 1.970813 g / cm^3
# Si number density = 19.753086 Si / 1000 Ang^3
#
#
#
# Elastic Constant Matrix: (Units=GPa)
#
#
# Indices 1 2 3 4 5 6 
#
# 1 27.4992 15.1520 48.4353 0.0000 6.8751 0.0000
# 2 15.1520 18.2012 10.9961 0.0000 7.4231 0.0000
# 3 48.4353 10.9961 19.3106 0.0000 20.0219 0.0000
# 4 0.0000 0.0000 0.0000 22.5924 0.0000 -0.8782
# 5 6.8751 7.4231 20.0219 0.0000 27.9547 0.0000
# 6 0.0000 0.0000 0.0000 -0.8782 0.0000 16.7212
#
#
#
# Elastic Compliance Matrix: (Units=1/GPa)
#
#
# Indices 1 2 3 4 5 6 
#
# 1 -0.002036 -0.007609 0.026521 0.000000 -0.016474 0.000000
# 2 -0.007609 0.074239 -0.018224 0.000000 -0.004789 0.000000
# 3 0.026521 -0.018224 -0.010149 0.000000 0.005586 0.000000
# 4 0.000000 0.000000 0.000000 0.044353 0.000000 0.002329
# 5 -0.016474 -0.004789 0.005586 0.000000 0.037095 0.000000
# 6 0.000000 0.000000 0.000000 0.002329 0.000000 0.059926
#
#
# Mechanical properties :
#
#
# Convention : Reuss Voigt Hill
#
# Bulk Modulus (GPa) = 15.76562 23.79753 19.78157
# Shear Modulus (GPa) = 22.40186 12.81551 17.60868
#
# Velocity S-wave (km/s) = 3.37128 2.54989 2.98894
# Velocity P-wave (km/s) = 4.81173 4.55444 4.68485
#
# Compressibility (1/GPa) = 0.06342917
#
# Stress axis : x y z
#
# Youngs Moduli (GPa) = -491.06485 13.47000 -98.53246
#
# Poissons Ratio (x) = 0.10249 2.61316
# Poissons Ratio (y) = -3.73630 -1.79570
# Poissons Ratio (z) = 13.02343 0.24548
#
# Static dielectric constant tensor:
#      x y z
#    x 1.756300 0.000000 -0.028490 
#    y 0.000000 1.693580 0.000000 
#    z -0.028490 0.000000 1.679310 
# 
# From -- ./inp_files/58219.got.cif
#   From: 2010.05.17/outbox.ucp.g08.bks.cvg/sg10_30_cif.got.tgz:58219.got - 2010.06.11 11:31:16.
