data_PCOD9155758
_publ_section_title
;
Structure prediction by ZEFSAII (Michael W. Deem and Ramdas Pophale) SiO2 
 PCOD9155758
Probable space group: P 21/M
;
_chemical_formula_sum "Si O2"
_cell_formula_units_Z 28
_cell_length_a 22.858625
_cell_length_b 8.527115
_cell_length_c 10.482104
_cell_angle_alpha 90.000000
_cell_angle_beta 53.587925
_cell_angle_gamma 90.000000
_cell_volume 1644.264853
_symmetry_space_group_name_H-M "P 21/M"
_symmetry_group_IT_number 11
_symmetry_cell_setting 'monoclinic'
loop_
_space_group_symop_operation_xyz
x,y,z
-x,1/2+y,-z
-x,-y,-z
x,1/2-y,z
loop_
_atom_site_type_symbol
_atom_site_label
_atom_site_fract_x
_atom_site_fract_y
_atom_site_fract_z
Si Si1 0.499640 0.063881 0.354475
Si Si2 0.190626 0.059266 0.030430
Si Si3 0.199500 0.438077 0.720297
Si Si4 0.349303 0.063288 0.838041
Si Si5 0.049340 0.561579 0.820171
Si Si6 0.035609 0.439353 0.325331
Si Si7 0.648970 0.063925 0.453022
O O1 0.493150 0.250000 0.365572
O O2 0.500000 0.000000 0.500000
O O3 0.578412 0.015035 0.199104
O O4 0.427268 0.989846 0.386989
O O5 0.190900 0.250000 0.030938
O O6 0.118587 0.005438 0.195812
O O7 0.186526 0.014179 0.885950
O O8 0.268905 0.009976 0.985174
O O9 0.204926 0.250000 0.709729
O O10 0.130144 0.495041 0.731863
O O11 0.276117 0.512137 0.578474
O O12 0.355650 0.250000 0.844281
O O13 0.348501 0.022398 0.687953
O O14 0.051129 0.750000 0.823296
O O15 0.011639 0.513595 0.736645
O O16 0.000000 0.500000 0.000000
O O17 0.037003 0.250000 0.326332
O O18 0.000000 0.500000 0.500000
O O19 0.647652 0.250000 0.434664
#
# Coordination Sequence:
#
# PCOD9155758 Si02
#       7
#     4   4   4   4   4   4   4
#     4  10  16  23  34  52  82 119 155 192 235 284
#     4   8  15  29  46  64  91 123 156 199 246 289
#     4  10  18  31  48  68  94 124 160 202 248 292
#     4   9  15  24  39  57  81 118 157 195 240 287
#     4  11  21  34  53  75 100 128 166 209 251 298
#     4  10  21  37  52  72 100 132 166 207 252 298
#     4  10  17  25  37  58  87 119 156 194 236 288
#
# _framework density 17.028887000000001
#
# number of rings (size 3 to 8) (size 9 to 14) (size 15 to 20)
#    0.000    2.286    1.429    6.429    0.000    1.143 
#    0.000    1.429    0.000    0.000    0.000    0.000 
#    0.000    1.143    0.000    3.429    0.000    7.429 
#
# Total GULP energy -156002.391609 kJ/mol
# GULP energy per Si atom -5571.513986 kJ/mol
# Density = 1.699013 g / cm^3
# Si number density = 17.028887 Si / 1000 Ang^3
#
#
#
# Elastic Constant Matrix: (Units=GPa)
#
#
# Indices 1 2 3 4 5 6 
#
# 1 111.8322 26.2119 73.2487 0.0000 -45.4631 0.0000
# 2 26.2119 51.7652 18.2712 0.0000 -9.6815 0.0000
# 3 73.2487 18.2712 85.9175 0.0000 -29.4154 0.0000
# 4 0.0000 0.0000 0.0000 20.8125 0.0000 -8.5118
# 5 -45.4631 -9.6815 -29.4154 0.0000 39.5838 0.0000
# 6 0.0000 0.0000 0.0000 -8.5118 0.0000 25.7183
#
#
#
# Elastic Compliance Matrix: (Units=1/GPa)
#
#
# Indices 1 2 3 4 5 6 
#
# 1 0.029530 -0.005142 -0.017303 0.000000 0.019800 0.000000
# 2 -0.005142 0.021956 -0.000629 0.000000 -0.001003 0.000000
# 3 -0.017303 -0.000629 0.026379 0.000000 -0.000424 0.000000
# 4 0.000000 0.000000 0.000000 0.055570 0.000000 0.018392
# 5 0.019800 -0.001003 -0.000424 0.000000 0.047443 0.000000
# 6 0.000000 0.000000 0.000000 0.018392 0.000000 0.044970
#
#
# Mechanical properties :
#
#
# Convention : Reuss Voigt Hill
#
# Bulk Modulus (GPa) = 31.52860 53.88651 42.70755
# Shear Modulus (GPa) = 17.69482 26.00846 21.85164
#
# Velocity S-wave (km/s) = 3.22701 3.91233 3.58608
# Velocity P-wave (km/s) = 5.69559 7.21951 6.50235
#
# Compressibility (1/GPa) = 0.03171724
#
# Stress axis : x y z
#
# Youngs Moduli (GPa) = 33.86401 45.54542 37.90836
#
# Poissons Ratio (x) = 0.23421 0.65594
# Poissons Ratio (y) = 0.17414 0.02383
# Poissons Ratio (z) = 0.58596 0.02863
#
# Static dielectric constant tensor:
#      x y z
#    x 1.609760 0.000000 -0.064470 
#    y 0.000000 1.578070 0.000000 
#    z -0.064470 0.000000 1.586270 
# 
# From -- ./inp_files/43648.got.cif
#   From: 2010.05.17/outbox.cif.g08.bks.cpg/sg11_22_cif.got.tgz:43648.got - 2010.06.03 12:22:45.
