data_PCOD9155260
_publ_section_title
;
Structure prediction by ZEFSAII (Michael W. Deem and Ramdas Pophale) SiO2 
 PCOD9155260
Probable space group: P 2/M
;
_chemical_formula_sum "Si O2"
_cell_formula_units_Z 24
_cell_length_a 15.000000
_cell_length_b 9.000000
_cell_length_c 30.000000
_cell_angle_alpha 90.000000
_cell_angle_beta 160.000000
_cell_angle_gamma 90.000000
_cell_volume 1385.181580
_symmetry_space_group_name_H-M "P 2/M"
_symmetry_group_IT_number 10
_symmetry_cell_setting 'monoclinic'
loop_
_space_group_symop_operation_xyz
x,y,z
-x,y,-z
-x,-y,-z
x,-y,z
loop_
_atom_site_type_symbol
_atom_site_label
_atom_site_fract_x
_atom_site_fract_y
_atom_site_fract_z
Si Si1 0.668794 0.320612 0.621556
Si Si2 0.416836 0.177697 0.325484
Si Si3 0.296415 0.675771 0.124319
Si Si4 0.276777 0.178605 0.613951
Si Si5 0.871722 0.678133 0.049420
Si Si6 0.746937 0.679990 0.089841
O O1 0.500000 0.277169 0.500000
O O2 0.664407 0.500000 0.623605
O O3 0.560501 0.250682 0.615754
O O4 0.970740 0.273200 0.759531
O O5 0.646231 0.222447 0.399863
O O6 0.146818 0.238209 0.177817
O O7 0.405145 0.000000 0.323463
O O8 0.343931 0.500000 0.152708
O O9 0.498711 0.765868 0.248075
O O10 0.302399 0.712711 0.074898
O O11 0.000000 0.704471 0.000000
O O12 0.000000 0.236901 0.500000
O O13 0.271925 0.000000 0.612785
O O14 0.924956 0.500000 0.073687
O O15 0.740224 0.715948 0.034475
O O16 0.742384 0.500000 0.090922
O O17 0.500000 0.739937 0.000000
#
# Coordination Sequence:
#
# PCOD9155260 Si02
#       6
#     4   4   4   4   4   4
#     4   9  18  33  52  74  98 128 165 205 249 299
#     4  10  19  32  53  75  97 132 174 209 248 297
#     4  10  19  32  53  79 103 128 167 216 258 301
#     4  10  22  38  52  71 104 142 176 210 254 307
#     4   9  17  31  51  75 102 129 163 207 253 299
#     4   8  14  27  48  70  95 125 155 192 240 293
#
# _framework density 17.326248
#
# number of rings (size 3 to 8) (size 9 to 14) (size 15 to 20)
#    0.000    2.667    1.667    1.500    0.000    2.333 
#    3.000    0.000    0.000    8.000    0.000    0.000 
#    0.000    0.000    0.000    0.000    0.000    0.000 
#
# Total GULP energy -133709.316345 kJ/mol
# GULP energy per Si atom -5571.221514 kJ/mol
# Density = 1.728681 g / cm^3
# Si number density = 17.326248 Si / 1000 Ang^3
#
#
#
# Elastic Constant Matrix: (Units=GPa)
#
#
# Indices 1 2 3 4 5 6 
#
# 1 138.1976 26.5612 93.7143 0.0000 12.4056 0.0000
# 2 26.5612 0.3413 17.0249 0.0000 2.3628 0.0000
# 3 93.7143 17.0249 73.7787 0.0000 -1.6829 0.0000
# 4 0.0000 0.0000 0.0000 13.7471 0.0000 -1.2070
# 5 12.4056 2.3628 -1.6829 0.0000 26.7993 0.0000
# 6 0.0000 0.0000 0.0000 -1.2070 0.0000 20.1147
#
#
#
# Elastic Compliance Matrix: (Units=1/GPa)
#
#
# Indices 1 2 3 4 5 6 
#
# 1 0.069847 0.062101 -0.104062 0.000000 -0.044342 0.000000
# 2 0.062101 -0.203174 -0.032291 0.000000 -0.012861 0.000000
# 3 -0.104062 -0.032291 0.154571 0.000000 0.060724 0.000000
# 4 0.000000 0.000000 0.000000 0.073128 0.000000 0.004388
# 5 -0.044342 -0.012861 0.060724 0.000000 0.062788 0.000000
# 6 0.000000 0.000000 0.000000 0.004388 0.000000 0.049978
#
#
# Mechanical properties :
#
#
# Convention : Reuss Voigt Hill
#
# Bulk Modulus (GPa) = -7.85798 54.10207 23.12205
# Shear Modulus (GPa) = 15.96314 17.13336 16.54825
#
# Velocity S-wave (km/s) = 3.03863 3.14804 3.09382
# Velocity P-wave (km/s) = 2.78673 6.67134 5.11237
#
# Compressibility (1/GPa) = -0.12725923
#
# Stress axis : x y z
#
# Youngs Moduli (GPa) = 14.31699 -4.92190 6.46954
#
# Poissons Ratio (x) = 0.30565 0.67323
# Poissons Ratio (y) = -0.88910 0.20890
# Poissons Ratio (z) = 1.48985 -0.15893
#
# Static dielectric constant tensor:
#      x y z
#    x 1.616350 0.000000 0.010410 
#    y 0.000000 1.574180 0.000000 
#    z 0.010410 0.000000 1.569530 
# 
# From -- ./inp_files/80125.got.cif
#   From: 2010.05.17/outbox.ucp.g08.bks.cvg/sg10_41_cif.got.tgz:80125.got - 2010.06.11 11:31:16.
