data_PCOD9155932
_publ_section_title
;
Structure prediction by ZEFSAII (Michael W. Deem and Ramdas Pophale) SiO2 
 PCOD9155932
Probable space group: P 21/M
;
_chemical_formula_sum "Si O2"
_cell_formula_units_Z 28
_cell_length_a 6.979401
_cell_length_b 13.758254
_cell_length_c 12.145145
_cell_angle_alpha 90.000000
_cell_angle_beta 100.957746
_cell_angle_gamma 90.000000
_cell_volume 1144.966786
_symmetry_space_group_name_H-M "P 21/M"
_symmetry_group_IT_number 11
_symmetry_cell_setting 'monoclinic'
loop_
_space_group_symop_operation_xyz
x,y,z
-x,1/2+y,-z
-x,-y,-z
x,1/2-y,z
loop_
_atom_site_type_symbol
_atom_site_label
_atom_site_fract_x
_atom_site_fract_y
_atom_site_fract_z
Si Si1 0.878240 0.472978 0.879270
Si Si2 0.662049 0.138981 0.414158
Si Si3 0.837091 0.051194 0.646151
Si Si4 0.779157 0.860232 0.534741
Si Si5 0.574228 0.867978 0.302598
Si Si6 0.444422 0.131208 0.177197
Si Si7 0.527832 0.135672 0.939138
O O1 0.957260 0.430843 0.771733
O O2 0.754753 0.569963 0.830773
O O3 0.736557 0.391348 0.913842
O O4 0.000000 0.500000 0.000000
O O5 0.717022 0.250000 0.404921
O O6 0.811781 0.099176 0.522021
O O7 0.446007 0.135749 0.446341
O O8 0.607827 0.102147 0.285616
O O9 0.618342 0.078431 0.670686
O O10 0.883164 0.940882 0.616912
O O11 0.844760 0.750000 0.554869
O O12 0.753694 0.887579 0.403744
O O13 0.539945 0.750000 0.306482
O O14 0.604705 0.894155 0.178913
O O15 0.418082 0.250000 0.182736
O O16 0.502062 0.099791 0.059896
O O17 0.503180 0.250000 0.947344
#
# Coordination Sequence:
#
# PCOD9155932 Si02
#       7
#     4   4   4   4   4   4   4
#     4  11  23  35  51  77 112 146 179 207 256 325
#     4   9  16  27  48  77  98 122 166 221 271 304
#     4  10  17  27  46  67 102 133 164 211 261 298
#     4   9  15  23  39  66  98 124 157 204 256 302
#     4   8  14  24  42  70  96 119 155 207 259 300
#     4  10  20  35  55  80 106 134 174 224 269 312
#     4   9  19  35  54  77 104 138 178 220 264 306
#
# _framework density 24.454858000000002
#
# number of rings (size 3 to 8) (size 9 to 14) (size 15 to 20)
#    0.000    2.571    1.429    3.429    2.000    1.143 
#    0.000    0.000    0.000    0.857    0.000    0.000 
#    0.000    0.000    0.000    0.000    0.000    0.000 
#
# Total GULP energy -156015.687874 kJ/mol
# GULP energy per Si atom -5571.988853 kJ/mol
# Density = 2.439920 g / cm^3
# Si number density = 24.454858 Si / 1000 Ang^3
#
#
#
# Elastic Constant Matrix: (Units=GPa)
#
#
# Indices 1 2 3 4 5 6 
#
# 1 53.7401 -4.9027 47.8912 0.0000 7.7358 0.0000
# 2 -4.9027 68.3535 58.6723 0.0000 1.1063 0.0000
# 3 47.8912 58.6723 275.2798 0.0000 -9.4564 0.0000
# 4 0.0000 0.0000 0.0000 40.2113 0.0000 -6.1315
# 5 7.7358 1.1063 -9.4564 0.0000 34.3078 0.0000
# 6 0.0000 0.0000 0.0000 -6.1315 0.0000 1.0509
#
#
#
# Elastic Compliance Matrix: (Units=1/GPa)
#
#
# Indices 1 2 3 4 5 6 
#
# 1 0.026159 0.007520 -0.006426 0.000000 -0.007912 0.000000
# 2 0.007520 0.020160 -0.005740 0.000000 -0.003928 0.000000
# 3 -0.006426 -0.005740 0.006088 0.000000 0.003312 0.000000
# 4 0.000000 0.000000 0.000000 0.225310 0.000000 1.314524
# 5 -0.007912 -0.003928 0.003312 0.000000 0.031971 0.000000
# 6 0.000000 0.000000 0.000000 1.314524 0.000000 8.620841
#
#
# Mechanical properties :
#
#
# Convention : Reuss Voigt Hill
#
# Bulk Modulus (GPa) = 23.19361 66.74388 44.96874
# Shear Modulus (GPa) = 0.55840 34.82818 17.69329
#
# Velocity S-wave (km/s) = 0.47837 3.77793 2.69273
# Velocity P-wave (km/s) = 3.13208 6.81045 5.30058
#
# Compressibility (1/GPa) = 0.04311532
#
# Stress axis : x y z
#
# Youngs Moduli (GPa) = 38.22740 49.60383 164.26556
#
# Poissons Ratio (x) = -0.37301 1.05549
# Poissons Ratio (y) = -0.28746 0.94288
# Poissons Ratio (z) = 0.24563 0.28472
#
# Static dielectric constant tensor:
#      x y z
#    x 2.077160 0.000000 0.028840 
#    y 0.000000 1.958650 0.000000 
#    z 0.028840 0.000000 2.122820 
# 
# From -- ./inp_files/17671.got.cif
#   From: 2010.05.17/outbox.cif.g08.bks.cpg/sg11_9_cif.got.tgz:17671.got - 2010.06.03 12:22:45.
