data_PCOD9155884
_publ_section_title
;
Structure prediction by ZEFSAII (Michael W. Deem and Ramdas Pophale) SiO2 
 PCOD9155884
Probable space group: P 21/M
;
_chemical_formula_sum "Si O2"
_cell_formula_units_Z 28
_cell_length_a 23.272219
_cell_length_b 8.773616
_cell_length_c 16.896886
_cell_angle_alpha 90.000000
_cell_angle_beta 31.336940
_cell_angle_gamma 90.000000
_cell_volume 1794.257647
_symmetry_space_group_name_H-M "P 21/M"
_symmetry_group_IT_number 11
_symmetry_cell_setting 'monoclinic'
loop_
_space_group_symop_operation_xyz
x,y,z
-x,1/2+y,-z
-x,-y,-z
x,1/2-y,z
loop_
_atom_site_type_symbol
_atom_site_label
_atom_site_fract_x
_atom_site_fract_y
_atom_site_fract_z
Si Si1 0.665581 0.067242 0.276085
Si Si2 0.409101 0.932257 0.048701
Si Si3 0.572634 0.432466 0.155893
Si Si4 0.038419 0.067030 0.335053
Si Si5 0.168612 0.068272 0.342786
Si Si6 0.784093 0.932885 0.999450
Si Si7 0.453561 0.932028 0.433052
O O1 0.658622 0.250000 0.275357
O O2 0.649592 0.031695 0.387928
O O3 0.767865 0.003984 0.105498
O O4 0.560486 0.990638 0.356127
O O5 0.410399 0.750000 0.051953
O O6 0.287224 0.992336 0.212569
O O7 0.433814 0.975456 0.928321
O O8 0.500000 0.000000 0.000000
O O9 0.581412 0.250000 0.152346
O O10 0.682548 0.506105 0.065076
O O11 0.469300 0.490039 0.329789
O O12 0.023605 0.250000 0.354478
O O13 0.117082 0.026482 0.317332
O O14 0.103828 0.026251 0.178470
O O15 0.921891 0.987569 0.487604
O O16 0.179739 0.250000 0.332413
O O17 0.775966 0.750000 0.013340
O O18 0.459963 0.750000 0.416815
#
# Coordination Sequence:
#
# PCOD9155884 Si02
#       7
#     4   4   4   4   4   4   4
#     4   9  16  24  35  56  84 114 147 180 215 259
#     4  11  23  36  50  67  90 119 154 195 234 273
#     4  10  19  29  43  62  84 113 150 188 225 267
#     4   9  18  30  45  67  93 120 152 187 224 272
#     4  10  19  32  49  67  89 118 152 190 231 271
#     4  10  17  26  42  63  89 120 150 182 220 265
#     4   9  16  25  38  55  80 114 147 180 218 262
#
# _framework density 15.605339000000001
#
# number of rings (size 3 to 8) (size 9 to 14) (size 15 to 20)
#    0.000    2.286    1.429    4.286    0.000    5.143 
#    0.000    0.000    0.000    0.000    0.000    0.000 
#    0.000    1.143    0.000    3.714    0.000    6.000 
#
# Total GULP energy -156000.896748 kJ/mol
# GULP energy per Si atom -5571.460598 kJ/mol
# Density = 1.556982 g / cm^3
# Si number density = 15.605339 Si / 1000 Ang^3
#
#
#
# Elastic Constant Matrix: (Units=GPa)
#
#
# Indices 1 2 3 4 5 6 
#
# 1 51.3903 24.0754 55.5402 0.0000 5.2762 0.0000
# 2 24.0754 37.5596 36.4258 0.0000 4.1536 0.0000
# 3 55.5402 36.4258 139.1338 0.0000 26.1937 0.0000
# 4 0.0000 0.0000 0.0000 28.5710 0.0000 3.9891
# 5 5.2762 4.1536 26.1937 0.0000 22.2330 0.0000
# 6 0.0000 0.0000 0.0000 3.9891 0.0000 18.2146
#
#
#
# Elastic Compliance Matrix: (Units=1/GPa)
#
#
# Indices 1 2 3 4 5 6 
#
# 1 0.040144 -0.012690 -0.014592 0.000000 0.010035 0.000000
# 2 -0.012690 0.040243 -0.005939 0.000000 0.002490 0.000000
# 3 -0.014592 -0.005939 0.017613 0.000000 -0.016178 0.000000
# 4 0.000000 0.000000 0.000000 0.036104 0.000000 -0.007907
# 5 0.010035 0.002490 -0.016178 0.000000 0.061191 0.000000
# 6 0.000000 0.000000 0.000000 -0.007907 0.000000 0.056633
#
#
# Mechanical properties :
#
#
# Convention : Reuss Voigt Hill
#
# Bulk Modulus (GPa) = 31.68798 51.12959 41.40878
# Shear Modulus (GPa) = 15.20271 21.27321 18.23796
#
# Velocity S-wave (km/s) = 3.12460 3.69616 3.42233
# Velocity P-wave (km/s) = 5.77646 7.14498 6.49685
#
# Compressibility (1/GPa) = 0.03155771
#
# Stress axis : x y z
#
# Youngs Moduli (GPa) = 24.91039 24.84910 56.77747
#
# Poissons Ratio (x) = 0.31534 0.82848
# Poissons Ratio (y) = 0.31612 0.33719
# Poissons Ratio (z) = 0.36349 0.14757
#
# Static dielectric constant tensor:
#      x y z
#    x 1.495420 0.000000 0.047630 
#    y 0.000000 1.520600 0.000000 
#    z 0.047630 0.000000 1.561040 
# 
# From -- ./inp_files/61689.got.cif
#   From: 2010.05.17/outbox.cif.g08.bks.cpg/sg11_31_cif.got.tgz:61689.got - 2010.06.03 12:22:45.
