data_PCOD9155995
_publ_section_title
;
Structure prediction by ZEFSAII (Michael W. Deem and Ramdas Pophale) SiO2 
 PCOD9155995
Probable space group: P 21/M
;
_chemical_formula_sum "Si O2"
_cell_formula_units_Z 32
_cell_length_a 12.120144
_cell_length_b 13.983243
_cell_length_c 15.520338
_cell_angle_alpha 90.000000
_cell_angle_beta 142.037318
_cell_angle_gamma 90.000000
_cell_volume 1618.067161
_symmetry_space_group_name_H-M "P 21/M"
_symmetry_group_IT_number 11
_symmetry_cell_setting 'monoclinic'
loop_
_space_group_symop_operation_xyz
x,y,z
-x,1/2+y,-z
-x,-y,-z
x,1/2-y,z
loop_
_atom_site_type_symbol
_atom_site_label
_atom_site_fract_x
_atom_site_fract_y
_atom_site_fract_z
Si Si1 0.470183 0.862914 0.220320
Si Si2 0.924094 0.034278 0.363222
Si Si3 0.967568 0.142292 0.685731
Si Si4 0.293591 0.525907 0.378638
Si Si5 0.867599 0.365580 0.882399
Si Si6 0.774736 0.639134 0.547048
Si Si7 0.473311 0.982075 0.881814
Si Si8 0.788020 0.858102 0.992373
O O1 0.492236 0.750000 0.221772
O O2 0.260706 0.881417 0.114477
O O3 0.600708 0.888813 0.381504
O O4 0.530950 0.919077 0.173661
O O5 0.720227 0.066314 0.245820
O O6 0.051997 0.115019 0.403105
O O7 0.000000 0.000000 0.500000
O O8 0.938799 0.939106 0.313146
O O9 0.965464 0.250000 0.648826
O O10 0.769684 0.102829 0.588067
O O11 0.076377 0.144910 0.842508
O O12 0.500000 0.500000 0.500000
O O13 0.225244 0.570890 0.248319
O O14 0.206420 0.427236 0.357588
O O15 0.853310 0.250000 0.855311
O O16 0.080332 0.388008 0.005851
O O17 0.758546 0.750000 0.558430
O O18 0.626302 0.922787 0.926061
O O19 0.500000 0.000000 0.000000
O O20 0.724716 0.750000 0.936429
#
# Coordination Sequence:
#
# PCOD9155995 Si02
#       8
#     4   4   4   4   4   4   4   4
#     4  10  21  38  62  89 117 156 204 248 297 363
#     4  11  22  38  58  84 115 153 201 249 301 355
#     4   9  19  35  56  82 113 153 199 239 289 362
#     4  10  17  28  56  89 119 148 191 247 292 342
#     4   9  18  36  62  91 119 157 205 247 294 364
#     4  10  21  36  55  85 123 160 197 243 298 358
#     4  12  24  39  61  88 117 154 206 255 301 354
#     4   9  19  37  61  84 113 154 196 241 296 358
#
# _framework density 19.776682000000001
#
# number of rings (size 3 to 8) (size 9 to 14) (size 15 to 20)
#    0.000    2.000    3.750    1.125    0.000    3.000 
#    0.000    0.000    0.000    0.750    0.000    0.000 
#    0.000    0.000    0.000    0.000    0.000    0.000 
#
# Total GULP energy -178330.403296 kJ/mol
# GULP energy per Si atom -5572.825103 kJ/mol
# Density = 1.973167 g / cm^3
# Si number density = 19.776682 Si / 1000 Ang^3
#
#
#
# Elastic Constant Matrix: (Units=GPa)
#
#
# Indices 1 2 3 4 5 6 
#
# 1 94.9124 15.5764 18.9642 0.0000 27.1971 0.0000
# 2 15.5764 57.4729 4.6881 0.0000 4.5167 0.0000
# 3 18.9642 4.6881 36.4467 0.0000 20.8710 0.0000
# 4 0.0000 0.0000 0.0000 22.2173 0.0000 2.5617
# 5 27.1971 4.5167 20.8710 0.0000 42.2076 0.0000
# 6 0.0000 0.0000 0.0000 2.5617 0.0000 25.7305
#
#
#
# Elastic Compliance Matrix: (Units=1/GPa)
#
#
# Indices 1 2 3 4 5 6 
#
# 1 0.013583 -0.002907 -0.002594 0.000000 -0.007158 0.000000
# 2 -0.002907 0.018241 -0.001100 0.000000 0.000465 0.000000
# 3 -0.002594 -0.001100 0.038927 0.000000 -0.017459 0.000000
# 4 0.000000 0.000000 0.000000 0.045533 0.000000 -0.004533
# 5 -0.007158 0.000465 -0.017459 0.000000 0.036888 0.000000
# 6 0.000000 0.000000 0.000000 -0.004533 0.000000 0.039316
#
#
# Mechanical properties :
#
#
# Convention : Reuss Voigt Hill
#
# Bulk Modulus (GPa) = 17.37713 29.69883 23.53798
# Shear Modulus (GPa) = 22.23490 28.00464 25.11977
#
# Velocity S-wave (km/s) = 3.35669 3.76712 3.56781
# Velocity P-wave (km/s) = 4.88149 5.82849 5.37588
#
# Compressibility (1/GPa) = 0.05754692
#
# Stress axis : x y z
#
# Youngs Moduli (GPa) = 73.62311 54.82296 25.68940
#
# Poissons Ratio (x) = 0.15937 0.06665
# Poissons Ratio (y) = 0.21402 0.02826
# Poissons Ratio (z) = 0.19101 0.06031
#
# Static dielectric constant tensor:
#      x y z
#    x 1.734500 0.000000 0.017200 
#    y 0.000000 1.713040 0.000000 
#    z 0.017200 0.000000 1.700520 
# 
# From -- ./inp_files/50412.got.cif
#   From: 2010.05.17/outbox.cif.g08.bks.cpg/sg11_26_cif.got.tgz:50412.got - 2010.06.03 12:22:45.
