data_PCOD9155529
_publ_section_title
;
Structure prediction by ZEFSAII (Michael W. Deem and Ramdas Pophale) SiO2 
 PCOD9155529
Probable space group: P 2/M
;
_chemical_formula_sum "Si O2"
_cell_formula_units_Z 32
_cell_length_a 24.000000
_cell_length_b 9.000000
_cell_length_c 15.000000
_cell_angle_alpha 90.000000
_cell_angle_beta 150.000000
_cell_angle_gamma 90.000000
_cell_volume 1620.000000
_symmetry_space_group_name_H-M "P 2/M"
_symmetry_group_IT_number 10
_symmetry_cell_setting 'monoclinic'
loop_
_space_group_symop_operation_xyz
x,y,z
-x,y,-z
-x,-y,-z
x,-y,z
loop_
_atom_site_type_symbol
_atom_site_label
_atom_site_fract_x
_atom_site_fract_y
_atom_site_fract_z
Si Si1 0.013977 0.320595 0.752756
Si Si2 0.887357 0.679568 0.295415
Si Si3 0.774244 0.821226 0.434114
Si Si4 0.523205 0.820193 0.770128
Si Si5 0.716095 0.679749 0.544941
Si Si6 0.617477 0.177039 0.711270
Si Si7 0.323444 0.319667 0.875205
Si Si8 0.811777 0.677826 0.863745
O O1 0.993191 0.500000 0.718936
O O2 0.098085 0.280783 0.788214
O O3 0.898944 0.234215 0.583356
O O4 0.072531 0.284581 0.927465
O O5 0.886014 0.500000 0.296283
O O6 0.781410 0.725143 0.206587
O O7 0.000000 0.730810 0.500000
O O8 0.747177 0.754369 0.494069
O O9 0.696472 0.749140 0.249780
O O10 0.765769 0.000000 0.422385
O O11 0.403072 0.745733 0.590781
O O12 0.600436 0.780929 0.791493
O O13 0.514682 0.000000 0.762491
O O14 0.572951 0.751339 0.929298
O O15 0.712164 0.500000 0.529882
O O16 0.798096 0.717939 0.741103
O O17 0.500000 0.208037 0.500000
O O18 0.714252 0.254617 0.789681
O O19 0.636102 0.000000 0.733952
O O20 0.330183 0.500000 0.880061
O O21 0.800629 0.500000 0.853309
#
# Coordination Sequence:
#
# PCOD9155529 Si02
#       8
#     4   4   4   4   4   4   4   4
#     4  10  20  39  63  90 124 160 199 247 302 357
#     4   9  16  31  60  92 120 155 194 237 293 355
#     4  12  26  43  62  88 120 159 204 252 306 366
#     4  11  23  40  62  92 128 163 201 247 300 362
#     4  11  24  43  64  88 117 158 210 259 305 354
#     4  10  20  36  60  90 129 170 198 235 303 370
#     4  11  22  40  66  93 123 160 202 250 303 359
#     4  10  22  38  63  94 122 157 207 259 300 351
#
# _framework density 19.753086
#
# number of rings (size 3 to 8) (size 9 to 14) (size 15 to 20)
#    0.000    1.500    2.500    3.000    0.000    4.250 
#    0.000    6.875    0.000    0.000    0.000    0.000 
#    0.000    0.000    0.000    0.000    0.000    0.000 
#
# Total GULP energy -178772.336169 kJ/mol
# GULP energy per Si atom -5586.635505 kJ/mol
# Density = 1.970813 g / cm^3
# Si number density = 19.753086 Si / 1000 Ang^3
#
#
#
# Elastic Constant Matrix: (Units=GPa)
#
#
# Indices 1 2 3 4 5 6 
#
# 1 81.5152 23.5955 8.9797 0.0000 -35.2858 0.0000
# 2 23.5955 67.5743 22.1951 0.0000 -19.9806 0.0000
# 3 8.9797 22.1951 80.4126 0.0000 -42.7947 0.0000
# 4 0.0000 0.0000 0.0000 18.9708 0.0000 -0.7403
# 5 -35.2858 -19.9806 -42.7947 0.0000 39.7871 0.0000
# 6 0.0000 0.0000 0.0000 -0.7403 0.0000 31.6434
#
#
#
# Elastic Compliance Matrix: (Units=1/GPa)
#
#
# Indices 1 2 3 4 5 6 
#
# 1 0.039874 -0.004484 0.033692 0.000000 0.069350 0.000000
# 2 -0.004484 0.017888 -0.004145 0.000000 0.000549 0.000000
# 3 0.033692 -0.004145 0.057561 0.000000 0.089711 0.000000
# 4 0.000000 0.000000 0.000000 0.052761 0.000000 0.001234
# 5 0.069350 0.000549 0.089711 0.000000 0.183406 0.000000
# 6 0.000000 0.000000 0.000000 0.001234 0.000000 0.031631
#
#
# Mechanical properties :
#
#
# Convention : Reuss Voigt Hill
#
# Bulk Modulus (GPa) = 6.04411 37.67140 21.85776
# Shear Modulus (GPa) = 12.88187 29.72903 21.30545
#
# Velocity S-wave (km/s) = 2.55648 3.88368 3.28775
# Velocity P-wave (km/s) = 3.43229 6.26284 5.04994
#
# Compressibility (1/GPa) = 0.16545022
#
# Stress axis : x y z
#
# Youngs Moduli (GPa) = 25.07901 55.90443 17.37299
#
# Poissons Ratio (x) = 0.25066 -0.58534
# Poissons Ratio (y) = 0.11245 0.07200
# Poissons Ratio (z) = -0.84497 0.23170
#
# Static dielectric constant tensor:
#      x y z
#    x 1.693720 0.000000 -0.010030 
#    y 0.000000 1.653400 0.000000 
#    z -0.010030 0.000000 1.728720 
# 
# From -- ./inp_files/71583.got.cif
#   From: 2010.05.17/outbox.ucp.g08.bks.cvg/sg10_36_cif.got.tgz:71583.got - 2010.06.11 11:31:16.
