data_PCOD9155361
_publ_section_title
;
Structure prediction by ZEFSAII (Michael W. Deem and Ramdas Pophale) SiO2 
 PCOD9155361
Probable space group: P 2/M
;
_chemical_formula_sum "Si O2"
_cell_formula_units_Z 28
_cell_length_a 12.000000
_cell_length_b 9.000000
_cell_length_c 15.000000
_cell_angle_alpha 90.000000
_cell_angle_beta 60.000000
_cell_angle_gamma 90.000000
_cell_volume 1402.961154
_symmetry_space_group_name_H-M "P 2/M"
_symmetry_group_IT_number 10
_symmetry_cell_setting 'monoclinic'
loop_
_space_group_symop_operation_xyz
x,y,z
-x,y,-z
-x,-y,-z
x,-y,z
loop_
_atom_site_type_symbol
_atom_site_label
_atom_site_fract_x
_atom_site_fract_y
_atom_site_fract_z
Si Si1 0.794241 0.174265 0.829396
Si Si2 0.488632 0.822403 0.641250
Si Si3 0.680227 0.326466 0.427221
Si Si4 0.871328 0.833741 0.110801
Si Si5 0.544978 0.177716 0.822207
Si Si6 0.079897 0.830458 0.699712
Si Si7 0.290406 0.673825 0.964805
O O1 0.680413 0.222363 0.809884
O O2 0.933334 0.184815 0.729970
O O3 0.775439 0.000000 0.861131
O O4 0.793435 0.267742 0.919769
O O5 0.364287 0.741409 0.650050
O O6 0.600428 0.763826 0.532103
O O7 0.524307 0.781724 0.727380
O O8 0.473733 0.000000 0.640206
O O9 0.652341 0.500000 0.442363
O O10 0.828120 0.288848 0.380385
O O11 0.910598 0.810550 0.197023
O O12 0.773476 0.723630 0.102386
O O13 0.813572 0.000000 0.127090
O O14 0.000000 0.830889 0.000000
O O15 0.427503 0.248642 0.921438
O O16 0.536475 0.000000 0.831362
O O17 0.123871 0.000000 0.663473
O O18 0.304306 0.500000 0.961734
#
# Coordination Sequence:
#
# PCOD9155361 Si02
#       7
#     4   4   4   4   4   4   4
#     4  10  21  40  60  79 108 149 195 237 272 321
#     4  10  20  38  62  87 111 140 184 234 279 325
#     4  11  22  36  58  87 117 147 177 220 281 342
#     4  10  19  35  57  80 107 145 188 230 274 321
#     4  10  22  39  61  83 106 144 194 239 277 323
#     4  10  20  36  59  83 110 146 187 231 278 326
#     4  12  24  35  53  83 118 152 185 228 283 338
#
# _framework density 19.957787
#
# number of rings (size 3 to 8) (size 9 to 14) (size 15 to 20)
#    0.000    1.571    1.429    5.143    0.000    8.286 
#    0.000    0.714    0.000    4.286    0.000    0.000 
#    0.000    0.000    0.000    0.000    0.000    0.000 
#
# Total GULP energy -156353.573214 kJ/mol
# GULP energy per Si atom -5584.056186 kJ/mol
# Density = 1.991236 g / cm^3
# Si number density = 19.957787 Si / 1000 Ang^3
#
#
#
# Elastic Constant Matrix: (Units=GPa)
#
#
# Indices 1 2 3 4 5 6 
#
# 1 71.3535 14.6198 6.1751 0.0000 -10.5966 0.0000
# 2 14.6198 -30.0779 17.1565 0.0000 -1.3400 0.0000
# 3 6.1751 17.1565 36.7712 0.0000 -9.7668 0.0000
# 4 0.0000 0.0000 0.0000 159.4652 0.0000 -426.5725
# 5 -10.5966 -1.3400 -9.7668 0.0000 17.0465 0.0000
# 6 0.0000 0.0000 0.0000 -426.5725 0.0000 965.0885
#
#
#
# Elastic Compliance Matrix: (Units=1/GPa)
#
#
# Indices 1 2 3 4 5 6 
#
# 1 0.014362 0.005083 -0.002720 0.000000 0.007769 0.000000
# 2 0.005083 -0.023975 0.012587 0.000000 0.008487 0.000000
# 3 -0.002720 0.012587 0.025469 0.000000 0.013891 0.000000
# 4 0.000000 0.000000 0.000000 -0.034386 0.000000 -0.015199
# 5 0.007769 0.008487 0.013891 0.000000 0.072119 0.000000
# 6 0.000000 0.000000 0.000000 -0.015199 0.000000 -0.005682
#
#
# Mechanical properties :
#
#
# Convention : Reuss Voigt Hill
#
# Bulk Modulus (GPa) = 21.85505 17.10552 19.48029
# Shear Modulus (GPa) = 150.33258 230.99305 190.66282
#
# Velocity S-wave (km/s) = 8.68843 10.76996 9.78470
# Velocity P-wave (km/s) = 10.56533 12.77676 11.72330
#
# Compressibility (1/GPa) = 0.04575601
#
# Stress axis : x y z
#
# Youngs Moduli (GPa) = 69.62635 -41.71033 39.26344
#
# Poissons Ratio (x) = 0.21203 0.10680
# Poissons Ratio (y) = -0.35393 -0.49419
# Poissons Ratio (z) = 0.18939 0.52499
#
# Static dielectric constant tensor:
#      x y z
#    x 1.729010 0.000000 -0.040620 
#    y 0.000000 1.682080 0.000000 
#    z -0.040620 0.000000 1.737300 
# 
# From -- ./inp_files/50080.got.cif
#   From: 2010.05.17/outbox.ucp.g08.bks.cvg/sg10_26_cif.got.tgz:50080.got - 2010.06.11 11:31:16.
