data_PCOD9155223
_publ_section_title
;
Structure prediction by ZEFSAII (Michael W. Deem and Ramdas Pophale) SiO2 
 PCOD9155223
Probable space group: P 2/M
;
_chemical_formula_sum "Si O2"
_cell_formula_units_Z 32
_cell_length_a 15.000000
_cell_length_b 15.000000
_cell_length_c 12.000000
_cell_angle_alpha 90.000000
_cell_angle_beta 40.000000
_cell_angle_gamma 90.000000
_cell_volume 1735.526546
_symmetry_space_group_name_H-M "P 2/M"
_symmetry_group_IT_number 10
_symmetry_cell_setting 'monoclinic'
loop_
_space_group_symop_operation_xyz
x,y,z
-x,y,-z
-x,-y,-z
x,-y,z
loop_
_atom_site_type_symbol
_atom_site_label
_atom_site_fract_x
_atom_site_fract_y
_atom_site_fract_z
Si Si1 0.740868 0.214820 0.835648
Si Si2 0.877947 0.106236 0.243483
Si Si3 0.106080 0.243642 0.078221
Si Si4 0.973853 0.399188 0.332151
Si Si5 0.775129 0.101289 0.590702
Si Si6 0.222712 0.600519 0.277471
Si Si7 0.353938 0.808448 0.698678
Si Si8 0.546435 0.101483 0.167375
O O1 0.842661 0.216660 0.845966
O O2 0.802299 0.167710 0.666910
O O3 0.694211 0.313849 0.843711
O O4 0.615555 0.158876 0.004606
O O5 0.852895 0.116787 0.400400
O O6 0.745481 0.141553 0.297536
O O7 0.016270 0.167063 0.103086
O O8 0.896412 0.000000 0.203391
O O9 0.011760 0.329599 0.198874
O O10 0.243738 0.257179 0.868884
O O11 0.960533 0.500000 0.301388
O O12 0.841169 0.380497 0.538567
O O13 0.097774 0.400450 0.305683
O O14 0.616128 0.106789 0.701504
O O15 0.802037 0.000000 0.603386
O O16 0.282201 0.500000 0.220893
O O17 0.500000 0.777740 0.500000
O O18 0.408246 0.867377 0.752084
O O19 0.593119 0.000000 0.110512
#
# Coordination Sequence:
#
# PCOD9155223 Si02
#       8
#     4   4   4   4   4   4   4   4
#     4  10  19  31  50  79 115 143 168 213 273 328
#     4  11  23  37  54  79 110 144 184 233 278 312
#     4  10  22  35  54  86 114 138 174 227 279 326
#     4   8  14  29  53  80 110 142 176 215 264 325
#     4  10  20  33  51  74 105 145 185 220 261 322
#     4   8  14  26  48  77 109 143 176 211 256 318
#     4  11  22  39  59  75 101 145 194 236 273 315
#     4  10  20  34  53  75 100 141 194 233 262 310
#
# _framework density 18.438207999999999
#
# number of rings (size 3 to 8) (size 9 to 14) (size 15 to 20)
#    0.000    2.250    1.250    3.000    0.000    6.500 
#    0.000    1.250    0.000    3.375    0.000    0.000 
#    0.000    0.000    0.000    0.000    0.000    0.000 
#
# Total GULP energy -178174.110639 kJ/mol
# GULP energy per Si atom -5567.940957 kJ/mol
# Density = 1.839624 g / cm^3
# Si number density = 18.438208 Si / 1000 Ang^3
#
#
#
# Elastic Constant Matrix: (Units=GPa)
#
#
# Indices 1 2 3 4 5 6 
#
# 1 59.4241 16.4367 21.0330 0.0000 15.7309 0.0000
# 2 16.4367 82.4153 45.3760 0.0000 10.7497 0.0000
# 3 21.0330 45.3760 96.7207 0.0000 10.7280 0.0000
# 4 0.0000 0.0000 0.0000 20.5362 0.0000 1.4007
# 5 15.7309 10.7497 10.7280 0.0000 29.1599 0.0000
# 6 0.0000 0.0000 0.0000 1.4007 0.0000 -3.6680
#
#
#
# Elastic Compliance Matrix: (Units=1/GPa)
#
#
# Indices 1 2 3 4 5 6 
#
# 1 0.020752 -0.001326 -0.002818 0.000000 -0.009670 0.000000
# 2 -0.001326 0.016763 -0.007266 0.000000 -0.002791 0.000000
# 3 -0.002818 -0.007266 0.014486 0.000000 -0.001130 0.000000
# 4 0.000000 0.000000 0.000000 0.047458 0.000000 0.018123
# 5 -0.009670 -0.002791 -0.001130 0.000000 0.040955 0.000000
# 6 0.000000 0.000000 0.000000 0.018123 0.000000 -0.265706
#
#
# Mechanical properties :
#
#
# Convention : Reuss Voigt Hill
#
# Bulk Modulus (GPa) = 34.26954 44.91681 39.59317
# Shear Modulus (GPa) = -53.91203 19.58659 -17.16272
#
# Velocity S-wave (km/s) = -5.41320 3.26280 -3.05425
# Velocity P-wave (km/s) = 4.52149 6.21354 3.01366
#
# Compressibility (1/GPa) = 0.02918044
#
# Stress axis : x y z
#
# Youngs Moduli (GPa) = 48.18773 59.65601 69.03108
#
# Poissons Ratio (x) = 0.07910 0.19455
# Poissons Ratio (y) = 0.06389 0.50160
# Poissons Ratio (z) = 0.13580 0.43348
#
# Static dielectric constant tensor:
#      x y z
#    x 1.619880 0.000000 -0.022620 
#    y 0.000000 1.661960 0.000000 
#    z -0.022620 0.000000 1.702620 
# 
# From -- ./inp_files/51621.got.cif
#   From: 2010.05.17/outbox.ucp.g08.bks.cvg/sg10_26_cif.got.tgz:51621.got - 2010.06.11 11:31:16.
