data_PCOD9155424
_publ_section_title
;
Structure prediction by ZEFSAII (Michael W. Deem and Ramdas Pophale) SiO2 
 PCOD9155424
Probable space group: P 2/M
;
_chemical_formula_sum "Si O2"
_cell_formula_units_Z 32
_cell_length_a 30.000000
_cell_length_b 9.000000
_cell_length_c 12.000000
_cell_angle_alpha 90.000000
_cell_angle_beta 150.000000
_cell_angle_gamma 90.000000
_cell_volume 1620.000000
_symmetry_space_group_name_H-M "P 2/M"
_symmetry_group_IT_number 10
_symmetry_cell_setting 'monoclinic'
loop_
_space_group_symop_operation_xyz
x,y,z
-x,y,-z
-x,-y,-z
x,-y,z
loop_
_atom_site_type_symbol
_atom_site_label
_atom_site_fract_x
_atom_site_fract_y
_atom_site_fract_z
Si Si1 0.741996 0.825057 0.854683
Si Si2 0.814682 0.666016 0.805957
Si Si3 0.897421 0.165954 0.802745
Si Si4 0.621401 0.177967 0.024183
Si Si5 0.909053 0.819143 0.368774
Si Si6 0.437411 0.678378 0.619054
Si Si7 0.372425 0.330373 0.723918
Si Si8 0.819106 0.180737 0.398136
O O1 0.795027 0.785898 0.857085
O O2 0.647570 0.741622 0.633092
O O3 0.724478 0.000000 0.828731
O O4 0.815196 0.779766 0.105171
O O5 0.827058 0.500000 0.878720
O O6 0.890616 0.723655 0.890671
O O7 0.727825 0.663655 0.539349
O O8 0.850374 0.224077 0.589299
O O9 0.859672 0.000000 0.747507
O O10 0.000000 0.148340 0.000000
O O11 0.626052 0.228481 0.164103
O O12 0.714135 0.222692 0.163831
O O13 0.613479 0.000000 0.000779
O O14 0.531468 0.254558 0.784433
O O15 0.887964 0.770429 0.450483
O O16 0.000000 0.768817 0.500000
O O17 0.914554 0.000000 0.380223
O O18 0.435812 0.500000 0.609469
O O19 0.425530 0.716580 0.726431
O O20 0.398709 0.500000 0.811828
O O21 0.821115 0.000000 0.399958
#
# Coordination Sequence:
#
# PCOD9155424 Si02
#       8
#     4   4   4   4   4   4   4   4
#     4  10  20  35  59  87 112 143 195 244 283 334
#     4  10  20  34  53  78 116 156 186 226 285 344
#     4  10  20  33  55  84 115 149 190 237 285 339
#     4  11  20  31  52  81 114 149 187 235 283 337
#     4   9  19  36  61  88 113 145 186 238 294 344
#     4  10  21  36  54  78 113 155 191 231 284 340
#     4   9  18  32  49  72 107 151 189 222 270 335
#     4   9  19  35  53  83 121 149 183 237 294 338
#
# _framework density 19.753086
#
# number of rings (size 3 to 8) (size 9 to 14) (size 15 to 20)
#    0.000    2.250    1.250    2.625    1.750    4.250 
#    0.000    0.625    0.000    9.750    0.000    0.000 
#    0.000    0.000    0.000    0.000    0.000    0.000 
#
# Total GULP energy -178312.296536 kJ/mol
# GULP energy per Si atom -5572.259267 kJ/mol
# Density = 1.970813 g / cm^3
# Si number density = 19.753086 Si / 1000 Ang^3
#
#
#
# Elastic Constant Matrix: (Units=GPa)
#
#
# Indices 1 2 3 4 5 6 
#
# 1 43.8371 3.1687 15.4065 0.0000 22.2577 0.0000
# 2 3.1687 26.4071 8.8235 0.0000 2.9782 0.0000
# 3 15.4065 8.8235 50.1174 0.0000 6.8755 0.0000
# 4 0.0000 0.0000 0.0000 5.1143 0.0000 -5.7830
# 5 22.2577 2.9782 6.8755 0.0000 28.8382 0.0000
# 6 0.0000 0.0000 0.0000 -5.7830 0.0000 -0.8268
#
#
#
# Elastic Compliance Matrix: (Units=1/GPa)
#
#
# Indices 1 2 3 4 5 6 
#
# 1 0.040772 0.001352 -0.008721 0.000000 -0.029529 0.000000
# 2 0.001352 0.040463 -0.007054 0.000000 -0.003540 0.000000
# 3 -0.008721 -0.007054 0.023625 0.000000 0.001826 0.000000
# 4 0.000000 0.000000 0.000000 0.021949 0.000000 -0.153511
# 5 -0.029529 -0.003540 0.001826 0.000000 0.057397 0.000000
# 6 0.000000 0.000000 0.000000 -0.153511 0.000000 -0.135762
#
#
# Mechanical properties :
#
#
# Convention : Reuss Voigt Hill
#
# Bulk Modulus (GPa) = 13.15540 19.46213 16.30877
# Shear Modulus (GPa) = 48.72037 12.82266 30.77152
#
# Velocity S-wave (km/s) = 4.97174 2.55060 3.95119
# Velocity P-wave (km/s) = 6.29540 4.30676 5.39352
#
# Compressibility (1/GPa) = 0.07601441
#
# Stress axis : x y z
#
# Youngs Moduli (GPa) = 24.52684 24.71423 42.32770
#
# Poissons Ratio (x) = -0.03341 0.36912
# Poissons Ratio (y) = -0.03315 0.29856
# Poissons Ratio (z) = 0.21389 0.17432
#
# Static dielectric constant tensor:
#      x y z
#    x 1.728620 0.000000 0.003600 
#    y 0.000000 1.704190 0.000000 
#    z 0.003600 0.000000 1.740130 
# 
# From -- ./inp_files/58250.got.cif
#   From: 2010.05.17/outbox.ucp.g08.bks.cvg/sg10_30_cif.got.tgz:58250.got - 2010.06.11 11:31:16.
