data_PCOD9155772
_publ_section_title
;
Structure prediction by ZEFSAII (Michael W. Deem and Ramdas Pophale) SiO2 
 PCOD9155772
Probable space group: P 21/M
;
_chemical_formula_sum "Si O2"
_cell_formula_units_Z 32
_cell_length_a 19.204898
_cell_length_b 13.709077
_cell_length_c 10.089375
_cell_angle_alpha 90.000000
_cell_angle_beta 144.590576
_cell_angle_gamma 90.000000
_cell_volume 1539.126785
_symmetry_space_group_name_H-M "P 21/M"
_symmetry_group_IT_number 11
_symmetry_cell_setting 'monoclinic'
loop_
_space_group_symop_operation_xyz
x,y,z
-x,1/2+y,-z
-x,-y,-z
x,1/2-y,z
loop_
_atom_site_type_symbol
_atom_site_label
_atom_site_fract_x
_atom_site_fract_y
_atom_site_fract_z
Si Si1 0.570146 0.063262 0.429530
Si Si2 0.192657 0.015608 0.930014
Si Si3 0.666386 0.367822 0.323407
Si Si4 0.006629 0.640988 0.381125
Si Si5 0.712395 0.139210 0.101215
Si Si6 0.610005 0.635401 0.627116
Si Si7 0.072067 0.583759 0.189758
Si Si8 0.168458 0.854540 0.080081
O O1 0.566196 0.094680 0.269995
O O2 0.475778 0.115261 0.379601
O O3 0.698814 0.107916 0.675556
O O4 0.572210 0.946604 0.459685
O O5 0.088362 0.072178 0.692708
O O6 0.291540 0.950543 0.006508
O O7 0.260767 0.096488 0.122868
O O8 0.123272 0.936420 0.911413
O O9 0.688659 0.250000 0.378399
O O10 0.643503 0.378919 0.131836
O O11 0.788648 0.428583 0.546072
O O12 0.964788 0.750000 0.337386
O O13 0.144965 0.637061 0.641192
O O14 0.008863 0.619553 0.225675
O O15 0.681860 0.250000 0.008755
O O16 0.608163 0.750000 0.587917
O O17 0.093396 0.652749 0.097129
O O18 0.000000 0.500000 0.000000
O O19 0.174240 0.750000 0.022493
#
# Coordination Sequence:
#
# PCOD9155772 Si02
#       8
#     4   4   4   4   4   4   4   4
#     4   9  18  33  55  76  98 130 165 199 245 296
#     4  11  20  31  46  72 100 133 164 202 249 295
#     4   9  17  32  54  74  94 127 169 208 246 288
#     4  10  19  32  48  66  94 134 168 199 246 298
#     4   9  19  34  52  71  93 125 173 217 242 281
#     4  10  20  33  51  78 106 131 160 197 247 303
#     4  10  16  27  44  71  98 120 157 204 250 293
#     4  10  18  29  48  71  98 126 161 209 249 290
#
# _framework density 20.791008000000001
#
# number of rings (size 3 to 8) (size 9 to 14) (size 15 to 20)
#    0.000    2.250    1.250    4.875    0.000    0.000 
#    0.000    1.250    0.000    1.500    0.000    0.000 
#    0.000    0.000    0.000    0.000    0.000    0.000 
#
# Total GULP energy -178154.949605 kJ/mol
# GULP energy per Si atom -5567.342175 kJ/mol
# Density = 2.074369 g / cm^3
# Si number density = 20.791008 Si / 1000 Ang^3
#
#
#
# Elastic Constant Matrix: (Units=GPa)
#
#
# Indices 1 2 3 4 5 6 
#
# 1 82.8544 18.3211 -4.5379 0.0000 -3.0790 0.0000
# 2 18.3211 132.3183 16.4077 0.0000 6.5817 0.0000
# 3 -4.5379 16.4077 29.8445 0.0000 2.9099 0.0000
# 4 0.0000 0.0000 0.0000 14.9705 0.0000 -5.9910
# 5 -3.0790 6.5817 2.9099 0.0000 22.8195 0.0000
# 6 0.0000 0.0000 0.0000 -5.9910 0.0000 22.1107
#
#
#
# Elastic Compliance Matrix: (Units=1/GPa)
#
#
# Indices 1 2 3 4 5 6 
#
# 1 0.012803 -0.002242 0.002985 0.000000 0.001993 0.000000
# 2 -0.002242 0.008576 -0.004845 0.000000 -0.002158 0.000000
# 3 0.002985 -0.004845 0.036908 0.000000 -0.002906 0.000000
# 4 0.000000 0.000000 0.000000 0.074922 0.000000 0.020301
# 5 0.001993 -0.002158 -0.002906 0.000000 0.045084 0.000000
# 6 0.000000 0.000000 0.000000 0.020301 0.000000 0.050727
#
#
# Mechanical properties :
#
#
# Convention : Reuss Voigt Hill
#
# Bulk Modulus (GPa) = 19.96729 33.93321 26.95025
# Shear Modulus (GPa) = 19.69129 26.30192 22.99660
#
# Velocity S-wave (km/s) = 3.08085 3.56063 3.32939
# Velocity P-wave (km/s) = 4.72019 5.76720 5.26976
#
# Compressibility (1/GPa) = 0.05008191
#
# Stress axis : x y z
#
# Youngs Moduli (GPa) = 78.10860 116.60249 27.09436
#
# Poissons Ratio (x) = 0.26142 -0.08087
# Poissons Ratio (y) = 0.17512 0.13128
# Poissons Ratio (z) = -0.23314 0.56498
#
# Static dielectric constant tensor:
#      x y z
#    x 1.806250 0.000000 -0.021080 
#    y 0.000000 1.811430 0.000000 
#    z -0.021080 0.000000 1.811690 
# 
# From -- ./inp_files/43143.got.cif
#   From: 2010.05.17/outbox.cif.g08.bks.cpg/sg11_22_cif.got.tgz:43143.got - 2010.06.03 12:22:45.
