data_PCOD9155888
_publ_section_title
;
Structure prediction by ZEFSAII (Michael W. Deem and Ramdas Pophale) SiO2 
 PCOD9155888
Probable space group: P 21/M
;
_chemical_formula_sum "Si O2"
_cell_formula_units_Z 28
_cell_length_a 14.697348
_cell_length_b 8.577138
_cell_length_c 14.553933
_cell_angle_alpha 90.000000
_cell_angle_beta 78.418738
_cell_angle_gamma 90.000000
_cell_volume 1797.333547
_symmetry_space_group_name_H-M "P 21/M"
_symmetry_group_IT_number 11
_symmetry_cell_setting 'monoclinic'
loop_
_space_group_symop_operation_xyz
x,y,z
-x,1/2+y,-z
-x,-y,-z
x,1/2-y,z
loop_
_atom_site_type_symbol
_atom_site_label
_atom_site_fract_x
_atom_site_fract_y
_atom_site_fract_z
Si Si1 0.301736 0.936684 0.632127
Si Si2 0.415598 0.064373 0.454180
Si Si3 0.855415 0.061330 0.200545
Si Si4 0.231059 0.437302 0.972309
Si Si5 0.042593 0.062417 0.086466
Si Si6 0.436363 0.935569 0.931597
Si Si7 0.470219 0.064192 0.723067
O O1 0.307744 0.750000 0.623444
O O2 0.203813 0.980883 0.697852
O O3 0.325423 0.010075 0.528647
O O4 0.381296 0.992424 0.687565
O O5 0.420087 0.250000 0.449727
O O6 0.500000 0.000000 0.500000
O O7 0.438686 0.994117 0.350154
O O8 0.849383 0.250000 0.191742
O O9 0.964489 0.016571 0.176650
O O10 0.806345 0.987046 0.120972
O O11 0.241622 0.250000 0.971906
O O12 0.329554 0.515759 0.969164
O O13 0.150263 0.485969 0.061076
O O14 0.043720 0.250000 0.083477
O O15 0.000000 0.000000 0.000000
O O16 0.443581 0.750000 0.924634
O O17 0.466748 0.008438 0.828110
O O18 0.500000 0.000000 0.000000
O O19 0.463998 0.250000 0.718539
#
# Coordination Sequence:
#
# PCOD9155888 Si02
#       7
#     4   4   4   4   4   4   4
#     4  10  17  26  42  65  92 122 153 184 220 263
#     4  10  18  28  42  61  86 117 151 184 221 266
#     4   9  16  26  42  63  91 123 153 183 218 262
#     4  10  18  29  45  63  87 117 151 188 227 265
#     4   8  15  26  40  61  86 116 150 182 217 262
#     4  12  24  37  50  66  87 115 154 193 231 270
#     4  11  20  32  47  63  86 115 149 187 229 269
#
# _framework density 15.578633
#
# number of rings (size 3 to 8) (size 9 to 14) (size 15 to 20)
#    0.000    2.000    1.429    6.429    0.000    1.143 
#    0.000    0.000    0.000    0.000    0.000    0.000 
#    0.000    1.143    0.000    3.143    0.000    4.571 
#
# Total GULP energy -156008.751271 kJ/mol
# GULP energy per Si atom -5571.741117 kJ/mol
# Density = 1.554318 g / cm^3
# Si number density = 15.578633 Si / 1000 Ang^3
#
#
#
# Elastic Constant Matrix: (Units=GPa)
#
#
# Indices 1 2 3 4 5 6 
#
# 1 75.3082 22.6521 59.6517 0.0000 -27.8073 0.0000
# 2 22.6521 69.5909 25.9576 0.0000 -11.2815 0.0000
# 3 59.6517 25.9576 96.5368 0.0000 -34.4508 0.0000
# 4 0.0000 0.0000 0.0000 22.7383 0.0000 -2.7659
# 5 -27.8073 -11.2815 -34.4508 0.0000 32.5430 0.0000
# 6 0.0000 0.0000 0.0000 -2.7659 0.0000 16.6482
#
#
#
# Elastic Compliance Matrix: (Units=1/GPa)
#
#
# Indices 1 2 3 4 5 6 
#
# 1 0.027949 -0.002670 -0.013436 0.000000 0.008733 0.000000
# 2 -0.002670 0.016278 -0.002455 0.000000 0.000763 0.000000
# 3 -0.013436 -0.002455 0.023979 0.000000 0.013054 0.000000
# 4 0.000000 0.000000 0.000000 0.044886 0.000000 0.007457
# 5 0.008733 0.000763 0.013054 0.000000 0.052274 0.000000
# 6 0.000000 0.000000 0.000000 0.007457 0.000000 0.061306
#
#
# Mechanical properties :
#
#
# Convention : Reuss Voigt Hill
#
# Bulk Modulus (GPa) = 32.17002 50.88431 41.52717
# Shear Modulus (GPa) = 18.23789 23.26422 20.75105
#
# Velocity S-wave (km/s) = 3.42526 3.86857 3.65364
# Velocity P-wave (km/s) = 6.02811 7.25867 6.67182
#
# Compressibility (1/GPa) = 0.03108484
#
# Stress axis : x y z
#
# Youngs Moduli (GPa) = 35.77965 61.43200 41.70250
#
# Poissons Ratio (x) = 0.16404 0.56030
# Poissons Ratio (y) = 0.09554 0.10237
# Poissons Ratio (z) = 0.48072 0.15081
#
# Static dielectric constant tensor:
#      x y z
#    x 1.498110 0.000000 -0.093200 
#    y 0.000000 1.522130 0.000000 
#    z -0.093200 0.000000 1.516540 
# 
# From -- ./inp_files/50972.got.cif
#   From: 2010.05.17/outbox.cif.g08.bks.cpg/sg11_26_cif.got.tgz:50972.got - 2010.06.03 12:22:45.
