data_PCOD9155477
_publ_section_title
;
Structure prediction by ZEFSAII (Michael W. Deem and Ramdas Pophale) SiO2 
 PCOD9155477
Probable space group: P 2/M
;
_chemical_formula_sum "Si O2"
_cell_formula_units_Z 28
_cell_length_a 15.000000
_cell_length_b 9.000000
_cell_length_c 21.000000
_cell_angle_alpha 90.000000
_cell_angle_beta 150.000000
_cell_angle_gamma 90.000000
_cell_volume 1417.500000
_symmetry_space_group_name_H-M "P 2/M"
_symmetry_group_IT_number 10
_symmetry_cell_setting 'monoclinic'
loop_
_space_group_symop_operation_xyz
x,y,z
-x,y,-z
-x,-y,-z
x,-y,z
loop_
_atom_site_type_symbol
_atom_site_label
_atom_site_fract_x
_atom_site_fract_y
_atom_site_fract_z
Si Si1 0.609224 0.820625 0.505758
Si Si2 0.159102 0.331063 0.048949
Si Si3 0.942213 0.321202 0.393837
Si Si4 0.601355 0.176917 0.222779
Si Si5 0.490326 0.176220 0.696634
Si Si6 0.041869 0.677691 0.316643
Si Si7 0.242462 0.327096 0.962180
O O1 0.500000 0.768999 0.500000
O O2 0.544063 0.765358 0.395692
O O3 0.809577 0.763297 0.631003
O O4 0.602206 0.000000 0.501179
O O5 0.232715 0.500000 0.100910
O O6 0.307873 0.214420 0.160731
O O7 0.117463 0.313287 0.948125
O O8 0.000000 0.318035 0.000000
O O9 0.949321 0.500000 0.398598
O O10 0.741790 0.262364 0.266606
O O11 0.039129 0.272078 0.388796
O O12 0.000000 0.267258 0.500000
O O13 0.614429 0.231293 0.305086
O O14 0.629101 0.000000 0.238463
O O15 0.406789 0.220454 0.077722
O O16 0.461011 0.000000 0.676462
O O17 0.075196 0.500000 0.335920
O O18 0.858300 0.703465 0.165600
O O19 0.302343 0.500000 0.997969
#
# Coordination Sequence:
#
# PCOD9155477 Si02
#       7
#     4   4   4   4   4   4   4
#     4  10  22  38  55  78 110 146 180 220 273 325
#     4   9  18  31  51  77 102 134 177 223 266 310
#     4  10  21  37  58  83 111 143 181 224 272 323
#     4  10  20  35  57  83 109 142 184 224 268 321
#     4   9  19  35  52  75 106 139 177 218 263 319
#     4  10  22  38  57  82 109 142 183 225 270 322
#     4   9  19  36  54  76 111 145 177 222 273 322
#
# _framework density 19.753086
#
# number of rings (size 3 to 8) (size 9 to 14) (size 15 to 20)
#    0.000    2.429    0.000    1.286    2.000    3.714 
#    0.000    2.857    0.000    0.000    0.000    0.000 
#    0.000    0.000    0.000    0.000    0.000    0.000 
#
# Total GULP energy -155957.390611 kJ/mol
# GULP energy per Si atom -5569.906808 kJ/mol
# Density = 1.970813 g / cm^3
# Si number density = 19.753086 Si / 1000 Ang^3
#
#
#
# Elastic Constant Matrix: (Units=GPa)
#
#
# Indices 1 2 3 4 5 6 
#
# 1 116.3874 10.7672 23.4325 0.0000 5.8533 0.0000
# 2 10.7672 -29.9657 0.6095 0.0000 -5.4290 0.0000
# 3 23.4325 0.6095 43.4167 0.0000 -12.1517 0.0000
# 4 0.0000 0.0000 0.0000 24.5302 0.0000 0.4971
# 5 5.8533 -5.4290 -12.1517 0.0000 23.4096 0.0000
# 6 0.0000 0.0000 0.0000 0.4971 0.0000 20.7741
#
#
#
# Elastic Compliance Matrix: (Units=1/GPa)
#
#
# Indices 1 2 3 4 5 6 
#
# 1 0.009801 0.004282 -0.006737 0.000000 -0.004955 0.000000
# 2 0.004282 -0.030021 -0.004842 0.000000 -0.010546 0.000000
# 3 -0.006737 -0.004842 0.031465 0.000000 0.016895 0.000000
# 4 0.000000 0.000000 0.000000 0.040786 0.000000 -0.000976
# 5 -0.004955 -0.010546 0.016895 0.000000 0.050280 0.000000
# 6 0.000000 0.000000 0.000000 -0.000976 0.000000 0.048160
#
#
# Mechanical properties :
#
#
# Convention : Reuss Voigt Hill
#
# Bulk Modulus (GPa) = -298.87599 22.16185 -138.35707
# Shear Modulus (GPa) = 30.49737 20.07808 25.28772
#
# Velocity S-wave (km/s) = 3.93355 3.19164 3.58186
# Velocity P-wave (km/s) = 11.44570 4.98256 7.28622
#
# Compressibility (1/GPa) = -0.00334587
#
# Stress axis : x y z
#
# Youngs Moduli (GPa) = 102.02719 -33.31048 31.78131
#
# Poissons Ratio (x) = 0.14265 0.21410
# Poissons Ratio (y) = -0.43692 0.15387
# Poissons Ratio (z) = 0.68732 -0.16127
#
# Static dielectric constant tensor:
#      x y z
#    x 1.721720 0.000000 0.001910 
#    y 0.000000 1.672220 0.000000 
#    z 0.001910 0.000000 1.735270 
# 
# From -- ./inp_files/49403.got.cif
#   From: 2010.05.17/outbox.ucp.g08.bks.cvg/sg10_25_cif.got.tgz:49403.got - 2010.06.11 11:31:16.
