data_PCOD9155776
_publ_section_title
;
Structure prediction by ZEFSAII (Michael W. Deem and Ramdas Pophale) SiO2 
 PCOD9155776
Probable space group: P 21/M
;
_chemical_formula_sum "Si O2"
_cell_formula_units_Z 12
_cell_length_a 22.070109
_cell_length_b 5.464526
_cell_length_c 10.986408
_cell_angle_alpha 90.000000
_cell_angle_beta 21.369613
_cell_angle_gamma 90.000000
_cell_volume 482.803866
_symmetry_space_group_name_H-M "P 21/M"
_symmetry_group_IT_number 11
_symmetry_cell_setting 'monoclinic'
loop_
_space_group_symop_operation_xyz
x,y,z
-x,1/2+y,-z
-x,-y,-z
x,1/2-y,z
loop_
_atom_site_type_symbol
_atom_site_label
_atom_site_fract_x
_atom_site_fract_y
_atom_site_fract_z
Si Si1 0.928135 0.750000 0.579426
Si Si2 0.379574 0.750000 0.140934
Si Si3 0.812698 0.750000 0.541191
Si Si4 0.537664 0.750000 0.357159
Si Si5 0.223766 0.250000 0.659789
Si Si6 0.713620 0.250000 0.395875
O O1 0.941777 0.750000 0.408467
O O2 0.000000 0.500000 0.500000
O O3 0.731639 0.750000 0.968194
O O4 0.294174 0.503002 0.250987
O O5 0.350292 0.750000 0.342344
O O6 0.575407 0.750000 0.743415
O O7 0.869276 0.750000 0.294572
O O8 0.500000 0.500000 0.500000
O O9 0.429465 0.750000 0.436792
O O10 0.190501 0.495452 0.793826
#
# Coordination Sequence:
#
# PCOD9155776 Si02
#       6
#     2   2   2   2   2   2
#     4  12  25  42  63  91 126 168 209 251 300 363
#     4  10  16  27  50  81 112 142 181 249 314 351
#     4  10  19  31  51  82 117 146 187 246 309 354
#     4  12  25  42  63  91 126 168 209 251 300 363
#     4  10  16  27  50  81 112 142 181 249 314 351
#     4  10  19  31  51  82 117 146 187 246 309 354
#
# _framework density 24.854811000000002
#
# number of rings (size 3 to 8) (size 9 to 14) (size 15 to 20)
#    0.000    1.333    0.000   11.000    0.000    0.000 
#    0.000    0.000    0.000    0.000    0.000   93.333 
#    0.000    0.000    0.000    0.000    0.000    0.000 
#
# Total GULP energy -67264.492311 kJ/mol
# GULP energy per Si atom -5605.374359 kJ/mol
# Density = 2.479824 g / cm^3
# Si number density = 24.854811 Si / 1000 Ang^3
#
#
#
# Elastic Constant Matrix: (Units=GPa)
#
#
# Indices 1 2 3 4 5 6 
#
# 1 201.0167 121.3162 61.8814 0.0000 -42.9219 0.0000
# 2 121.3162 309.3900 64.1250 0.0000 -24.4940 0.0000
# 3 61.8814 64.1250 81.0002 0.0000 -0.0725 0.0000
# 4 0.0000 0.0000 0.0000 47.3447 0.0000 -6.3501
# 5 -42.9219 -24.4940 -0.0725 0.0000 44.2420 0.0000
# 6 0.0000 0.0000 0.0000 -6.3501 0.0000 38.3988
#
#
#
# Elastic Compliance Matrix: (Units=1/GPa)
#
#
# Indices 1 2 3 4 5 6 
#
# 1 0.009751 -0.001935 -0.005910 0.000000 0.008379 0.000000
# 2 -0.001935 0.004464 -0.002055 0.000000 0.000590 0.000000
# 3 -0.005910 -0.002055 0.018481 0.000000 -0.006841 0.000000
# 4 0.000000 0.000000 0.000000 0.021601 0.000000 0.003572
# 5 0.008379 0.000590 -0.006841 0.000000 0.031048 0.000000
# 6 0.000000 0.000000 0.000000 0.003572 0.000000 0.026633
#
#
# Mechanical properties :
#
#
# Convention : Reuss Voigt Hill
#
# Bulk Modulus (GPa) = 77.54284 120.67244 99.10764
# Shear Modulus (GPa) = 36.74418 48.93604 42.84011
#
# Velocity S-wave (km/s) = 3.84911 4.44202 4.15615
# Velocity P-wave (km/s) = 7.14284 8.65823 7.93679
#
# Compressibility (1/GPa) = 0.01289610
#
# Stress axis : x y z
#
# Youngs Moduli (GPa) = 102.55201 224.03389 54.10929
#
# Poissons Ratio (x) = 0.43357 0.31978
# Poissons Ratio (y) = 0.19847 0.11118
# Poissons Ratio (z) = 0.60608 0.46031
#
# Static dielectric constant tensor:
#      x y z
#    x 1.946810 0.000000 0.032530 
#    y 0.000000 2.145950 0.000000 
#    z 0.032530 0.000000 1.992180 
# 
# From -- ./inp_files/42077.got.cif
#   From: 2010.05.17/outbox.cif.g08.bks.cpg/sg11_22_cif.got.tgz:42077.got - 2010.06.03 12:22:45.
