data_PCOD9155176
_publ_section_title
;
Structure prediction by ZEFSAII (Michael W. Deem and Ramdas Pophale) SiO2 
 PCOD9155176
Probable space group: P 2/M
;
_chemical_formula_sum "Si O2"
_cell_formula_units_Z 32
_cell_length_a 21.000000
_cell_length_b 9.000000
_cell_length_c 12.000000
_cell_angle_alpha 90.000000
_cell_angle_beta 130.000000
_cell_angle_gamma 90.000000
_cell_volume 1737.388797
_symmetry_space_group_name_H-M "P 2/M"
_symmetry_group_IT_number 10
_symmetry_cell_setting 'monoclinic'
loop_
_space_group_symop_operation_xyz
x,y,z
-x,y,-z
-x,-y,-z
x,-y,z
loop_
_atom_site_type_symbol
_atom_site_label
_atom_site_fract_x
_atom_site_fract_y
_atom_site_fract_z
Si Si1 0.534452 0.329120 0.663883
Si Si2 0.785332 0.334003 0.165684
Si Si3 0.219763 0.177947 0.291945
Si Si4 0.885069 0.818912 0.622076
Si Si5 0.042594 0.168967 0.668540
Si Si6 0.615019 0.178438 0.380461
Si Si7 0.278300 0.821552 0.702927
Si Si8 0.284037 0.331314 0.158946
O O1 0.500000 0.330806 0.500000
O O2 0.544409 0.500000 0.713706
O O3 0.468986 0.249425 0.669654
O O4 0.625369 0.258809 0.753055
O O5 0.792698 0.500000 0.219305
O O6 0.874800 0.260173 0.256103
O O7 0.724702 0.244223 0.178363
O O8 0.751669 0.338471 0.003658
O O9 0.145428 0.227416 0.289839
O O10 0.307465 0.216017 0.450862
O O11 0.224283 0.247441 0.176118
O O12 0.215838 0.000000 0.280827
O O13 0.809373 0.778177 0.454282
O O14 0.973840 0.767968 0.676529
O O15 0.888106 0.000000 0.623548
O O16 0.000000 0.161030 0.500000
O O17 0.063961 0.000000 0.726827
O O18 0.646945 0.225448 0.294084
O O19 0.607257 0.000000 0.372301
O O20 0.279131 0.000000 0.708100
O O21 0.295849 0.500000 0.216080
#
# Coordination Sequence:
#
# PCOD9155176 Si02
#       8
#     4   4   4   4   4   4   4   4
#     4  10  19  33  54  76 101 138 181 215 252 311
#     4  11  23  36  51  75 109 141 173 215 257 304
#     4   9  17  31  53  79 104 131 168 213 259 307
#     4   8  15  30  53  80 104 128 165 214 258 301
#     4  10  18  33  58  80 102 136 174 212 258 309
#     4   9  18  31  53  83 108 128 163 222 270 300
#     4   9  17  34  55  76 105 138 170 207 260 317
#     4  10  22  38  51  71 107 145 175 209 258 311
#
# _framework density 18.418444999999998
#
# number of rings (size 3 to 8) (size 9 to 14) (size 15 to 20)
#    0.000    2.500    2.500    1.875    0.000    2.500 
#    0.000    3.750    0.000    7.500    0.000    0.000 
#    0.000    0.000    0.000    0.000    0.000    0.000 
#
# Total GULP energy -178247.532391 kJ/mol
# GULP energy per Si atom -5570.235387 kJ/mol
# Density = 1.837652 g / cm^3
# Si number density = 18.418445 Si / 1000 Ang^3
#
#
#
# Elastic Constant Matrix: (Units=GPa)
#
#
# Indices 1 2 3 4 5 6 
#
# 1 138.2716 30.2488 16.4139 0.0000 -26.0127 0.0000
# 2 30.2488 18.7136 11.2393 0.0000 -7.9727 0.0000
# 3 16.4139 11.2393 23.9905 0.0000 -10.3107 0.0000
# 4 0.0000 0.0000 0.0000 28.8959 0.0000 -63.5842
# 5 -26.0127 -7.9727 -10.3107 0.0000 24.8382 0.0000
# 6 0.0000 0.0000 0.0000 -63.5842 0.0000 285.1381
#
#
#
# Elastic Compliance Matrix: (Units=1/GPa)
#
#
# Indices 1 2 3 4 5 6 
#
# 1 0.012551 -0.019013 0.004074 0.000000 0.008732 0.000000
# 2 -0.019013 0.105939 -0.037203 0.000000 -0.001351 0.000000
# 3 0.004074 -0.037203 0.064542 0.000000 0.019116 0.000000
# 4 0.000000 0.000000 0.000000 0.067949 0.000000 0.015152
# 5 0.008732 -0.001351 0.019116 0.000000 0.056907 0.000000
# 6 0.000000 0.000000 0.000000 0.015152 0.000000 0.006886
#
#
# Mechanical properties :
#
#
# Convention : Reuss Voigt Hill
#
# Bulk Modulus (GPa) = 12.69933 32.97554 22.83743
# Shear Modulus (GPa) = 11.22819 75.97937 43.60378
#
# Velocity S-wave (km/s) = 2.47172 6.42972 4.87087
# Velocity P-wave (km/s) = 3.88017 8.54776 6.63777
#
# Compressibility (1/GPa) = 0.07874433
#
# Stress axis : x y z
#
# Youngs Moduli (GPa) = 79.67617 9.43941 15.49391
#
# Poissons Ratio (x) = 0.17948 -0.06311
# Poissons Ratio (y) = 1.51492 0.57643
# Poissons Ratio (z) = -0.32456 0.35118
#
# Static dielectric constant tensor:
#      x y z
#    x 1.629620 0.000000 -0.014690 
#    y 0.000000 1.648170 0.000000 
#    z -0.014690 0.000000 1.633540 
# 
# From -- ./inp_files/55375.got.cif
#   From: 2010.05.17/outbox.ucp.g08.bks.cvg/sg10_28_cif.got.tgz:55375.got - 2010.06.11 11:31:16.
