data_PCOD9155794
_publ_section_title
;
Structure prediction by ZEFSAII (Michael W. Deem and Ramdas Pophale) SiO2 
 PCOD9155794
Probable space group: P 21/M
;
_chemical_formula_sum "Si O2"
_cell_formula_units_Z 30
_cell_length_a 11.044643
_cell_length_b 7.393848
_cell_length_c 14.093998
_cell_angle_alpha 90.000000
_cell_angle_beta 80.808446
_cell_angle_gamma 90.000000
_cell_volume 1136.171465
_symmetry_space_group_name_H-M "P 21/M"
_symmetry_group_IT_number 11
_symmetry_cell_setting 'monoclinic'
loop_
_space_group_symop_operation_xyz
x,y,z
-x,1/2+y,-z
-x,-y,-z
x,1/2-y,z
loop_
_atom_site_type_symbol
_atom_site_label
_atom_site_fract_x
_atom_site_fract_y
_atom_site_fract_z
Si Si1 0.380503 0.466044 0.133569
Si Si2 0.610250 0.468473 0.363567
Si Si3 0.648056 0.032740 0.137476
Si Si4 0.835485 0.954062 0.470608
Si Si5 0.197041 0.750000 0.167543
Si Si6 0.018432 0.452790 0.714570
Si Si7 0.344220 0.469891 0.360529
Si Si8 0.915888 0.550349 0.097564
O O1 0.365791 0.250000 0.123587
O O2 0.522831 0.518916 0.100223
O O3 0.277894 0.592050 0.102010
O O4 0.362656 0.515738 0.248407
O O5 0.615246 0.250000 0.369900
O O6 0.636567 0.516514 0.250409
O O7 0.714965 0.544598 0.417705
O O8 0.469657 0.527714 0.397290
O O9 0.655403 0.250000 0.133141
O O10 0.775090 0.950868 0.087951
O O11 0.871284 0.750000 0.492441
O O12 0.942363 0.035623 0.390814
O O13 0.777303 0.040448 0.572338
O O14 0.119236 0.908180 0.237481
O O15 0.077061 0.250000 0.698585
O O16 0.072414 0.546725 0.802171
O O17 0.341205 0.250000 0.364370
O O18 0.966375 0.750000 0.113945
O O19 0.000000 0.500000 0.000000
#
# Coordination Sequence:
#
# PCOD9155794 Si02
#       8
#     4   4   4   4   2   4   4   4
#     4   9  19  37  59  85 115 156 203 251 284 328
#     4   9  16  27  43  73 112 144 179 227 283 349
#     4   9  18  33  55  86 117 147 188 234 291 353
#     4  10  16  29  49  68 107 154 182 227 291 338
#     4  10  20  40  60  82 114 158 206 248 284 328
#     4   8  19  35  55  77 111 148 188 236 285 346
#     4   8  16  29  47  72 110 148 188 238 285 327
#     4  11  21  36  59  89 119 147 176 226 294 363
#
# _framework density 26.404463
#
# number of rings (size 3 to 8) (size 9 to 14) (size 15 to 20)
#    0.400    2.400    1.333    2.400    0.933    0.000 
#    4.800    2.667    0.000    0.800    0.000    0.000 
#    0.000    0.000    0.000    0.000    0.000    0.000 
#
# Total GULP energy -167021.643992 kJ/mol
# GULP energy per Si atom -5567.388133 kJ/mol
# Density = 2.634437 g / cm^3
# Si number density = 26.404463 Si / 1000 Ang^3
#
#
#
# Elastic Constant Matrix: (Units=GPa)
#
#
# Indices 1 2 3 4 5 6 
#
# 1 82.6355 3.8523 54.1982 0.0000 -22.6993 0.0000
# 2 3.8523 92.8182 15.9950 0.0000 -1.8788 0.0000
# 3 54.1982 15.9950 113.2159 0.0000 -21.3269 0.0000
# 4 0.0000 0.0000 0.0000 4.3997 0.0000 -8.7648
# 5 -22.6993 -1.8788 -21.3269 0.0000 58.2236 0.0000
# 6 0.0000 0.0000 0.0000 -8.7648 0.0000 17.5014
#
#
#
# Elastic Compliance Matrix: (Units=1/GPa)
#
#
# Indices 1 2 3 4 5 6 
#
# 1 0.018631 0.000729 -0.008216 0.000000 0.004278 0.000000
# 2 0.000729 0.011074 -0.001926 0.000000 -0.000064 0.000000
# 3 -0.008216 -0.001926 0.013344 0.000000 0.001622 0.000000
# 4 0.000000 0.000000 0.000000 97.713677 0.000000 48.935648
# 5 0.004278 -0.000064 0.001622 0.000000 0.019435 0.000000
# 6 0.000000 0.000000 0.000000 48.935648 0.000000 24.564431
#
#
# Mechanical properties :
#
#
# Convention : Reuss Voigt Hill
#
# Bulk Modulus (GPa) = 41.28233 48.52897 44.90565
# Shear Modulus (GPa) = 0.04086 30.33322 15.18704
#
# Velocity S-wave (km/s) = 0.12453 3.39306 2.40087
# Velocity P-wave (km/s) = 3.96096 5.81115 4.97286
#
# Compressibility (1/GPa) = 0.02422344
#
# Stress axis : x y z
#
# Youngs Moduli (GPa) = 53.67355 90.30134 74.94247
#
# Poissons Ratio (x) = -0.06585 0.61575
# Poissons Ratio (y) = -0.03914 0.14431
# Poissons Ratio (z) = 0.44100 0.17388
#
# Static dielectric constant tensor:
#      x y z
#    x 2.219380 0.000000 0.095470 
#    y 0.000000 2.950990 0.000000 
#    z 0.095470 0.000000 2.181740 
# 
# From -- ./inp_files/58850.got.cif
#   From: 2010.05.17/outbox.cif.g08.bks.cpg/sg11_30_cif.got.tgz:58850.got - 2010.06.03 12:22:45.
