data_PCOD9155214
_publ_section_title
;
Structure prediction by ZEFSAII (Michael W. Deem and Ramdas Pophale) SiO2 
 PCOD9155214
Probable space group: P 2/M
;
_chemical_formula_sum "Si O2"
_cell_formula_units_Z 28
_cell_length_a 30.000000
_cell_length_b 9.000000
_cell_length_c 30.000000
_cell_angle_alpha 90.000000
_cell_angle_beta 170.000000
_cell_angle_gamma 90.000000
_cell_volume 1406.550239
_symmetry_space_group_name_H-M "P 2/M"
_symmetry_group_IT_number 10
_symmetry_cell_setting 'monoclinic'
loop_
_space_group_symop_operation_xyz
x,y,z
-x,y,-z
-x,-y,-z
x,-y,z
loop_
_atom_site_type_symbol
_atom_site_label
_atom_site_fract_x
_atom_site_fract_y
_atom_site_fract_z
Si Si1 0.105144 0.680605 0.056280
Si Si2 0.424220 0.675430 0.805454
Si Si3 0.204515 0.820212 0.959108
Si Si4 0.736382 0.831665 0.266674
Si Si5 0.629529 0.320540 0.529144
Si Si6 0.678492 0.179765 0.483107
Si Si7 0.060003 0.820536 0.716314
O O1 0.104324 0.500000 0.057081
O O2 0.393691 0.724539 0.328651
O O3 0.000000 0.734481 0.000000
O O4 0.901295 0.724507 0.817845
O O5 0.446441 0.500000 0.818873
O O6 0.305482 0.711304 0.736682
O O7 0.216827 0.752582 0.568346
O O8 0.703858 0.753429 0.079441
O O9 0.477335 0.771648 0.247008
O O10 0.207512 0.000000 0.962619
O O11 0.139653 0.778250 0.844982
O O12 0.966796 0.771318 0.755512
O O13 0.000000 0.810667 0.500000
O O14 0.742893 0.000000 0.293043
O O15 0.500000 0.826853 0.000000
O O16 0.626003 0.500000 0.521771
O O17 0.593576 0.247498 0.446021
O O18 0.675193 0.000000 0.481965
O O19 0.050937 0.000000 0.703211
#
# Coordination Sequence:
#
# PCOD9155214 Si02
#       7
#     4   4   4   4   4   4   4
#     4   9  17  30  49  71  96 129 170 213 253 302
#     4  12  25  40  60  92 129 157 188 240 306 357
#     4   9  19  35  57  80 102 138 187 229 262 315
#     4  10  21  38  61  87 115 153 202 245 281 335
#     4  10  19  31  49  74 100 128 167 211 259 314
#     4  10  19  34  54  77 105 136 173 218 271 322
#     4  11  22  41  66  87 113 156 207 246 280 338
#
# _framework density 19.906860999999999
#
# number of rings (size 3 to 8) (size 9 to 14) (size 15 to 20)
#    0.000    1.857    0.000    4.714    0.000    5.714 
#    0.000    4.286    0.000    2.571    0.000    0.000 
#    0.000    0.000    0.000    0.000    0.000    0.000 
#
# Total GULP energy -156370.381745 kJ/mol
# GULP energy per Si atom -5584.656491 kJ/mol
# Density = 1.986155 g / cm^3
# Si number density = 19.906861 Si / 1000 Ang^3
#
#
#
# Elastic Constant Matrix: (Units=GPa)
#
#
# Indices 1 2 3 4 5 6 
#
# 1 44.7942 2.9227 -17.2826 0.0000 0.0483 0.0000
# 2 2.9227 45.8527 2.0183 0.0000 1.7376 0.0000
# 3 -17.2826 2.0183 64.5867 0.0000 4.6755 0.0000
# 4 0.0000 0.0000 0.0000 21.8140 0.0000 0.7229
# 5 0.0483 1.7376 4.6755 0.0000 35.2522 0.0000
# 6 0.0000 0.0000 0.0000 0.7229 0.0000 23.7421
#
#
#
# Elastic Compliance Matrix: (Units=1/GPa)
#
#
# Indices 1 2 3 4 5 6 
#
# 1 0.025083 -0.001867 0.006832 0.000000 -0.000848 0.000000
# 2 -0.001867 0.022013 -0.001120 0.000000 -0.000934 0.000000
# 3 0.006832 -0.001120 0.017511 0.000000 -0.002277 0.000000
# 4 0.000000 0.000000 0.000000 0.045888 0.000000 -0.001397
# 5 -0.000848 -0.000934 -0.002277 0.000000 0.028716 0.000000
# 6 0.000000 0.000000 0.000000 -0.001397 0.000000 0.042162
#
#
# Mechanical properties :
#
#
# Convention : Reuss Voigt Hill
#
# Bulk Modulus (GPa) = 13.83220 14.50561 14.16891
# Shear Modulus (GPa) = 25.28028 27.33334 26.30681
#
# Velocity S-wave (km/s) = 3.56747 3.70950 3.63918
# Velocity P-wave (km/s) = 4.89210 5.06456 4.97908
#
# Compressibility (1/GPa) = 0.07229506
#
# Stress axis : x y z
#
# Youngs Moduli (GPa) = 39.86782 45.42830 57.10721
#
# Poissons Ratio (x) = 0.08483 -0.39014
# Poissons Ratio (y) = 0.07445 0.06396
# Poissons Ratio (z) = -0.27236 0.05088
#
# Static dielectric constant tensor:
#      x y z
#    x 1.724580 0.000000 0.001900 
#    y 0.000000 1.674960 0.000000 
#    z 0.001900 0.000000 1.693700 
# 
# From -- ./inp_files/94289.got.cif
#   From: 2010.05.17/outbox.ucp.g08.bks.cvg/sg10_48_cif.got.tgz:94289.got - 2010.06.11 11:31:16.
