data_PCOD9155840
_publ_section_title
;
Structure prediction by ZEFSAII (Michael W. Deem and Ramdas Pophale) SiO2 
 PCOD9155840
Probable space group: P 21/M
;
_chemical_formula_sum "Si O2"
_cell_formula_units_Z 32
_cell_length_a 5.400171
_cell_length_b 12.994290
_cell_length_c 28.659133
_cell_angle_alpha 90.000000
_cell_angle_beta 112.139030
_cell_angle_gamma 90.000000
_cell_volume 1862.780627
_symmetry_space_group_name_H-M "P 21/M"
_symmetry_group_IT_number 11
_symmetry_cell_setting 'monoclinic'
loop_
_space_group_symop_operation_xyz
x,y,z
-x,1/2+y,-z
-x,-y,-z
x,1/2-y,z
loop_
_atom_site_type_symbol
_atom_site_label
_atom_site_fract_x
_atom_site_fract_y
_atom_site_fract_z
Si Si1 0.875714 0.073126 0.562857
Si Si2 0.690910 0.569842 0.470455
Si Si3 0.554108 0.137036 0.402054
Si Si4 0.901164 0.873284 0.825582
Si Si5 0.949628 0.071894 0.349814
Si Si6 0.736259 0.866053 0.993130
Si Si7 0.128166 0.563582 0.939083
Si Si8 0.723164 0.126553 0.236583
O O1 0.806200 0.967392 0.528100
O O2 0.590053 0.125315 0.545735
O O3 0.092886 0.125315 0.545735
O O4 0.990633 0.037034 0.620316
O O5 0.627732 0.461651 0.438866
O O6 0.603344 0.250000 0.426672
O O7 0.735627 0.126565 0.368670
O O8 0.239054 0.126565 0.368670
O O9 0.920905 0.750000 0.835453
O O10 0.588944 0.896442 0.794513
O O11 0.008282 0.929303 0.879141
O O12 0.089110 0.896442 0.794513
O O13 0.829853 0.069347 0.289926
O O14 0.774039 0.750000 0.012020
O O15 0.422084 0.884571 0.960398
O O16 0.919507 0.884571 0.960398
O O17 0.825661 0.949059 0.037831
O O18 0.743803 0.250000 0.246902
#
# Coordination Sequence:
#
# PCOD9155840 Si02
#       8
#     4   4   4   4   4   4   4   4
#     4   8  14  24  36  48  65  89 116 151 187 226
#     4   8  14  23  34  49  66  87 115 144 184 233
#     4  10  17  24  36  52  73  98 123 156 196 242
#     4  10  19  30  43  59  85 119 150 180 213 252
#     4  10  18  27  38  52  73 101 133 164 197 235
#     4  10  19  32  51  74  99 124 155 192 228 273
#     4  10  20  32  49  72  97 128 158 188 229 273
#     4  10  19  28  39  56  79 110 146 179 208 244
#
# _framework density 17.178619999999999
#
# number of rings (size 3 to 8) (size 9 to 14) (size 15 to 20)
#    0.000    2.500    0.000    3.750    0.000    2.000 
#    0.000    0.000    0.000    0.000    0.000    0.000 
#    0.000    2.000    0.000    0.000    0.000    7.750 
#
# Total GULP energy -178356.965194 kJ/mol
# GULP energy per Si atom -5573.655162 kJ/mol
# Density = 1.713952 g / cm^3
# Si number density = 17.178620 Si / 1000 Ang^3
#
#
#
# Elastic Constant Matrix: (Units=GPa)
#
#
# Indices 1 2 3 4 5 6 
#
# 1 178.3303 20.1328 51.8625 0.0000 4.4789 0.0000
# 2 20.1328 51.7675 22.6770 0.0000 -0.1380 0.0000
# 3 51.8625 22.6770 135.0168 0.0000 -2.1298 0.0000
# 4 0.0000 0.0000 0.0000 4.6998 0.0000 -0.4611
# 5 4.4789 -0.1380 -2.1298 0.0000 22.3016 0.0000
# 6 0.0000 0.0000 0.0000 -0.4611 0.0000 -3.8023
#
#
#
# Elastic Compliance Matrix: (Units=1/GPa)
#
#
# Indices 1 2 3 4 5 6 
#
# 1 0.006474 -0.001535 -0.002253 0.000000 -0.001525 0.000000
# 2 -0.001535 0.021216 -0.002971 0.000000 0.000156 0.000000
# 3 -0.002253 -0.002971 0.008791 0.000000 0.001274 0.000000
# 4 0.000000 0.000000 0.000000 0.210274 0.000000 -0.025502
# 5 -0.001525 0.000156 0.001274 0.000000 0.045269 0.000000
# 6 0.000000 0.000000 0.000000 -0.025502 0.000000 -0.259907
#
#
# Mechanical properties :
#
#
# Convention : Reuss Voigt Hill
#
# Bulk Modulus (GPa) = 43.54895 61.60659 52.57777
# Shear Modulus (GPa) = 93.82643 22.66931 58.24787
#
# Velocity S-wave (km/s) = 7.39843 3.63660 5.82931
# Velocity P-wave (km/s) = 9.91907 7.31938 8.71669
#
# Compressibility (1/GPa) = 0.02296267
#
# Stress axis : x y z
#
# Youngs Moduli (GPa) = 154.45329 47.13395 113.75109
#
# Poissons Ratio (x) = 0.07235 0.25630
# Poissons Ratio (y) = 0.23709 0.33799
# Poissons Ratio (z) = 0.34801 0.14005
#
# Static dielectric constant tensor:
#      x y z
#    x 1.668040 0.000000 0.005850 
#    y 0.000000 1.577000 0.000000 
#    z 0.005850 0.000000 1.560150 
# 
# From -- ./inp_files/72651.got.cif
#   From: 2010.05.17/outbox.cif.g08.bks.cpg/sg11_37_cif.got.tgz:72651.got - 2010.06.03 12:22:45.
