data_PCOD9155543
_publ_section_title
;
Structure prediction by ZEFSAII (Michael W. Deem and Ramdas Pophale) SiO2 
 PCOD9155543
Probable space group: P 2/M
;
_chemical_formula_sum "Si O2"
_cell_formula_units_Z 24
_cell_length_a 12.000000
_cell_length_b 9.000000
_cell_length_c 24.000000
_cell_angle_alpha 90.000000
_cell_angle_beta 150.000000
_cell_angle_gamma 90.000000
_cell_volume 1296.000000
_symmetry_space_group_name_H-M "P 2/M"
_symmetry_group_IT_number 10
_symmetry_cell_setting 'monoclinic'
loop_
_space_group_symop_operation_xyz
x,y,z
-x,y,-z
-x,-y,-z
x,-y,z
loop_
_atom_site_type_symbol
_atom_site_label
_atom_site_fract_x
_atom_site_fract_y
_atom_site_fract_z
Si Si1 0.755061 0.322185 0.409602
Si Si2 0.920448 0.178826 0.050510
Si Si3 0.143530 0.821932 0.322184
Si Si4 0.583744 0.177267 0.447830
Si Si5 0.245836 0.323203 0.907314
Si Si6 0.685326 0.678719 0.843109
O O1 0.767154 0.500000 0.421120
O O2 0.666045 0.255676 0.428364
O O3 0.570187 0.291650 0.282628
O O4 0.000000 0.265882 0.500000
O O5 0.761615 0.240489 0.932499
O O6 0.936791 0.000000 0.056231
O O7 0.828020 0.236031 0.069153
O O8 0.157682 0.253147 0.137375
O O9 0.250772 0.792137 0.428848
O O10 0.335703 0.780659 0.360707
O O11 0.922059 0.732361 0.213123
O O12 0.105861 0.000000 0.301454
O O13 0.581112 0.000000 0.438371
O O14 0.223195 0.500000 0.906653
O O15 0.500000 0.292231 0.000000
O O16 0.720293 0.500000 0.862123
#
# Coordination Sequence:
#
# PCOD9155543 Si02
#       6
#     4   4   4   4   4   4
#     4  10  22  37  53  78 112 147 181 220 266 316
#     4  11  22  37  59  84 110 141 183 231 275 324
#     4   9  19  37  59  83 110 139 176 224 274 322
#     4   9  19  36  58  83 110 140 176 222 272 321
#     4  11  24  39  55  79 112 148 184 224 273 327
#     4  10  20  37  60  83 111 145 183 227 272 321
#
# _framework density 18.518519000000001
#
# number of rings (size 3 to 8) (size 9 to 14) (size 15 to 20)
#    0.000    2.000    0.000    5.500    0.000    8.333 
#    0.000    6.667    0.000    0.000    0.000    0.000 
#    0.000    0.000    0.000    0.000    0.000    0.000 
#
# Total GULP energy -134047.435528 kJ/mol
# GULP energy per Si atom -5585.309814 kJ/mol
# Density = 1.847637 g / cm^3
# Si number density = 18.518519 Si / 1000 Ang^3
#
#
#
# Elastic Constant Matrix: (Units=GPa)
#
#
# Indices 1 2 3 4 5 6 
#
# 1 10.3891 6.8410 21.4825 0.0000 2.9994 0.0000
# 2 6.8410 63.3312 40.7772 0.0000 8.4508 0.0000
# 3 21.4825 40.7772 120.1936 0.0000 28.1307 0.0000
# 4 0.0000 0.0000 0.0000 33.5863 0.0000 9.3108
# 5 2.9994 8.4508 28.1307 0.0000 18.8812 0.0000
# 6 0.0000 0.0000 0.0000 9.3108 0.0000 35.9086
#
#
#
# Elastic Compliance Matrix: (Units=1/GPa)
#
#
# Indices 1 2 3 4 5 6 
#
# 1 0.161110 0.002046 -0.035752 0.000000 0.026757 0.000000
# 2 0.002046 0.020269 -0.007743 0.000000 0.002139 0.000000
# 3 -0.035752 -0.007743 0.023332 0.000000 -0.025618 0.000000
# 4 0.000000 0.000000 0.000000 0.032080 0.000000 -0.008318
# 5 0.026757 0.002139 -0.025618 0.000000 0.085922 0.000000
# 6 0.000000 0.000000 0.000000 -0.008318 0.000000 0.030005
#
#
# Mechanical properties :
#
#
# Convention : Reuss Voigt Hill
#
# Bulk Modulus (GPa) = 8.20924 36.90172 22.55548
# Shear Modulus (GPa) = 10.49934 25.99610 18.24772
#
# Velocity S-wave (km/s) = 2.38368 3.75078 3.14248
# Velocity P-wave (km/s) = 3.46678 6.22318 5.03719
#
# Compressibility (1/GPa) = 0.12181402
#
# Stress axis : x y z
#
# Youngs Moduli (GPa) = 6.20695 49.33650 42.85868
#
# Poissons Ratio (x) = -0.10096 1.53229
# Poissons Ratio (y) = -0.01270 0.33185
# Poissons Ratio (z) = 0.22191 0.38201
#
# Static dielectric constant tensor:
#      x y z
#    x 1.612840 0.000000 -0.002000 
#    y 0.000000 1.613380 0.000000 
#    z -0.002000 0.000000 1.656940 
# 
# From -- ./inp_files/45179.got.cif
#   From: 2010.05.17/outbox.ucp.g08.bks.cvg/sg10_23_cif.got.tgz:45179.got - 2010.06.11 11:31:16.
