data_PCOD9155029
_publ_section_title
;
Structure prediction by ZEFSAII (Michael W. Deem and Ramdas Pophale) SiO2 
 PCOD9155029
Probable space group: P 2/M
;
_chemical_formula_sum "Si O2"
_cell_formula_units_Z 32
_cell_length_a 11.108203
_cell_length_b 7.295403
_cell_length_c 24.818637
_cell_angle_alpha 90.000000
_cell_angle_beta 35.858841
_cell_angle_gamma 90.000000
_cell_volume 1178.184219
_symmetry_space_group_name_H-M "P 2/M"
_symmetry_group_IT_number 10
_symmetry_cell_setting 'monoclinic'
loop_
_space_group_symop_operation_xyz
x,y,z
-x,y,-z
-x,-y,-z
x,-y,z
loop_
_atom_site_type_symbol
_atom_site_label
_atom_site_fract_x
_atom_site_fract_y
_atom_site_fract_z
Si Si1 0.054751 0.778432 0.613034
Si Si2 0.645121 0.776368 0.275237
Si Si3 0.818507 0.224274 0.104649
Si Si4 0.294796 0.713225 0.044057
Si Si5 0.497438 0.222264 0.562391
Si Si6 0.481972 0.792737 0.872136
Si Si7 0.105993 0.779575 0.219582
Si Si8 0.802524 0.222973 0.607354
O O1 0.049968 0.718590 0.677174
O O2 0.863792 0.719700 0.645854
O O3 0.267535 0.734464 0.506701
O O4 0.050376 0.000000 0.616476
O O5 0.806101 0.716769 0.171120
O O6 0.648770 0.715190 0.336166
O O7 0.419805 0.723213 0.333886
O O8 0.654666 0.000000 0.273307
O O9 0.613315 0.284519 0.147263
O O10 0.819854 0.000000 0.103774
O O11 0.000000 0.286663 0.000000
O O12 0.324908 0.500000 0.023037
O O13 0.116775 0.730802 0.152924
O O14 0.500000 0.787868 0.000000
O O15 0.300009 0.799866 0.983204
O O16 0.500000 0.287133 0.500000
O O17 0.471358 0.000000 0.569183
O O18 0.677858 0.714236 0.832062
O O19 0.545486 0.000000 0.835942
O O20 0.096990 0.000000 0.221526
O O21 0.000000 0.277563 0.500000
O O22 0.798327 0.000000 0.608128
#
# Coordination Sequence:
#
# PCOD9155029 Si02
#       8
#     4   4   4   4   4   4   4   4
#     4   9  15  23  35  56  84 112 143 178 220 272
#     4   9  15  24  37  52  75 111 149 185 223 262
#     4   9  17  28  40  58  85 119 158 189 221 272
#     4   9  17  29  45  64  88 119 153 186 224 272
#     4   9  16  25  34  49  80 118 149 177 217 271
#     4   9  16  28  45  64  90 119 149 188 231 271
#     4   9  16  26  42  66  93 119 148 184 230 275
#     4   9  13  19  34  53  73 102 140 180 222 266
#
# _framework density 27.160437999999999
#
# number of rings (size 3 to 8) (size 9 to 14) (size 15 to 20)
#    0.000    3.000    1.250    1.125    0.000    4.500 
#    2.250    0.000    0.000    0.375    0.000    0.000 
#    0.000    2.000    0.000    0.125    0.000    0.000 
#
# Total GULP energy -178787.188776 kJ/mol
# GULP energy per Si atom -5587.099649 kJ/mol
# Density = 2.709862 g / cm^3
# Si number density = 27.160438 Si / 1000 Ang^3
#
#
#
# Elastic Constant Matrix: (Units=GPa)
#
#
# Indices 1 2 3 4 5 6 
#
# 1 115.9300 -6.8059 53.3535 0.0000 39.3499 0.0000
# 2 -6.8059 114.8488 -2.3866 0.0000 1.7916 0.0000
# 3 53.3535 -2.3866 221.4187 0.0000 38.6087 0.0000
# 4 0.0000 0.0000 0.0000 -101.2622 0.0000 -43.9010
# 5 39.3499 1.7916 38.6087 0.0000 55.0472 0.0000
# 6 0.0000 0.0000 0.0000 -43.9010 0.0000 -44.5297
#
#
#
# Elastic Compliance Matrix: (Units=1/GPa)
#
#
# Indices 1 2 3 4 5 6 
#
# 1 0.011921 0.000790 -0.001565 0.000000 -0.007450 0.000000
# 2 0.000790 0.008769 0.000060 0.000000 -0.000892 0.000000
# 3 -0.001565 0.000060 0.005354 0.000000 -0.002638 0.000000
# 4 0.000000 0.000000 0.000000 -0.017247 0.000000 0.017004
# 5 -0.007450 -0.000892 -0.002638 0.000000 0.025371 0.000000
# 6 0.000000 0.000000 0.000000 0.017004 0.000000 -0.039220
#
#
# Mechanical properties :
#
#
# Convention : Reuss Voigt Hill
#
# Bulk Modulus (GPa) = 40.62722 60.05772 50.34247
# Shear Modulus (GPa) = 1090.93238 9.05350 549.99294
#
# Velocity S-wave (km/s) = 20.06326 1.82772 14.24561
# Velocity P-wave (km/s) = 23.48836 5.15891 17.00467
#
# Compressibility (1/GPa) = 0.02461404
#
# Stress axis : x y z
#
# Youngs Moduli (GPa) = 83.88403 114.03704 186.77098
#
# Poissons Ratio (x) = -0.09011 0.29230
# Poissons Ratio (y) = -0.06628 -0.01115
# Poissons Ratio (z) = 0.13128 -0.00681
#
# Static dielectric constant tensor:
#      x y z
#    x 2.132180 0.000000 -0.033520 
#    y 0.000000 2.081610 0.000000 
#    z -0.033520 0.000000 2.150030 
# 
# From -- ./inp_files/88799.got.cif
#   From: 2010.05.17/outbox.cif.g08.bks.cpg/sg10_45_cif.got.tgz:88799.got - 2010.06.03 11:33:40.
