data_PCOD9155698
_publ_section_title
;
Structure prediction by ZEFSAII (Michael W. Deem and Ramdas Pophale) SiO2 
 PCOD9155698
Probable space group: P 2/M
;
_chemical_formula_sum "Si O2"
_cell_formula_units_Z 28
_cell_length_a 21.000000
_cell_length_b 9.000000
_cell_length_c 9.000000
_cell_angle_alpha 90.000000
_cell_angle_beta 130.000000
_cell_angle_gamma 90.000000
_cell_volume 1303.041598
_symmetry_space_group_name_H-M "P 2/M"
_symmetry_group_IT_number 10
_symmetry_cell_setting 'monoclinic'
loop_
_space_group_symop_operation_xyz
x,y,z
-x,y,-z
-x,-y,-z
x,-y,z
loop_
_atom_site_type_symbol
_atom_site_label
_atom_site_fract_x
_atom_site_fract_y
_atom_site_fract_z
Si Si1 0.333602 0.167635 0.214125
Si Si2 0.694189 0.669285 0.348672
Si Si3 0.569790 0.328834 0.413550
Si Si4 0.830596 0.673701 0.086136
Si Si5 0.994340 0.326939 0.816415
Si Si6 0.154387 0.174504 0.571416
Si Si7 0.581274 0.167679 0.964153
O O1 0.405365 0.270359 0.388536
O O2 0.350779 0.163698 0.064578
O O3 0.341537 0.000000 0.285015
O O4 0.243101 0.234667 0.100153
O O5 0.719902 0.500000 0.357717
O O6 0.657750 0.680292 0.458384
O O7 0.768261 0.776955 0.415161
O O8 0.614855 0.714289 0.130828
O O9 0.541904 0.500000 0.368668
O O10 0.504054 0.222212 0.235995
O O11 0.807408 0.500000 0.056934
O O12 0.841965 0.735579 0.269151
O O13 0.915983 0.688657 0.124696
O O14 0.967732 0.500000 0.757427
O O15 0.928830 0.221514 0.638545
O O16 0.000000 0.297480 0.000000
O O17 0.157305 0.000000 0.606628
O O18 0.575425 0.000000 0.015359
#
# Coordination Sequence:
#
# PCOD9155698 Si02
#       7
#     4   4   4   4   4   4   4
#     4  11  24  41  63  94 131 168 212 265 318 375
#     4  11  24  42  65  92 126 169 218 265 314 378
#     4  11  25  41  62  92 127 170 217 265 319 377
#     4  11  23  42  69  96 126 170 216 258 310 374
#     4  10  24  45  69  98 131 166 207 258 313 376
#     4  12  25  42  66  97 130 168 212 261 318 376
#     4  11  23  41  64  93 127 166 213 266 323 377
#
# _framework density 21.488185999999999
#
# number of rings (size 3 to 8) (size 9 to 14) (size 15 to 20)
#    0.000    1.000    1.429    4.714    2.000   10.571 
#    0.000    0.000    0.000    0.000    0.000    0.000 
#    0.000    0.000    0.000    0.000    0.000    0.000 
#
# Total GULP energy -156616.213926 kJ/mol
# GULP energy per Si atom -5593.436212 kJ/mol
# Density = 2.143928 g / cm^3
# Si number density = 21.488186 Si / 1000 Ang^3
#
#
#
# Elastic Constant Matrix: (Units=GPa)
#
#
# Indices 1 2 3 4 5 6 
#
# 1 67.2828 23.2746 9.1993 0.0000 1.8139 0.0000
# 2 23.2746 67.3426 0.2888 0.0000 3.4618 0.0000
# 3 9.1993 0.2888 41.0311 0.0000 10.3646 0.0000
# 4 0.0000 0.0000 0.0000 38.8760 0.0000 28.8307
# 5 1.8139 3.4618 10.3646 0.0000 19.5553 0.0000
# 6 0.0000 0.0000 0.0000 28.8307 0.0000 -25.1170
#
#
#
# Elastic Compliance Matrix: (Units=1/GPa)
#
#
# Indices 1 2 3 4 5 6 
#
# 1 0.017528 -0.006129 -0.004330 0.000000 0.001754 0.000000
# 2 -0.006129 0.017144 0.002167 0.000000 -0.003615 0.000000
# 3 -0.004330 0.002167 0.029237 0.000000 -0.015478 0.000000
# 4 0.000000 0.000000 0.000000 0.013895 0.000000 0.015949
# 5 0.001754 -0.003615 -0.015478 0.000000 0.059818 0.000000
# 6 0.000000 0.000000 0.000000 0.015949 0.000000 -0.021506
#
#
# Mechanical properties :
#
#
# Convention : Reuss Voigt Hill
#
# Bulk Modulus (GPa) = 21.13080 26.79798 23.96439
# Shear Modulus (GPa) = 33.67567 16.18910 24.93239
#
# Velocity S-wave (km/s) = 3.96305 2.74778 3.40999
# Velocity P-wave (km/s) = 5.54942 4.75028 5.16533
#
# Compressibility (1/GPa) = 0.04732429
#
# Stress axis : x y z
#
# Youngs Moduli (GPa) = 57.05283 58.32818 34.20318
#
# Poissons Ratio (x) = 0.35752 0.14809
# Poissons Ratio (y) = 0.34970 -0.07411
# Poissons Ratio (z) = 0.24702 -0.12638
#
# Static dielectric constant tensor:
#      x y z
#    x 1.790640 0.000000 -0.020700 
#    y 0.000000 1.729730 0.000000 
#    z -0.020700 0.000000 1.753500 
# 
# From -- ./inp_files/34303.got.cif
#   From: 2010.05.17/outbox.ucp.g08.bks.cvg/sg10_18_cif.got.tgz:34303.got - 2010.06.11 11:31:16.
