data_PCOD9155899
_publ_section_title
;
Structure prediction by ZEFSAII (Michael W. Deem and Ramdas Pophale) SiO2 
 PCOD9155899
Probable space group: P 21/M
;
_chemical_formula_sum "Si O2"
_cell_formula_units_Z 32
_cell_length_a 11.701261
_cell_length_b 13.924325
_cell_length_c 11.486074
_cell_angle_alpha 90.000000
_cell_angle_beta 111.710687
_cell_angle_gamma 90.000000
_cell_volume 1738.696852
_symmetry_space_group_name_H-M "P 21/M"
_symmetry_group_IT_number 11
_symmetry_cell_setting 'monoclinic'
loop_
_space_group_symop_operation_xyz
x,y,z
-x,1/2+y,-z
-x,-y,-z
x,1/2-y,z
loop_
_atom_site_type_symbol
_atom_site_label
_atom_site_fract_x
_atom_site_fract_y
_atom_site_fract_z
Si Si1 0.659638 0.358563 0.870846
Si Si2 0.192423 0.002796 0.909991
Si Si3 0.428880 0.450233 0.868699
Si Si4 0.714497 0.136817 0.625408
Si Si5 0.109820 0.637486 0.677120
Si Si6 0.997915 0.863275 0.237565
Si Si7 0.870175 0.637664 0.441662
Si Si8 0.313220 0.533626 0.610411
O O1 0.707450 0.250000 0.911449
O O2 0.519657 0.366206 0.864103
O O3 0.658726 0.374134 0.732371
O O4 0.741041 0.442153 0.963033
O O5 0.142060 0.922591 0.802516
O O6 0.295076 0.063898 0.875884
O O7 0.077767 0.074151 0.884699
O O8 0.411844 0.519358 0.750179
O O9 0.500000 0.500000 0.000000
O O10 0.708712 0.250000 0.591352
O O11 0.651776 0.072733 0.502361
O O12 0.859210 0.110390 0.692888
O O13 0.116856 0.750000 0.701813
O O14 0.210447 0.607624 0.619178
O O15 0.976271 0.614873 0.574936
O O16 0.993177 0.750000 0.207856
O O17 0.931917 0.877870 0.338119
O O18 0.838169 0.750000 0.437750
O O19 0.755734 0.568744 0.419391
#
# Coordination Sequence:
#
# PCOD9155899 Si02
#       8
#     4   4   4   4   4   4   4   4
#     4  10  22  39  54  73 107 146 184 218 258 317
#     4  10  19  34  55  80 105 135 178 221 273 311
#     4   9  20  35  52  75  99 129 175 223 264 307
#     4  10  21  35  54  80 110 146 177 209 260 324
#     4  10  17  26  46  78 110 134 163 215 268 316
#     4  10  18  31  52  81 113 139 174 215 262 323
#     4  10  18  28  47  80 111 137 170 212 268 322
#     4  11  18  31  53  76 104 138 173 222 264 314
#
# _framework density 18.404589000000001
#
# number of rings (size 3 to 8) (size 9 to 14) (size 15 to 20)
#    0.000    2.000    3.750    1.875    0.000    2.000 
#    0.000    0.625    0.000    2.250    0.000    0.000 
#    0.000    0.000    0.000    0.000    0.000    0.000 
#
# Total GULP energy -178356.856338 kJ/mol
# GULP energy per Si atom -5573.651761 kJ/mol
# Density = 1.836270 g / cm^3
# Si number density = 18.404589 Si / 1000 Ang^3
#
#
#
# Elastic Constant Matrix: (Units=GPa)
#
#
# Indices 1 2 3 4 5 6 
#
# 1 24.4684 14.0552 23.6932 0.0000 1.9480 0.0000
# 2 14.0552 56.8176 34.8788 0.0000 -0.9676 0.0000
# 3 23.6932 34.8788 90.0558 0.0000 4.7152 0.0000
# 4 0.0000 0.0000 0.0000 20.6860 0.0000 -6.1470
# 5 1.9480 -0.9676 4.7152 0.0000 23.8382 0.0000
# 6 0.0000 0.0000 0.0000 -6.1470 0.0000 15.0566
#
#
#
# Elastic Compliance Matrix: (Units=1/GPa)
#
#
# Indices 1 2 3 4 5 6 
#
# 1 0.056687 -0.006545 -0.012249 0.000000 -0.002475 0.000000
# 2 -0.006545 0.024023 -0.007742 0.000000 0.003041 0.000000
# 3 -0.012249 -0.007742 0.017470 0.000000 -0.002769 0.000000
# 4 0.000000 0.000000 0.000000 0.055016 0.000000 0.022461
# 5 -0.002475 0.003041 -0.002769 0.000000 0.042823 0.000000
# 6 0.000000 0.000000 0.000000 0.022461 0.000000 0.075586
#
#
# Mechanical properties :
#
#
# Convention : Reuss Voigt Hill
#
# Bulk Modulus (GPa) = 22.16896 35.17738 28.67317
# Shear Modulus (GPa) = 14.71822 18.49712 16.60767
#
# Velocity S-wave (km/s) = 2.83097 3.17366 3.00720
# Velocity P-wave (km/s) = 4.77047 5.70827 5.26031
#
# Compressibility (1/GPa) = 0.04510812
#
# Stress axis : x y z
#
# Youngs Moduli (GPa) = 17.64064 41.62595 57.24008
#
# Poissons Ratio (x) = 0.27246 0.70116
# Poissons Ratio (y) = 0.11547 0.44312
# Poissons Ratio (z) = 0.21609 0.32225
#
# Static dielectric constant tensor:
#      x y z
#    x 1.662790 0.000000 0.012290 
#    y 0.000000 1.635990 0.000000 
#    z 0.012290 0.000000 1.650940 
# 
# From -- ./inp_files/35539.got.cif
#   From: 2010.05.17/outbox.cif.g08.bks.cpg/sg11_18_cif.got.tgz:35539.got - 2010.06.03 12:22:45.
