data_PCOD9155825
_publ_section_title
;
Structure prediction by ZEFSAII (Michael W. Deem and Ramdas Pophale) SiO2 
 PCOD9155825
Probable space group: P 21/M
;
_chemical_formula_sum "Si O2"
_cell_formula_units_Z 32
_cell_length_a 17.063926
_cell_length_b 17.187555
_cell_length_c 11.539169
_cell_angle_alpha 90.000000
_cell_angle_beta 149.302283
_cell_angle_gamma 90.000000
_cell_volume 1727.709432
_symmetry_space_group_name_H-M "P 21/M"
_symmetry_group_IT_number 11
_symmetry_cell_setting 'monoclinic'
loop_
_space_group_symop_operation_xyz
x,y,z
-x,1/2+y,-z
-x,-y,-z
x,1/2-y,z
loop_
_atom_site_type_symbol
_atom_site_label
_atom_site_fract_x
_atom_site_fract_y
_atom_site_fract_z
Si Si1 0.792419 0.337084 0.013994
Si Si2 0.478177 0.620610 0.193008
Si Si3 0.148841 0.433784 0.015938
Si Si4 0.410546 0.437060 0.153289
Si Si5 0.202105 0.339376 0.296633
Si Si6 0.608961 0.924534 0.130306
Si Si7 0.365282 0.558222 0.375134
Si Si8 0.925065 0.945037 0.659159
O O1 0.843558 0.250000 0.051235
O O2 0.678757 0.336870 0.978294
O O3 0.687177 0.374188 0.778082
O O4 0.932977 0.395683 0.211512
O O5 0.439917 0.529350 0.167694
O O6 0.615675 0.646092 0.453210
O O7 0.540935 0.631467 0.142996
O O8 0.265258 0.426911 0.054699
O O9 0.151067 0.359616 0.101311
O O10 0.220179 0.500960 0.191349
O O11 0.989197 0.469586 0.770454
O O12 0.563270 0.410565 0.415747
O O13 0.389071 0.399078 0.000533
O O14 0.168543 0.250000 0.282137
O O15 0.122436 0.397767 0.285883
O O16 0.779221 0.946004 0.390057
O O17 0.500000 0.000000 0.000000
O O18 0.500000 0.500000 0.500000
#
# Coordination Sequence:
#
# PCOD9155825 Si02
#       8
#     4   4   4   4   4   4   4   4
#     4  11  20  33  57  84 109 147 190 233 286 338
#     4  10  17  33  52  80 112 141 185 223 272 327
#     4  10  18  32  57  82 109 143 182 226 286 335
#     4  10  16  33  54  82 111 140 178 236 268 330
#     4  11  21  33  53  82 115 145 179 225 284 343
#     4   9  21  34  55  82 109 140 184 233 280 328
#     4   9  15  29  52  78 114 134 170 230 276 322
#     4  10  21  37  54  80 114 145 184 239 284 323
#
# _framework density 18.521633000000001
#
# number of rings (size 3 to 8) (size 9 to 14) (size 15 to 20)
#    0.000    2.000    5.000    1.875    0.000    0.500 
#    0.000    0.000    0.000    9.000    0.000    1.750 
#    0.000    0.000    0.000    0.000    0.000    0.000 
#
# Total GULP energy -178285.620415 kJ/mol
# GULP energy per Si atom -5571.425638 kJ/mol
# Density = 1.847948 g / cm^3
# Si number density = 18.521633 Si / 1000 Ang^3
#
#
#
# Elastic Constant Matrix: (Units=GPa)
#
#
# Indices 1 2 3 4 5 6 
#
# 1 88.8138 2.6755 53.5337 0.0000 -9.6115 0.0000
# 2 2.6755 36.4920 10.4125 0.0000 -3.1101 0.0000
# 3 53.5337 10.4125 114.7756 0.0000 -7.2745 0.0000
# 4 0.0000 0.0000 0.0000 3.5179 0.0000 -2.7650
# 5 -9.6115 -3.1101 -7.2745 0.0000 32.7441 0.0000
# 6 0.0000 0.0000 0.0000 -2.7650 0.0000 5.4522
#
#
#
# Elastic Compliance Matrix: (Units=1/GPa)
#
#
# Indices 1 2 3 4 5 6 
#
# 1 0.016013 0.001201 -0.007377 0.000000 0.003176 0.000000
# 2 0.001201 0.028370 -0.002983 0.000000 0.002385 0.000000
# 3 -0.007377 -0.002983 0.012444 0.000000 0.000316 0.000000
# 4 0.000000 0.000000 0.000000 0.472660 0.000000 0.239699
# 5 0.003176 0.002385 0.000316 0.000000 0.031769 0.000000
# 6 0.000000 0.000000 0.000000 0.239699 0.000000 0.304969
#
#
# Mechanical properties :
#
#
# Convention : Reuss Voigt Hill
#
# Bulk Modulus (GPa) = 25.96697 41.48054 33.72376
# Shear Modulus (GPa) = 5.57179 19.90683 12.73931
#
# Velocity S-wave (km/s) = 1.73632 3.28195 2.62545
# Velocity P-wave (km/s) = 4.25088 6.06679 5.23813
#
# Compressibility (1/GPa) = 0.03851046
#
# Stress axis : x y z
#
# Youngs Moduli (GPa) = 62.44767 35.24910 80.36037
#
# Poissons Ratio (x) = -0.04235 0.59279
# Poissons Ratio (y) = -0.07503 0.23971
# Poissons Ratio (z) = 0.46066 0.10515
#
# Static dielectric constant tensor:
#      x y z
#    x 1.715550 0.000000 -0.008700 
#    y 0.000000 1.650570 0.000000 
#    z -0.008700 0.000000 1.656490 
# 
# From -- ./inp_files/41847.got.cif
#   From: 2010.05.17/outbox.cif.g08.bks.cpg/sg11_21_cif.got.tgz:41847.got - 2010.06.03 12:22:45.
