data_PCOD9155775
_publ_section_title
;
Structure prediction by ZEFSAII (Michael W. Deem and Ramdas Pophale) SiO2 
 PCOD9155775
Probable space group: P 21/M
;
_chemical_formula_sum "Si O2"
_cell_formula_units_Z 28
_cell_length_a 11.180002
_cell_length_b 16.794917
_cell_length_c 21.882672
_cell_angle_alpha 90.000000
_cell_angle_beta 22.293081
_cell_angle_gamma 90.000000
_cell_volume 1558.668664
_symmetry_space_group_name_H-M "P 21/M"
_symmetry_group_IT_number 11
_symmetry_cell_setting 'monoclinic'
loop_
_space_group_symop_operation_xyz
x,y,z
-x,1/2+y,-z
-x,-y,-z
x,1/2-y,z
loop_
_atom_site_type_symbol
_atom_site_label
_atom_site_fract_x
_atom_site_fract_y
_atom_site_fract_z
Si Si1 0.392936 0.066039 0.643277
Si Si2 0.182428 0.471055 0.473210
Si Si3 0.706635 0.480113 0.801005
Si Si4 0.756854 0.663143 0.955644
Si Si5 0.177439 0.601612 0.863390
Si Si6 0.129593 0.571275 0.021221
Si Si7 0.832523 0.079867 0.330370
O O1 0.565510 0.106948 0.504542
O O2 0.086890 0.102428 0.820710
O O3 0.644844 0.046813 0.576989
O O4 0.306518 0.979042 0.655756
O O5 0.454720 0.408034 0.327660
O O6 0.000000 0.500000 0.500000
O O7 0.929790 0.444252 0.642884
O O8 0.924614 0.523529 0.747392
O O9 0.489447 0.409527 0.928964
O O10 0.473997 0.546127 0.881718
O O11 0.608084 0.750000 0.024356
O O12 0.973511 0.654659 0.913930
O O13 0.985632 0.648973 0.790030
O O14 0.035135 0.513031 0.918646
O O15 0.140716 0.619566 0.952745
#
# Coordination Sequence:
#
# PCOD9155775 Si02
#       7
#     4   4   4   4   4   4   4
#     4   9  18  28  50  79 103 130 165 222 267 298
#     4  10  16  27  49  83 108 126 162 222 265 302
#     4  10  19  29  53  83 105 132 179 227 261 299
#     4  11  22  36  52  74 109 146 173 212 275 330
#     4   9  17  30  48  75 105 133 166 206 261 317
#     4   9  15  28  49  79 101 124 164 219 264 299
#     4  10  18  33  51  77 107 136 178 225 259 308
#
# _framework density 17.96405
#
# number of rings (size 3 to 8) (size 9 to 14) (size 15 to 20)
#    0.000    2.286    5.714    0.429    2.000    0.000 
#    0.000    0.714    0.000    1.714    0.000    0.000 
#    0.000    0.000    0.000    0.000    0.000    0.000 
#
# Total GULP energy -155917.669099 kJ/mol
# GULP energy per Si atom -5568.488182 kJ/mol
# Density = 1.792316 g / cm^3
# Si number density = 17.964050 Si / 1000 Ang^3
#
#
#
# Elastic Constant Matrix: (Units=GPa)
#
#
# Indices 1 2 3 4 5 6 
#
# 1 99.1782 11.4695 30.2596 0.0000 5.7872 0.0000
# 2 11.4695 25.3600 2.2902 0.0000 4.9315 0.0000
# 3 30.2596 2.2902 102.2608 0.0000 20.2297 0.0000
# 4 0.0000 0.0000 0.0000 4.8224 0.0000 0.0712
# 5 5.7872 4.9315 20.2297 0.0000 39.6143 0.0000
# 6 0.0000 0.0000 0.0000 0.0712 0.0000 5.4405
#
#
#
# Elastic Compliance Matrix: (Units=1/GPa)
#
#
# Indices 1 2 3 4 5 6 
#
# 1 0.011697 -0.005113 -0.003487 0.000000 0.000708 0.000000
# 2 -0.005113 0.042646 0.001624 0.000000 -0.005392 0.000000
# 3 -0.003487 0.001624 0.011917 0.000000 -0.005779 0.000000
# 4 0.000000 0.000000 0.000000 0.207405 0.000000 -0.002716
# 5 0.000708 -0.005392 -0.005779 0.000000 0.028762 0.000000
# 6 0.000000 0.000000 0.000000 -0.002716 0.000000 0.183842
#
#
# Mechanical properties :
#
#
# Convention : Reuss Voigt Hill
#
# Bulk Modulus (GPa) = 19.11681 34.98196 27.04938
# Shear Modulus (GPa) = 9.65891 22.16075 15.90983
#
# Velocity S-wave (km/s) = 2.32131 3.51610 2.97921
# Velocity P-wave (km/s) = 4.22486 5.99996 5.18888
#
# Compressibility (1/GPa) = 0.05231000
#
# Stress axis : x y z
#
# Youngs Moduli (GPa) = 85.49476 23.44873 83.91061
#
# Poissons Ratio (x) = 0.11989 0.29257
# Poissons Ratio (y) = 0.43712 -0.13631
# Poissons Ratio (z) = 0.29810 -0.03809
#
# Static dielectric constant tensor:
#      x y z
#    x 1.646990 0.000000 0.022630 
#    y 0.000000 1.583810 0.000000 
#    z 0.022630 0.000000 1.688090 
# 
# From -- ./inp_files/68687.got.cif
#   From: 2010.05.17/outbox.cif.g08.bks.cpg/sg11_35_cif.got.tgz:68687.got - 2010.06.03 12:22:45.
