data_PCOD9155051
_publ_section_title
;
Structure prediction by ZEFSAII (Michael W. Deem and Ramdas Pophale) SiO2 
 PCOD9155051
Probable space group: P 2/M
;
_chemical_formula_sum "Si O2"
_cell_formula_units_Z 32
_cell_length_a 29.907754
_cell_length_b 11.286559
_cell_length_c 5.304029
_cell_angle_alpha 90.000000
_cell_angle_beta 107.282280
_cell_angle_gamma 90.000000
_cell_volume 1709.572948
_symmetry_space_group_name_H-M "P 2/M"
_symmetry_group_IT_number 10
_symmetry_cell_setting 'monoclinic'
loop_
_space_group_symop_operation_xyz
x,y,z
-x,y,-z
-x,-y,-z
x,-y,z
loop_
_atom_site_type_symbol
_atom_site_label
_atom_site_fract_x
_atom_site_fract_y
_atom_site_fract_z
Si Si1 0.391226 0.144305 0.342035
Si Si2 0.149348 0.868177 0.724836
Si Si3 0.133845 0.372344 0.865142
Si Si4 0.769238 0.141366 0.487078
Si Si5 0.929795 0.627675 0.746448
Si Si6 0.716606 0.144887 0.895070
Si Si7 0.957362 0.872585 0.623810
Si Si8 0.553908 0.144447 0.066219
O O1 0.337289 0.181298 0.226199
O O2 0.421738 0.181860 0.152600
O O3 0.391092 0.000000 0.342959
O O4 0.415535 0.182083 0.642257
O O5 0.176635 0.845199 0.507527
O O6 0.093495 0.873273 0.596905
O O7 0.164699 0.000000 0.842201
O O8 0.159936 0.753217 0.908847
O O9 0.159321 0.500000 0.922002
O O10 0.098243 0.370237 0.039314
O O11 0.105681 0.372333 0.552230
O O12 0.747288 0.186425 0.708607
O O13 0.762549 0.000000 0.488545
O O14 0.739420 0.184449 0.196067
O O15 0.955087 0.500000 0.769867
O O16 0.957780 0.749705 0.773179
O O17 0.717001 0.000000 0.900539
O O18 0.000000 0.870639 0.500000
O O19 0.958524 0.000000 0.765424
O O20 0.553654 0.000000 0.065316
O O21 0.500000 0.182301 0.000000
#
# Coordination Sequence:
#
# PCOD9155051 Si02
#       8
#     4   4   4   4   4   4   4   4
#     4   9  15  22  32  44  63  92 123 162 213 258
#     4   9  18  32  50  71  94 121 151 186 231 278
#     4   9  18  33  52  73  96 121 150 184 224 270
#     4   9  17  27  40  58  78 100 131 171 214 263
#     4   9  18  33  52  72  94 121 152 184 218 262
#     4   9  16  26  38  54  75  99 130 170 219 267
#     4   9  18  33  52  74  99 125 153 186 227 279
#     4   9  15  21  29  43  63  90 127 167 207 253
#
# _framework density 18.718122999999999
#
# number of rings (size 3 to 8) (size 9 to 14) (size 15 to 20)
#    0.000    3.000    0.000    1.125    0.000    7.250 
#    0.000    6.250    0.000   13.500    0.000    0.000 
#    0.000    0.000    0.000    0.000    0.000    0.000 
#
# Total GULP energy -178199.712205 kJ/mol
# GULP energy per Si atom -5568.741006 kJ/mol
# Density = 1.867552 g / cm^3
# Si number density = 18.718123 Si / 1000 Ang^3
#
#
#
# Elastic Constant Matrix: (Units=GPa)
#
#
# Indices 1 2 3 4 5 6 
#
# 1 95.1748 15.6182 27.3121 0.0000 3.5943 0.0000
# 2 15.6182 130.1098 1.8079 0.0000 -13.1459 0.0000
# 3 27.3121 1.8079 81.4920 0.0000 -4.2091 0.0000
# 4 0.0000 0.0000 0.0000 -182.5929 0.0000 58.7670
# 5 3.5943 -13.1459 -4.2091 0.0000 31.5038 0.0000
# 6 0.0000 0.0000 0.0000 58.7670 0.0000 -17.9328
#
#
#
# Elastic Compliance Matrix: (Units=1/GPa)
#
#
# Indices 1 2 3 4 5 6 
#
# 1 0.012066 -0.001656 -0.004143 0.000000 -0.002621 0.000000
# 2 -0.001656 0.008251 0.000563 0.000000 0.003707 0.000000
# 3 -0.004143 0.000563 0.013779 0.000000 0.002549 0.000000
# 4 0.000000 0.000000 0.000000 0.100091 0.000000 0.328006
# 5 -0.002621 0.003707 0.002549 0.000000 0.033929 0.000000
# 6 0.000000 0.000000 0.000000 0.328006 0.000000 1.019136
#
#
# Mechanical properties :
#
#
# Convention : Reuss Voigt Hill
#
# Bulk Modulus (GPa) = 42.32567 44.02810 43.17689
# Shear Modulus (GPa) = 4.14732 -16.33513 -6.09391
#
# Velocity S-wave (km/s) = 1.49013 -2.95734 -1.80629
# Velocity P-wave (km/s) = 5.06180 3.45131 4.33206
#
# Compressibility (1/GPa) = 0.02362632
#
# Stress axis : x y z
#
# Youngs Moduli (GPa) = 82.87411 121.19296 72.57568
#
# Poissons Ratio (x) = 0.20066 0.30066
# Poissons Ratio (y) = 0.13721 -0.04088
# Poissons Ratio (z) = 0.34333 -0.06827
#
# Static dielectric constant tensor:
#      x y z
#    x 1.650090 0.000000 0.010990 
#    y 0.000000 1.685650 0.000000 
#    z 0.010990 0.000000 1.693630 
# 
# From -- ./inp_files/13706.got.cif
#   From: 2010.05.17/outbox.cif.g08.bks.cpg/sg10_7_cif.got.tgz:13706.got - 2010.06.03 11:33:40.
