data_PCOD9155102
_publ_section_title
;
Structure prediction by ZEFSAII (Michael W. Deem and Ramdas Pophale) SiO2 
 PCOD9155102
Probable space group: P 2/M
;
_chemical_formula_sum "Si O2"
_cell_formula_units_Z 28
_cell_length_a 21.000000
_cell_length_b 9.000000
_cell_length_c 15.000000
_cell_angle_alpha 90.000000
_cell_angle_beta 150.000000
_cell_angle_gamma 90.000000
_cell_volume 1417.500000
_symmetry_space_group_name_H-M "P 2/M"
_symmetry_group_IT_number 10
_symmetry_cell_setting 'monoclinic'
loop_
_space_group_symop_operation_xyz
x,y,z
-x,y,-z
-x,-y,-z
x,-y,z
loop_
_atom_site_type_symbol
_atom_site_label
_atom_site_fract_x
_atom_site_fract_y
_atom_site_fract_z
Si Si1 0.000009 0.665219 0.605486
Si Si2 0.715567 0.819848 0.624309
Si Si3 0.536783 0.819507 0.243409
Si Si4 0.222708 0.169212 0.572788
Si Si5 0.756553 0.179808 0.870222
Si Si6 0.956253 0.829261 0.819616
Si Si7 0.283447 0.678815 0.995188
O O1 0.996917 0.500000 0.642676
O O2 0.000000 0.654748 0.500000
O O3 0.868841 0.743495 0.472577
O O4 0.138249 0.732097 0.798215
O O5 0.611126 0.774155 0.424973
O O6 0.688467 0.787659 0.693955
O O7 0.858924 0.763164 0.774377
O O8 0.723319 0.000000 0.625753
O O9 0.637199 0.776562 0.287007
O O10 0.397142 0.748084 0.074015
O O11 0.526918 0.000000 0.230612
O O12 0.135509 0.167631 0.377714
O O13 0.237451 0.000000 0.621797
O O14 0.695641 0.263691 0.879080
O O15 0.754050 0.000000 0.882620
O O16 0.904964 0.230025 0.037851
O O17 0.983570 0.000000 0.878906
O O18 0.286087 0.500000 0.990760
#
# Coordination Sequence:
#
# PCOD9155102 Si02
#       7
#     4   4   4   4   4   4   4
#     4  10  22  40  60  81 105 135 174 218 264 322
#     4   8  15  27  47  77 106 139 181 220 253 299
#     4   9  19  36  56  79 111 145 180 216 255 309
#     4   9  17  33  58  86 109 134 171 219 269 313
#     4  10  17  28  51  77 105 140 180 223 264 300
#     4   8  13  24  46  77 107 132 169 217 262 302
#     4  11  23  37  53  76 107 142 179 218 266 319
#
# _framework density 19.753086
#
# number of rings (size 3 to 8) (size 9 to 14) (size 15 to 20)
#    0.000    2.714    1.429    2.571    0.000    3.714 
#    0.000    4.286    0.000    6.857    0.000    0.000 
#    0.000    0.000    0.000    0.000    0.000    0.000 
#
# Total GULP energy -155927.235543 kJ/mol
# GULP energy per Si atom -5568.829841 kJ/mol
# Density = 1.970813 g / cm^3
# Si number density = 19.753086 Si / 1000 Ang^3
#
#
#
# Elastic Constant Matrix: (Units=GPa)
#
#
# Indices 1 2 3 4 5 6 
#
# 1 108.5047 30.1855 15.4092 0.0000 25.7681 0.0000
# 2 30.1855 21.3146 3.1819 0.0000 10.5325 0.0000
# 3 15.4092 3.1819 15.6078 0.0000 17.6263 0.0000
# 4 0.0000 0.0000 0.0000 18.5624 0.0000 8.2141
# 5 25.7681 10.5325 17.6263 0.0000 31.0008 0.0000
# 6 0.0000 0.0000 0.0000 8.2141 0.0000 26.4932
#
#
#
# Elastic Compliance Matrix: (Units=1/GPa)
#
#
# Indices 1 2 3 4 5 6 
#
# 1 0.017288 -0.023097 -0.013951 0.000000 0.001410 0.000000
# 2 -0.023097 0.092110 0.049415 0.000000 -0.040192 0.000000
# 3 -0.013951 0.049415 0.205742 0.000000 -0.122172 0.000000
# 4 0.000000 0.000000 0.000000 0.062439 0.000000 -0.019359
# 5 0.001410 -0.040192 -0.122172 0.000000 0.114205 0.000000
# 6 0.000000 0.000000 0.000000 -0.019359 0.000000 0.043748
#
#
# Mechanical properties :
#
#
# Convention : Reuss Voigt Hill
#
# Bulk Modulus (GPa) = 2.94227 26.99783 14.97005
# Shear Modulus (GPa) = 8.01165 21.65465 14.83315
#
# Velocity S-wave (km/s) = 2.01611 3.31458 2.74328
# Velocity P-wave (km/s) = 2.62914 5.32409 4.19871
#
# Compressibility (1/GPa) = 0.33987311
#
# Stress axis : x y z
#
# Youngs Moduli (GPa) = 57.84262 10.85655 4.86045
#
# Poissons Ratio (x) = 0.25076 0.06781
# Poissons Ratio (y) = 1.33601 -0.24018
# Poissons Ratio (z) = 0.80699 -0.53648
#
# Static dielectric constant tensor:
#      x y z
#    x 1.758640 0.000000 -0.001580 
#    y 0.000000 1.699580 0.000000 
#    z -0.001580 0.000000 1.726170 
# 
# From -- ./inp_files/70303.got.cif
#   From: 2010.05.17/outbox.ucp.g08.bks.cvg/sg10_36_cif.got.tgz:70303.got - 2010.06.11 11:31:16.
