data_PCOD9155811
_publ_section_title
;
Structure prediction by ZEFSAII (Michael W. Deem and Ramdas Pophale) SiO2 
 PCOD9155811
Probable space group: P 21/M
;
_chemical_formula_sum "Si O2"
_cell_formula_units_Z 32
_cell_length_a 15.422486
_cell_length_b 21.164051
_cell_length_c 9.386535
_cell_angle_alpha 90.000000
_cell_angle_beta 36.021931
_cell_angle_gamma 90.000000
_cell_volume 1801.797097
_symmetry_space_group_name_H-M "P 21/M"
_symmetry_group_IT_number 11
_symmetry_cell_setting 'monoclinic'
loop_
_space_group_symop_operation_xyz
x,y,z
-x,1/2+y,-z
-x,-y,-z
x,1/2-y,z
loop_
_atom_site_type_symbol
_atom_site_label
_atom_site_fract_x
_atom_site_fract_y
_atom_site_fract_z
Si Si1 0.206991 0.678803 0.213046
Si Si2 0.858369 0.494823 0.289256
Si Si3 0.575211 0.008267 0.055810
Si Si4 0.646772 0.612060 0.605439
Si Si5 0.420001 0.905779 0.416024
Si Si6 0.454788 0.676934 0.647507
Si Si7 0.481290 0.678032 0.067073
Si Si8 0.099965 0.549921 0.448605
O O1 0.143338 0.750000 0.297158
O O2 0.338003 0.676882 0.155837
O O3 0.094233 0.622630 0.402407
O O4 0.303713 0.670295 0.940952
O O5 0.787769 0.565477 0.409167
O O6 0.726350 0.449954 0.402935
O O7 0.908166 0.462421 0.371548
O O8 0.000000 0.500000 0.000000
O O9 0.486512 0.063907 0.246467
O O10 0.555316 0.949767 0.185900
O O11 0.736877 0.029119 0.810611
O O12 0.500000 0.000000 0.000000
O O13 0.602454 0.664664 0.547625
O O14 0.610267 0.640732 0.810109
O O15 0.443938 0.872261 0.533439
O O16 0.424866 0.853527 0.285870
O O17 0.459488 0.750000 0.592686
O O18 0.527806 0.750000 0.026368
O O19 0.000000 0.500000 0.500000
#
# Coordination Sequence:
#
# PCOD9155811 Si02
#       8
#     4   4   4   4   4   4   4   4
#     4   9  18  36  57  80 113 154 195 237 296 363
#     4  11  24  37  54  84 122 159 195 241 300 370
#     4  11  17  36  59  83 112 147 191 244 293 352
#     4  10  18  36  59  77 116 152 192 236 297 351
#     4  11  20  34  58  83 121 147 194 246 297 347
#     4  10  21  34  56  90 118 143 192 253 302 356
#     4  10  16  30  61  85 104 145 198 241 287 352
#     4  12  22  36  60  91 118 151 203 257 298 348
#
# _framework density 17.760045999999999
#
# number of rings (size 3 to 8) (size 9 to 14) (size 15 to 20)
#    0.000    1.500    7.500    1.500    1.750    3.000 
#    0.000    0.000    0.000   10.500    0.000    0.000 
#    0.000    0.000    0.000    0.000    0.000    0.000 
#
# Total GULP energy -178150.403465 kJ/mol
# GULP energy per Si atom -5567.200108 kJ/mol
# Density = 1.771962 g / cm^3
# Si number density = 17.760046 Si / 1000 Ang^3
#
#
#
# Elastic Constant Matrix: (Units=GPa)
#
#
# Indices 1 2 3 4 5 6 
#
# 1 35.2056 20.5921 19.4597 0.0000 12.8286 0.0000
# 2 20.5921 130.1887 46.5889 0.0000 8.3885 0.0000
# 3 19.4597 46.5889 94.7732 0.0000 13.7380 0.0000
# 4 0.0000 0.0000 0.0000 26.1386 0.0000 2.7197
# 5 12.8286 8.3885 13.7380 0.0000 24.7916 0.0000
# 6 0.0000 0.0000 0.0000 2.7197 0.0000 25.3062
#
#
#
# Elastic Compliance Matrix: (Units=1/GPa)
#
#
# Indices 1 2 3 4 5 6 
#
# 1 0.038721 -0.003725 -0.003695 0.000000 -0.016729 0.000000
# 2 -0.003725 0.009689 -0.004135 0.000000 0.000940 0.000000
# 3 -0.003695 -0.004135 0.013986 0.000000 -0.004439 0.000000
# 4 0.000000 0.000000 0.000000 0.038690 0.000000 -0.004158
# 5 -0.016729 0.000940 -0.004439 0.000000 0.051135 0.000000
# 6 0.000000 0.000000 0.000000 -0.004158 0.000000 0.039963
#
#
# Mechanical properties :
#
#
# Convention : Reuss Voigt Hill
#
# Bulk Modulus (GPa) = 25.45242 48.16101 36.80671
# Shear Modulus (GPa) = 21.89254 26.81574 24.35414
#
# Velocity S-wave (km/s) = 3.51477 3.88995 3.70711
# Velocity P-wave (km/s) = 5.55283 6.88128 6.25244
#
# Compressibility (1/GPa) = 0.03928899
#
# Stress axis : x y z
#
# Youngs Moduli (GPa) = 25.82570 103.20665 71.49928
#
# Poissons Ratio (x) = 0.38439 0.26417
# Poissons Ratio (y) = 0.09619 0.29562
# Poissons Ratio (z) = 0.09542 0.42672
#
# Static dielectric constant tensor:
#      x y z
#    x 1.638900 0.000000 0.032060 
#    y 0.000000 1.733280 0.000000 
#    z 0.032060 0.000000 1.607170 
# 
# From -- ./inp_files/23078.got.cif
#   From: 2010.05.17/outbox.cif.g08.bks.cpg/sg11_12_cif.got.tgz:23078.got - 2010.06.03 12:22:45.
