data_PCOD9155990
_publ_section_title
;
Structure prediction by ZEFSAII (Michael W. Deem and Ramdas Pophale) SiO2 
 PCOD9155990
Probable space group: P 21/M
;
_chemical_formula_sum "Si O2"
_cell_formula_units_Z 32
_cell_length_a 9.125323
_cell_length_b 16.837947
_cell_length_c 25.517000
_cell_angle_alpha 90.000000
_cell_angle_beta 26.570981
_cell_angle_gamma 90.000000
_cell_volume 1753.766937
_symmetry_space_group_name_H-M "P 21/M"
_symmetry_group_IT_number 11
_symmetry_cell_setting 'monoclinic'
loop_
_space_group_symop_operation_xyz
x,y,z
-x,1/2+y,-z
-x,-y,-z
x,1/2-y,z
loop_
_atom_site_type_symbol
_atom_site_label
_atom_site_fract_x
_atom_site_fract_y
_atom_site_fract_z
Si Si1 0.703857 0.920971 0.419592
Si Si2 0.299073 0.468670 0.774035
Si Si3 0.292621 0.478546 0.264162
Si Si4 0.132299 0.840516 0.647041
Si Si5 0.782710 0.657092 0.282722
Si Si6 0.427476 0.161355 0.966576
Si Si7 0.692774 0.495850 0.037952
Si Si8 0.094983 0.088209 0.171555
O O1 0.515875 0.854082 0.512517
O O2 0.686015 0.892443 0.365445
O O3 0.500000 0.000000 0.500000
O O4 0.072528 0.946879 0.315055
O O5 0.594851 0.504272 0.713153
O O6 0.357199 0.388440 0.723110
O O7 0.163173 0.532852 0.775938
O O8 0.005440 0.457485 0.910090
O O9 0.602775 0.472322 0.125701
O O10 0.077541 0.399693 0.323033
O O11 0.038742 0.750000 0.668562
O O12 0.056213 0.867406 0.730509
O O13 0.688693 0.750000 0.316517
O O14 0.179942 0.654166 0.152914
O O15 0.354198 0.250000 0.971012
O O16 0.294979 0.090815 0.972480
O O17 0.259223 0.145738 0.076525
O O18 0.380953 0.467792 0.103119
#
# Coordination Sequence:
#
# PCOD9155990 Si02
#       8
#     4   4   4   4   4   4   4   4
#     4  10  20  39  60  78 104 145 198 229 271 336
#     4  11  19  34  55  84 118 150 178 226 288 349
#     4  10  21  35  56  83 114 148 183 231 284 345
#     4  10  21  39  60  81 104 146 197 242 276 328
#     4  11  20  34  56  84 112 147 191 240 283 329
#     4  10  17  28  52  81 107 139 184 241 279 315
#     4  10  17  34  52  79 110 153 193 217 267 348
#     4  10  18  34  56  82 108 148 194 230 269 343
#
# _framework density 18.246438999999999
#
# number of rings (size 3 to 8) (size 9 to 14) (size 15 to 20)
#    0.000    1.750    3.750    3.375    0.000    0.000 
#    0.000   10.625    0.000    0.000    0.000    0.000 
#    0.000    0.000    0.000    0.000    0.000    0.000 
#
# Total GULP energy -178445.428427 kJ/mol
# GULP energy per Si atom -5576.419638 kJ/mol
# Density = 1.820491 g / cm^3
# Si number density = 18.246439 Si / 1000 Ang^3
#
#
#
# Elastic Constant Matrix: (Units=GPa)
#
#
# Indices 1 2 3 4 5 6 
#
# 1 87.2113 39.1986 17.6134 0.0000 7.6941 0.0000
# 2 39.1986 107.5497 28.6128 0.0000 9.2695 0.0000
# 3 17.6134 28.6128 76.4507 0.0000 16.4223 0.0000
# 4 0.0000 0.0000 0.0000 19.2651 0.0000 -1.5943
# 5 7.6941 9.2695 16.4223 0.0000 11.1977 0.0000
# 6 0.0000 0.0000 0.0000 -1.5943 0.0000 11.5806
#
#
#
# Elastic Compliance Matrix: (Units=1/GPa)
#
#
# Indices 1 2 3 4 5 6 
#
# 1 0.014066 -0.004565 -0.000391 0.000000 -0.005313 0.000000
# 2 -0.004565 0.011945 -0.002874 0.000000 -0.002537 0.000000
# 3 -0.000391 -0.002874 0.019968 0.000000 -0.026636 0.000000
# 4 0.000000 0.000000 0.000000 0.052506 0.000000 0.007228
# 5 -0.005313 -0.002537 -0.026636 0.000000 0.134118 0.000000
# 6 0.000000 0.000000 0.000000 0.007228 0.000000 0.087346
#
#
# Mechanical properties :
#
#
# Convention : Reuss Voigt Hill
#
# Bulk Modulus (GPa) = 32.98244 49.11792 41.05018
# Shear Modulus (GPa) = 14.46280 20.79448 17.62864
#
# Velocity S-wave (km/s) = 2.81844 3.37953 3.11165
# Velocity P-wave (km/s) = 5.35787 6.49661 5.95452
#
# Compressibility (1/GPa) = 0.03031916
#
# Stress axis : x y z
#
# Youngs Moduli (GPa) = 71.09485 83.71752 50.08061
#
# Poissons Ratio (x) = 0.38214 0.01958
# Poissons Ratio (y) = 0.32452 0.14393
# Poissons Ratio (z) = 0.02780 0.24061
#
# Static dielectric constant tensor:
#      x y z
#    x 1.634120 0.000000 -0.009070 
#    y 0.000000 1.636850 0.000000 
#    z -0.009070 0.000000 1.670590 
# 
# From -- ./inp_files/68184.got.cif
#   From: 2010.05.17/outbox.cif.g08.bks.cpg/sg11_35_cif.got.tgz:68184.got - 2010.06.03 12:22:45.
