data_PCOD9155780
_publ_section_title
;
Structure prediction by ZEFSAII (Michael W. Deem and Ramdas Pophale) SiO2 
 PCOD9155780
Probable space group: P 21/M
;
_chemical_formula_sum "Si O2"
_cell_formula_units_Z 30
_cell_length_a 17.738014
_cell_length_b 11.451241
_cell_length_c 15.434895
_cell_angle_alpha 90.000000
_cell_angle_beta 157.912781
_cell_angle_gamma 90.000000
_cell_volume 1178.879373
_symmetry_space_group_name_H-M "P 21/M"
_symmetry_group_IT_number 11
_symmetry_cell_setting 'monoclinic'
loop_
_space_group_symop_operation_xyz
x,y,z
-x,1/2+y,-z
-x,-y,-z
x,1/2-y,z
loop_
_atom_site_type_symbol
_atom_site_label
_atom_site_fract_x
_atom_site_fract_y
_atom_site_fract_z
Si Si1 0.637755 0.250000 0.743352
Si Si2 0.702633 0.879017 0.839452
Si Si3 0.229290 0.958900 0.235622
Si Si4 0.185954 0.616326 0.378905
Si Si5 0.117792 0.381318 0.408951
Si Si6 0.748854 0.877363 0.250115
Si Si7 0.639072 0.422109 0.886830
Si Si8 0.330688 0.621955 0.890542
O O1 0.750716 0.351268 0.807456
O O2 0.542733 0.350391 0.706944
O O3 0.625661 0.750000 0.753414
O O4 0.944865 0.877484 0.107046
O O5 0.633172 0.944477 0.852384
O O6 0.664413 0.936728 0.704699
O O7 0.280800 0.916695 0.386821
O O8 0.000000 0.000000 0.000000
O O9 0.242002 0.750000 0.467176
O O10 0.206730 0.500161 0.461250
O O11 0.174996 0.250000 0.438112
O O12 0.159145 0.382735 0.555719
O O13 0.876357 0.387016 0.137531
O O14 0.799117 0.750000 0.263512
O O15 0.788728 0.000763 0.246131
O O16 0.507889 0.876596 0.009039
O O17 0.572428 0.387545 0.911079
O O18 0.230098 0.750000 0.778550
#
# Coordination Sequence:
#
# PCOD9155780 Si02
#       8
#     2   4   4   4   4   4   4   4
#     4  10  16  28  40  70 100 126 166 202 238 282
#     4   8  16  26  37  63  98 129 162 199 244 291
#     4   9  16  22  39  60  96 135 163 196 242 288
#     4   9  16  27  41  65  98 136 167 200 244 294
#     4  10  19  32  48  72 105 132 161 206 255 296
#     4   9  21  37  53  74 102 128 163 210 248 300
#     4  10  18  29  50  72 100 130 161 205 244 297
#     4  10  19  36  57  75  95 128 172 202 245 300
#
# _framework density 25.447897000000001
#
# number of rings (size 3 to 8) (size 9 to 14) (size 15 to 20)
#    0.000    2.667    2.000    0.800    0.933    2.133 
#    0.000    0.000    0.000    0.000    0.000    3.733 
#    4.000    0.000    0.000    0.000    0.000    0.000 
#
# Total GULP energy -167115.923686 kJ/mol
# GULP energy per Si atom -5570.530790 kJ/mol
# Density = 2.538998 g / cm^3
# Si number density = 25.447897 Si / 1000 Ang^3
#
#
#
# Elastic Constant Matrix: (Units=GPa)
#
#
# Indices 1 2 3 4 5 6 
#
# 1 68.9709 49.1501 -6.3142 0.0000 8.9265 0.0000
# 2 49.1501 285.9290 32.5867 0.0000 -17.0274 0.0000
# 3 -6.3142 32.5867 64.7546 0.0000 4.3458 0.0000
# 4 0.0000 0.0000 0.0000 8.7134 0.0000 1.2666
# 5 8.9265 -17.0274 4.3458 0.0000 29.6218 0.0000
# 6 0.0000 0.0000 0.0000 1.2666 0.0000 24.5963
#
#
#
# Elastic Compliance Matrix: (Units=1/GPa)
#
#
# Indices 1 2 3 4 5 6 
#
# 1 0.019202 -0.004368 0.004674 0.000000 -0.008983 0.000000
# 2 -0.004368 0.004886 -0.003193 0.000000 0.004593 0.000000
# 3 0.004674 -0.003193 0.017899 0.000000 -0.005870 0.000000
# 4 0.000000 0.000000 0.000000 0.115631 0.000000 -0.005954
# 5 -0.008983 0.004593 -0.005870 0.000000 0.039968 0.000000
# 6 0.000000 0.000000 0.000000 -0.005954 0.000000 0.040963
#
#
# Mechanical properties :
#
#
# Convention : Reuss Voigt Hill
#
# Bulk Modulus (GPa) = 27.61503 63.38885 45.50194
# Shear Modulus (GPa) = 19.50112 35.53509 27.51811
#
# Velocity S-wave (km/s) = 2.77124 3.74088 3.29196
# Velocity P-wave (km/s) = 4.59509 6.60471 5.68934
#
# Compressibility (1/GPa) = 0.03621217
#
# Stress axis : x y z
#
# Youngs Moduli (GPa) = 52.07669 204.67840 55.86796
#
# Poissons Ratio (x) = 0.89413 -0.26111
# Poissons Ratio (y) = 0.22749 0.17838
# Poissons Ratio (z) = -0.24339 0.65351
#
# Static dielectric constant tensor:
#      x y z
#    x 1.979080 0.000000 0.051730 
#    y 0.000000 1.975370 0.000000 
#    z 0.051730 0.000000 2.142890 
# 
# From -- ./inp_files/45403.got.cif
#   From: 2010.05.17/outbox.cif.g08.bks.cpg/sg11_23_cif.got.tgz:45403.got - 2010.06.03 12:22:45.
