data_PCOD9155849
_publ_section_title
;
Structure prediction by ZEFSAII (Michael W. Deem and Ramdas Pophale) SiO2 
 PCOD9155849
Probable space group: P 21/M
;
_chemical_formula_sum "Si O2"
_cell_formula_units_Z 28
_cell_length_a 12.329598
_cell_length_b 14.622706
_cell_length_c 21.209252
_cell_angle_alpha 90.000000
_cell_angle_beta 164.651238
_cell_angle_gamma 90.000000
_cell_volume 1012.152297
_symmetry_space_group_name_H-M "P 21/M"
_symmetry_group_IT_number 11
_symmetry_cell_setting 'monoclinic'
loop_
_space_group_symop_operation_xyz
x,y,z
-x,1/2+y,-z
-x,-y,-z
x,1/2-y,z
loop_
_atom_site_type_symbol
_atom_site_label
_atom_site_fract_x
_atom_site_fract_y
_atom_site_fract_z
Si Si1 0.600388 0.107923 0.899030
Si Si2 0.946442 0.603710 0.724918
Si Si3 0.518922 0.250000 0.098388
Si Si4 0.469893 0.400794 0.317487
Si Si5 0.713779 0.750000 0.364396
Si Si6 0.486995 0.117405 0.635907
Si Si7 0.075860 0.887852 0.308497
Si Si8 0.589274 0.603848 0.864377
O O1 0.267232 0.170323 0.680443
O O2 0.505584 0.000284 0.837256
O O3 0.711453 0.131052 0.033591
O O4 0.031950 0.122725 0.103613
O O5 0.861508 0.648641 0.609397
O O6 0.013943 0.496210 0.749093
O O7 0.512983 0.619920 0.517193
O O8 0.659003 0.173856 0.232353
O O9 0.278111 0.329555 0.921944
O O10 0.528795 0.510271 0.357935
O O11 0.811290 0.362666 0.556379
O O12 0.448745 0.382409 0.231709
O O13 0.536512 0.672718 0.314739
O O14 0.933843 0.128674 0.854956
#
# Coordination Sequence:
#
# PCOD9155849 Si02
#       8
#     4   4   2   4   2   4   4   4
#     4  10  18  26  33  41  50  55  62  72  75  82
#     4   9  16  28  32  36  50  57  57  73  81  77
#     4  12  19  23  38  41  45  56  68  65  75  90
#     4   9  17  27  33  35  51  56  58  72  82  77
#     4  12  19  23  34  45  45  56  68  65  75  88
#     4  10  17  25  33  39  46  57  64  68  76  85
#     4   9  17  25  33  41  44  55  65  70  73  88
#     4  11  17  27  32  42  49  55  61  73  77  81
#
# _framework density 27.663822
#
# number of rings (size 3 to 8) (size 9 to 14) (size 15 to 20)
#    0.000    2.000    5.714    3.000    0.000    3.429 
#    0.000    0.000    0.000    0.000    0.000    0.000 
#    0.000    0.000    0.000    0.000    0.000    0.000 
#
# Total GULP energy -156086.762336 kJ/mol
# GULP energy per Si atom -5574.527226 kJ/mol
# Density = 2.760086 g / cm^3
# Si number density = 27.663822 Si / 1000 Ang^3
#
#
#
# Elastic Constant Matrix: (Units=GPa)
#
#
# Indices 1 2 3 4 5 6 
#
# 1 102.1986 13.6781 67.1574 0.0000 -28.1094 0.0000
# 2 13.6781 89.6145 1.0549 0.0000 2.8197 0.0000
# 3 67.1574 1.0549 73.2156 0.0000 -10.9438 0.0000
# 4 0.0000 0.0000 0.0000 146.5273 0.0000 98.6963
# 5 -28.1094 2.8197 -10.9438 0.0000 77.5019 0.0000
# 6 0.0000 0.0000 0.0000 98.6963 0.0000 115.7133
#
#
#
# Elastic Compliance Matrix: (Units=1/GPa)
#
#
# Indices 1 2 3 4 5 6 
#
# 1 0.029171 -0.004375 -0.025630 0.000000 0.007120 0.000000
# 2 -0.004375 0.011831 0.003617 0.000000 -0.001506 0.000000
# 3 -0.025630 0.003617 0.036476 0.000000 -0.004277 0.000000
# 4 0.000000 0.000000 0.000000 0.016040 0.000000 -0.013681
# 5 0.007120 -0.001506 -0.004277 0.000000 0.014936 0.000000
# 6 0.000000 0.000000 0.000000 -0.013681 0.000000 0.020311
#
#
# Mechanical properties :
#
#
# Convention : Reuss Voigt Hill
#
# Bulk Modulus (GPa) = 40.48021 47.64552 44.06286
# Shear Modulus (GPa) = 26.34715 80.15773 53.25244
#
# Velocity S-wave (km/s) = 3.08945 5.38874 4.39222
# Velocity P-wave (km/s) = 5.23364 7.48188 6.45637
#
# Compressibility (1/GPa) = 0.02470343
#
# Stress axis : x y z
#
# Youngs Moduli (GPa) = 34.28104 84.52049 27.41539
#
# Poissons Ratio (x) = 0.36975 0.70265
# Poissons Ratio (y) = 0.14997 -0.09916
# Poissons Ratio (z) = 0.87861 -0.30572
#
# Static dielectric constant tensor:
#      x y z
#    x 2.209530 0.000000 0.065560 
#    y 0.000000 2.342860 0.000000 
#    z 0.065560 0.000000 2.400860 
# 
# From -- ./inp_files/73665.got.cif
#   From: 2010.05.17/outbox.cif.g08.bks.cpg/sg11_37_cif.got.tgz:73665.got - 2010.06.03 12:22:45.
