data_PCOD9155778
_publ_section_title
;
Structure prediction by ZEFSAII (Michael W. Deem and Ramdas Pophale) SiO2 
 PCOD9155778
Probable space group: P 21/M
;
_chemical_formula_sum "Si O2"
_cell_formula_units_Z 16
_cell_length_a 28.530965
_cell_length_b 5.664407
_cell_length_c 29.747462
_cell_angle_alpha 90.000000
_cell_angle_beta 15.183898
_cell_angle_gamma 90.000000
_cell_volume 1259.175083
_symmetry_space_group_name_H-M "P 21/M"
_symmetry_group_IT_number 11
_symmetry_cell_setting 'monoclinic'
loop_
_space_group_symop_operation_xyz
x,y,z
-x,1/2+y,-z
-x,-y,-z
x,1/2-y,z
loop_
_atom_site_type_symbol
_atom_site_label
_atom_site_fract_x
_atom_site_fract_y
_atom_site_fract_z
Si Si1 0.593685 0.750000 0.356913
Si Si2 0.090774 0.750000 0.855432
Si Si3 0.707358 0.750000 0.346436
Si Si4 0.799250 0.250000 0.151349
Si Si5 0.613545 0.250000 0.539658
Si Si6 0.218483 0.750000 0.934720
Si Si7 0.634515 0.750000 0.519157
Si Si8 0.198530 0.250000 0.955142
O O1 0.564635 0.750000 0.437430
O O2 0.693812 0.500000 0.254336
O O3 0.430173 0.750000 0.473195
O O4 0.190734 0.500000 0.754574
O O5 0.060159 0.750000 0.937776
O O6 0.924073 0.750000 0.975910
O O7 0.640834 0.750000 0.459183
O O8 0.860401 0.250000 0.042967
O O9 0.708636 0.494154 0.464095
O O10 0.410183 0.250000 0.747209
O O11 0.430924 0.750000 0.726468
O O12 0.165715 0.505846 0.007016
#
# Coordination Sequence:
#
# PCOD9155778 Si02
#       8
#     2   2   2   2   2   2   2   2
#     4  10  16  28  34  46  56  60  76  76  92 102
#     4  10  21  30  35  46  58  67  74  77  92 104
#     4  10  21  30  35  46  58  67  74  77  92 104
#     4  10  16  28  34  46  56  60  76  76  92 102
#     4  10  17  28  39  50  52  61  78  83  98  92
#     4  10  17  28  39  50  52  61  78  83  98  92
#     4  10  18  28  40  46  56  64  72  88  88 102
#     4  10  18  28  40  46  56  64  72  88  88 102
#
# _framework density 12.706732000000001
#
# number of rings (size 3 to 8) (size 9 to 14) (size 15 to 20)
#    0.000    2.000    5.000    1.500    0.000    2.000 
#    0.000    0.000    0.000    0.000    0.000    0.000 
#    0.000    0.000    0.000    0.000    0.000    0.000 
#
# Total GULP energy -89200.498987 kJ/mol
# GULP energy per Si atom -5575.031187 kJ/mol
# Density = 1.267781 g / cm^3
# Si number density = 12.706732 Si / 1000 Ang^3
#
#
#
# Elastic Constant Matrix: (Units=GPa)
#
#
# Indices 1 2 3 4 5 6 
#
# 1 0.0013 0.2152 0.1745 0.0000 0.0175 0.0000
# 2 0.2152 181.4835 21.3488 0.0000 2.1439 0.0000
# 3 0.1745 21.3488 17.3156 0.0000 1.7389 0.0000
# 4 0.0000 0.0000 0.0000 26.2096 0.0000 2.6320
# 5 0.0175 2.1439 1.7389 0.0000 0.1746 0.0000
# 6 0.0000 0.0000 0.0000 2.6320 0.0000 0.2642
#
#
#
# Elastic Compliance Matrix: (Units=1/GPa)
#
#
# Indices 1 2 3 4 5 6 
#
# 1 ********** -0.000145 89.198628 0.000000********** 0.000002
# 2 -0.000145 0.006445 -0.007330 0.000000 -0.006123 0.000000
# 3 89.198628 -0.007330********** 0.000000********** -0.000001
# 4 0.000000 0.000000 0.000000-66.881074 -0.000001666.386461
# 5 ********** -0.006123********** -0.000001********** 0.000012
# 6 0.000002 0.000000 -0.000001666.386461 0.000015**********
#
#
# Mechanical properties :
#
#
# Convention : Reuss Voigt Hill
#
# Bulk Modulus (GPa) = -0.00043 26.91972 13.45964
# Shear Modulus (GPa) = -0.00019 17.13378 8.56680
#
# Velocity S-wave (km/s) = -0.01215 3.67604 2.59934
# Velocity P-wave (km/s) = 0.02323 6.26491 4.42993
#
# Compressibility (1/GPa) = *************
#
# Stress axis : x y z
#
# Youngs Moduli (GPa) = -0.00043 155.16202 -0.00593
#
# Poissons Ratio (x) = 0.02246 0.52876
# Poissons Ratio (y) = 0.00000 -0.00004
# Poissons Ratio (z) = 0.03863 1.13729
#
# Static dielectric constant tensor:
#      x y z
#    x 1.304300 0.000000 0.030450 
#    y 0.000000 1.559470 0.000000 
#    z 0.030450 0.000000 1.604470 
# 
# From -- ./inp_files/66322.got.cif
#   From: 2010.05.17/outbox.cif.g08.bks.cpg/sg11_34_cif.got.tgz:66322.got - 2010.06.03 12:22:45.
