data_PCOD9155894
_publ_section_title
;
Structure prediction by ZEFSAII (Michael W. Deem and Ramdas Pophale) SiO2 
 PCOD9155894
Probable space group: P 21/M
;
_chemical_formula_sum "Si O2"
_cell_formula_units_Z 32
_cell_length_a 18.356349
_cell_length_b 8.627167
_cell_length_c 25.398605
_cell_angle_alpha 90.000000
_cell_angle_beta 154.380746
_cell_angle_gamma 90.000000
_cell_volume 1739.157013
_symmetry_space_group_name_H-M "P 21/M"
_symmetry_group_IT_number 11
_symmetry_cell_setting 'monoclinic'
loop_
_space_group_symop_operation_xyz
x,y,z
-x,1/2+y,-z
-x,-y,-z
x,1/2-y,z
loop_
_atom_site_type_symbol
_atom_site_label
_atom_site_fract_x
_atom_site_fract_y
_atom_site_fract_z
Si Si1 0.333847 0.065273 0.132191
Si Si2 0.686193 0.936341 0.615699
Si Si3 0.870351 0.563743 0.627592
Si Si4 0.812663 0.434750 0.381639
Si Si5 0.494372 0.564952 0.127700
Si Si6 0.018465 0.935643 0.882047
Si Si7 0.179487 0.434391 0.878661
Si Si8 0.351064 0.435806 0.618542
O O1 0.656540 0.750000 0.863310
O O2 0.413245 0.996047 0.129876
O O3 0.457712 0.999286 0.257497
O O4 0.139905 0.011419 0.004514
O O5 0.679786 0.750000 0.612097
O O6 0.764963 0.983422 0.610771
O O7 0.822730 0.983009 0.749384
O O8 0.500000 0.000000 0.500000
O O9 0.895031 0.750000 0.645810
O O10 0.758901 0.527149 0.504240
O O11 0.052936 0.483921 0.749892
O O12 0.811598 0.250000 0.377202
O O13 0.685018 0.503886 0.254735
O O14 0.738870 0.488169 0.389781
O O15 0.000000 0.500000 0.500000
O O16 0.490727 0.750000 0.124697
O O17 0.370267 0.497275 0.002367
O O18 0.029299 0.750000 0.893344
O O19 0.096205 0.986555 0.876236
O O20 0.181164 0.250000 0.886372
O O21 0.355995 0.250000 0.628572
#
# Coordination Sequence:
#
# PCOD9155894 Si02
#       8
#     4   4   4   4   4   4   4   4
#     4  10  17  26  43  69  96 120 154 200 243 281
#     4   9  18  31  48  71  97 126 159 198 241 287
#     4   9  19  34  50  70  98 131 164 196 238 292
#     4  11  21  34  51  74 102 129 162 199 239 286
#     4  10  17  28  46  68  95 126 160 197 239 282
#     4   9  16  28  44  64  92 124 159 196 238 286
#     4  10  17  26  44  70  96 122 157 201 243 279
#     4  10  19  33  52  72  97 130 163 197 240 287
#
# _framework density 18.399719000000001
#
# number of rings (size 3 to 8) (size 9 to 14) (size 15 to 20)
#    0.000    2.250    0.000    9.000    0.000    3.500 
#    0.000    0.000    0.000    1.500    0.000    0.000 
#    0.000    0.000    0.000    0.000    0.000    0.000 
#
# Total GULP energy -178355.591356 kJ/mol
# GULP energy per Si atom -5573.612230 kJ/mol
# Density = 1.835784 g / cm^3
# Si number density = 18.399719 Si / 1000 Ang^3
#
#
#
# Elastic Constant Matrix: (Units=GPa)
#
#
# Indices 1 2 3 4 5 6 
#
# 1 13.8051 12.9602 33.7588 0.0000 -4.2651 0.0000
# 2 12.9602 102.6857 69.4888 0.0000 -9.9347 0.0000
# 3 33.7588 69.4888 225.2626 0.0000 -7.6489 0.0000
# 4 0.0000 0.0000 0.0000 50.4804 0.0000 -23.0480
# 5 -4.2651 -9.9347 -7.6489 0.0000 24.1016 0.0000
# 6 0.0000 0.0000 0.0000 -23.0480 0.0000 62.2058
#
#
#
# Elastic Compliance Matrix: (Units=1/GPa)
#
#
# Indices 1 2 3 4 5 6 
#
# 1 0.120378 -0.002375 -0.016799 0.000000 0.014992 0.000000
# 2 -0.002375 0.012730 -0.003444 0.000000 0.003734 0.000000
# 3 -0.016799 -0.003444 0.007956 0.000000 -0.001868 0.000000
# 4 0.000000 0.000000 0.000000 0.023843 0.000000 0.008834
# 5 0.014992 0.003734 -0.001868 0.000000 0.045091 0.000000
# 6 0.000000 0.000000 0.000000 0.008834 0.000000 0.019349
#
#
# Mechanical properties :
#
#
# Convention : Reuss Voigt Hill
#
# Bulk Modulus (GPa) = 10.43532 63.79656 37.11594
# Shear Modulus (GPa) = 16.31189 42.39393 29.35291
#
# Velocity S-wave (km/s) = 2.98069 4.80526 3.99844
# Velocity P-wave (km/s) = 4.18686 8.09538 6.44457
#
# Compressibility (1/GPa) = 0.09582838
#
# Stress axis : x y z
#
# Youngs Moduli (GPa) = 8.30718 78.55291 125.69328
#
# Poissons Ratio (x) = 0.18655 2.11148
# Poissons Ratio (y) = 0.01973 0.43293
# Poissons Ratio (z) = 0.13955 0.27056
#
# Static dielectric constant tensor:
#      x y z
#    x 1.631000 0.000000 -0.009950 
#    y 0.000000 1.615230 0.000000 
#    z -0.009950 0.000000 1.724220 
# 
# From -- ./inp_files/73642.got.cif
#   From: 2010.05.17/outbox.cif.g08.bks.cpg/sg11_37_cif.got.tgz:73642.got - 2010.06.03 12:22:45.
