data_PCOD9155391
_publ_section_title
;
Structure prediction by ZEFSAII (Michael W. Deem and Ramdas Pophale) SiO2 
 PCOD9155391
Probable space group: P 2/M
;
_chemical_formula_sum "Si O2"
_cell_formula_units_Z 28
_cell_length_a 9.000000
_cell_length_b 9.000000
_cell_length_c 27.000000
_cell_angle_alpha 90.000000
_cell_angle_beta 140.000000
_cell_angle_gamma 90.000000
_cell_volume 1405.776502
_symmetry_space_group_name_H-M "P 2/M"
_symmetry_group_IT_number 10
_symmetry_cell_setting 'monoclinic'
loop_
_space_group_symop_operation_xyz
x,y,z
-x,y,-z
-x,-y,-z
x,-y,z
loop_
_atom_site_type_symbol
_atom_site_label
_atom_site_fract_x
_atom_site_fract_y
_atom_site_fract_z
Si Si1 0.646688 0.819512 0.434640
Si Si2 0.972356 0.321834 0.135151
Si Si3 0.151886 0.170111 0.339663
Si Si4 0.507947 0.322838 0.294725
Si Si5 0.941123 0.828842 0.390976
Si Si6 0.777624 0.678060 0.975347
Si Si7 0.723013 0.821517 0.163659
O O1 0.407909 0.765342 0.398780
O O2 0.597589 0.759905 0.367172
O O3 0.886139 0.770830 0.521776
O O4 0.658680 0.000000 0.439401
O O5 0.954408 0.500000 0.140323
O O6 0.247314 0.283659 0.211007
O O7 0.827270 0.229625 0.137762
O O8 0.858736 0.294890 0.052587
O O9 0.103409 0.164675 0.384818
O O10 0.926771 0.232176 0.253513
O O11 0.169069 0.000000 0.324650
O O12 0.513375 0.500000 0.302248
O O13 0.720317 0.265703 0.316000
O O14 0.870729 0.000000 0.384334
O O15 0.748661 0.500000 0.961719
O O16 0.534692 0.753068 0.898338
O O17 0.000000 0.725349 0.000000
O O18 0.702694 0.000000 0.162625
#
# Coordination Sequence:
#
# PCOD9155391 Si02
#       7
#     4   4   4   4   4   4   4
#     4  10  19  37  61  83 111 152 198 236 281 343
#     4  10  22  41  61  83 113 155 197 230 276 343
#     4   9  19  36  58  86 116 147 189 239 285 334
#     4  11  23  37  56  84 118 152 191 239 287 335
#     4  10  21  36  58  84 113 153 195 237 286 339
#     4  10  23  42  64  87 116 153 191 230 278 342
#     4  11  22  38  62  91 119 148 187 237 290 336
#
# _framework density 19.917818
#
# number of rings (size 3 to 8) (size 9 to 14) (size 15 to 20)
#    0.000    1.857    1.429    2.143    2.000    7.143 
#    0.000    1.429    0.000    1.714    0.000    0.000 
#    0.000    0.000    0.000    0.000    0.000    0.000 
#
# Total GULP energy -155991.469301 kJ/mol
# GULP energy per Si atom -5571.123904 kJ/mol
# Density = 1.987248 g / cm^3
# Si number density = 19.917818 Si / 1000 Ang^3
#
#
#
# Elastic Constant Matrix: (Units=GPa)
#
#
# Indices 1 2 3 4 5 6 
#
# 1 72.7613 7.9315 14.1546 0.0000 17.3750 0.0000
# 2 7.9315 25.9961 19.1578 0.0000 9.9076 0.0000
# 3 14.1546 19.1578 98.1765 0.0000 29.2510 0.0000
# 4 0.0000 0.0000 0.0000 28.9109 0.0000 9.9909
# 5 17.3750 9.9076 29.2510 0.0000 40.9909 0.0000
# 6 0.0000 0.0000 0.0000 9.9909 0.0000 21.5660
#
#
#
# Elastic Compliance Matrix: (Units=1/GPa)
#
#
# Indices 1 2 3 4 5 6 
#
# 1 0.015431 -0.002457 0.000034 0.000000 -0.005971 0.000000
# 2 -0.002457 0.046450 -0.007208 0.000000 -0.005042 0.000000
# 3 0.000034 -0.007208 0.014062 0.000000 -0.008307 0.000000
# 4 0.000000 0.000000 0.000000 0.041182 0.000000 -0.019079
# 5 -0.005971 -0.005042 -0.008307 0.000000 0.034073 0.000000
# 6 0.000000 0.000000 0.000000 -0.019079 0.000000 0.055208
#
#
# Mechanical properties :
#
#
# Convention : Reuss Voigt Hill
#
# Bulk Modulus (GPa) = 17.64251 31.04687 24.34469
# Shear Modulus (GPa) = 20.44465 28.67288 24.55877
#
# Velocity S-wave (km/s) = 3.20730 3.79827 3.51523
# Velocity P-wave (km/s) = 4.75317 5.90399 5.35956
#
# Compressibility (1/GPa) = 0.05668127
#
# Stress axis : x y z
#
# Youngs Moduli (GPa) = 64.80607 21.52834 71.11174
#
# Poissons Ratio (x) = 0.05290 -0.00240
# Poissons Ratio (y) = 0.15925 0.51254
# Poissons Ratio (z) = -0.00219 0.15517
#
# Static dielectric constant tensor:
#      x y z
#    x 1.856960 0.000000 -0.003410 
#    y 0.000000 1.692780 0.000000 
#    z -0.003410 0.000000 1.682130 
# 
# From -- ./inp_files/37082.got.cif
#   From: 2010.05.17/outbox.ucp.g08.bks.cvg/sg10_19_cif.got.tgz:37082.got - 2010.06.11 11:31:16.
