data_PCOD9155763
_publ_section_title
;
Structure prediction by ZEFSAII (Michael W. Deem and Ramdas Pophale) SiO2 
 PCOD9155763
Probable space group: P 21/M
;
_chemical_formula_sum "Si O2"
_cell_formula_units_Z 30
_cell_length_a 12.325106
_cell_length_b 7.747974
_cell_length_c 22.978205
_cell_angle_alpha 90.000000
_cell_angle_beta 148.103813
_cell_angle_gamma 90.000000
_cell_volume 1159.425362
_symmetry_space_group_name_H-M "P 21/M"
_symmetry_group_IT_number 11
_symmetry_cell_setting 'monoclinic'
loop_
_space_group_symop_operation_xyz
x,y,z
-x,1/2+y,-z
-x,-y,-z
x,1/2-y,z
loop_
_atom_site_type_symbol
_atom_site_label
_atom_site_fract_x
_atom_site_fract_y
_atom_site_fract_z
Si Si1 0.890641 0.441138 0.359665
Si Si2 0.620953 0.554866 0.997788
Si Si3 0.285691 0.040106 0.082957
Si Si4 0.778761 0.539278 0.578711
Si Si5 0.684614 0.564565 0.373212
Si Si6 0.821264 0.048430 0.842060
Si Si7 0.077666 0.051579 0.231596
Si Si8 0.581490 0.250000 0.407987
O O1 0.801721 0.250000 0.312264
O O2 0.993989 0.496221 0.346424
O O3 0.735307 0.549175 0.327783
O O4 0.092476 0.429636 0.492529
O O5 0.557945 0.750000 0.960251
O O6 0.596159 0.475671 0.921346
O O7 0.500000 0.500000 0.000000
O O8 0.863906 0.544106 0.122888
O O9 0.292548 0.250000 0.088509
O O10 0.049871 0.984089 0.962903
O O11 0.314852 0.975130 0.162066
O O12 0.741058 0.750000 0.554350
O O13 0.799677 0.495597 0.655968
O O14 0.630005 0.405447 0.478928
O O15 0.589711 0.750000 0.345147
O O16 0.592705 0.398083 0.361223
O O17 0.843113 0.250000 0.838776
O O18 0.785058 0.954737 0.764103
O O19 0.019272 0.250000 0.215425
#
# Coordination Sequence:
#
# PCOD9155763 Si02
#       8
#     4   4   4   4   4   4   4   2
#     4   8  13  22  30  44  65  88 122 163 198 224
#     4  10  20  32  47  64  80 102 130 165 207 249
#     4   8  15  27  41  60  81  98 124 157 195 239
#     4   9  19  27  34  51  70  98 132 163 200 239
#     4   9  15  20  30  47  64  87 124 160 201 228
#     4   9  16  25  41  61  78 101 127 158 197 236
#     4  10  19  31  43  56  80 107 134 169 204 244
#     4  10  16  24  36  46  68  98 120 168 200 226
#
# _framework density 25.874884999999999
#
# number of rings (size 3 to 8) (size 9 to 14) (size 15 to 20)
#    0.000    2.933    0.667    3.200    7.467    3.733 
#    0.000    0.000    0.000    0.000    0.000    0.000 
#    0.000    0.000    0.000    0.000    0.000    0.000 
#
# Total GULP energy -167039.940655 kJ/mol
# GULP energy per Si atom -5567.998022 kJ/mol
# Density = 2.581599 g / cm^3
# Si number density = 25.874885 Si / 1000 Ang^3
#
#
#
# Elastic Constant Matrix: (Units=GPa)
#
#
# Indices 1 2 3 4 5 6 
#
# 1 162.9399 28.0314 43.6228 0.0000 -28.5712 0.0000
# 2 28.0314 91.6446 35.5332 0.0000 -19.3019 0.0000
# 3 43.6228 35.5332 143.0345 0.0000 -41.1727 0.0000
# 4 0.0000 0.0000 0.0000 14.8179 0.0000 -31.5688
# 5 -28.5712 -19.3019 -41.1727 0.0000 50.9946 0.0000
# 6 0.0000 0.0000 0.0000 -31.5688 0.0000 -0.6177
#
#
#
# Elastic Compliance Matrix: (Units=1/GPa)
#
#
# Indices 1 2 3 4 5 6 
#
# 1 0.007101 -0.001186 -0.001114 0.000000 0.002630 0.000000
# 2 -0.001186 0.012588 -0.002065 0.000000 0.002433 0.000000
# 3 -0.001114 -0.002065 0.009692 0.000000 0.006419 0.000000
# 4 0.000000 0.000000 0.000000 0.000614 0.000000 -0.031389
# 5 0.002630 0.002433 0.006419 0.000000 0.027187 0.000000
# 6 0.000000 0.000000 0.000000 -0.031389 0.000000 -0.014733
#
#
# Mechanical properties :
#
#
# Convention : Reuss Voigt Hill
#
# Bulk Modulus (GPa) = 48.42590 67.99932 58.21261
# Shear Modulus (GPa) = 86.11531 32.40105 59.25818
#
# Velocity S-wave (km/s) = 5.77526 3.54251 4.79078
# Velocity P-wave (km/s) = 7.95158 6.56274 7.29031
#
# Compressibility (1/GPa) = 0.02065010
#
# Stress axis : x y z
#
# Youngs Moduli (GPa) = 140.83185 79.44355 103.17907
#
# Poissons Ratio (x) = 0.09423 0.11492
# Poissons Ratio (y) = 0.16704 0.21307
# Poissons Ratio (z) = 0.15686 0.16406
#
# Static dielectric constant tensor:
#      x y z
#    x 2.149790 0.000000 0.080950 
#    y 0.000000 2.012790 0.000000 
#    z 0.080950 0.000000 2.141140 
# 
# From -- ./inp_files/64100.got.cif
#   From: 2010.05.17/outbox.cif.g08.bks.cpg/sg11_33_cif.got.tgz:64100.got - 2010.06.03 12:22:45.
