data_PCOD9155238
_publ_section_title
;
Structure prediction by ZEFSAII (Michael W. Deem and Ramdas Pophale) SiO2 
 PCOD9155238
Probable space group: P 2/M
;
_chemical_formula_sum "Si O2"
_cell_formula_units_Z 28
_cell_length_a 27.000000
_cell_length_b 12.000000
_cell_length_c 27.000000
_cell_angle_alpha 90.000000
_cell_angle_beta 170.000000
_cell_angle_gamma 90.000000
_cell_volume 1519.074258
_symmetry_space_group_name_H-M "P 2/M"
_symmetry_group_IT_number 10
_symmetry_cell_setting 'monoclinic'
loop_
_space_group_symop_operation_xyz
x,y,z
-x,y,-z
-x,-y,-z
x,-y,z
loop_
_atom_site_type_symbol
_atom_site_label
_atom_site_fract_x
_atom_site_fract_y
_atom_site_fract_z
Si Si1 0.193750 0.133459 0.409381
Si Si2 0.629432 0.500000 0.822145
Si Si3 0.348473 0.275716 0.091025
Si Si4 0.609785 0.630204 0.979239
Si Si5 0.499779 0.132945 0.396366
Si Si6 0.836704 0.500000 0.719629
Si Si7 0.959731 0.729578 0.900905
Si Si8 0.103997 0.628903 0.547995
O O1 0.408873 0.182806 0.662031
O O2 0.345675 0.148401 0.505033
O O3 0.132707 0.000000 0.354021
O O4 0.922612 0.213801 0.150836
O O5 0.583204 0.388725 0.810010
O O6 0.457931 0.500000 0.601115
O O7 0.948814 0.500000 0.115807
O O8 0.326442 0.310463 0.010951
O O9 0.538389 0.500000 0.896291
O O10 0.361452 0.681444 0.769646
O O11 0.863411 0.627355 0.268857
O O12 0.714965 0.178928 0.649810
O O13 0.434146 0.000000 0.336299
O O14 0.228791 0.213272 0.137879
O O15 0.880822 0.611634 0.796487
O O16 0.000000 0.714368 0.000000
O O17 0.192829 0.500000 0.646301
O O18 0.000000 0.672302 0.500000
#
# Coordination Sequence:
#
# PCOD9155238 Si02
#       8
#     4   2   4   4   4   2   4   4
#     4  11  24  41  62  84 116 155 194 238 285 349
#     4  12  24  38  63  88 115 156 188 234 279 350
#     4  12  22  38  59  89 120 152 195 237 296 340
#     4  10  19  32  49  80 120 150 192 238 286 338
#     4  11  24  43  65  89 115 147 190 241 295 349
#     4  12  25  42  60  84 118 154 197 222 273 344
#     4  12  25  42  64  89 118 150 187 238 289 342
#     4   9  17  29  48  72 111 163 199 229 276 342
#
# _framework density 18.432279000000001
#
# number of rings (size 3 to 8) (size 9 to 14) (size 15 to 20)
#    0.000    1.000    0.714    7.929    0.000    5.714 
#    0.000    2.143    0.000    0.000    0.000    0.000 
#    0.000   40.000    0.000    0.000    0.000    0.000 
#
# Total GULP energy -156169.078639 kJ/mol
# GULP energy per Si atom -5577.467094 kJ/mol
# Density = 1.839033 g / cm^3
# Si number density = 18.432279 Si / 1000 Ang^3
#
#
#
# Elastic Constant Matrix: (Units=GPa)
#
#
# Indices 1 2 3 4 5 6 
#
# 1 133.5371 55.6566 10.3640 0.0000 -6.8879 0.0000
# 2 55.6566 121.6895 27.2843 0.0000 0.6997 0.0000
# 3 10.3640 27.2843 70.2826 0.0000 4.7080 0.0000
# 4 0.0000 0.0000 0.0000 26.5725 0.0000 1.7641
# 5 -6.8879 0.6997 4.7080 0.0000 32.8840 0.0000
# 6 0.0000 0.0000 0.0000 1.7641 0.0000 27.1371
#
#
#
# Elastic Compliance Matrix: (Units=1/GPa)
#
#
# Indices 1 2 3 4 5 6 
#
# 1 0.009391 -0.004344 0.000165 0.000000 0.002036 0.000000
# 2 -0.004344 0.011014 -0.003593 0.000000 -0.000630 0.000000
# 3 0.000165 -0.003593 0.015742 0.000000 -0.002143 0.000000
# 4 0.000000 0.000000 0.000000 0.037796 0.000000 -0.002457
# 5 0.002036 -0.000630 -0.002143 0.000000 0.031157 0.000000
# 6 0.000000 0.000000 0.000000 -0.002457 0.000000 0.037010
#
#
# Mechanical properties :
#
#
# Convention : Reuss Voigt Hill
#
# Bulk Modulus (GPa) = 48.53478 56.90212 52.71845
# Shear Modulus (GPa) = 30.39135 32.79901 31.59518
#
# Velocity S-wave (km/s) = 4.06496 4.22291 4.14469
# Velocity P-wave (km/s) = 6.95848 7.39697 7.18107
#
# Compressibility (1/GPa) = 0.02060378
#
# Stress axis : x y z
#
# Youngs Moduli (GPa) = 106.48185 90.79684 63.52348
#
# Poissons Ratio (x) = 0.39442 -0.01049
# Poissons Ratio (y) = 0.46256 0.22823
# Poissons Ratio (z) = -0.01758 0.32622
#
# Static dielectric constant tensor:
#      x y z
#    x 1.617560 0.000000 0.019000 
#    y 0.000000 1.610190 0.000000 
#    z 0.019000 0.000000 1.798570 
# 
# From -- ./inp_files/94046.got.cif
#   From: 2010.05.17/outbox.ucp.g08.bks.cvg/sg10_48_cif.got.tgz:94046.got - 2010.06.11 11:31:16.
