data_PCOD9155129
_publ_section_title
;
Structure prediction by ZEFSAII (Michael W. Deem and Ramdas Pophale) SiO2 
 PCOD9155129
Probable space group: P 2/M
;
_chemical_formula_sum "Si O2"
_cell_formula_units_Z 32
_cell_length_a 15.000000
_cell_length_b 15.000000
_cell_length_c 21.000000
_cell_angle_alpha 90.000000
_cell_angle_beta 20.000000
_cell_angle_gamma 90.000000
_cell_volume 1616.045177
_symmetry_space_group_name_H-M "P 2/M"
_symmetry_group_IT_number 10
_symmetry_cell_setting 'monoclinic'
loop_
_space_group_symop_operation_xyz
x,y,z
-x,y,-z
-x,-y,-z
x,-y,z
loop_
_atom_site_type_symbol
_atom_site_label
_atom_site_fract_x
_atom_site_fract_y
_atom_site_fract_z
Si Si1 0.268731 0.667770 0.603892
Si Si2 0.152218 0.606130 0.330732
Si Si3 0.609834 0.854619 0.546261
Si Si4 0.344097 0.399771 0.418786
Si Si5 0.056517 0.902651 0.867279
Si Si6 0.336969 0.719368 0.986065
Si Si7 0.357059 0.762677 0.829189
Si Si8 0.138258 0.904302 0.148214
O O1 0.500000 0.649736 0.500000
O O2 0.337288 0.764687 0.529186
O O3 0.306136 0.601954 0.519671
O O4 0.953836 0.674222 0.829406
O O5 0.203468 0.500000 0.289006
O O6 0.429131 0.657943 0.143953
O O7 0.000000 0.618972 0.500000
O O8 0.931569 0.632518 0.426772
O O9 0.361052 0.898689 0.679224
O O10 0.532261 0.828119 0.669549
O O11 0.881680 0.904364 0.363461
O O12 0.390089 0.500000 0.363820
O O13 0.582332 0.334193 0.241216
O O14 0.984068 0.899909 0.841386
O O15 0.955548 0.000000 0.958038
O O16 0.921479 0.813088 0.984898
O O17 0.427660 0.750747 0.855221
O O18 0.291420 0.811846 0.054830
O O19 0.278043 0.000000 0.060144
#
# Coordination Sequence:
#
# PCOD9155129 Si02
#       8
#     4   4   4   4   4   4   4   4
#     4  10  21  37  57  84 124 166 194 229 286 360
#     4  10  20  38  67  92 112 144 195 261 310 343
#     4  10  18  30  50  76 111 158 203 240 282 334
#     4  10  22  40  61  87 117 151 199 248 296 354
#     4  10  19  30  49  78 112 154 204 250 288 336
#     4  10  20  36  60  88 119 154 197 246 304 349
#     4  10  20  32  51  80 115 148 187 245 299 350
#     4   9  18  32  51  78 115 155 196 241 291 354
#
# _framework density 19.801427
#
# number of rings (size 3 to 8) (size 9 to 14) (size 15 to 20)
#    0.000    2.125    1.250    3.375    0.000    4.750 
#    0.000    1.250    0.000   13.875    0.000    7.875 
#    0.000    0.000    0.000    0.000    0.000    0.000 
#
# Total GULP energy -178223.345916 kJ/mol
# GULP energy per Si atom -5569.479560 kJ/mol
# Density = 1.975636 g / cm^3
# Si number density = 19.801427 Si / 1000 Ang^3
#
#
#
# Elastic Constant Matrix: (Units=GPa)
#
#
# Indices 1 2 3 4 5 6 
#
# 1 49.5707 -1.2404 8.8455 0.0000 -4.4673 0.0000
# 2 -1.2404 106.3423 41.0988 0.0000 -16.3620 0.0000
# 3 8.8455 41.0988 88.5353 0.0000 -8.7290 0.0000
# 4 0.0000 0.0000 0.0000 18.7119 0.0000 -5.8553
# 5 -4.4673 -16.3620 -8.7290 0.0000 26.2536 0.0000
# 6 0.0000 0.0000 0.0000 -5.8553 0.0000 14.5681
#
#
#
# Elastic Compliance Matrix: (Units=1/GPa)
#
#
# Indices 1 2 3 4 5 6 
#
# 1 0.021026 0.001834 -0.002571 0.000000 0.003866 0.000000
# 2 0.001834 0.012461 -0.005346 0.000000 0.006300 0.000000
# 3 -0.002571 -0.005346 0.014125 0.000000 0.000927 0.000000
# 4 0.000000 0.000000 0.000000 0.061130 0.000000 0.024570
# 5 0.003866 0.006300 0.000927 0.000000 0.042982 0.000000
# 6 0.000000 0.000000 0.000000 0.024570 0.000000 0.078519
#
#
# Mechanical properties :
#
#
# Convention : Reuss Voigt Hill
#
# Bulk Modulus (GPa) = 28.21291 37.98403 33.09847
# Shear Modulus (GPa) = 19.66760 24.95635 22.31197
#
# Velocity S-wave (km/s) = 3.15499 3.55397 3.36041
# Velocity P-wave (km/s) = 5.24889 6.00541 5.63985
#
# Compressibility (1/GPa) = 0.03544476
#
# Stress axis : x y z
#
# Youngs Moduli (GPa) = 47.55971 80.25315 70.79661
#
# Poissons Ratio (x) = -0.14715 0.18200
# Poissons Ratio (y) = -0.08720 0.37850
# Poissons Ratio (z) = 0.12226 0.42906
#
# Static dielectric constant tensor:
#      x y z
#    x 1.708920 0.000000 0.047560 
#    y 0.000000 1.762550 0.000000 
#    z 0.047560 0.000000 1.721800 
# 
# From -- ./inp_files/85393.got.cif
#   From: 2010.05.17/outbox.ucp.g08.bks.cvg/sg10_43_cif.got.tgz:85393.got - 2010.06.11 11:31:16.
