data_PCOD9155928
_publ_section_title
;
Structure prediction by ZEFSAII (Michael W. Deem and Ramdas Pophale) SiO2 
 PCOD9155928
Probable space group: P 21/M
;
_chemical_formula_sum "Si O2"
_cell_formula_units_Z 32
_cell_length_a 17.472249
_cell_length_b 14.458779
_cell_length_c 11.880892
_cell_angle_alpha 90.000000
_cell_angle_beta 157.690789
_cell_angle_gamma 90.000000
_cell_volume 1139.360818
_symmetry_space_group_name_H-M "P 21/M"
_symmetry_group_IT_number 11
_symmetry_cell_setting 'monoclinic'
loop_
_space_group_symop_operation_xyz
x,y,z
-x,1/2+y,-z
-x,-y,-z
x,1/2-y,z
loop_
_atom_site_type_symbol
_atom_site_label
_atom_site_fract_x
_atom_site_fract_y
_atom_site_fract_z
Si Si1 0.483951 0.907051 0.141071
Si Si2 0.012588 0.389959 0.266864
Si Si3 0.539940 0.884244 0.986585
Si Si4 0.022777 0.887161 0.529009
Si Si5 0.950021 0.390422 0.931111
Si Si6 0.463508 0.151677 0.261593
Si Si7 0.415622 0.542560 0.273553
Si Si8 0.065256 0.887162 0.339598
O O1 0.445949 0.008027 0.033355
O O2 0.559341 0.917073 0.371416
O O3 0.611126 0.863539 0.212061
O O4 0.263223 0.866565 0.860344
O O5 0.063103 0.357932 0.465001
O O6 0.065978 0.500147 0.337874
O O7 0.035551 0.355086 0.168336
O O8 0.766538 0.391725 0.943143
O O9 0.601444 0.837407 0.955691
O O10 0.301141 0.861807 0.667218
O O11 0.978370 0.853503 0.341212
O O12 0.000000 0.000000 0.500000
O O13 0.705964 0.371261 0.597741
O O14 0.016858 0.358044 0.895582
O O15 0.000000 0.500000 0.000000
O O16 0.433097 0.250000 0.280701
O O17 0.351448 0.056726 0.137896
O O18 0.500000 0.500000 0.500000
#
# Coordination Sequence:
#
# PCOD9155928 Si02
#       8
#     4   4   4   4   4   4   4   4
#     4   8  14  23  40  62  87 113 151 193 232 272
#     4   9  15  24  40  63  89 116 153 197 232 272
#     4   8  14  26  41  62  88 116 147 191 243 285
#     4   8  13  21  34  58  89 112 139 186 236 267
#     4   9  16  27  44  67  90 117 157 198 239 286
#     4  10  19  30  46  69  97 126 158 204 261 304
#     4  10  17  27  44  67  93 127 161 200 237 281
#     4   8  14  23  38  61  90 112 142 192 239 273
#
# _framework density 28.085923000000001
#
# number of rings (size 3 to 8) (size 9 to 14) (size 15 to 20)
#    0.000    3.250    1.250    0.000    0.000    0.000 
#    0.000    0.000    0.000    7.500    0.000    0.000 
#    0.000  319.000    0.000    0.000    0.000    0.000 
#
# Total GULP energy -178149.248753 kJ/mol
# GULP energy per Si atom -5567.164024 kJ/mol
# Density = 2.802200 g / cm^3
# Si number density = 28.085923 Si / 1000 Ang^3
#
#
#
# Elastic Constant Matrix: (Units=GPa)
#
#
# Indices 1 2 3 4 5 6 
#
# 1 280.3322 18.3313 59.1407 0.0000 -70.3725 0.0000
# 2 18.3313 94.7331 -8.1891 0.0000 -4.3388 0.0000
# 3 59.1407 -8.1891 104.8063 0.0000 -56.3217 0.0000
# 4 0.0000 0.0000 0.0000 -23.0101 0.0000 -3.3256
# 5 -70.3725 -4.3388 -56.3217 0.0000 76.2602 0.0000
# 6 0.0000 0.0000 0.0000 -3.3256 0.0000 -33.1185
#
#
#
# Elastic Compliance Matrix: (Units=1/GPa)
#
#
# Indices 1 2 3 4 5 6 
#
# 1 0.004718 -0.000797 -0.000679 0.000000 0.003807 0.000000
# 2 -0.000797 0.010953 0.002065 0.000000 0.001412 0.000000
# 3 -0.000679 0.002065 0.016269 0.000000 0.011507 0.000000
# 4 0.000000 0.000000 0.000000 -0.044099 0.000000 0.004428
# 5 0.003807 0.001412 0.011507 0.000000 0.025205 0.000000
# 6 0.000000 0.000000 0.000000 0.004428 0.000000 -0.030639
#
#
# Mechanical properties :
#
#
# Convention : Reuss Voigt Hill
#
# Bulk Modulus (GPa) = 30.19454 68.71525 49.45490
# Shear Modulus (GPa) = -646.82298 31.39891 -307.71204
#
# Velocity S-wave (km/s) = -15.19215 3.34722 -10.47849
# Velocity P-wave (km/s) = 17.23256 6.28153 11.34688
#
# Compressibility (1/GPa) = 0.03311857
#
# Stress axis : x y z
#
# Youngs Moduli (GPa) = 211.94088 91.29566 61.46515
#
# Poissons Ratio (x) = 0.07279 0.04172
# Poissons Ratio (y) = 0.16898 -0.12691
# Poissons Ratio (z) = 0.14385 -0.18850
#
# Static dielectric constant tensor:
#      x y z
#    x 2.673770 0.000000 -0.318060 
#    y 0.000000 1.695930 0.000000 
#    z -0.318060 0.000000 2.702400 
# 
# From -- ./inp_files/35881.got.cif
#   From: 2010.05.17/outbox.cif.g08.bks.cpg/sg11_18_cif.got.tgz:35881.got - 2010.06.03 12:22:45.
