data_PCOD9155588
_publ_section_title
;
Structure prediction by ZEFSAII (Michael W. Deem and Ramdas Pophale) SiO2 
 PCOD9155588
Probable space group: P 2/M
;
_chemical_formula_sum "Si O2"
_cell_formula_units_Z 32
_cell_length_a 15.000000
_cell_length_b 9.000000
_cell_length_c 12.000000
_cell_angle_alpha 90.000000
_cell_angle_beta 90.000000
_cell_angle_gamma 90.000000
_cell_volume 1620.000000
_symmetry_space_group_name_H-M "P 2/M"
_symmetry_group_IT_number 10
_symmetry_cell_setting 'monoclinic'
loop_
_space_group_symop_operation_xyz
x,y,z
-x,y,-z
-x,-y,-z
x,-y,z
loop_
_atom_site_type_symbol
_atom_site_label
_atom_site_fract_x
_atom_site_fract_y
_atom_site_fract_z
Si Si1 0.262675 0.162151 0.029096
Si Si2 0.832032 0.833154 0.738394
Si Si3 0.327251 0.173594 0.685011
Si Si4 0.572727 0.324823 0.920661
Si Si5 0.686850 0.826060 0.569919
Si Si6 0.986890 0.671968 0.870494
Si Si7 0.477821 0.320921 0.323585
Si Si8 0.815566 0.327639 0.156112
O O1 0.186239 0.218898 0.949800
O O2 0.295884 0.000000 0.995610
O O3 0.232443 0.155654 0.155258
O O4 0.335952 0.287578 0.021615
O O5 0.769428 0.765100 0.642490
O O6 0.916064 0.751628 0.791573
O O7 0.858015 0.000000 0.702697
O O8 0.290679 0.178312 0.559559
O O9 0.424788 0.248266 0.679255
O O10 0.259742 0.263441 0.762974
O O11 0.334568 0.000000 0.718481
O O12 0.558770 0.500000 0.914857
O O13 0.565808 0.274234 0.794578
O O14 0.500000 0.253464 0.000000
O O15 0.593687 0.740937 0.588801
O O16 0.673374 0.000000 0.602079
O O17 0.958441 0.500000 0.882234
O O18 0.081912 0.678106 0.808003
O O19 0.000000 0.724268 0.000000
O O20 0.484818 0.500000 0.332928
O O21 0.797046 0.500000 0.128906
#
# Coordination Sequence:
#
# PCOD9155588 Si02
#       8
#     4   4   4   4   4   4   4   4
#     4  11  21  34  57  86 116 152 192 236 289 350
#     4  10  21  37  60  89 118 149 191 242 289 342
#     4  11  24  41  62  85 116 159 204 247 295 349
#     4  10  21  35  51  77 116 159 195 235 289 345
#     4  10  22  42  62  85 120 160 201 248 295 342
#     4  10  21  38  61  89 119 154 191 234 295 359
#     4  11  22  36  59  89 120 157 203 248 291 346
#     4  11  23  40  61  86 122 156 191 244 299 356
#
# _framework density 19.753086
#
# number of rings (size 3 to 8) (size 9 to 14) (size 15 to 20)
#    0.000    1.500    2.500    2.625    0.000    6.500 
#    0.000    0.625    0.000    3.750    0.000    0.000 
#    0.000    0.000    0.000    0.000    0.000    0.000 
#
# Total GULP energy -178248.272240 kJ/mol
# GULP energy per Si atom -5570.258507 kJ/mol
# Density = 1.970813 g / cm^3
# Si number density = 19.753086 Si / 1000 Ang^3
#
#
#
# Elastic Constant Matrix: (Units=GPa)
#
#
# Indices 1 2 3 4 5 6 
#
# 1 75.8590 3.6974 37.0581 0.0000 27.6416 0.0000
# 2 3.6974 13.8163 33.8244 0.0000 13.7883 0.0000
# 3 37.0581 33.8244 50.7788 0.0000 2.4470 0.0000
# 4 0.0000 0.0000 0.0000 19.9537 0.0000 -2.8852
# 5 27.6416 13.7883 2.4470 0.0000 13.6866 0.0000
# 6 0.0000 0.0000 0.0000 -2.8852 0.0000 81.7884
#
#
#
# Elastic Compliance Matrix: (Units=1/GPa)
#
#
# Indices 1 2 3 4 5 6 
#
# 1 0.010104 -0.022751 0.007727 0.000000 0.001133 0.000000
# 2 -0.022751 0.000234 0.014369 0.000000 0.043144 0.000000
# 3 0.007727 0.014369 0.005984 0.000000 -0.031150 0.000000
# 4 0.000000 0.000000 0.000000 0.050373 0.000000 0.001777
# 5 0.001133 0.043144 -0.031150 0.000000 0.032880 0.000000
# 6 0.000000 0.000000 0.000000 0.001777 0.000000 0.012289
#
#
# Mechanical properties :
#
#
# Convention : Reuss Voigt Hill
#
# Bulk Modulus (GPa) = 66.62057 32.17934 49.39995
# Shear Modulus (GPa) = 42.30813 27.47736 34.89274
#
# Velocity S-wave (km/s) = 4.63303 3.73371 4.20747
# Velocity P-wave (km/s) = 7.90062 5.90878 6.97616
#
# Compressibility (1/GPa) = 0.01501038
#
# Stress axis : x y z
#
# Youngs Moduli (GPa) = 98.97442 4264.57852 167.10145
#
# Poissons Ratio (x) = 97.02480 -1.29115
# Poissons Ratio (y) = 2.25180 -2.40100
# Poissons Ratio (z) = -0.76475 -61.27561
#
# Static dielectric constant tensor:
#      x y z
#    x 1.695560 0.000000 0.007030 
#    y 0.000000 1.705050 0.000000 
#    z 0.007030 0.000000 1.765190 
# 
# From -- ./inp_files/49864.got.cif
#   From: 2010.05.17/outbox.ucp.g08.bks.cvg/sg10_25_cif.got.tgz:49864.got - 2010.06.11 11:31:16.
