data_PCOD9155030
_publ_section_title
;
Structure prediction by ZEFSAII (Michael W. Deem and Ramdas Pophale) SiO2 
 PCOD9155030
Probable space group: P 2/M
;
_chemical_formula_sum "Si O2"
_cell_formula_units_Z 32
_cell_length_a 24.969743
_cell_length_b 7.473720
_cell_length_c 23.629727
_cell_angle_alpha 90.000000
_cell_angle_beta 160.075795
_cell_angle_gamma 90.000000
_cell_volume 1502.725160
_symmetry_space_group_name_H-M "P 2/M"
_symmetry_group_IT_number 10
_symmetry_cell_setting 'monoclinic'
loop_
_space_group_symop_operation_xyz
x,y,z
-x,y,-z
-x,-y,-z
x,-y,z
loop_
_atom_site_type_symbol
_atom_site_label
_atom_site_fract_x
_atom_site_fract_y
_atom_site_fract_z
Si Si1 0.928403 0.718200 0.488569
Si Si2 0.261780 0.280690 0.519384
Si Si3 0.682853 0.289369 0.551523
Si Si4 0.565791 0.281812 0.125820
Si Si5 0.936432 0.281923 0.257671
Si Si6 0.419000 0.282042 0.097351
Si Si7 0.849947 0.295715 0.829132
Si Si8 0.403236 0.208072 0.345166
O O1 0.928429 0.500000 0.488095
O O2 0.746674 0.773714 0.314212
O O3 0.000000 0.777250 0.500000
O O4 0.029903 0.771128 0.643837
O O5 0.262123 0.500000 0.521718
O O6 0.273084 0.217410 0.465686
O O7 0.425182 0.225928 0.712567
O O8 0.094523 0.225666 0.380706
O O9 0.714002 0.500000 0.579231
O O10 0.770285 0.214697 0.694143
O O11 0.501013 0.270301 0.388762
O O12 0.566221 0.500000 0.125734
O O13 0.457740 0.229118 0.071212
O O14 0.500000 0.222532 0.000000
O O15 0.935317 0.500000 0.254179
O O16 0.759384 0.224269 0.063924
O O17 0.417476 0.500000 0.098479
O O18 0.885988 0.500000 0.848193
O O19 0.750331 0.306175 0.787738
O O20 0.000000 0.195296 0.000000
O O21 0.500000 0.233863 0.500000
O O22 0.371486 0.000000 0.307453
#
# Coordination Sequence:
#
# PCOD9155030 Si02
#       8
#     4   4   4   4   4   4   4   4
#     4   9  14  19  27  40  59  85 121 169 217 256
#     4   9  16  27  38  52  76 105 138 175 216 261
#     4   9  17  30  47  66  90 119 150 186 226 270
#     4   9  14  19  27  40  59  84 122 170 214 257
#     4   9  15  23  33  45  66  94 129 174 216 256
#     4   9  15  23  33  46  65  94 131 173 217 257
#     4   9  17  30  47  70  98 123 150 187 230 271
#     4   9  17  30  49  70  91 119 152 184 224 271
#
# _framework density 21.294644999999999
#
# number of rings (size 3 to 8) (size 9 to 14) (size 15 to 20)
#    0.000    3.000    1.250    1.125    0.000    4.750 
#    2.250    0.000    0.000    0.000    0.000    0.000 
#    0.000    0.000    0.000    0.000    0.000    1.250 
#
# Total GULP energy -178158.243142 kJ/mol
# GULP energy per Si atom -5567.445098 kJ/mol
# Density = 2.124618 g / cm^3
# Si number density = 21.294645 Si / 1000 Ang^3
#
#
#
# Elastic Constant Matrix: (Units=GPa)
#
#
# Indices 1 2 3 4 5 6 
#
# 1 166.6387 9.2779 81.3077 0.0000 17.7650 0.0000
# 2 9.2779 66.4215 12.6685 0.0000 -13.6411 0.0000
# 3 81.3077 12.6685 159.1095 0.0000 22.1306 0.0000
# 4 0.0000 0.0000 0.0000 -10.3929 0.0000 2.7167
# 5 17.7650 -13.6411 22.1306 0.0000 30.5210 0.0000
# 6 0.0000 0.0000 0.0000 2.7167 0.0000 -11.5581
#
#
#
# Elastic Compliance Matrix: (Units=1/GPa)
#
#
# Indices 1 2 3 4 5 6 
#
# 1 0.008141 -0.000922 -0.003748 0.000000 -0.002432 0.000000
# 2 -0.000922 0.017720 -0.002353 0.000000 0.010163 0.000000
# 3 -0.003748 -0.002353 0.009154 0.000000 -0.005508 0.000000
# 4 0.000000 0.000000 0.000000 -0.102519 0.000000 -0.024097
# 5 -0.002432 0.010163 -0.005508 0.000000 0.042716 0.000000
# 6 0.000000 0.000000 0.000000 -0.024097 0.000000 -0.092183
#
#
# Mechanical properties :
#
#
# Convention : Reuss Voigt Hill
#
# Bulk Modulus (GPa) = 47.69244 66.51978 57.10611
# Shear Modulus (GPa) = -52.11830 20.97504 -15.57163
#
# Velocity S-wave (km/s) = -4.95257 3.14186 -2.70709
# Velocity P-wave (km/s) = 3.20295 6.66838 4.13573
#
# Compressibility (1/GPa) = 0.02096768
#
# Stress axis : x y z
#
# Youngs Moduli (GPa) = 122.84249 56.43292 109.24413
#
# Poissons Ratio (x) = 0.05202 0.40947
# Poissons Ratio (y) = 0.11323 0.25710
# Poissons Ratio (z) = 0.46044 0.13281
#
# Static dielectric constant tensor:
#      x y z
#    x 1.782550 0.000000 0.032270 
#    y 0.000000 1.789820 0.000000 
#    z 0.032270 0.000000 1.851100 
# 
# From -- ./inp_files/90643.got.cif
#   From: 2010.05.17/outbox.cif.g08.bks.cpg/sg10_46_cif.got.tgz:90643.got - 2010.06.03 11:33:40.
