data_PCOD9155153
_publ_section_title
;
Structure prediction by ZEFSAII (Michael W. Deem and Ramdas Pophale) SiO2 
 PCOD9155153
Probable space group: P 2/M
;
_chemical_formula_sum "Si O2"
_cell_formula_units_Z 28
_cell_length_a 9.000000
_cell_length_b 9.000000
_cell_length_c 27.000000
_cell_angle_alpha 90.000000
_cell_angle_beta 40.000000
_cell_angle_gamma 90.000000
_cell_volume 1405.776502
_symmetry_space_group_name_H-M "P 2/M"
_symmetry_group_IT_number 10
_symmetry_cell_setting 'monoclinic'
loop_
_space_group_symop_operation_xyz
x,y,z
-x,y,-z
-x,-y,-z
x,-y,z
loop_
_atom_site_type_symbol
_atom_site_label
_atom_site_fract_x
_atom_site_fract_y
_atom_site_fract_z
Si Si1 0.816891 0.173960 0.817332
Si Si2 0.679768 0.672130 0.555988
Si Si3 0.372660 0.500000 0.113378
Si Si4 0.862399 0.500000 0.934700
Si Si5 0.976854 0.832179 0.602111
Si Si6 0.060676 0.176439 0.861304
Si Si7 0.251728 0.835428 0.632360
Si Si8 0.531584 0.675937 0.707514
O O1 0.681460 0.335692 0.847534
O O2 0.901881 0.170809 0.852624
O O3 0.040502 0.186922 0.724592
O O4 0.722733 0.000000 0.831895
O O5 0.743766 0.500000 0.535352
O O6 0.885189 0.766363 0.479632
O O7 0.446535 0.712418 0.586653
O O8 0.602674 0.701302 0.632098
O O9 0.218674 0.500000 0.102267
O O10 0.638018 0.500000 0.027338
O O11 0.982084 0.332854 0.909866
O O12 0.152193 0.837694 0.602911
O O13 0.765878 0.728893 0.673672
O O14 0.893759 0.000000 0.613119
O O15 0.319010 0.221479 0.778056
O O16 0.056377 0.000000 0.881856
O O17 0.353787 0.000000 0.617317
O O18 0.479590 0.500000 0.727482
#
# Coordination Sequence:
#
# PCOD9155153 Si02
#       8
#     4   4   2   2   4   4   4   4
#     4   9  18  32  53  80 109 143 185 224 265 328
#     4  11  23  36  56  78 104 143 185 234 285 330
#     4   9  18  30  52  79 114 148 175 212 279 323
#     4   9  18  32  48  81 118 142 173 226 263 325
#     4  11  24  38  52  76 110 143 185 236 283 326
#     4  10  18  31  55  80 106 147 185 218 273 328
#     4  10  21  37  55  77 107 144 185 232 276 325
#     4  11  22  37  55  77 109 144 187 236 278 326
#
# _framework density 19.917818
#
# number of rings (size 3 to 8) (size 9 to 14) (size 15 to 20)
#    0.000    1.857    2.143    2.143    1.000    6.857 
#    0.000    2.857    0.000    0.000    0.000    2.000 
#    0.000    4.571    0.000    0.000    0.000    0.000 
#
# Total GULP energy -155924.933284 kJ/mol
# GULP energy per Si atom -5568.747617 kJ/mol
# Density = 1.987248 g / cm^3
# Si number density = 19.917818 Si / 1000 Ang^3
#
#
#
# Elastic Constant Matrix: (Units=GPa)
#
#
# Indices 1 2 3 4 5 6 
#
# 1 28.0381 10.4966 -2.0574 0.0000 -8.1446 0.0000
# 2 10.4966 145.0337 46.9398 0.0000 -16.0708 0.0000
# 3 -2.0574 46.9398 60.4864 0.0000 -14.2705 0.0000
# 4 0.0000 0.0000 0.0000 26.2024 0.0000 -2.9213
# 5 -8.1446 -16.0708 -14.2705 0.0000 14.2070 0.0000
# 6 0.0000 0.0000 0.0000 -2.9213 0.0000 19.4655
#
#
#
# Elastic Compliance Matrix: (Units=1/GPa)
#
#
# Indices 1 2 3 4 5 6 
#
# 1 0.048832 -0.003728 0.013321 0.000000 0.037158 0.000000
# 2 -0.003728 0.009692 -0.007294 0.000000 0.001499 0.000000
# 3 0.013321 -0.007294 0.029490 0.000000 0.029007 0.000000
# 4 0.000000 0.000000 0.000000 0.038814 0.000000 0.005825
# 5 0.037158 0.001499 0.029007 0.000000 0.122521 0.000000
# 6 0.000000 0.000000 0.000000 0.005825 0.000000 0.052247
#
#
# Mechanical properties :
#
#
# Convention : Reuss Voigt Hill
#
# Bulk Modulus (GPa) = 10.79788 38.25738 24.52763
# Shear Modulus (GPa) = 15.24995 23.85361 19.55178
#
# Velocity S-wave (km/s) = 2.77003 3.46439 3.13648
# Velocity P-wave (km/s) = 3.95774 5.93734 5.04558
#
# Compressibility (1/GPa) = 0.09261078
#
# Stress axis : x y z
#
# Youngs Moduli (GPa) = 20.47819 103.18195 33.90985
#
# Poissons Ratio (x) = 0.38467 -0.45170
# Poissons Ratio (y) = 0.07634 0.24735
# Poissons Ratio (z) = -0.27278 0.75263
#
# Static dielectric constant tensor:
#      x y z
#    x 1.745940 0.000000 -0.007900 
#    y 0.000000 1.743500 0.000000 
#    z -0.007900 0.000000 1.677000 
# 
# From -- ./inp_files/37196.got.cif
#   From: 2010.05.17/outbox.ucp.g08.bks.cvg/sg10_19_cif.got.tgz:37196.got - 2010.06.11 11:31:16.
