data_PCOD9155464
_publ_section_title
;
Structure prediction by ZEFSAII (Michael W. Deem and Ramdas Pophale) SiO2 
 PCOD9155464
Probable space group: P 2/M
;
_chemical_formula_sum "Si O2"
_cell_formula_units_Z 32
_cell_length_a 15.000000
_cell_length_b 9.000000
_cell_length_c 24.000000
_cell_angle_alpha 90.000000
_cell_angle_beta 30.000000
_cell_angle_gamma 90.000000
_cell_volume 1620.000000
_symmetry_space_group_name_H-M "P 2/M"
_symmetry_group_IT_number 10
_symmetry_cell_setting 'monoclinic'
loop_
_space_group_symop_operation_xyz
x,y,z
-x,y,-z
-x,-y,-z
x,-y,z
loop_
_atom_site_type_symbol
_atom_site_label
_atom_site_fract_x
_atom_site_fract_y
_atom_site_fract_z
Si Si1 0.093000 0.328913 0.776833
Si Si2 0.597183 0.819443 0.672957
Si Si3 0.186174 0.332988 0.595718
Si Si4 0.019275 0.173166 0.593947
Si Si5 0.641585 0.322538 0.769363
Si Si6 0.456883 0.168391 0.590068
Si Si7 0.274253 0.826899 0.988532
Si Si8 0.202083 0.171130 0.894588
O O1 0.097376 0.500000 0.795529
O O2 0.139466 0.335633 0.686052
O O3 0.258580 0.229078 0.709148
O O4 0.899216 0.257025 0.892636
O O5 0.787240 0.789963 0.539091
O O6 0.617223 0.729856 0.719124
O O7 0.392950 0.778236 0.763666
O O8 0.591702 0.000000 0.684395
O O9 0.157839 0.500000 0.588748
O O10 0.060814 0.212104 0.635171
O O11 0.389144 0.281512 0.474781
O O12 0.839726 0.262496 0.676716
O O13 0.985673 0.000000 0.601167
O O14 0.634678 0.500000 0.779275
O O15 0.467991 0.249397 0.894022
O O16 0.500000 0.159597 0.500000
O O17 0.481264 0.000000 0.599166
O O18 0.243705 0.825827 0.938125
O O19 0.277598 0.000000 0.004297
O O20 0.181518 0.000000 0.886404
O O21 0.000000 0.239488 0.000000
#
# Coordination Sequence:
#
# PCOD9155464 Si02
#       8
#     4   4   4   4   4   4   4   4
#     4  10  20  35  55  79 110 147 183 223 272 323
#     4   9  19  35  55  80 109 142 179 219 266 321
#     4  10  21  36  53  78 113 146 179 224 276 325
#     4  11  22  36  56  80 108 141 180 228 277 325
#     4  11  22  37  57  79 106 139 178 225 276 330
#     4   9  17  31  52  76 103 139 182 222 261 311
#     4  10  20  35  57  81 106 141 185 227 268 323
#     4   8  15  30  52  79 110 140 171 211 259 310
#
# _framework density 19.753086
#
# number of rings (size 3 to 8) (size 9 to 14) (size 15 to 20)
#    0.000    2.250    0.000    4.125    0.000    6.500 
#    0.000    3.125    0.000   13.125    0.000    0.000 
#    0.000    0.000    0.000    0.000    0.000    0.000 
#
# Total GULP energy -178268.042893 kJ/mol
# GULP energy per Si atom -5570.876340 kJ/mol
# Density = 1.970813 g / cm^3
# Si number density = 19.753086 Si / 1000 Ang^3
#
#
#
# Elastic Constant Matrix: (Units=GPa)
#
#
# Indices 1 2 3 4 5 6 
#
# 1 47.1677 11.1640 28.2785 0.0000 -24.9484 0.0000
# 2 11.1640 97.8550 62.7086 0.0000 -11.6330 0.0000
# 3 28.2785 62.7086 162.6918 0.0000 -41.4682 0.0000
# 4 0.0000 0.0000 0.0000 30.4426 0.0000 -2.7045
# 5 -24.9484 -11.6330 -41.4682 0.0000 34.1338 0.0000
# 6 0.0000 0.0000 0.0000 -2.7045 0.0000 17.1671
#
#
#
# Elastic Compliance Matrix: (Units=1/GPa)
#
#
# Indices 1 2 3 4 5 6 
#
# 1 0.034814 -0.001691 0.001361 0.000000 0.026522 0.000000
# 2 -0.001691 0.013803 -0.006000 0.000000 -0.003821 0.000000
# 3 0.001361 -0.006000 0.011523 0.000000 0.012949 0.000000
# 4 0.000000 0.000000 0.000000 0.033315 0.000000 0.005248
# 5 0.026522 -0.003821 0.012949 0.000000 0.063111 0.000000
# 6 0.000000 0.000000 0.000000 0.005248 0.000000 0.059078
#
#
# Mechanical properties :
#
#
# Convention : Reuss Voigt Hill
#
# Bulk Modulus (GPa) = 21.06191 56.89075 38.97633
# Shear Modulus (GPa) = 20.48080 30.05294 25.26687
#
# Velocity S-wave (km/s) = 3.22349 3.90478 3.58038
# Velocity P-wave (km/s) = 4.95382 7.01379 6.07180
#
# Compressibility (1/GPa) = 0.04747907
#
# Stress axis : x y z
#
# Youngs Moduli (GPa) = 28.72433 72.44750 86.77927
#
# Poissons Ratio (x) = 0.12250 -0.11808
# Poissons Ratio (y) = 0.04857 0.52072
# Poissons Ratio (z) = -0.03909 0.43472
#
# Static dielectric constant tensor:
#      x y z
#    x 1.751340 0.000000 0.012410 
#    y 0.000000 1.681640 0.000000 
#    z 0.012410 0.000000 1.710780 
# 
# From -- ./inp_files/89582.got.cif
#   From: 2010.05.17/outbox.ucp.g08.bks.cvg/sg10_45_cif.got.tgz:89582.got - 2010.06.11 11:31:16.
