data_PCOD9155889
_publ_section_title
;
Structure prediction by ZEFSAII (Michael W. Deem and Ramdas Pophale) SiO2 
 PCOD9155889
Probable space group: P 21/M
;
_chemical_formula_sum "Si O2"
_cell_formula_units_Z 24
_cell_length_a 14.595319
_cell_length_b 8.564553
_cell_length_c 12.673894
_cell_angle_alpha 90.000000
_cell_angle_beta 70.417844
_cell_angle_gamma 90.000000
_cell_volume 1492.635930
_symmetry_space_group_name_H-M "P 21/M"
_symmetry_group_IT_number 11
_symmetry_cell_setting 'monoclinic'
loop_
_space_group_symop_operation_xyz
x,y,z
-x,1/2+y,-z
-x,-y,-z
x,1/2-y,z
loop_
_atom_site_type_symbol
_atom_site_label
_atom_site_fract_x
_atom_site_fract_y
_atom_site_fract_z
Si Si1 0.051226 0.438251 0.584342
Si Si2 0.153563 0.938506 0.930887
Si Si3 0.535115 0.064158 0.600422
Si Si4 0.341912 0.937146 0.742850
Si Si5 0.272729 0.062592 0.542092
Si Si6 0.010618 0.561334 0.163197
O O1 0.048390 0.250000 0.583672
O O2 0.164715 0.483951 0.548991
O O3 0.998929 0.491751 0.712704
O O4 0.000000 0.500000 0.500000
O O5 0.150512 0.750000 0.927579
O O6 0.263308 0.985904 0.861095
O O7 0.081557 0.002241 0.868369
O O8 0.106043 0.987709 0.060416
O O9 0.539407 0.250000 0.595383
O O10 0.500000 0.000000 0.500000
O O11 0.449340 0.009092 0.710707
O O12 0.642919 0.994948 0.569583
O O13 0.350487 0.750000 0.738002
O O14 0.297154 0.991300 0.647599
O O15 0.277441 0.250000 0.549623
O O16 0.007326 0.750000 0.164399
#
# Coordination Sequence:
#
# PCOD9155889 Si02
#       6
#     4   4   4   4   4   4
#     4  10  21  33  48  66  90 123 157 191 226 265
#     4   9  17  27  45  68  92 120 149 182 224 272
#     4  10  18  27  41  62  88 120 149 182 222 269
#     4  10  17  26  42  67  93 120 147 179 221 272
#     4  10  18  30  44  62  88 120 151 187 226 264
#     4   9  17  31  45  64  91 120 152 186 226 268
#
# _framework density 16.078938999999998
#
# number of rings (size 3 to 8) (size 9 to 14) (size 15 to 20)
#    0.000    2.333    1.667    4.500    0.000    2.667 
#    0.000    0.000    0.000    0.000    0.000    1.167 
#    0.000    0.000    0.000    0.000    0.000    0.000 
#
# Total GULP energy -133720.172389 kJ/mol
# GULP energy per Si atom -5571.673850 kJ/mol
# Density = 1.604234 g / cm^3
# Si number density = 16.078939 Si / 1000 Ang^3
#
#
#
# Elastic Constant Matrix: (Units=GPa)
#
#
# Indices 1 2 3 4 5 6 
#
# 1 83.1677 20.0610 70.3068 0.0000 -24.0948 0.0000
# 2 20.0610 36.7078 19.3024 0.0000 -8.7635 0.0000
# 3 70.3068 19.3024 124.0764 0.0000 -27.0080 0.0000
# 4 0.0000 0.0000 0.0000 16.1752 0.0000 -1.6115
# 5 -24.0948 -8.7635 -27.0080 0.0000 33.5875 0.0000
# 6 0.0000 0.0000 0.0000 -1.6115 0.0000 22.8033
#
#
#
# Elastic Compliance Matrix: (Units=1/GPa)
#
#
# Indices 1 2 3 4 5 6 
#
# 1 0.025805 -0.006011 -0.012120 0.000000 0.007197 0.000000
# 2 -0.006011 0.031746 -0.000810 0.000000 0.003319 0.000000
# 3 -0.012120 -0.000810 0.015897 0.000000 0.003877 0.000000
# 4 0.000000 0.000000 0.000000 0.062261 0.000000 0.004400
# 5 0.007197 0.003319 0.003877 0.000000 0.038920 0.000000
# 6 0.000000 0.000000 0.000000 0.004400 0.000000 0.044164
#
#
# Mechanical properties :
#
#
# Convention : Reuss Voigt Hill
#
# Bulk Modulus (GPa) = 28.11726 51.47691 39.79709
# Shear Modulus (GPa) = 18.61977 23.46531 21.04254
#
# Velocity S-wave (km/s) = 3.40666 3.82433 3.62152
# Velocity P-wave (km/s) = 5.74446 7.18229 6.50323
#
# Compressibility (1/GPa) = 0.03556534
#
# Stress axis : x y z
#
# Youngs Moduli (GPa) = 38.75190 31.50044 62.90315
#
# Poissons Ratio (x) = 0.18935 0.76242
# Poissons Ratio (y) = 0.23293 0.05095
# Poissons Ratio (z) = 0.46969 0.02552
#
# Static dielectric constant tensor:
#      x y z
#    x 1.542790 0.000000 -0.056280 
#    y 0.000000 1.544320 0.000000 
#    z -0.056280 0.000000 1.568470 
# 
# From -- ./inp_files/36979.got.cif
#   From: 2010.05.17/outbox.cif.g08.bks.cpg/sg11_19_cif.got.tgz:36979.got - 2010.06.03 12:22:45.
