data_PCOD9155209
_publ_section_title
;
Structure prediction by ZEFSAII (Michael W. Deem and Ramdas Pophale) SiO2 
 PCOD9155209
Probable space group: P 2/M
;
_chemical_formula_sum "Si O2"
_cell_formula_units_Z 28
_cell_length_a 30.000000
_cell_length_b 9.000000
_cell_length_c 30.000000
_cell_angle_alpha 90.000000
_cell_angle_beta 170.000000
_cell_angle_gamma 90.000000
_cell_volume 1406.550239
_symmetry_space_group_name_H-M "P 2/M"
_symmetry_group_IT_number 10
_symmetry_cell_setting 'monoclinic'
loop_
_space_group_symop_operation_xyz
x,y,z
-x,y,-z
-x,-y,-z
x,-y,z
loop_
_atom_site_type_symbol
_atom_site_label
_atom_site_fract_x
_atom_site_fract_y
_atom_site_fract_z
Si Si1 0.227707 0.169229 0.256364
Si Si2 0.728659 0.321388 0.423171
Si Si3 0.366134 0.322011 0.482296
Si Si4 0.094460 0.826131 0.491618
Si Si5 0.842846 0.680955 0.003446
Si Si6 0.208110 0.680624 0.948584
Si Si7 0.411701 0.825345 0.959358
O O1 0.500000 0.165590 0.500000
O O2 0.270678 0.273350 0.340402
O O3 0.163369 0.000000 0.206997
O O4 0.000000 0.221473 0.000000
O O5 0.719835 0.500000 0.414822
O O6 0.849812 0.265371 0.497277
O O7 0.439698 0.265805 0.145728
O O8 0.926644 0.271852 0.656307
O O9 0.379253 0.500000 0.497221
O O10 0.136006 0.270437 0.287596
O O11 0.646092 0.265098 0.771963
O O12 0.846456 0.765001 0.273118
O O13 0.048806 0.000000 0.435328
O O14 0.347303 0.819053 0.770775
O O15 0.847988 0.500000 0.006621
O O16 0.735190 0.724449 0.945199
O O17 0.207469 0.500000 0.946563
O O18 0.350154 0.000000 0.889841
O O19 0.500000 0.755570 0.000000
#
# Coordination Sequence:
#
# PCOD9155209 Si02
#       7
#     4   4   4   4   4   4   4
#     4  10  21  36  52  70  96 131 164 192 228 280
#     4  10  19  31  49  71  95 126 161 193 227 275
#     4  10  19  31  51  76  98 121 153 199 244 276
#     4  10  19  31  49  71  95 122 152 194 241 277
#     4   9  17  30  49  74  99 122 155 197 238 277
#     4   9  17  30  49  71  95 126 161 193 227 275
#     4   9  17  30  49  71  92 119 158 196 231 279
#
# _framework density 19.906860999999999
#
# number of rings (size 3 to 8) (size 9 to 14) (size 15 to 20)
#    0.000    2.429    0.000    3.000    0.000    5.714 
#    0.000    0.000    0.000    7.714    0.000    0.000 
#    0.000    0.000    0.000    0.000    0.000    0.000 
#
# Total GULP energy -156000.651164 kJ/mol
# GULP energy per Si atom -5571.451827 kJ/mol
# Density = 1.986155 g / cm^3
# Si number density = 19.906861 Si / 1000 Ang^3
#
#
#
# Elastic Constant Matrix: (Units=GPa)
#
#
# Indices 1 2 3 4 5 6 
#
# 1 34.1207 -4.2540 -0.4216 0.0000 10.0136 0.0000
# 2 -4.2540 -16.4463 19.6816 0.0000 0.0881 0.0000
# 3 -0.4216 19.6816 24.1441 0.0000 17.6417 0.0000
# 4 0.0000 0.0000 0.0000 25.8764 0.0000 -3.7181
# 5 10.0136 0.0881 17.6417 0.0000 26.7989 0.0000
# 6 0.0000 0.0000 0.0000 -3.7181 0.0000 24.0763
#
#
#
# Elastic Compliance Matrix: (Units=1/GPa)
#
#
# Indices 1 2 3 4 5 6 
#
# 1 0.036491 0.005180 0.012313 0.000000 -0.021758 0.000000
# 2 0.005180 -0.020461 0.034942 0.000000 -0.024871 0.000000
# 3 0.012313 0.034942 0.031975 0.000000 -0.025765 0.000000
# 4 0.000000 0.000000 0.000000 0.039522 0.000000 0.006103
# 5 -0.021758 -0.024871 -0.025765 0.000000 0.062488 0.000000
# 6 0.000000 0.000000 0.000000 0.006103 0.000000 0.042477
#
#
# Mechanical properties :
#
#
# Convention : Reuss Voigt Hill
#
# Bulk Modulus (GPa) = 6.54131 7.98120 7.26126
# Shear Modulus (GPa) = 36.08009 17.13781 26.60895
#
# Velocity S-wave (km/s) = 4.26190 2.93729 3.66002
# Velocity P-wave (km/s) = 5.24514 3.93974 4.63859
#
# Compressibility (1/GPa) = 0.15287449
#
# Stress axis : x y z
#
# Youngs Moduli (GPa) = 27.40404 -48.87380 31.27459
#
# Poissons Ratio (x) = 0.25315 -0.38508
# Poissons Ratio (y) = -0.14195 -1.09281
# Poissons Ratio (z) = -0.33742 1.70776
#
# Static dielectric constant tensor:
#      x y z
#    x 1.744420 0.000000 0.014620 
#    y 0.000000 1.685040 0.000000 
#    z 0.014620 0.000000 1.700690 
# 
# From -- ./inp_files/13563.got.cif
#   From: 2010.05.17/outbox.ucp.g08.bks.cvg/sg10_7_cif.got.tgz:13563.got - 2010.06.11 11:31:16.
