data_PCOD9155682
_publ_section_title
;
Structure prediction by ZEFSAII (Michael W. Deem and Ramdas Pophale) SiO2 
 PCOD9155682
Probable space group: P 2/M
;
_chemical_formula_sum "Si O2"
_cell_formula_units_Z 28
_cell_length_a 9.000000
_cell_length_b 9.000000
_cell_length_c 27.000000
_cell_angle_alpha 90.000000
_cell_angle_beta 40.000000
_cell_angle_gamma 90.000000
_cell_volume 1405.776502
_symmetry_space_group_name_H-M "P 2/M"
_symmetry_group_IT_number 10
_symmetry_cell_setting 'monoclinic'
loop_
_space_group_symop_operation_xyz
x,y,z
-x,y,-z
-x,-y,-z
x,-y,z
loop_
_atom_site_type_symbol
_atom_site_label
_atom_site_fract_x
_atom_site_fract_y
_atom_site_fract_z
Si Si1 0.953693 0.824229 0.798879
Si Si2 0.515825 0.325351 0.099757
Si Si3 0.233404 0.679424 0.333196
Si Si4 0.501900 0.822589 0.642696
Si Si5 0.721262 0.178151 0.477783
Si Si6 0.106866 0.323995 0.082190
Si Si7 0.359935 0.176372 0.836506
O O1 0.756209 0.716909 0.827341
O O2 0.900146 0.787806 0.869826
O O3 0.223523 0.790444 0.716423
O O4 0.917270 0.000000 0.797150
O O5 0.544130 0.500000 0.106399
O O6 0.621469 0.206170 0.110137
O O7 0.665433 0.308551 0.010722
O O8 0.232529 0.500000 0.327382
O O9 0.358939 0.727708 0.352420
O O10 0.406569 0.757882 0.249026
O O11 0.966565 0.740888 0.402963
O O12 0.625108 0.797502 0.558205
O O13 0.522782 0.000000 0.648638
O O14 0.500000 0.219578 0.500000
O O15 0.760795 0.000000 0.461522
O O16 0.099625 0.500000 0.098747
O O17 0.863385 0.276502 0.119952
O O18 0.335130 0.000000 0.830834
#
# Coordination Sequence:
#
# PCOD9155682 Si02
#       7
#     4   4   4   4   4   4   4
#     4  11  23  39  64  96 129 171 220 266 312 375
#     4  11  25  42  62  92 132 172 211 265 329 384
#     4  12  25  42  66  96 129 169 214 260 319 380
#     4  10  22  42  66  95 128 169 216 261 312 373
#     4  10  23  43  69  98 131 168 207 257 317 378
#     4  11  23  42  65  92 128 170 215 266 325 383
#     4  12  25  42  66  94 126 167 218 269 321 383
#
# _framework density 19.917818
#
# number of rings (size 3 to 8) (size 9 to 14) (size 15 to 20)
#    0.000    1.000    1.429    5.143    2.000    8.857 
#    0.000    0.000    0.000    0.000    0.000    0.000 
#    0.000    0.000    0.000    0.000    0.000    0.000 
#
# Total GULP energy -156229.463525 kJ/mol
# GULP energy per Si atom -5579.623697 kJ/mol
# Density = 1.987248 g / cm^3
# Si number density = 19.917818 Si / 1000 Ang^3
#
#
#
# Elastic Constant Matrix: (Units=GPa)
#
#
# Indices 1 2 3 4 5 6 
#
# 1 42.4761 3.8431 8.8730 0.0000 -10.3456 0.0000
# 2 3.8431 104.7568 42.1789 0.0000 -10.7847 0.0000
# 3 8.8730 42.1789 106.1241 0.0000 -23.4951 0.0000
# 4 0.0000 0.0000 0.0000 44.1530 0.0000 -10.1770
# 5 -10.3456 -10.7847 -23.4951 0.0000 40.1643 0.0000
# 6 0.0000 0.0000 0.0000 -10.1770 0.0000 29.0570
#
#
#
# Elastic Compliance Matrix: (Units=1/GPa)
#
#
# Indices 1 2 3 4 5 6 
#
# 1 0.025173 0.000009 -0.000772 0.000000 0.006035 0.000000
# 2 0.000009 0.011372 -0.004416 0.000000 0.000473 0.000000
# 3 -0.000772 -0.004416 0.012563 0.000000 0.005964 0.000000
# 4 0.000000 0.000000 0.000000 0.024637 0.000000 0.008629
# 5 0.006035 0.000473 0.005964 0.000000 0.030068 0.000000
# 6 0.000000 0.000000 0.000000 0.008629 0.000000 0.037437
#
#
# Mechanical properties :
#
#
# Convention : Reuss Voigt Hill
#
# Bulk Modulus (GPa) = 25.80674 40.34965 33.07819
# Shear Modulus (GPa) = 30.39020 35.90566 33.14793
#
# Velocity S-wave (km/s) = 3.91036 4.25042 4.08393
# Velocity P-wave (km/s) = 5.77690 6.66259 6.23549
#
# Compressibility (1/GPa) = 0.03874957
#
# Stress axis : x y z
#
# Youngs Moduli (GPa) = 39.72508 87.93303 79.59818
#
# Poissons Ratio (x) = -0.00076 0.06146
# Poissons Ratio (y) = -0.00034 0.35150
# Poissons Ratio (z) = 0.03067 0.38831
#
# Static dielectric constant tensor:
#      x y z
#    x 1.873630 0.000000 0.016370 
#    y 0.000000 1.653680 0.000000 
#    z 0.016370 0.000000 1.673430 
# 
# From -- ./inp_files/91949.got.cif
#   From: 2010.05.17/outbox.ucp.g08.bks.cvg/sg10_46_cif.got.tgz:91949.got - 2010.06.11 11:31:16.
