data_PCOD9155509
_publ_section_title
;
Structure prediction by ZEFSAII (Michael W. Deem and Ramdas Pophale) SiO2 
 PCOD9155509
Probable space group: P 2/M
;
_chemical_formula_sum "Si O2"
_cell_formula_units_Z 32
_cell_length_a 12.000000
_cell_length_b 9.000000
_cell_length_c 30.000000
_cell_angle_alpha 90.000000
_cell_angle_beta 30.000000
_cell_angle_gamma 90.000000
_cell_volume 1620.000000
_symmetry_space_group_name_H-M "P 2/M"
_symmetry_group_IT_number 10
_symmetry_cell_setting 'monoclinic'
loop_
_space_group_symop_operation_xyz
x,y,z
-x,y,-z
-x,-y,-z
x,-y,z
loop_
_atom_site_type_symbol
_atom_site_label
_atom_site_fract_x
_atom_site_fract_y
_atom_site_fract_z
Si Si1 0.547325 0.178599 0.714923
Si Si2 0.092137 0.820656 0.919797
Si Si3 0.053737 0.326762 0.189908
Si Si4 0.673727 0.173727 0.837665
Si Si5 0.648878 0.320801 0.490026
Si Si6 0.254487 0.323435 0.026743
Si Si7 0.533870 0.674703 0.350875
Si Si8 0.878380 0.177392 0.674338
O O1 0.337059 0.226621 0.818471
O O2 0.541417 0.244055 0.667727
O O3 0.766849 0.218883 0.666326
O O4 0.536033 0.000000 0.715939
O O5 0.927869 0.761171 0.939109
O O6 0.089820 0.000000 0.921641
O O7 0.000000 0.769813 0.000000
O O8 0.089628 0.500000 0.190130
O O9 0.801000 0.312613 0.261420
O O10 0.102655 0.219198 0.213908
O O11 0.212919 0.289518 0.093050
O O12 0.706944 0.205344 0.774186
O O13 0.621597 0.000000 0.860988
O O14 0.487151 0.271039 0.926141
O O15 0.500000 0.268949 0.500000
O O16 0.638463 0.500000 0.494161
O O17 0.564977 0.269667 0.567860
O O18 0.897448 0.266118 0.396222
O O19 0.228281 0.500000 0.031229
O O20 0.479178 0.500000 0.365754
O O21 0.921564 0.000000 0.659902
#
# Coordination Sequence:
#
# PCOD9155509 Si02
#       8
#     4   4   4   4   4   4   4   4
#     4  10  21  38  60  85 117 157 198 241 294 351
#     4  10  20  36  58  82 115 159 204 249 293 344
#     4  10  21  38  58  83 119 156 194 244 298 353
#     4  11  23  38  58  84 117 156 199 246 298 355
#     4  10  22  41  66  92 118 153 195 239 295 357
#     4  11  22  36  56  84 117 155 198 245 297 351
#     4  10  21  39  62  88 120 155 194 245 297 352
#     4  10  23  42  61  86 120 155 194 243 295 347
#
# _framework density 19.753086
#
# number of rings (size 3 to 8) (size 9 to 14) (size 15 to 20)
#    0.000    1.750    1.250    2.625    0.000    9.000 
#    0.000    3.750    0.000    0.000    0.000    0.000 
#    0.000    0.000    0.000    0.000    0.000    0.000 
#
# Total GULP energy -178683.096828 kJ/mol
# GULP energy per Si atom -5583.846776 kJ/mol
# Density = 1.970813 g / cm^3
# Si number density = 19.753086 Si / 1000 Ang^3
#
#
#
# Elastic Constant Matrix: (Units=GPa)
#
#
# Indices 1 2 3 4 5 6 
#
# 1 65.6277 -11.2049 -3.4577 0.0000 5.8395 0.0000
# 2 -11.2049 -29.4804 -7.0126 0.0000 6.1853 0.0000
# 3 -3.4577 -7.0126 38.1641 0.0000 13.0712 0.0000
# 4 0.0000 0.0000 0.0000 28.1069 0.0000 2.7836
# 5 5.8395 6.1853 13.0712 0.0000 30.3212 0.0000
# 6 0.0000 0.0000 0.0000 2.7836 0.0000 26.0696
#
#
#
# Elastic Compliance Matrix: (Units=1/GPa)
#
#
# Indices 1 2 3 4 5 6 
#
# 1 0.014413 -0.006076 0.000840 0.000000 -0.001898 0.000000
# 2 -0.006076 -0.027181 -0.009204 0.000000 0.010683 0.000000
# 3 0.000840 -0.009204 0.028157 0.000000 -0.010423 0.000000
# 4 0.000000 0.000000 0.000000 0.035959 0.000000 -0.003840
# 5 -0.001898 0.010683 -0.010423 0.000000 0.035660 0.000000
# 6 0.000000 0.000000 0.000000 -0.003840 0.000000 0.038769
#
#
# Mechanical properties :
#
#
# Convention : Reuss Voigt Hill
#
# Bulk Modulus (GPa) = -74.12297 3.44011 -35.34143
# Shear Modulus (GPa) = 33.29770 23.29866 28.29818
#
# Velocity S-wave (km/s) = 4.11018 3.43810 3.78907
# Velocity P-wave (km/s) = 3.88349 4.18403 1.10104
#
# Compressibility (1/GPa) = -0.01349109
#
# Stress axis : x y z
#
# Youngs Moduli (GPa) = 69.38086 -36.79068 35.51490
#
# Poissons Ratio (x) = -0.22355 -0.02982
# Poissons Ratio (y) = 0.42157 0.32687
# Poissons Ratio (z) = -0.05825 -0.33861
#
# Static dielectric constant tensor:
#      x y z
#    x 1.701840 0.000000 -0.013080 
#    y 0.000000 1.661030 0.000000 
#    z -0.013080 0.000000 1.727320 
# 
# From -- ./inp_files/49842.got.cif
#   From: 2010.05.17/outbox.ucp.g08.bks.cvg/sg10_25_cif.got.tgz:49842.got - 2010.06.11 11:31:16.
