data_PCOD9155615
_publ_section_title
;
Structure prediction by ZEFSAII (Michael W. Deem and Ramdas Pophale) SiO2 
 PCOD9155615
Probable space group: P 2/M
;
_chemical_formula_sum "Si O2"
_cell_formula_units_Z 32
_cell_length_a 15.000000
_cell_length_b 9.000000
_cell_length_c 12.000000
_cell_angle_alpha 90.000000
_cell_angle_beta 90.000000
_cell_angle_gamma 90.000000
_cell_volume 1620.000000
_symmetry_space_group_name_H-M "P 2/M"
_symmetry_group_IT_number 10
_symmetry_cell_setting 'monoclinic'
loop_
_space_group_symop_operation_xyz
x,y,z
-x,y,-z
-x,-y,-z
x,-y,z
loop_
_atom_site_type_symbol
_atom_site_label
_atom_site_fract_x
_atom_site_fract_y
_atom_site_fract_z
Si Si1 0.857912 0.665207 0.306340
Si Si2 0.909543 0.325994 0.062263
Si Si3 0.723026 0.177034 0.005933
Si Si4 0.901896 0.827313 0.513906
Si Si5 0.367912 0.321740 0.193937
Si Si6 0.567344 0.323469 0.151903
Si Si7 0.662902 0.332656 0.368846
Si Si8 0.713298 0.822335 0.591427
O O1 0.876435 0.500000 0.356698
O O2 0.916043 0.678848 0.196281
O O3 0.869914 0.802210 0.388132
O O4 0.751246 0.665160 0.290184
O O5 0.893214 0.500000 0.032575
O O6 0.821502 0.231126 0.039170
O O7 0.000000 0.278704 0.000000
O O8 0.642788 0.235618 0.084983
O O9 0.719690 0.000000 0.001472
O O10 0.704543 0.251602 0.887271
O O11 0.818394 0.770491 0.587569
O O12 0.000000 0.756476 0.500000
O O13 0.912956 0.000000 0.543861
O O14 0.364242 0.500000 0.197644
O O15 0.464012 0.281431 0.139687
O O16 0.345455 0.255645 0.314606
O O17 0.577481 0.500000 0.126152
O O18 0.584153 0.302959 0.283925
O O19 0.654761 0.500000 0.415309
O O20 0.675303 0.221927 0.470395
O O21 0.713002 0.000000 0.605630
#
# Coordination Sequence:
#
# PCOD9155615 Si02
#       8
#     4   4   4   4   4   4   4   4
#     4   9  17  32  55  81 109 142 185 240 286 333
#     4  10  21  39  62  88 118 154 199 247 295 348
#     4  12  25  40  61  88 123 159 196 247 305 362
#     4   9  19  35  55  79 110 151 192 233 286 350
#     4  11  24  41  62  85 117 161 204 247 298 357
#     4  10  21  40  65  89 114 154 206 250 292 355
#     4   9  17  34  60  84 111 147 192 241 290 349
#     4  10  21  37  56  83 120 153 191 243 303 359
#
# _framework density 19.753086
#
# number of rings (size 3 to 8) (size 9 to 14) (size 15 to 20)
#    0.000    2.000    1.250    2.250    0.000    6.000 
#    0.000    5.000    0.000    0.000    0.000    0.000 
#    0.000    0.000    0.000    0.000    0.000    0.000 
#
# Total GULP energy -178197.537814 kJ/mol
# GULP energy per Si atom -5568.673057 kJ/mol
# Density = 1.970813 g / cm^3
# Si number density = 19.753086 Si / 1000 Ang^3
#
#
#
# Elastic Constant Matrix: (Units=GPa)
#
#
# Indices 1 2 3 4 5 6 
#
# 1 79.7762 33.3568 21.3806 0.0000 -16.7144 0.0000
# 2 33.3568 56.6963 25.5709 0.0000 -15.3321 0.0000
# 3 21.3806 25.5709 59.1148 0.0000 -24.2007 0.0000
# 4 0.0000 0.0000 0.0000 38.7370 0.0000 -4.5313
# 5 -16.7144 -15.3321 -24.2007 0.0000 31.6272 0.0000
# 6 0.0000 0.0000 0.0000 -4.5313 0.0000 19.2222
#
#
#
# Elastic Compliance Matrix: (Units=1/GPa)
#
#
# Indices 1 2 3 4 5 6 
#
# 1 0.017260 -0.008651 -0.000704 0.000000 0.004390 0.000000
# 2 -0.008651 0.026784 -0.007300 0.000000 0.002827 0.000000
# 3 -0.000704 -0.007300 0.027270 0.000000 0.016956 0.000000
# 4 0.000000 0.000000 0.000000 0.026547 0.000000 0.006258
# 5 0.004390 0.002827 0.016956 0.000000 0.048283 0.000000
# 6 0.000000 0.000000 0.000000 0.006258 0.000000 0.053498
#
#
# Mechanical properties :
#
#
# Convention : Reuss Voigt Hill
#
# Bulk Modulus (GPa) = 26.31142 39.57820 32.94481
# Shear Modulus (GPa) = 20.35665 25.60256 22.97961
#
# Velocity S-wave (km/s) = 3.21371 3.60409 3.41448
# Velocity P-wave (km/s) = 5.20765 6.11549 5.67974
#
# Compressibility (1/GPa) = 0.03800630
#
# Stress axis : x y z
#
# Youngs Moduli (GPa) = 57.93590 37.33554 36.67046
#
# Poissons Ratio (x) = 0.32297 0.02581
# Poissons Ratio (y) = 0.50118 0.26769
# Poissons Ratio (z) = 0.04077 0.27254
#
# Static dielectric constant tensor:
#      x y z
#    x 1.786380 0.000000 0.059920 
#    y 0.000000 1.693410 0.000000 
#    z 0.059920 0.000000 1.727000 
# 
# From -- ./inp_files/49919.got.cif
#   From: 2010.05.17/outbox.ucp.g08.bks.cvg/sg10_25_cif.got.tgz:49919.got - 2010.06.11 11:31:16.
