data_PCOD9155612
_publ_section_title
;
Structure prediction by ZEFSAII (Michael W. Deem and Ramdas Pophale) SiO2 
 PCOD9155612
Probable space group: P 2/M
;
_chemical_formula_sum "Si O2"
_cell_formula_units_Z 28
_cell_length_a 12.000000
_cell_length_b 9.000000
_cell_length_c 15.000000
_cell_angle_alpha 90.000000
_cell_angle_beta 120.000000
_cell_angle_gamma 90.000000
_cell_volume 1402.961154
_symmetry_space_group_name_H-M "P 2/M"
_symmetry_group_IT_number 10
_symmetry_cell_setting 'monoclinic'
loop_
_space_group_symop_operation_xyz
x,y,z
-x,y,-z
-x,-y,-z
x,-y,z
loop_
_atom_site_type_symbol
_atom_site_label
_atom_site_fract_x
_atom_site_fract_y
_atom_site_fract_z
Si Si1 0.114413 0.820038 0.113010
Si Si2 0.453957 0.321063 0.825000
Si Si3 0.518295 0.674047 0.654860
Si Si4 0.703778 0.674420 0.580424
Si Si5 0.945359 0.824453 0.709611
Si Si6 0.294284 0.822399 0.033942
Si Si7 0.804504 0.676212 0.177663
O O1 0.088122 0.770282 0.202554
O O2 0.240918 0.772100 0.109347
O O3 0.117361 0.000000 0.118092
O O4 0.000000 0.778219 0.000000
O O5 0.465451 0.500000 0.832383
O O6 0.475783 0.265245 0.732850
O O7 0.567752 0.248526 0.926184
O O8 0.317310 0.283342 0.811198
O O9 0.549294 0.500000 0.681410
O O10 0.636127 0.735121 0.643815
O O11 0.399927 0.678766 0.539250
O O12 0.739558 0.500000 0.607040
O O13 0.822125 0.777534 0.604871
O O14 0.067012 0.733638 0.725776
O O15 0.968699 0.000000 0.720151
O O16 0.296822 0.000000 0.032780
O O17 0.205307 0.761997 0.919875
O O18 0.805293 0.500000 0.162852
#
# Coordination Sequence:
#
# PCOD9155612 Si02
#       7
#     4   4   4   4   4   4   4
#     4   9  17  32  51  73 103 136 168 206 255 310
#     4  10  21  37  55  76 105 140 179 219 259 306
#     4   8  16  34  59  83 107 136 171 215 263 312
#     4   9  17  33  59  86 108 132 169 216 265 317
#     4  11  21  35  55  78 108 142 174 214 266 316
#     4  11  21  35  56  79 105 139 176 217 266 315
#     4  11  23  37  52  73 105 144 183 220 254 303
#
# _framework density 19.957787
#
# number of rings (size 3 to 8) (size 9 to 14) (size 15 to 20)
#    0.000    2.143    1.429    3.429    0.000    2.857 
#    0.000    5.714    0.000    4.286    0.000    0.000 
#    0.000    0.000    0.000    0.000    0.000    0.000 
#
# Total GULP energy -156080.671680 kJ/mol
# GULP energy per Si atom -5574.309703 kJ/mol
# Density = 1.991236 g / cm^3
# Si number density = 19.957787 Si / 1000 Ang^3
#
#
#
# Elastic Constant Matrix: (Units=GPa)
#
#
# Indices 1 2 3 4 5 6 
#
# 1 106.7287 26.4008 15.3716 0.0000 23.5891 0.0000
# 2 26.4008 -9.7627 -4.0329 0.0000 0.8891 0.0000
# 3 15.3716 -4.0329 19.2517 0.0000 1.9935 0.0000
# 4 0.0000 0.0000 0.0000 21.0350 0.0000 7.0272
# 5 23.5891 0.8891 1.9935 0.0000 22.5527 0.0000
# 6 0.0000 0.0000 0.0000 7.0272 0.0000 26.4712
#
#
#
# Elastic Compliance Matrix: (Units=1/GPa)
#
#
# Indices 1 2 3 4 5 6 
#
# 1 0.006759 0.017926 -0.000844 0.000000 -0.007702 0.000000
# 2 0.017926 -0.046058 -0.022413 0.000000 -0.014953 0.000000
# 3 -0.000844 -0.022413 0.048180 0.000000 -0.002492 0.000000
# 4 0.000000 0.000000 0.000000 0.052166 0.000000 -0.013848
# 5 -0.007702 -0.014953 -0.002492 0.000000 0.053206 0.000000
# 6 0.000000 0.000000 0.000000 -0.013848 0.000000 0.041453
#
#
# Mechanical properties :
#
#
# Convention : Reuss Voigt Hill
#
# Bulk Modulus (GPa) = -561.52097 21.29964 -270.11066
# Shear Modulus (GPa) = 30.16111 19.24366 24.70238
#
# Velocity S-wave (km/s) = 3.89169 3.10855 3.52196
# Velocity P-wave (km/s) = 16.17935 4.85589 10.91311
#
# Compressibility (1/GPa) = -0.00178088
#
# Stress axis : x y z
#
# Youngs Moduli (GPa) = 147.94690 -21.71184 20.75532
#
# Poissons Ratio (x) = 0.38920 0.01752
# Poissons Ratio (y) = -2.65208 0.46519
# Poissons Ratio (z) = 0.12489 -0.48663
#
# Static dielectric constant tensor:
#      x y z
#    x 1.752330 0.000000 0.033260 
#    y 0.000000 1.657350 0.000000 
#    z 0.033260 0.000000 1.793560 
# 
# From -- ./inp_files/49088.got.cif
#   From: 2010.05.17/outbox.ucp.g08.bks.cvg/sg10_25_cif.got.tgz:49088.got - 2010.06.11 11:31:16.
