data_PCOD9155539
_publ_section_title
;
Structure prediction by ZEFSAII (Michael W. Deem and Ramdas Pophale) SiO2 
 PCOD9155539
Probable space group: P 2/M
;
_chemical_formula_sum "Si O2"
_cell_formula_units_Z 32
_cell_length_a 12.000000
_cell_length_b 18.000000
_cell_length_c 15.000000
_cell_angle_alpha 90.000000
_cell_angle_beta 30.000000
_cell_angle_gamma 90.000000
_cell_volume 1620.000000
_symmetry_space_group_name_H-M "P 2/M"
_symmetry_group_IT_number 10
_symmetry_cell_setting 'monoclinic'
loop_
_space_group_symop_operation_xyz
x,y,z
-x,y,-z
-x,-y,-z
x,-y,z
loop_
_atom_site_type_symbol
_atom_site_label
_atom_site_fract_x
_atom_site_fract_y
_atom_site_fract_z
Si Si1 0.513919 0.158364 0.210304
Si Si2 0.281678 0.914347 0.216009
Si Si3 0.656501 0.819393 0.477033
Si Si4 0.920202 0.586117 0.802860
Si Si5 0.921797 0.911744 0.823181
Si Si6 0.610210 0.667346 0.141688
Si Si7 0.233201 0.412170 0.287092
Si Si8 0.393155 0.351360 0.476165
O O1 0.317279 0.137305 0.276612
O O2 0.446418 0.146647 0.360166
O O3 0.587906 0.243981 0.151840
O O4 0.716108 0.109853 0.029488
O O5 0.105972 0.891482 0.262916
O O6 0.247614 0.000000 0.268288
O O7 0.500000 0.914198 0.000000
O O8 0.500000 0.818708 0.500000
O O9 0.702698 0.732754 0.465222
O O10 0.866326 0.865026 0.298011
O O11 0.864777 0.500000 0.858011
O O12 0.802127 0.609071 0.791740
O O13 0.184314 0.594822 0.607681
O O14 0.836391 0.636659 0.942062
O O15 0.949668 0.000000 0.807252
O O16 0.419130 0.632508 0.211191
O O17 0.565325 0.642471 0.274648
O O18 0.287278 0.500000 0.251407
O O19 0.000000 0.402072 0.500000
O O20 0.500000 0.361132 0.500000
#
# Coordination Sequence:
#
# PCOD9155539 Si02
#       8
#     4   4   4   4   4   4   4   4
#     4  10  21  37  59  87 115 150 187 237 287 335
#     4   8  16  33  55  81 113 148 181 218 276 340
#     4  10  23  41  59  82 112 150 197 239 281 339
#     4  11  23  38  61  88 117 154 192 238 290 347
#     4  10  21  38  60  85 117 153 186 232 288 342
#     4  11  22  37  60  90 117 151 195 239 290 346
#     4  10  20  37  59  85 121 158 188 228 289 351
#     4  10  23  43  61  80 114 156 196 244 294 340
#
# _framework density 19.753086
#
# number of rings (size 3 to 8) (size 9 to 14) (size 15 to 20)
#    0.000    2.000    1.250    2.625    0.000    8.500 
#    0.000    6.250    0.000    0.000    0.000    0.000 
#    0.000    0.000    0.000    0.000    0.000    0.000 
#
# Total GULP energy -178564.521656 kJ/mol
# GULP energy per Si atom -5580.141302 kJ/mol
# Density = 1.970813 g / cm^3
# Si number density = 19.753086 Si / 1000 Ang^3
#
#
#
# Elastic Constant Matrix: (Units=GPa)
#
#
# Indices 1 2 3 4 5 6 
#
# 1 49.1892 10.7653 -2.8480 0.0000 18.3828 0.0000
# 2 10.7653 12.0638 0.8834 0.0000 -3.5315 0.0000
# 3 -2.8480 0.8834 39.9604 0.0000 8.9109 0.0000
# 4 0.0000 0.0000 0.0000 -21.8534 0.0000 -15.1489
# 5 18.3828 -3.5315 8.9109 0.0000 28.0851 0.0000
# 6 0.0000 0.0000 0.0000 -15.1489 0.0000 17.5459
#
#
#
# Elastic Compliance Matrix: (Units=1/GPa)
#
#
# Indices 1 2 3 4 5 6 
#
# 1 0.052112 -0.061318 0.015491 0.000000 -0.046735 0.000000
# 2 -0.061318 0.159020 -0.022916 0.000000 0.067402 0.000000
# 3 0.015491 -0.022916 0.031788 0.000000 -0.023107 0.000000
# 4 0.000000 0.000000 0.000000 -0.028626 0.000000 -0.024716
# 5 -0.046735 0.067402 -0.023107 0.000000 0.082003 0.000000
# 6 0.000000 0.000000 0.000000 -0.024716 0.000000 0.035654
#
#
# Mechanical properties :
#
#
# Convention : Reuss Voigt Hill
#
# Bulk Modulus (GPa) = 9.48459 13.20166 11.34312
# Shear Modulus (GPa) = 9.90922 10.91635 10.41278
#
# Velocity S-wave (km/s) = 2.24219 2.35338 2.29846
# Velocity P-wave (km/s) = 3.39341 3.75265 3.57754
#
# Compressibility (1/GPa) = 0.10543418
#
# Stress axis : x y z
#
# Youngs Moduli (GPa) = 19.18946 6.28853 31.45820
#
# Poissons Ratio (x) = 0.38560 -0.48733
# Poissons Ratio (y) = 1.17666 0.72089
# Poissons Ratio (z) = -0.29727 0.14411
#
# Static dielectric constant tensor:
#      x y z
#    x 1.742370 0.000000 -0.054430 
#    y 0.000000 1.666610 0.000000 
#    z -0.054430 0.000000 1.735340 
# 
# From -- ./inp_files/65391.got.cif
#   From: 2010.05.17/outbox.ucp.g08.bks.cvg/sg10_33_cif.got.tgz:65391.got - 2010.06.11 11:31:16.
