data_PCOD9155799
_publ_section_title
;
Structure prediction by ZEFSAII (Michael W. Deem and Ramdas Pophale) SiO2 
 PCOD9155799
Probable space group: P 21/M
;
_chemical_formula_sum "Si O2"
_cell_formula_units_Z 24
_cell_length_a 9.228610
_cell_length_b 19.790825
_cell_length_c 7.490379
_cell_angle_alpha 90.000000
_cell_angle_beta 50.131069
_cell_angle_gamma 90.000000
_cell_volume 1050.000850
_symmetry_space_group_name_H-M "P 21/M"
_symmetry_group_IT_number 11
_symmetry_cell_setting 'monoclinic'
loop_
_space_group_symop_operation_xyz
x,y,z
-x,1/2+y,-z
-x,-y,-z
x,1/2-y,z
loop_
_atom_site_type_symbol
_atom_site_label
_atom_site_fract_x
_atom_site_fract_y
_atom_site_fract_z
Si Si1 0.278333 0.044029 0.699718
Si Si2 0.435409 0.823779 0.044452
Si Si3 0.619810 0.462616 0.053167
Si Si4 0.102292 0.675407 0.567045
Si Si5 0.494737 0.327580 0.608674
Si Si6 0.983530 0.962473 0.769245
O O1 0.381129 0.115052 0.597024
O O2 0.186597 0.998278 0.618688
O O3 0.092870 0.059006 0.972977
O O4 0.398833 0.996617 0.738972
O O5 0.487272 0.750000 0.933582
O O6 0.438581 0.885325 0.909038
O O7 0.221094 0.821515 0.289997
O O8 0.545917 0.836825 0.144481
O O9 0.834561 0.480761 0.829065
O O10 0.500000 0.500000 0.000000
O O11 0.016133 0.750000 0.664822
O O12 0.275818 0.665680 0.573646
O O13 0.982291 0.607749 0.665371
O O14 0.449772 0.250000 0.598507
#
# Coordination Sequence:
#
# PCOD9155799 Si02
#       6
#     4   4   4   4   4   4
#     4   9  18  31  44  71 100 118 152 194 231 281
#     4   8  15  28  46  67  90 118 158 191 224 273
#     4  10  16  30  48  67  95 123 156 191 236 279
#     4   8  16  31  48  70  92 121 159 193 228 274
#     4   8  15  29  48  68  90 122 159 186 224 280
#     4   9  19  30  45  70 101 118 150 204 230 275
#
# _framework density 22.857123000000001
#
# number of rings (size 3 to 8) (size 9 to 14) (size 15 to 20)
#    2.000    1.333    1.667    0.000    0.000    2.000 
#    0.000    2.500    0.000    0.000    0.000    2.333 
#    0.000    0.000    0.000    0.000    0.000    0.000 
#
# Total GULP energy -133607.560916 kJ/mol
# GULP energy per Si atom -5566.981705 kJ/mol
# Density = 2.280510 g / cm^3
# Si number density = 22.857123 Si / 1000 Ang^3
#
#
#
# Elastic Constant Matrix: (Units=GPa)
#
#
# Indices 1 2 3 4 5 6 
#
# 1 77.1362 45.6203 13.1912 0.0000 -3.3251 0.0000
# 2 45.6203 198.8636 33.8614 0.0000 4.2310 0.0000
# 3 13.1912 33.8614 46.7562 0.0000 7.1785 0.0000
# 4 0.0000 0.0000 0.0000 18.9701 0.0000 -0.5116
# 5 -3.3251 4.2310 7.1785 0.0000 15.2466 0.0000
# 6 0.0000 0.0000 0.0000 -0.5116 0.0000 18.0339
#
#
#
# Elastic Compliance Matrix: (Units=1/GPa)
#
#
# Indices 1 2 3 4 5 6 
#
# 1 0.015606 -0.003197 -0.002960 0.000000 0.005684 0.000000
# 2 -0.003197 0.006393 -0.003609 0.000000 -0.000772 0.000000
# 3 -0.002960 -0.003609 0.026713 0.000000 -0.012221 0.000000
# 4 0.000000 0.000000 0.000000 0.052755 0.000000 0.001496
# 5 0.005684 -0.000772 -0.012221 0.000000 0.072796 0.000000
# 6 0.000000 0.000000 0.000000 0.001496 0.000000 0.055494
#
#
# Mechanical properties :
#
#
# Convention : Reuss Voigt Hill
#
# Bulk Modulus (GPa) = 34.27163 56.45575 45.36369
# Shear Modulus (GPa) = 19.30378 25.78899 22.54639
#
# Velocity S-wave (km/s) = 2.90925 3.36262 3.14412
# Velocity P-wave (km/s) = 5.12946 6.31104 5.75068
#
# Compressibility (1/GPa) = 0.02917865
#
# Stress axis : x y z
#
# Youngs Moduli (GPa) = 64.07728 156.42123 37.43491
#
# Poissons Ratio (x) = 0.50008 0.11082
# Poissons Ratio (y) = 0.20486 0.13512
# Poissons Ratio (z) = 0.18969 0.56459
#
# Static dielectric constant tensor:
#      x y z
#    x 1.870460 0.000000 -0.046530 
#    y 0.000000 1.894090 0.000000 
#    z -0.046530 0.000000 2.005900 
# 
# From -- ./inp_files/31455.got.cif
#   From: 2010.05.17/outbox.cif.g08.bks.cpg/sg11_16_cif.got.tgz:31455.got - 2010.06.03 12:22:45.
