data_PCOD9155815
_publ_section_title
;
Structure prediction by ZEFSAII (Michael W. Deem and Ramdas Pophale) SiO2 
 PCOD9155815
Probable space group: P 21/M
;
_chemical_formula_sum "Si O2"
_cell_formula_units_Z 28
_cell_length_a 8.031587
_cell_length_b 14.798421
_cell_length_c 16.620613
_cell_angle_alpha 90.000000
_cell_angle_beta 41.261352
_cell_angle_gamma 90.000000
_cell_volume 1302.792158
_symmetry_space_group_name_H-M "P 21/M"
_symmetry_group_IT_number 11
_symmetry_cell_setting 'monoclinic'
loop_
_space_group_symop_operation_xyz
x,y,z
-x,1/2+y,-z
-x,-y,-z
x,1/2-y,z
loop_
_atom_site_type_symbol
_atom_site_label
_atom_site_fract_x
_atom_site_fract_y
_atom_site_fract_z
Si Si1 0.956199 0.642643 0.698961
Si Si2 0.941897 0.403847 0.563605
Si Si3 0.510234 0.356042 0.819958
Si Si4 0.269108 0.060673 0.058474
Si Si5 0.584061 0.648049 0.681934
Si Si6 0.438813 0.854158 0.437684
Si Si7 0.240068 0.027307 0.784813
O O1 0.986211 0.750000 0.691981
O O2 0.851342 0.606711 0.819949
O O3 0.753168 0.628266 0.700632
O O4 0.240048 0.608972 0.575846
O O5 0.784765 0.402681 0.703250
O O6 0.749315 0.354864 0.572029
O O7 0.000000 0.500000 0.500000
O O8 0.210874 0.355832 0.464729
O O9 0.535783 0.250000 0.795323
O O10 0.325800 0.406411 0.824809
O O11 0.384404 0.371393 0.951690
O O12 0.051129 0.996123 0.103626
O O13 0.500000 0.000000 0.000000
O O14 0.479507 0.750000 0.725722
O O15 0.388547 0.567585 0.740567
O O16 0.515798 0.750000 0.424887
O O17 0.663833 0.920654 0.330434
#
# Coordination Sequence:
#
# PCOD9155815 Si02
#       7
#     4   4   4   4   4   4   4
#     4   9  20  39  60  87 124 163 199 242 309 376
#     4  10  16  31  61  94 124 149 196 255 315 360
#     4  11  23  42  66  93 127 165 207 255 306 368
#     4  12  27  41  59  84 127 172 211 248 306 373
#     4  10  19  34  63  95 122 154 201 260 314 363
#     4   9  18  35  63  92 120 156 201 257 312 365
#     4  11  22  40  63  93 118 157 212 264 310 356
#
# _framework density 21.492298999999999
#
# number of rings (size 3 to 8) (size 9 to 14) (size 15 to 20)
#    0.000    1.714    2.857    5.143    2.000    1.714 
#    0.000    4.286    0.000    1.714    0.000    0.000 
#    0.000    0.000    0.000    0.000    0.000    0.000 
#
# Total GULP energy -156320.967990 kJ/mol
# GULP energy per Si atom -5582.891714 kJ/mol
# Density = 2.144338 g / cm^3
# Si number density = 21.492299 Si / 1000 Ang^3
#
#
#
# Elastic Constant Matrix: (Units=GPa)
#
#
# Indices 1 2 3 4 5 6 
#
# 1 21.0340 21.0327 11.8020 0.0000 -3.7807 0.0000
# 2 21.0327 140.3864 42.1279 0.0000 0.0902 0.0000
# 3 11.8020 42.1279 111.3821 0.0000 33.8472 0.0000
# 4 0.0000 0.0000 0.0000 38.1181 0.0000 10.1492
# 5 -3.7807 0.0902 33.8472 0.0000 23.1322 0.0000
# 6 0.0000 0.0000 0.0000 10.1492 0.0000 5.3017
#
#
#
# Elastic Compliance Matrix: (Units=1/GPa)
#
#
# Indices 1 2 3 4 5 6 
#
# 1 0.067618 -0.005608 -0.015141 0.000000 0.033228 0.000000
# 2 -0.005608 0.009404 -0.004813 0.000000 0.006089 0.000000
# 3 -0.015141 -0.004813 0.023677 0.000000 -0.037100 0.000000
# 4 0.000000 0.000000 0.000000 0.053506 0.000000 -0.102428
# 5 0.033228 0.006089 -0.037100 0.000000 0.102922 0.000000
# 6 0.000000 0.000000 0.000000 -0.102428 0.000000 0.384699
#
#
# Mechanical properties :
#
#
# Convention : Reuss Voigt Hill
#
# Bulk Modulus (GPa) = 20.17166 46.96975 33.57071
# Shear Modulus (GPa) = 7.04746 26.49972 16.77359
#
# Velocity S-wave (km/s) = 1.81278 3.51520 2.79668
# Velocity P-wave (km/s) = 3.71315 6.19493 5.10709
#
# Compressibility (1/GPa) = 0.04957449
#
# Stress axis : x y z
#
# Youngs Moduli (GPa) = 14.78900 106.34008 42.23525
#
# Poissons Ratio (x) = 0.59639 0.63948
# Poissons Ratio (y) = 0.08294 0.20327
# Poissons Ratio (z) = 0.22392 0.51180
#
# Static dielectric constant tensor:
#      x y z
#    x 1.805540 0.000000 0.051010 
#    y 0.000000 1.792570 0.000000 
#    z 0.051010 0.000000 1.731330 
# 
# From -- ./inp_files/58118.got.cif
#   From: 2010.05.17/outbox.cif.g08.bks.cpg/sg11_30_cif.got.tgz:58118.got - 2010.06.03 12:22:45.
