data_PCOD9155536
_publ_section_title
;
Structure prediction by ZEFSAII (Michael W. Deem and Ramdas Pophale) SiO2 
 PCOD9155536
Probable space group: P 2/M
;
_chemical_formula_sum "Si O2"
_cell_formula_units_Z 32
_cell_length_a 30.000000
_cell_length_b 9.000000
_cell_length_c 12.000000
_cell_angle_alpha 90.000000
_cell_angle_beta 30.000000
_cell_angle_gamma 90.000000
_cell_volume 1620.000000
_symmetry_space_group_name_H-M "P 2/M"
_symmetry_group_IT_number 10
_symmetry_cell_setting 'monoclinic'
loop_
_space_group_symop_operation_xyz
x,y,z
-x,y,-z
-x,-y,-z
x,-y,z
loop_
_atom_site_type_symbol
_atom_site_label
_atom_site_fract_x
_atom_site_fract_y
_atom_site_fract_z
Si Si1 0.352809 0.825675 0.753185
Si Si2 0.782779 0.829032 0.127210
Si Si3 0.529954 0.826185 0.724764
Si Si4 0.674213 0.676121 0.554968
Si Si5 0.378656 0.668576 0.929878
Si Si6 0.006947 0.828761 0.354690
Si Si7 0.953304 0.176268 0.218697
Si Si8 0.771897 0.328674 0.573163
O O1 0.257603 0.784154 0.905397
O O2 0.415701 0.803284 0.509446
O O3 0.378987 0.738697 0.806756
O O4 0.354324 0.000000 0.778824
O O5 0.745628 0.730802 0.308060
O O6 0.751049 0.000000 0.215116
O O7 0.887733 0.829423 0.894724
O O8 0.583501 0.752966 0.709975
O O9 0.437510 0.753416 0.893105
O O10 0.521444 0.000000 0.762903
O O11 0.662430 0.500000 0.573385
O O12 0.710533 0.710780 0.599348
O O13 0.411289 0.500000 0.851809
O O14 0.281801 0.670573 0.195064
O O15 0.000000 0.768376 0.500000
O O16 0.971786 0.768105 0.308310
O O17 0.972285 0.000000 0.437660
O O18 0.851587 0.214895 0.413630
O O19 0.972670 0.000000 0.182454
O O20 0.000000 0.230424 0.000000
O O21 0.802981 0.500000 0.486350
#
# Coordination Sequence:
#
# PCOD9155536 Si02
#       8
#     4   4   4   4   4   4   4   4
#     4   9  19  34  55  82 112 147 185 228 280 338
#     4   9  18  34  57  83 112 143 182 233 283 334
#     4  10  21  38  59  84 112 143 184 233 284 336
#     4  10  20  37  59  80 107 146 190 228 275 337
#     4  11  23  37  54  79 114 151 189 231 276 332
#     4   9  18  32  54  84 116 148 184 232 292 347
#     4  10  21  37  61  89 113 146 198 248 285 339
#     4  10  24  41  56  80 115 154 188 228 283 339
#
# _framework density 19.753086
#
# number of rings (size 3 to 8) (size 9 to 14) (size 15 to 20)
#    0.000    2.250    0.000    3.000    1.750    7.750 
#    0.000    3.125    0.000    0.750    0.000    0.000 
#    0.000    0.000    0.000    0.000    0.000    0.000 
#
# Total GULP energy -178199.743474 kJ/mol
# GULP energy per Si atom -5568.741984 kJ/mol
# Density = 1.970813 g / cm^3
# Si number density = 19.753086 Si / 1000 Ang^3
#
#
#
# Elastic Constant Matrix: (Units=GPa)
#
#
# Indices 1 2 3 4 5 6 
#
# 1 119.1454 28.7618 26.5965 0.0000 10.5698 0.0000
# 2 28.7618 32.6023 26.4509 0.0000 -0.1822 0.0000
# 3 26.5965 26.4509 33.6676 0.0000 1.8019 0.0000
# 4 0.0000 0.0000 0.0000 14.6887 0.0000 22.5864
# 5 10.5698 -0.1822 1.8019 0.0000 28.3384 0.0000
# 6 0.0000 0.0000 0.0000 22.5864 0.0000 18.8692
#
#
#
# Elastic Compliance Matrix: (Units=1/GPa)
#
#
# Indices 1 2 3 4 5 6 
#
# 1 0.011213 -0.008014 -0.002344 0.000000 -0.004085 0.000000
# 2 -0.008014 0.090972 -0.065556 0.000000 0.007742 0.000000
# 3 -0.002344 -0.065556 0.083316 0.000000 -0.004845 0.000000
# 4 0.000000 0.000000 0.000000 -0.080990 0.000000 0.096945
# 5 -0.004085 0.007742 -0.004845 0.000000 0.037169 0.000000
# 6 0.000000 0.000000 0.000000 0.096945 0.000000 -0.063047
#
#
# Mechanical properties :
#
#
# Convention : Reuss Voigt Hill
#
# Bulk Modulus (GPa) = 29.69494 38.78152 34.23823
# Shear Modulus (GPa) = 20.68818 19.28636 19.98727
#
# Velocity S-wave (km/s) = 3.23977 3.12808 3.18442
# Velocity P-wave (km/s) = 5.39078 5.72034 5.55801
#
# Compressibility (1/GPa) = 0.03367577
#
# Stress axis : x y z
#
# Youngs Moduli (GPa) = 89.18107 10.99240 12.00246
#
# Poissons Ratio (x) = 0.08809 0.02813
# Poissons Ratio (y) = 0.71467 0.78683
# Poissons Ratio (z) = 0.20900 0.72061
#
# Static dielectric constant tensor:
#      x y z
#    x 1.700760 0.000000 -0.018070 
#    y 0.000000 1.691070 0.000000 
#    z -0.018070 0.000000 1.735780 
# 
# From -- ./inp_files/58143.got.cif
#   From: 2010.05.17/outbox.ucp.g08.bks.cvg/sg10_30_cif.got.tgz:58143.got - 2010.06.11 11:31:16.
