data_PCOD9155955
_publ_section_title
;
Structure prediction by ZEFSAII (Michael W. Deem and Ramdas Pophale) SiO2 
 PCOD9155955
Probable space group: P 21/M
;
_chemical_formula_sum "Si O2"
_cell_formula_units_Z 32
_cell_length_a 12.624760
_cell_length_b 8.913845
_cell_length_c 31.620629
_cell_angle_alpha 90.000000
_cell_angle_beta 149.396575
_cell_angle_gamma 90.000000
_cell_volume 1811.572529
_symmetry_space_group_name_H-M "P 21/M"
_symmetry_group_IT_number 11
_symmetry_cell_setting 'monoclinic'
loop_
_space_group_symop_operation_xyz
x,y,z
-x,1/2+y,-z
-x,-y,-z
x,1/2-y,z
loop_
_atom_site_type_symbol
_atom_site_label
_atom_site_fract_x
_atom_site_fract_y
_atom_site_fract_z
Si Si1 0.525728 0.432352 0.241737
Si Si2 0.713971 0.428766 0.588924
Si Si3 0.800975 0.569758 0.798754
Si Si4 0.788544 0.580143 0.935616
Si Si5 0.243106 0.422509 0.975106
Si Si6 0.138343 0.931379 0.705414
Si Si7 0.304078 0.568023 0.856291
Si Si8 0.124051 0.928888 0.262062
O O1 0.535791 0.250000 0.247743
O O2 0.388325 0.479268 0.235098
O O3 0.387101 0.484683 0.154402
O O4 0.751385 0.477927 0.300908
O O5 0.500000 0.500000 0.500000
O O6 0.709753 0.250000 0.581914
O O7 0.912406 0.497515 0.633081
O O8 0.756755 0.460308 0.653218
O O9 0.808011 0.750000 0.801390
O O10 0.768003 0.505170 0.740777
O O11 0.031389 0.509637 0.891217
O O12 0.812142 0.750000 0.928911
O O13 0.745146 0.582093 0.969909
O O14 0.000000 0.500000 0.000000
O O15 0.223658 0.250000 0.952889
O O16 0.477238 0.482442 0.047343
O O17 0.124968 0.750000 0.701074
O O18 0.107317 0.002526 0.812448
O O19 0.300915 0.750000 0.857895
O O20 0.265949 0.530815 0.793032
O O21 0.110739 0.750000 0.251962
#
# Coordination Sequence:
#
# PCOD9155955 Si02
#       8
#     4   4   4   4   4   4   4   4
#     4   9  17  30  49  74 104 139 178 217 259 305
#     4  10  21  38  62  90 111 129 157 201 256 315
#     4  11  22  34  50  72 103 146 189 220 253 306
#     4  10  17  28  44  67  99 136 180 228 268 302
#     4  10  19  30  47  71 101 139 183 229 272 307
#     4   9  16  31  55  81 109 137 167 211 262 309
#     4   9  17  31  52  74  98 135 180 222 267 312
#     4  10  22  39  55  75 105 135 169 213 260 309
#
# _framework density 17.664211999999999
#
# number of rings (size 3 to 8) (size 9 to 14) (size 15 to 20)
#    0.000    2.250    2.500    1.125    0.000    2.500 
#    0.000    1.875    0.000    0.750    0.000    0.000 
#    0.000    0.000    0.000    0.000    0.000    0.000 
#
# Total GULP energy -178161.640913 kJ/mol
# GULP energy per Si atom -5567.551279 kJ/mol
# Density = 1.762401 g / cm^3
# Si number density = 17.664212 Si / 1000 Ang^3
#
#
#
# Elastic Constant Matrix: (Units=GPa)
#
#
# Indices 1 2 3 4 5 6 
#
# 1 139.7506 40.8519 62.9480 0.0000 13.3118 0.0000
# 2 40.8519 30.4897 31.6923 0.0000 5.3266 0.0000
# 3 62.9480 31.6923 91.3300 0.0000 23.0145 0.0000
# 4 0.0000 0.0000 0.0000 23.7593 0.0000 0.3147
# 5 13.3118 5.3266 23.0145 0.0000 17.2246 0.0000
# 6 0.0000 0.0000 0.0000 0.3147 0.0000 21.7351
#
#
#
# Elastic Compliance Matrix: (Units=1/GPa)
#
#
# Indices 1 2 3 4 5 6 
#
# 1 0.012849 -0.012537 -0.004493 0.000000 -0.000050 0.000000
# 2 -0.012537 0.065218 -0.017111 0.000000 0.012383 0.000000
# 3 -0.004493 -0.017111 0.026798 0.000000 -0.027042 0.000000
# 4 0.000000 0.000000 0.000000 0.042097 0.000000 -0.000610
# 5 -0.000050 0.012383 -0.027042 0.000000 0.090398 0.000000
# 6 0.000000 0.000000 0.000000 -0.000610 0.000000 0.046017
#
#
# Mechanical properties :
#
#
# Convention : Reuss Voigt Hill
#
# Bulk Modulus (GPa) = 27.33460 59.17275 43.25368
# Shear Modulus (GPa) = 13.74181 20.94900 17.34540
#
# Velocity S-wave (km/s) = 2.79219 3.44751 3.13701
# Velocity P-wave (km/s) = 5.08953 7.02983 6.13685
#
# Compressibility (1/GPa) = 0.03658367
#
# Stress axis : x y z
#
# Youngs Moduli (GPa) = 77.82778 15.33324 37.31603
#
# Poissons Ratio (x) = 0.19223 0.16766
# Poissons Ratio (y) = 0.97571 0.63851
# Poissons Ratio (z) = 0.34968 0.26236
#
# Static dielectric constant tensor:
#      x y z
#    x 1.621480 0.000000 0.027200 
#    y 0.000000 1.597100 0.000000 
#    z 0.027200 0.000000 1.589150 
# 
# From -- ./inp_files/73200.got.cif
#   From: 2010.05.17/outbox.cif.g08.bks.cpg/sg11_37_cif.got.tgz:73200.got - 2010.06.03 12:22:45.
