data_PCOD9155964
_publ_section_title
;
Structure prediction by ZEFSAII (Michael W. Deem and Ramdas Pophale) SiO2 
 PCOD9155964
Probable space group: P 21/M
;
_chemical_formula_sum "Si O2"
_cell_formula_units_Z 28
_cell_length_a 6.572690
_cell_length_b 14.062115
_cell_length_c 21.318533
_cell_angle_alpha 90.000000
_cell_angle_beta 117.829622
_cell_angle_gamma 90.000000
_cell_volume 1742.489820
_symmetry_space_group_name_H-M "P 21/M"
_symmetry_group_IT_number 11
_symmetry_cell_setting 'monoclinic'
loop_
_space_group_symop_operation_xyz
x,y,z
-x,1/2+y,-z
-x,-y,-z
x,1/2-y,z
loop_
_atom_site_type_symbol
_atom_site_label
_atom_site_fract_x
_atom_site_fract_y
_atom_site_fract_z
Si Si1 0.265031 0.026037 0.551745
Si Si2 0.565212 0.139476 0.497678
Si Si3 0.072782 0.360922 0.632571
Si Si4 0.576182 0.034786 0.909714
Si Si5 0.853522 0.861806 0.212249
Si Si6 0.550128 0.641906 0.987260
Si Si7 0.068941 0.856821 0.116092
O O1 0.369096 0.100183 0.516156
O O2 0.246676 0.074528 0.617098
O O3 0.410904 0.930517 0.558746
O O4 0.000000 0.000000 0.500000
O O5 0.530777 0.250000 0.477479
O O6 0.811610 0.130011 0.569005
O O7 0.137668 0.250000 0.633718
O O8 0.076943 0.383124 0.706825
O O9 0.355771 0.073708 0.840875
O O10 0.791213 0.062030 0.898342
O O11 0.547514 0.926533 0.927013
O O12 0.595350 0.093725 0.977798
O O13 0.784366 0.750000 0.199063
O O14 0.050738 0.872116 0.188071
O O15 0.479740 0.750000 0.965214
O O16 0.809900 0.642856 0.052009
O O17 0.165325 0.750000 0.118309
#
# Coordination Sequence:
#
# PCOD9155964 Si02
#       7
#     4   4   4   4   4   4   4
#     4   9  17  29  46  69  94 119 149 185 221 260
#     4   9  17  29  46  69  95 122 151 183 221 266
#     4   9  17  29  45  67  95 122 148 182 225 269
#     4  10  17  28  46  63  85 117 145 177 225 267
#     4   9  18  29  42  66  93 115 145 179 213 263
#     4   9  18  29  42  64  87 108 144 187 222 265
#     4   9  16  27  42  61  87 114 143 181 223 267
#
# _framework density 16.068960000000001
#
# number of rings (size 3 to 8) (size 9 to 14) (size 15 to 20)
#    0.000    2.857    0.000    3.000    0.000    1.714 
#    0.000    2.857    0.000    0.857    0.000    0.000 
#    0.000    0.000    0.000    0.000    0.000    0.000 
#
# Total GULP energy -155882.506923 kJ/mol
# GULP energy per Si atom -5567.232390 kJ/mol
# Density = 1.603239 g / cm^3
# Si number density = 16.068960 Si / 1000 Ang^3
#
#
#
# Elastic Constant Matrix: (Units=GPa)
#
#
# Indices 1 2 3 4 5 6 
#
# 1 63.5993 33.8564 19.0074 0.0000 -23.0133 0.0000
# 2 33.8564 104.9956 34.1539 0.0000 -19.6710 0.0000
# 3 19.0074 34.1539 61.6685 0.0000 -23.1006 0.0000
# 4 0.0000 0.0000 0.0000 19.9121 0.0000 -8.8915
# 5 -23.0133 -19.6710 -23.1006 0.0000 18.8386 0.0000
# 6 0.0000 0.0000 0.0000 -8.8915 0.0000 21.8593
#
#
#
# Elastic Compliance Matrix: (Units=1/GPa)
#
#
# Indices 1 2 3 4 5 6 
#
# 1 0.032266 -0.004992 0.010417 0.000000 0.046978 0.000000
# 2 -0.004992 0.013052 -0.005306 0.000000 0.001024 0.000000
# 3 0.010417 -0.005306 0.034467 0.000000 0.049449 0.000000
# 4 0.000000 0.000000 0.000000 0.061367 0.000000 0.024962
# 5 0.046978 0.001024 0.049449 0.000000 0.172176 0.000000
# 6 0.000000 0.000000 0.000000 0.024962 0.000000 0.055901
#
#
# Mechanical properties :
#
#
# Convention : Reuss Voigt Hill
#
# Bulk Modulus (GPa) = 12.49635 44.92211 28.70923
# Shear Modulus (GPa) = 12.63693 21.67173 17.15433
#
# Velocity S-wave (km/s) = 2.80736 3.67641 3.27087
# Velocity P-wave (km/s) = 4.27808 6.78512 5.67185
#
# Compressibility (1/GPa) = 0.08002335
#
# Stress axis : x y z
#
# Youngs Moduli (GPa) = 30.99200 76.61844 29.01306
#
# Poissons Ratio (x) = 0.38245 -0.30223
# Poissons Ratio (y) = 0.15470 0.15396
# Poissons Ratio (z) = -0.32285 0.40657
#
# Static dielectric constant tensor:
#      x y z
#    x 1.557900 0.000000 -0.007630 
#    y 0.000000 1.556250 0.000000 
#    z -0.007630 0.000000 1.526390 
# 
# From -- ./inp_files/7940.got.cif
#   From: 2010.05.17/outbox.cif.g08.bks.cpg/sg11_4_cif.got.tgz:7940.got - 2010.06.03 12:22:45.
