data_PCOD9155128
_publ_section_title
;
Structure prediction by ZEFSAII (Michael W. Deem and Ramdas Pophale) SiO2 
 PCOD9155128
Probable space group: P 2/M
;
_chemical_formula_sum "Si O2"
_cell_formula_units_Z 32
_cell_length_a 12.000000
_cell_length_b 9.000000
_cell_length_c 21.000000
_cell_angle_alpha 90.000000
_cell_angle_beta 130.000000
_cell_angle_gamma 90.000000
_cell_volume 1737.388797
_symmetry_space_group_name_H-M "P 2/M"
_symmetry_group_IT_number 10
_symmetry_cell_setting 'monoclinic'
loop_
_space_group_symop_operation_xyz
x,y,z
-x,y,-z
-x,-y,-z
x,-y,z
loop_
_atom_site_type_symbol
_atom_site_label
_atom_site_fract_x
_atom_site_fract_y
_atom_site_fract_z
Si Si1 0.851210 0.175520 0.720489
Si Si2 0.199126 0.670669 0.657022
Si Si3 0.578351 0.168383 0.095796
Si Si4 0.532481 0.666749 0.832289
Si Si5 0.692548 0.827788 0.422920
Si Si6 0.671539 0.670187 0.547258
Si Si7 0.363720 0.173283 0.247025
Si Si8 0.125179 0.323320 0.766114
O O1 0.752172 0.221255 0.624698
O O2 0.759718 0.218803 0.748917
O O3 0.002066 0.257012 0.765144
O O4 0.873679 0.000000 0.730436
O O5 0.158570 0.500000 0.627010
O O6 0.366856 0.667677 0.743889
O O7 0.205435 0.771260 0.596980
O O8 0.110694 0.725926 0.686337
O O9 0.468550 0.221509 0.109759
O O10 0.718561 0.271788 0.151788
O O11 0.625881 0.000000 0.126146
O O12 0.500000 0.176392 0.000000
O O13 0.565509 0.500000 0.864760
O O14 0.633033 0.723584 0.812961
O O15 0.703621 0.723000 0.487871
O O16 0.523721 0.817090 0.338078
O O17 0.721156 0.000000 0.448684
O O18 0.500000 0.676837 0.500000
O O19 0.720203 0.500000 0.574811
O O20 0.344200 0.000000 0.222631
O O21 0.118853 0.500000 0.762225
#
# Coordination Sequence:
#
# PCOD9155128 Si02
#       8
#     4   4   4   4   4   4   4   4
#     4  11  22  36  54  76 106 143 180 221 267 318
#     4   8  16  31  49  71 100 133 170 213 262 313
#     4  10  20  35  58  86 113 141 173 211 257 309
#     4   9  17  29  50  79 108 137 172 216 260 305
#     4  10  18  30  50  74 100 131 174 225 270 313
#     4  11  22  34  50  73 103 139 179 225 272 316
#     4   9  18  31  49  74 104 139 177 218 264 312
#     4  10  21  37  56  80 109 141 176 215 261 317
#
# _framework density 18.418444999999998
#
# number of rings (size 3 to 8) (size 9 to 14) (size 15 to 20)
#    0.000    2.250    1.250    3.000    0.000    6.500 
#    0.000    0.625    0.000    4.500    0.000    5.250 
#    0.000    0.000    0.000    0.000    0.000    0.000 
#
# Total GULP energy -178494.873252 kJ/mol
# GULP energy per Si atom -5577.964789 kJ/mol
# Density = 1.837652 g / cm^3
# Si number density = 18.418445 Si / 1000 Ang^3
#
#
#
# Elastic Constant Matrix: (Units=GPa)
#
#
# Indices 1 2 3 4 5 6 
#
# 1 68.0669 29.3599 14.8927 0.0000 -0.4337 0.0000
# 2 29.3599 22.2513 13.1500 0.0000 -5.3672 0.0000
# 3 14.8927 13.1500 19.0886 0.0000 -9.0806 0.0000
# 4 0.0000 0.0000 0.0000 51.5557 0.0000 3.7134
# 5 -0.4337 -5.3672 -9.0806 0.0000 13.6698 0.0000
# 6 0.0000 0.0000 0.0000 3.7134 0.0000 32.7107
#
#
#
# Elastic Compliance Matrix: (Units=1/GPa)
#
#
# Indices 1 2 3 4 5 6 
#
# 1 0.038917 -0.054833 -0.003279 0.000000 -0.022473 0.000000
# 2 -0.054833 0.153547 -0.051383 0.000000 0.024415 0.000000
# 3 -0.003279 -0.051383 0.117978 0.000000 0.058092 0.000000
# 4 0.000000 0.000000 0.000000 0.019556 0.000000 -0.002220
# 5 -0.022473 0.024415 0.058092 0.000000 0.120617 0.000000
# 6 0.000000 0.000000 0.000000 -0.002220 0.000000 0.030823
#
#
# Mechanical properties :
#
#
# Convention : Reuss Voigt Hill
#
# Bulk Modulus (GPa) = 10.93473 24.91244 17.92359
# Shear Modulus (GPa) = 6.84076 23.05418 14.94747
#
# Velocity S-wave (km/s) = 1.92929 3.54176 2.85186
# Velocity P-wave (km/s) = 3.30342 5.50278 4.53835
#
# Compressibility (1/GPa) = 0.09145171
#
# Stress axis : x y z
#
# Youngs Moduli (GPa) = 25.69564 6.51267 8.47614
#
# Poissons Ratio (x) = 0.35711 0.02780
# Poissons Ratio (y) = 1.40896 0.43553
# Poissons Ratio (z) = 0.08426 0.33464
#
# Static dielectric constant tensor:
#      x y z
#    x 1.620190 0.000000 0.005440 
#    y 0.000000 1.615340 0.000000 
#    z 0.005440 0.000000 1.624800 
# 
# From -- ./inp_files/55383.got.cif
#   From: 2010.05.17/outbox.ucp.g08.bks.cvg/sg10_28_cif.got.tgz:55383.got - 2010.06.11 11:31:16.
