data_PCOD9155532
_publ_section_title
;
Structure prediction by ZEFSAII (Michael W. Deem and Ramdas Pophale) SiO2 
 PCOD9155532
Probable space group: P 2/M
;
_chemical_formula_sum "Si O2"
_cell_formula_units_Z 32
_cell_length_a 30.000000
_cell_length_b 9.000000
_cell_length_c 15.000000
_cell_angle_alpha 90.000000
_cell_angle_beta 150.000000
_cell_angle_gamma 90.000000
_cell_volume 2025.000000
_symmetry_space_group_name_H-M "P 2/M"
_symmetry_group_IT_number 10
_symmetry_cell_setting 'monoclinic'
loop_
_space_group_symop_operation_xyz
x,y,z
-x,y,-z
-x,-y,-z
x,-y,z
loop_
_atom_site_type_symbol
_atom_site_label
_atom_site_fract_x
_atom_site_fract_y
_atom_site_fract_z
Si Si1 0.361469 0.320988 0.998231
Si Si2 0.811149 0.678908 0.182216
Si Si3 0.558013 0.823027 0.347367
Si Si4 0.132508 0.179956 0.908934
Si Si5 0.286622 0.823229 0.508780
Si Si6 0.735114 0.320134 0.712303
Si Si7 0.238472 0.679114 0.615139
Si Si8 0.065148 0.321065 0.432005
O O1 0.373627 0.500000 0.021152
O O2 0.286196 0.285042 0.943262
O O3 0.312437 0.283465 0.819238
O O4 0.458429 0.244461 0.176762
O O5 0.813103 0.500000 0.170143
O O6 0.833391 0.763283 0.129217
O O7 0.885609 0.710437 0.387783
O O8 0.608601 0.804543 0.338706
O O9 0.632190 0.742314 0.539613
O O10 0.555236 0.000000 0.361334
O O11 0.030052 0.239351 0.742249
O O12 0.134448 0.000000 0.917165
O O13 0.198614 0.250295 0.098918
O O14 0.239282 0.739251 0.343146
O O15 0.260660 0.756453 0.559468
O O16 0.267966 0.000000 0.473781
O O17 0.736021 0.500000 0.717842
O O18 0.240483 0.500000 0.607416
O O19 0.140878 0.716018 0.488470
O O20 0.050380 0.500000 0.402865
#
# Coordination Sequence:
#
# PCOD9155532 Si02
#       8
#     4   4   4   4   4   4   4   4
#     4   9  18  33  54  80 108 140 178 216 254 303
#     4   9  19  36  56  79 108 140 176 216 256 304
#     4   9  19  34  52  77 110 140 170 214 266 310
#     4  12  23  35  54  80 107 136 173 216 267 319
#     4   9  19  34  52  77 110 140 170 214 266 310
#     4  10  20  37  58  75  98 137 181 221 257 304
#     4   9  18  33  54  80 108 140 178 216 254 303
#     4   9  19  36  56  79 108 140 176 216 256 304
#
# _framework density 15.802469
#
# number of rings (size 3 to 8) (size 9 to 14) (size 15 to 20)
#    0.750    1.750    0.000    4.500    0.000    4.000 
#    0.000    6.250    0.000    7.500    0.000    0.000 
#    0.000    0.000    0.000    0.000    0.000    0.000 
#
# Total GULP energy -178151.513644 kJ/mol
# GULP energy per Si atom -5567.234801 kJ/mol
# Density = 1.576650 g / cm^3
# Si number density = 15.802469 Si / 1000 Ang^3
#
#
#
# Elastic Constant Matrix: (Units=GPa)
#
#
# Indices 1 2 3 4 5 6 
#
# 1 118.1045 61.3743 82.1676 0.0000 4.8244 0.0000
# 2 61.3743 114.4630 74.0760 0.0000 4.5435 0.0000
# 3 82.1676 74.0760 154.2364 0.0000 10.9284 0.0000
# 4 0.0000 0.0000 0.0000 28.6652 0.0000 1.9892
# 5 4.8244 4.5435 10.9284 0.0000 25.4674 0.0000
# 6 0.0000 0.0000 0.0000 1.9892 0.0000 29.9643
#
#
#
# Elastic Compliance Matrix: (Units=1/GPa)
#
#
# Indices 1 2 3 4 5 6 
#
# 1 0.014659 -0.004067 -0.005890 0.000000 0.000476 0.000000
# 2 -0.004067 0.013808 -0.004481 0.000000 0.000230 0.000000
# 3 -0.005890 -0.004481 0.012003 0.000000 -0.003235 0.000000
# 4 0.000000 0.000000 0.000000 0.035047 0.000000 -0.002327
# 5 0.000476 0.000230 -0.003235 0.000000 0.040523 0.000000
# 6 0.000000 0.000000 0.000000 -0.002327 0.000000 0.033527
#
#
# Mechanical properties :
#
#
# Convention : Reuss Voigt Hill
#
# Bulk Modulus (GPa) = 86.25627 91.33773 88.79700
# Shear Modulus (GPa) = 27.42613 28.09844 27.76228
#
# Velocity S-wave (km/s) = 4.17052 4.22133 4.19601
# Velocity P-wave (km/s) = 8.82573 9.03796 8.93248
#
# Compressibility (1/GPa) = 0.01159336
#
# Stress axis : x y z
#
# Youngs Moduli (GPa) = 68.21864 72.42022 83.31506
#
# Poissons Ratio (x) = 0.29456 0.49069
# Poissons Ratio (y) = 0.27747 0.37336
# Poissons Ratio (z) = 0.40178 0.32453
#
# Static dielectric constant tensor:
#      x y z
#    x 1.529800 0.000000 0.002740 
#    y 0.000000 1.530460 0.000000 
#    z 0.002740 0.000000 1.517490 
# 
# From -- ./inp_files/72564.got.cif
#   From: 2010.05.17/outbox.ucp.g08.bks.cvg/sg10_37_cif.got.tgz:72564.got - 2010.06.11 11:31:16.
