data_PCOD9155216
_publ_section_title
;
Structure prediction by ZEFSAII (Michael W. Deem and Ramdas Pophale) SiO2 
 PCOD9155216
Probable space group: P 2/M
;
_chemical_formula_sum "Si O2"
_cell_formula_units_Z 32
_cell_length_a 15.000000
_cell_length_b 9.000000
_cell_length_c 27.000000
_cell_angle_alpha 90.000000
_cell_angle_beta 30.000000
_cell_angle_gamma 90.000000
_cell_volume 1822.500000
_symmetry_space_group_name_H-M "P 2/M"
_symmetry_group_IT_number 10
_symmetry_cell_setting 'monoclinic'
loop_
_space_group_symop_operation_xyz
x,y,z
-x,y,-z
-x,-y,-z
x,-y,z
loop_
_atom_site_type_symbol
_atom_site_label
_atom_site_fract_x
_atom_site_fract_y
_atom_site_fract_z
Si Si1 0.294834 0.829117 0.040078
Si Si2 0.873143 0.825753 0.772077
Si Si3 0.397799 0.325353 0.165404
Si Si4 0.455863 0.820881 0.598264
Si Si5 0.366788 0.322483 0.854912
Si Si6 0.242782 0.322166 0.615544
Si Si7 0.955743 0.173868 0.931809
Si Si8 0.661823 0.677249 0.244969
O O1 0.243730 0.807460 0.121583
O O2 0.126096 0.815386 0.084289
O O3 0.362096 0.000000 0.001991
O O4 0.439239 0.715502 0.949733
O O5 0.763548 0.772656 0.777161
O O6 0.044802 0.723855 0.696546
O O7 0.921294 0.000000 0.745825
O O8 0.356186 0.500000 0.182607
O O9 0.471535 0.290711 0.184913
O O10 0.625535 0.750175 0.488556
O O11 0.293905 0.754339 0.643266
O O12 0.437470 0.763820 0.663178
O O13 0.457473 0.000000 0.594920
O O14 0.329089 0.500000 0.876905
O O15 0.402337 0.289551 0.780250
O O16 0.196408 0.233555 0.957771
O O17 0.267156 0.500000 0.606494
O O18 0.132826 0.270219 0.851630
O O19 0.993639 0.000000 0.923178
O O20 0.648443 0.500000 0.259548
#
# Coordination Sequence:
#
# PCOD9155216 Si02
#       8
#     4   4   4   4   4   4   4   4
#     4   9  19  33  48  70 104 141 173 209 258 312
#     4  11  21  34  53  77 106 140 176 215 261 309
#     4  10  20  34  51  73 102 138 180 222 262 305
#     4  11  22  38  58  82 111 138 166 208 261 310
#     4   9  20  36  51  70 103 143 180 221 266 310
#     4  11  22  38  59  83 109 138 171 206 251 310
#     4  10  19  31  49  75 106 139 176 218 264 315
#     4  11  21  34  53  76 103 139 180 218 261 314
#
# _framework density 17.558299000000002
#
# number of rings (size 3 to 8) (size 9 to 14) (size 15 to 20)
#    0.000    1.750    0.000    6.000    0.000    7.000 
#    0.000    0.000    0.000    0.750    0.000    5.250 
#    0.000    0.000    0.000    0.000    0.000    0.000 
#
# Total GULP energy -178729.758129 kJ/mol
# GULP energy per Si atom -5585.304942 kJ/mol
# Density = 1.751834 g / cm^3
# Si number density = 17.558299 Si / 1000 Ang^3
#
#
#
# Elastic Constant Matrix: (Units=GPa)
#
#
# Indices 1 2 3 4 5 6 
#
# 1 94.6824 44.3499 28.9857 0.0000 17.8357 0.0000
# 2 44.3499 108.1763 23.0978 0.0000 10.4907 0.0000
# 3 28.9857 23.0978 31.7875 0.0000 12.0542 0.0000
# 4 0.0000 0.0000 0.0000 27.4146 0.0000 0.8695
# 5 17.8357 10.4907 12.0542 0.0000 27.4988 0.0000
# 6 0.0000 0.0000 0.0000 0.8695 0.0000 26.5499
#
#
#
# Elastic Compliance Matrix: (Units=1/GPa)
#
#
# Indices 1 2 3 4 5 6 
#
# 1 0.016522 -0.004122 -0.010318 0.000000 -0.004620 0.000000
# 2 -0.004122 0.011986 -0.005074 0.000000 0.000325 0.000000
# 3 -0.010318 -0.005074 0.049513 0.000000 -0.013076 0.000000
# 4 0.000000 0.000000 0.000000 0.036515 0.000000 -0.001196
# 5 -0.004620 0.000325 -0.013076 0.000000 0.044970 0.000000
# 6 0.000000 0.000000 0.000000 -0.001196 0.000000 0.037704
#
#
# Mechanical properties :
#
#
# Convention : Reuss Voigt Hill
#
# Bulk Modulus (GPa) = 25.64591 47.50144 36.57368
# Shear Modulus (GPa) = 20.06141 25.50685 22.78413
#
# Velocity S-wave (km/s) = 3.38384 3.81556 3.60617
# Velocity P-wave (km/s) = 5.46855 6.82082 6.18177
#
# Compressibility (1/GPa) = 0.03899257
#
# Stress axis : x y z
#
# Youngs Moduli (GPa) = 60.52697 83.43031 20.19679
#
# Poissons Ratio (x) = 0.34393 0.20839
# Poissons Ratio (y) = 0.24951 0.10247
# Poissons Ratio (z) = 0.62450 0.42331
#
# Static dielectric constant tensor:
#      x y z
#    x 1.615940 0.000000 -0.016440 
#    y 0.000000 1.583680 0.000000 
#    z -0.016440 0.000000 1.589960 
# 
# From -- ./inp_files/66455.got.cif
#   From: 2010.05.17/outbox.ucp.g08.bks.cvg/sg10_34_cif.got.tgz:66455.got - 2010.06.11 11:31:16.
