data_PCOD9155470
_publ_section_title
;
Structure prediction by ZEFSAII (Michael W. Deem and Ramdas Pophale) SiO2 
 PCOD9155470
Probable space group: P 2/M
;
_chemical_formula_sum "Si O2"
_cell_formula_units_Z 28
_cell_length_a 21.000000
_cell_length_b 9.000000
_cell_length_c 24.000000
_cell_angle_alpha 90.000000
_cell_angle_beta 160.000000
_cell_angle_gamma 90.000000
_cell_volume 1551.403370
_symmetry_space_group_name_H-M "P 2/M"
_symmetry_group_IT_number 10
_symmetry_cell_setting 'monoclinic'
loop_
_space_group_symop_operation_xyz
x,y,z
-x,y,-z
-x,-y,-z
x,-y,z
loop_
_atom_site_type_symbol
_atom_site_label
_atom_site_fract_x
_atom_site_fract_y
_atom_site_fract_z
Si Si1 0.189345 0.823305 0.674120
Si Si2 0.119869 0.678891 0.251716
Si Si3 0.321661 0.678933 0.104536
Si Si4 0.809307 0.821697 0.809535
Si Si5 0.555880 0.178639 0.908211
Si Si6 0.488729 0.678967 0.620527
Si Si7 0.698163 0.333260 0.129453
O O1 0.356557 0.778977 0.771138
O O2 0.203454 0.782530 0.749918
O O3 0.000000 0.749992 0.500000
O O4 0.184259 0.000000 0.665421
O O5 0.126302 0.500000 0.250744
O O6 0.179881 0.755005 0.243374
O O7 0.274931 0.717510 0.426783
O O8 0.900214 0.717381 0.078842
O O9 0.334549 0.500000 0.108262
O O10 0.415030 0.762378 0.129582
O O11 0.430876 0.717316 0.251740
O O12 0.631905 0.754767 0.695489
O O13 0.796526 0.000000 0.796908
O O14 0.000000 0.782920 0.000000
O O15 0.578583 0.000000 0.930068
O O16 0.688514 0.265702 0.060228
O O17 0.504125 0.500000 0.628335
O O18 0.774119 0.500000 0.191056
O O19 0.500000 0.342180 0.000000
#
# Coordination Sequence:
#
# PCOD9155470 Si02
#       7
#     4   4   4   4   4   4   4
#     4   9  18  34  55  80 112 143 178 223 271 325
#     4  10  21  38  60  83 108 144 190 230 278 336
#     4  10  21  38  57  78 113 150 184 231 275 326
#     4  11  22  35  56  85 115 146 184 232 283 329
#     4  10  20  35  56  79 107 145 181 217 270 331
#     4  10  21  38  60  83 108 145 189 230 278 333
#     4   9  17  31  53  78 103 133 174 219 262 310
#
# _framework density 18.048175000000001
#
# number of rings (size 3 to 8) (size 9 to 14) (size 15 to 20)
#    0.000    2.143    1.429    1.714    0.000    6.571 
#    2.571    0.000    0.000    0.000    0.000    0.000 
#    0.000    0.000    0.000    0.000    0.000    0.000 
#
# Total GULP energy -155909.423351 kJ/mol
# GULP energy per Si atom -5568.193691 kJ/mol
# Density = 1.800710 g / cm^3
# Si number density = 18.048175 Si / 1000 Ang^3
#
#
#
# Elastic Constant Matrix: (Units=GPa)
#
#
# Indices 1 2 3 4 5 6 
#
# 1 121.3596 41.6778 51.1677 0.0000 -17.6194 0.0000
# 2 41.6778 4.5661 18.1112 0.0000 9.2316 0.0000
# 3 51.1677 18.1112 111.3881 0.0000 -13.9418 0.0000
# 4 0.0000 0.0000 0.0000 14.2021 0.0000 -5.8667
# 5 -17.6194 9.2316 -13.9418 0.0000 11.4115 0.0000
# 6 0.0000 0.0000 0.0000 -5.8667 0.0000 32.6154
#
#
#
# Elastic Compliance Matrix: (Units=1/GPa)
#
#
# Indices 1 2 3 4 5 6 
#
# 1 0.003763 0.014577 -0.005723 0.000000 -0.012973 0.000000
# 2 0.014577 -0.026483 0.003670 0.000000 0.048414 0.000000
# 3 -0.005723 0.003670 0.011253 0.000000 0.001944 0.000000
# 4 0.000000 0.000000 0.000000 0.076064 0.000000 0.013682
# 5 -0.012973 0.048414 0.001944 0.000000 0.030809 0.000000
# 6 0.000000 0.000000 0.000000 0.013682 0.000000 0.033121
#
#
# Mechanical properties :
#
#
# Convention : Reuss Voigt Hill
#
# Bulk Modulus (GPa) = 73.63415 51.02523 62.32969
# Shear Modulus (GPa) = 46.29319 20.06962 33.18140
#
# Velocity S-wave (km/s) = 5.07006 3.33829 4.29241
# Velocity P-wave (km/s) = 8.66956 6.57206 7.69263
#
# Compressibility (1/GPa) = 0.01358065
#
# Stress axis : x y z
#
# Youngs Moduli (GPa) = 265.72466 -37.75964 88.86548
#
# Poissons Ratio (x) = 0.55041 0.50854
# Poissons Ratio (y) = -3.87338 -0.32612
# Poissons Ratio (z) = 1.52063 0.13857
#
# Static dielectric constant tensor:
#      x y z
#    x 1.634140 0.000000 -0.076810 
#    y 0.000000 1.601180 0.000000 
#    z -0.076810 0.000000 1.783480 
# 
# From -- ./inp_files/86536.got.cif
#   From: 2010.05.17/outbox.ucp.g08.bks.cvg/sg10_44_cif.got.tgz:86536.got - 2010.06.11 11:31:16.
