data_PCOD9155451
_publ_section_title
;
Structure prediction by ZEFSAII (Michael W. Deem and Ramdas Pophale) SiO2 
 PCOD9155451
Probable space group: P 2/M
;
_chemical_formula_sum "Si O2"
_cell_formula_units_Z 24
_cell_length_a 12.000000
_cell_length_b 9.000000
_cell_length_c 24.000000
_cell_angle_alpha 90.000000
_cell_angle_beta 30.000000
_cell_angle_gamma 90.000000
_cell_volume 1296.000000
_symmetry_space_group_name_H-M "P 2/M"
_symmetry_group_IT_number 10
_symmetry_cell_setting 'monoclinic'
loop_
_space_group_symop_operation_xyz
x,y,z
-x,y,-z
-x,-y,-z
x,-y,z
loop_
_atom_site_type_symbol
_atom_site_label
_atom_site_fract_x
_atom_site_fract_y
_atom_site_fract_z
Si Si1 0.331809 0.326419 0.828805
Si Si2 0.873267 0.178357 0.193040
Si Si3 0.655231 0.177887 0.057110
Si Si4 0.859791 0.821922 0.732224
Si Si5 0.140452 0.673668 0.385736
Si Si6 0.741911 0.320626 0.366876
O O1 0.265078 0.500000 0.856419
O O2 0.229526 0.241248 0.820190
O O3 0.284006 0.255538 0.910271
O O4 0.600335 0.318797 0.710134
O O5 0.765923 0.254615 0.293938
O O6 0.842515 0.000000 0.208940
O O7 0.140671 0.208181 0.073286
O O8 0.404638 0.220396 0.145223
O O9 0.648900 0.000000 0.069574
O O10 0.903339 0.771717 0.649678
O O11 0.047050 0.744482 0.689576
O O12 0.876660 0.000000 0.731626
O O13 0.088248 0.500000 0.395494
O O14 0.000000 0.720323 0.500000
O O15 0.500000 0.283312 0.500000
O O16 0.756726 0.500000 0.358771
#
# Coordination Sequence:
#
# PCOD9155451 Si02
#       6
#     4   4   4   4   4   4
#     4  10  20  34  56  89 124 157 196 240 287 343
#     4  11  23  39  61  87 119 158 198 239 291 349
#     4   9  20  39  61  88 122 157 190 237 297 348
#     4  10  21  39  62  87 116 149 194 244 288 341
#     4   9  19  35  56  82 116 158 195 234 290 344
#     4  11  26  45  62  82 115 156 196 241 295 351
#
# _framework density 18.518519000000001
#
# number of rings (size 3 to 8) (size 9 to 14) (size 15 to 20)
#    0.000    2.000    0.000    2.500    2.333    7.000 
#    0.000    3.333    0.000    0.000    0.000    0.000 
#    0.000    0.000    0.000    0.000    0.000    0.000 
#
# Total GULP energy -133991.491933 kJ/mol
# GULP energy per Si atom -5582.978831 kJ/mol
# Density = 1.847637 g / cm^3
# Si number density = 18.518519 Si / 1000 Ang^3
#
#
#
# Elastic Constant Matrix: (Units=GPa)
#
#
# Indices 1 2 3 4 5 6 
#
# 1 111.5606 46.7633 53.2085 0.0000 -12.1835 0.0000
# 2 46.7633 85.0373 50.3467 0.0000 -1.7108 0.0000
# 3 53.2085 50.3467 134.4653 0.0000 14.1957 0.0000
# 4 0.0000 0.0000 0.0000 29.0401 0.0000 0.4120
# 5 -12.1835 -1.7108 14.1957 0.0000 20.0139 0.0000
# 6 0.0000 0.0000 0.0000 0.4120 0.0000 42.0310
#
#
#
# Elastic Compliance Matrix: (Units=1/GPa)
#
#
# Indices 1 2 3 4 5 6 
#
# 1 0.014916 -0.004717 -0.005461 0.000000 0.012551 0.000000
# 2 -0.004717 0.017235 -0.004798 0.000000 0.002005 0.000000
# 3 -0.005461 -0.004798 0.012743 0.000000 -0.012773 0.000000
# 4 0.000000 0.000000 0.000000 0.034440 0.000000 -0.000338
# 5 0.012551 0.002005 -0.012773 0.000000 0.066837 0.000000
# 6 0.000000 0.000000 0.000000 -0.000338 0.000000 0.023795
#
#
# Mechanical properties :
#
#
# Convention : Reuss Voigt Hill
#
# Bulk Modulus (GPa) = 66.92959 70.18892 68.55926
# Shear Modulus (GPa) = 24.40223 30.26665 27.33444
#
# Velocity S-wave (km/s) = 3.63398 4.04716 3.84612
# Velocity P-wave (km/s) = 7.33677 7.73457 7.53830
#
# Compressibility (1/GPa) = 0.01494108
#
# Stress axis : x y z
#
# Youngs Moduli (GPa) = 67.04045 58.02308 78.47426
#
# Poissons Ratio (x) = 0.27368 0.42858
# Poissons Ratio (y) = 0.31621 0.37654
# Poissons Ratio (z) = 0.36614 0.27841
#
# Static dielectric constant tensor:
#      x y z
#    x 1.606480 0.000000 -0.014480 
#    y 0.000000 1.628710 0.000000 
#    z -0.014480 0.000000 1.664180 
# 
# From -- ./inp_files/45006.got.cif
#   From: 2010.05.17/outbox.ucp.g08.bks.cvg/sg10_23_cif.got.tgz:45006.got - 2010.06.11 11:31:16.
