data_PCOD9155014
_publ_section_title
;
Structure prediction by ZEFSAII (Michael W. Deem and Ramdas Pophale) SiO2 
 PCOD9155014
Probable space group: P 2/M
;
_chemical_formula_sum "Si O2"
_cell_formula_units_Z 20
_cell_length_a 9.065609
_cell_length_b 12.424291
_cell_length_c 7.969232
_cell_angle_alpha 90.000000
_cell_angle_beta 77.337472
_cell_angle_gamma 90.000000
_cell_volume 875.773165
_symmetry_space_group_name_H-M "P 2/M"
_symmetry_group_IT_number 10
_symmetry_cell_setting 'monoclinic'
loop_
_space_group_symop_operation_xyz
x,y,z
-x,y,-z
-x,-y,-z
x,-y,z
loop_
_atom_site_type_symbol
_atom_site_label
_atom_site_fract_x
_atom_site_fract_y
_atom_site_fract_z
Si Si1 0.799646 0.000000 0.882378
Si Si2 0.108399 0.779278 0.636796
Si Si3 0.390925 0.622477 0.861124
Si Si4 0.804886 0.760853 0.874638
Si Si5 0.152643 0.000000 0.731647
Si Si6 0.318653 0.372447 0.405772
O O1 0.738188 0.119085 0.854809
O O2 0.969369 0.000000 0.765667
O O3 0.809362 0.000000 0.081966
O O4 0.223289 0.682626 0.576982
O O5 0.000000 0.789716 0.500000
O O6 0.986076 0.769403 0.816338
O O7 0.200863 0.889586 0.634656
O O8 0.331777 0.500000 0.856698
O O9 0.504511 0.646981 0.679579
O O10 0.500000 0.620414 0.000000
O O11 0.267235 0.711126 0.940026
O O12 0.760542 0.678084 0.739366
O O13 0.300482 0.500000 0.417509
#
# Coordination Sequence:
#
# PCOD9155014 Si02
#       6
#     2   4   4   4   2   4
#     4   9  18  30  46  65  89 121 154 184 216 255
#     4   9  17  27  46  71  91 112 144 185 226 265
#     4   8  14  26  43  63  90 120 145 176 223 268
#     4   9  16  27  44  67  90 115 151 182 212 263
#     4   9  17  32  47  63  91 122 148 182 224 264
#     4   9  17  28  44  69  97 118 139 179 232 271
#
# _framework density 22.836962
#
# number of rings (size 3 to 8) (size 9 to 14) (size 15 to 20)
#    0.000    3.200    0.000    2.100    0.000    6.800 
#    0.000    5.500    0.000    4.800    0.000   23.800 
#    0.000    0.000    0.000    0.000    0.000    0.000 
#
# Total GULP energy -111579.710286 kJ/mol
# GULP energy per Si atom -5578.985514 kJ/mol
# Density = 2.278498 g / cm^3
# Si number density = 22.836962 Si / 1000 Ang^3
#
#
#
# Elastic Constant Matrix: (Units=GPa)
#
#
# Indices 1 2 3 4 5 6 
#
# 1 51.6924 60.4035 20.5485 0.0000 -11.3193 0.0000
# 2 60.4035 170.8404 67.1600 0.0000 -45.4194 0.0000
# 3 20.5485 67.1600 124.0643 0.0000 -29.3876 0.0000
# 4 0.0000 0.0000 0.0000 44.2369 0.0000 -16.0441
# 5 -11.3193 -45.4194 -29.3876 0.0000 36.0290 0.0000
# 6 0.0000 0.0000 0.0000 -16.0441 0.0000 9.1255
#
#
#
# Elastic Compliance Matrix: (Units=1/GPa)
#
#
# Indices 1 2 3 4 5 6 
#
# 1 0.034026 -0.013910 0.000338 0.000000 -0.006570 0.000000
# 2 -0.013910 0.015254 -0.003016 0.000000 0.012399 0.000000
# 3 0.000338 -0.003016 0.010860 0.000000 0.005162 0.000000
# 4 0.000000 0.000000 0.000000 0.062388 0.000000 0.109687
# 5 -0.006570 0.012399 0.005162 0.000000 0.045532 0.000000
# 6 0.000000 0.000000 0.000000 0.109687 0.000000 0.302430
#
#
# Mechanical properties :
#
#
# Convention : Reuss Voigt Hill
#
# Bulk Modulus (GPa) = 37.08783 71.42455 54.25619
# Shear Modulus (GPa) = 9.75316 31.11061 20.43189
#
# Velocity S-wave (km/s) = 2.06883 3.69493 2.99437
# Velocity P-wave (km/s) = 4.68852 7.03897 5.98036
#
# Compressibility (1/GPa) = 0.02696302
#
# Stress axis : x y z
#
# Youngs Moduli (GPa) = 29.38888 65.55773 92.08188
#
# Poissons Ratio (x) = 0.91192 -0.03113
# Poissons Ratio (y) = 0.40880 0.27776
# Poissons Ratio (z) = -0.00994 0.19775
#
# Static dielectric constant tensor:
#      x y z
#    x 1.853400 0.000000 0.030360 
#    y 0.000000 1.848180 0.000000 
#    z 0.030360 0.000000 1.942320 
# 
# From -- ./inp_files/23528.got.cif
#   From: 2010.05.17/outbox.cif.g08.bks.cpg/sg10_12_cif.got.tgz:23528.got - 2010.06.03 11:33:40.
