data_PCOD9155820
_publ_section_title
;
Structure prediction by ZEFSAII (Michael W. Deem and Ramdas Pophale) SiO2 
 PCOD9155820
Probable space group: P 21/M
;
_chemical_formula_sum "Si O2"
_cell_formula_units_Z 30
_cell_length_a 10.183278
_cell_length_b 14.402272
_cell_length_c 10.765141
_cell_angle_alpha 90.000000
_cell_angle_beta 60.264591
_cell_angle_gamma 90.000000
_cell_volume 1370.947150
_symmetry_space_group_name_H-M "P 21/M"
_symmetry_group_IT_number 11
_symmetry_cell_setting 'monoclinic'
loop_
_space_group_symop_operation_xyz
x,y,z
-x,1/2+y,-z
-x,-y,-z
x,1/2-y,z
loop_
_atom_site_type_symbol
_atom_site_label
_atom_site_fract_x
_atom_site_fract_y
_atom_site_fract_z
Si Si1 0.939363 0.643694 0.285347
Si Si2 0.937166 0.361767 0.044069
Si Si3 0.215003 0.920696 0.285033
Si Si4 0.598359 0.142947 0.233332
Si Si5 0.506325 0.388271 0.992431
Si Si6 0.841056 0.750000 0.647003
Si Si7 0.834868 0.896486 0.851067
Si Si8 0.294296 0.428778 0.445194
O O1 0.887852 0.750000 0.300097
O O2 0.020291 0.621153 0.118528
O O3 0.799823 0.578616 0.384670
O O4 0.062164 0.637821 0.340773
O O5 0.934934 0.250000 0.059303
O O6 0.064458 0.399784 0.074895
O O7 0.768752 0.394393 0.155898
O O8 0.362308 0.865887 0.167314
O O9 0.186222 0.003733 0.200533
O O10 0.247210 0.977493 0.395004
O O11 0.594941 0.250000 0.278634
O O12 0.474545 0.081653 0.362027
O O13 0.551256 0.143582 0.109170
O O14 0.500000 0.500000 0.000000
O O15 0.335403 0.357994 0.044187
O O16 0.904877 0.830217 0.714129
O O17 0.758442 0.834735 0.604567
#
# Coordination Sequence:
#
# PCOD9155820 Si02
#       8
#     4   4   4   4   4   2   4   4
#     4  11  22  37  53  82 121 148 186 227 293 347
#     4  10  22  34  54  88 118 149 184 232 283 336
#     4  10  21  34  57  88 110 143 194 243 278 326
#     4  11  18  32  56  85 107 144 198 230 271 324
#     4  10  17  32  53  82 109 135 182 241 274 315
#     4  10  16  32  56  84 104 144 194 220 280 318
#     4  10  19  34  58  84 119 141 186 239 277 331
#     4  11  19  35  60  82 108 152 192 235 274 337
#
# _framework density 21.882680000000001
#
# number of rings (size 3 to 8) (size 9 to 14) (size 15 to 20)
#    0.000    1.600    7.333    0.400    0.000    0.533 
#    0.000    0.000    0.000    6.400    3.467    0.000 
#    0.000    0.000    0.000    0.000    0.000    0.000 
#
# Total GULP energy -167014.060263 kJ/mol
# GULP energy per Si atom -5567.135342 kJ/mol
# Density = 2.183287 g / cm^3
# Si number density = 21.882680 Si / 1000 Ang^3
#
#
#
# Elastic Constant Matrix: (Units=GPa)
#
#
# Indices 1 2 3 4 5 6 
#
# 1 103.0541 -0.6770 22.8954 0.0000 -25.3104 0.0000
# 2 -0.6770 49.1100 -2.7572 0.0000 4.0780 0.0000
# 3 22.8954 -2.7572 57.7264 0.0000 -30.2948 0.0000
# 4 0.0000 0.0000 0.0000 13.3892 0.0000 -0.3134
# 5 -25.3104 4.0780 -30.2948 0.0000 25.2767 0.0000
# 6 0.0000 0.0000 0.0000 -0.3134 0.0000 22.6867
#
#
#
# Elastic Compliance Matrix: (Units=1/GPa)
#
#
# Indices 1 2 3 4 5 6 
#
# 1 0.013374 -0.001150 0.004760 0.000000 0.019283 0.000000
# 2 -0.001150 0.020828 -0.002471 0.000000 -0.007473 0.000000
# 3 0.004760 -0.002471 0.048590 0.000000 0.063402 0.000000
# 4 0.000000 0.000000 0.000000 0.074711 0.000000 0.001032
# 5 0.019283 -0.007473 0.063402 0.000000 0.136065 0.000000
# 6 0.000000 0.000000 0.000000 0.001032 0.000000 0.044093
#
#
# Mechanical properties :
#
#
# Convention : Reuss Voigt Hill
#
# Bulk Modulus (GPa) = 11.75469 27.64588 19.70029
# Shear Modulus (GPa) = 13.74603 24.96582 19.35593
#
# Velocity S-wave (km/s) = 2.50905 3.38138 2.97733
# Velocity P-wave (km/s) = 3.71175 5.28262 4.56526
#
# Compressibility (1/GPa) = 0.08507244
#
# Stress axis : x y z
#
# Youngs Moduli (GPa) = 74.76923 48.01134 20.58016
#
# Poissons Ratio (x) = 0.05519 -0.09797
# Poissons Ratio (y) = 0.08596 0.05086
# Poissons Ratio (z) = -0.35592 0.11864
#
# Static dielectric constant tensor:
#      x y z
#    x 1.823520 0.000000 -0.069150 
#    y 0.000000 1.850290 0.000000 
#    z -0.069150 0.000000 1.898560 
# 
# From -- ./inp_files/32357.got.cif
#   From: 2010.05.17/outbox.cif.g08.bks.cpg/sg11_17_cif.got.tgz:32357.got - 2010.06.03 12:22:45.
