data_PCOD9155631
_publ_section_title
;
Structure prediction by ZEFSAII (Michael W. Deem and Ramdas Pophale) SiO2 
 PCOD9155631
Probable space group: P 2/M
;
_chemical_formula_sum "Si O2"
_cell_formula_units_Z 32
_cell_length_a 24.000000
_cell_length_b 9.000000
_cell_length_c 15.000000
_cell_angle_alpha 90.000000
_cell_angle_beta 30.000000
_cell_angle_gamma 90.000000
_cell_volume 1620.000000
_symmetry_space_group_name_H-M "P 2/M"
_symmetry_group_IT_number 10
_symmetry_cell_setting 'monoclinic'
loop_
_space_group_symop_operation_xyz
x,y,z
-x,y,-z
-x,-y,-z
x,-y,z
loop_
_atom_site_type_symbol
_atom_site_label
_atom_site_fract_x
_atom_site_fract_y
_atom_site_fract_z
Si Si1 0.395236 0.671414 0.212160
Si Si2 0.037544 0.828979 0.345530
Si Si3 0.629840 0.670473 0.310979
Si Si4 0.692262 0.175152 0.389803
Si Si5 0.139418 0.321669 0.540064
Si Si6 0.275762 0.670744 0.018882
Si Si7 0.896899 0.678840 0.205082
Si Si8 0.488306 0.175039 0.788530
O O1 0.383979 0.500000 0.260518
O O2 0.272143 0.713577 0.346819
O O3 0.435043 0.778292 0.235213
O O4 0.500000 0.673308 0.000000
O O5 0.942615 0.752960 0.416936
O O6 0.000000 0.824536 0.500000
O O7 0.157323 0.750102 0.176982
O O8 0.049716 0.000000 0.300592
O O9 0.500000 0.708800 0.500000
O O10 0.643203 0.500000 0.324261
O O11 0.700516 0.776378 0.276323
O O12 0.670638 0.677157 0.153717
O O13 0.783621 0.259268 0.320721
O O14 0.567743 0.215604 0.595280
O O15 0.705805 0.000000 0.382676
O O16 0.129425 0.500000 0.545197
O O17 0.100487 0.278981 0.694269
O O18 0.259589 0.500000 0.067859
O O19 0.369801 0.743584 0.951117
O O20 0.894693 0.500000 0.205309
O O21 0.000000 0.728958 0.000000
O O22 0.467986 0.000000 0.815349
#
# Coordination Sequence:
#
# PCOD9155631 Si02
#       8
#     4   4   4   4   4   4   4   4
#     4  10  22  40  65  96 123 156 205 256 311 371
#     4  11  27  48  67  91 128 171 212 264 327 381
#     4  10  21  38  60  88 122 162 205 249 302 364
#     4  11  23  37  58  89 126 164 202 250 310 372
#     4  10  22  42  66  94 128 165 211 264 309 364
#     4  11  24  42  67  93 122 166 218 265 310 368
#     4  10  22  40  63  89 121 163 209 255 306 369
#     4  11  23  39  61  93 130 164 203 254 319 380
#
# _framework density 19.753086
#
# number of rings (size 3 to 8) (size 9 to 14) (size 15 to 20)
#    0.000    1.500    2.500    1.500    3.500    4.750 
#    0.000    0.000    0.000    0.000    0.000    0.000 
#    0.000    0.000    0.000    0.000    0.000    0.000 
#
# Total GULP energy -178688.199161 kJ/mol
# GULP energy per Si atom -5584.006224 kJ/mol
# Density = 1.970813 g / cm^3
# Si number density = 19.753086 Si / 1000 Ang^3
#
#
#
# Elastic Constant Matrix: (Units=GPa)
#
#
# Indices 1 2 3 4 5 6 
#
# 1 81.2334 63.6307 48.3035 0.0000 -33.2936 0.0000
# 2 63.6307 44.6884 49.8945 0.0000 -21.1550 0.0000
# 3 48.3035 49.8945 107.0258 0.0000 -33.8294 0.0000
# 4 0.0000 0.0000 0.0000 31.6930 0.0000 -20.0848
# 5 -33.2936 -21.1550 -33.8294 0.0000 34.3578 0.0000
# 6 0.0000 0.0000 0.0000 -20.0848 0.0000 56.9762
#
#
#
# Elastic Compliance Matrix: (Units=1/GPa)
#
#
# Indices 1 2 3 4 5 6 
#
# 1 -0.045250 0.082895 -0.023156 0.000000 -0.015607 0.000000
# 2 0.082895 -0.102363 0.022905 0.000000 0.039853 0.000000
# 3 -0.023156 0.022905 0.009410 0.000000 0.000930 0.000000
# 4 0.000000 0.000000 0.000000 0.040629 0.000000 0.014322
# 5 -0.015607 0.039853 0.000930 0.000000 0.039436 0.000000
# 6 0.000000 0.000000 0.000000 0.014322 0.000000 0.022600
#
#
# Mechanical properties :
#
#
# Convention : Reuss Voigt Hill
#
# Bulk Modulus (GPa) = 36.91913 61.84499 49.38206
# Shear Modulus (GPa) = -26.06929 29.34666 1.63869
#
# Velocity S-wave (km/s) = -3.63679 3.85863 0.91180
# Velocity P-wave (km/s) = 1.04686 7.15744 5.11492
#
# Compressibility (1/GPa) = 0.02708623
#
# Stress axis : x y z
#
# Youngs Moduli (GPa) = -22.09958 -9.76917 106.26561
#
# Poissons Ratio (x) = 0.80982 2.46067
# Poissons Ratio (y) = 1.83195 -2.43398
# Poissons Ratio (z) = -0.51174 0.22376
#
# Static dielectric constant tensor:
#      x y z
#    x 1.697460 0.000000 0.039990 
#    y 0.000000 1.681370 0.000000 
#    z 0.039990 0.000000 1.710550 
# 
# From -- ./inp_files/71487.got.cif
#   From: 2010.05.17/outbox.ucp.g08.bks.cvg/sg10_36_cif.got.tgz:71487.got - 2010.06.11 11:31:16.
