data_PCOD9155240
_publ_section_title
;
Structure prediction by ZEFSAII (Michael W. Deem and Ramdas Pophale) SiO2 
 PCOD9155240
Probable space group: P 2/M
;
_chemical_formula_sum "Si O2"
_cell_formula_units_Z 32
_cell_length_a 30.000000
_cell_length_b 9.000000
_cell_length_c 21.000000
_cell_angle_alpha 90.000000
_cell_angle_beta 20.000000
_cell_angle_gamma 90.000000
_cell_volume 1939.254213
_symmetry_space_group_name_H-M "P 2/M"
_symmetry_group_IT_number 10
_symmetry_cell_setting 'monoclinic'
loop_
_space_group_symop_operation_xyz
x,y,z
-x,y,-z
-x,-y,-z
x,-y,z
loop_
_atom_site_type_symbol
_atom_site_label
_atom_site_fract_x
_atom_site_fract_y
_atom_site_fract_z
Si Si1 0.939331 0.819274 0.431725
Si Si2 0.483937 0.821080 0.319297
Si Si3 0.829715 0.322110 0.450113
Si Si4 0.772304 0.181121 0.911419
Si Si5 0.558295 0.821789 0.774996
Si Si6 0.972922 0.179486 0.138699
Si Si7 0.734248 0.180248 0.816341
Si Si8 0.788211 0.179508 0.265152
O O1 0.885005 0.745710 0.441034
O O2 0.842547 0.775498 0.619659
O O3 0.089872 0.775524 0.242927
O O4 0.935335 0.000000 0.431962
O O5 0.451370 0.795876 0.288321
O O6 0.360334 0.764715 0.526486
O O7 0.486748 0.000000 0.323917
O O8 0.633692 0.768758 0.128077
O O9 0.829991 0.500000 0.450787
O O10 0.683110 0.261654 0.634898
O O11 0.920364 0.260867 0.271281
O O12 0.769837 0.227283 0.840423
O O13 0.769584 0.000000 0.915710
O O14 0.574977 0.000000 0.761649
O O15 0.416779 0.776749 0.993243
O O16 0.870409 0.210105 0.219128
O O17 0.973151 0.000000 0.148174
O O18 0.116438 0.226293 0.920580
O O19 0.733609 0.000000 0.817921
O O20 0.781269 0.000000 0.269856
#
# Coordination Sequence:
#
# PCOD9155240 Si02
#       8
#     4   4   4   4   4   4   4   4
#     4  10  19  32  50  71  95 126 162 195 232 282
#     4   8  12  22  46  78 102 117 141 188 241 282
#     4  12  24  34  44  63  97 134 165 196 230 274
#     4   8  14  25  47  78 102 117 145 196 246 279
#     4   9  16  30  51  71  94 124 155 189 237 289
#     4   9  16  29  49  72  95 124 156 187 231 285
#     4   8  15  28  51  79  97 113 149 203 248 279
#     4   8  13  23  47  78 100 117 146 188 236 286
#
# _framework density 16.501189
#
# number of rings (size 3 to 8) (size 9 to 14) (size 15 to 20)
#    0.000    3.000    1.250    3.750    0.000    2.000 
#    0.000    4.375    0.000    5.250    0.000    5.250 
#    0.000    0.000    0.000    0.000    0.000    0.000 
#
# Total GULP energy -178158.930111 kJ/mol
# GULP energy per Si atom -5567.466566 kJ/mol
# Density = 1.646363 g / cm^3
# Si number density = 16.501189 Si / 1000 Ang^3
#
#
#
# Elastic Constant Matrix: (Units=GPa)
#
#
# Indices 1 2 3 4 5 6 
#
# 1 62.8739 21.3737 56.9848 0.0000 -17.5684 0.0000
# 2 21.3737 25.0396 26.1069 0.0000 -6.8295 0.0000
# 3 56.9848 26.1069 180.1377 0.0000 -21.1227 0.0000
# 4 0.0000 0.0000 0.0000 5.3092 0.0000 -0.7941
# 5 -17.5684 -6.8295 -21.1227 0.0000 19.4175 0.0000
# 6 0.0000 0.0000 0.0000 -0.7941 0.0000 -3.9314
#
#
#
# Elastic Compliance Matrix: (Units=1/GPa)
#
#
# Indices 1 2 3 4 5 6 
#
# 1 0.031007 -0.016239 -0.005542 0.000000 0.016313 0.000000
# 2 -0.016239 0.057482 -0.002918 0.000000 0.002350 0.000000
# 3 -0.005542 -0.002918 0.008045 0.000000 0.002711 0.000000
# 4 0.000000 0.000000 0.000000 0.182830 0.000000 -0.036930
# 5 0.016313 0.002350 0.002711 0.000000 0.070035 0.000000
# 6 0.000000 0.000000 0.000000 -0.036930 0.000000 -0.246904
#
#
# Mechanical properties :
#
#
# Convention : Reuss Voigt Hill
#
# Bulk Modulus (GPa) = 21.21567 52.99801 37.10684
# Shear Modulus (GPa) = 29.83175 15.06478 22.44826
#
# Velocity S-wave (km/s) = 4.25650 3.02479 3.69237
# Velocity P-wave (km/s) = 6.08622 6.66232 6.38077
#
# Compressibility (1/GPa) = 0.04713497
#
# Stress axis : x y z
#
# Youngs Moduli (GPa) = 32.25091 17.39671 124.29549
#
# Poissons Ratio (x) = 0.28251 0.68888
# Poissons Ratio (y) = 0.52374 0.36269
# Poissons Ratio (z) = 0.17874 0.05076
#
# Static dielectric constant tensor:
#      x y z
#    x 1.535480 0.000000 0.001990 
#    y 0.000000 1.532170 0.000000 
#    z 0.001990 0.000000 1.597170 
# 
# From -- ./inp_files/75989.got.cif
#   From: 2010.05.17/outbox.ucp.g08.bks.cvg/sg10_38_cif.got.tgz:75989.got - 2010.06.11 11:31:16.
