data_PCOD9155417
_publ_section_title
;
Structure prediction by ZEFSAII (Michael W. Deem and Ramdas Pophale) SiO2 
 PCOD9155417
Probable space group: P 2/M
;
_chemical_formula_sum "Si O2"
_cell_formula_units_Z 32
_cell_length_a 15.000000
_cell_length_b 9.000000
_cell_length_c 24.000000
_cell_angle_alpha 90.000000
_cell_angle_beta 30.000000
_cell_angle_gamma 90.000000
_cell_volume 1620.000000
_symmetry_space_group_name_H-M "P 2/M"
_symmetry_group_IT_number 10
_symmetry_cell_setting 'monoclinic'
loop_
_space_group_symop_operation_xyz
x,y,z
-x,y,-z
-x,-y,-z
x,-y,z
loop_
_atom_site_type_symbol
_atom_site_label
_atom_site_fract_x
_atom_site_fract_y
_atom_site_fract_z
Si Si1 0.578451 0.836521 0.818989
Si Si2 0.690392 0.166024 0.883557
Si Si3 0.753267 0.676455 0.026524
Si Si4 0.211224 0.329299 0.869645
Si Si5 0.289010 0.329625 0.614768
Si Si6 0.867593 0.826053 0.195389
Si Si7 0.023164 0.323271 0.667306
Si Si8 0.913465 0.678412 0.603653
O O1 0.674426 0.852251 0.825999
O O2 0.391552 0.758963 0.931421
O O3 0.709793 0.731695 0.714061
O O4 0.554100 0.000000 0.807572
O O5 0.871247 0.256342 0.790444
O O6 0.697843 0.000000 0.905558
O O7 0.500000 0.238373 0.000000
O O8 0.751323 0.500000 0.021262
O O9 0.701027 0.711771 0.119164
O O10 0.946449 0.738893 0.909201
O O11 0.254179 0.500000 0.832226
O O12 0.241046 0.227201 0.800429
O O13 0.000000 0.325385 0.000000
O O14 0.500000 0.327489 0.500000
O O15 0.230475 0.500000 0.659442
O O16 0.222669 0.221698 0.698711
O O17 0.207230 0.290936 0.598853
O O18 0.899993 0.000000 0.174880
O O19 0.995353 0.500000 0.680886
O O20 0.006432 0.273615 0.611812
O O21 0.918964 0.500000 0.600016
O O22 0.000000 0.735416 0.500000
#
# Coordination Sequence:
#
# PCOD9155417 Si02
#       8
#     4   4   4   4   4   4   4   4
#     4  10  20  33  51  81 117 147 181 226 279 337
#     4   9  19  34  52  78 114 150 181 218 276 342
#     4  10  20  35  56  82 114 149 187 228 278 337
#     4   8  16  33  54  76 105 143 184 223 268 326
#     4  10  22  41  60  80 111 150 196 244 284 336
#     4  11  22  35  56  82 112 147 185 233 290 342
#     4   9  19  36  58  83 107 142 190 237 283 329
#     4   9  18  36  59  81 110 145 188 236 283 336
#
# _framework density 19.753086
#
# number of rings (size 3 to 8) (size 9 to 14) (size 15 to 20)
#    0.000    2.500    0.000    2.625    1.750    4.500 
#    2.250    0.000    0.000    0.000    0.000    0.000 
#    0.000    0.000    0.000    0.000    0.000    0.000 
#
# Total GULP energy -178160.389992 kJ/mol
# GULP energy per Si atom -5567.512187 kJ/mol
# Density = 1.970813 g / cm^3
# Si number density = 19.753086 Si / 1000 Ang^3
#
#
#
# Elastic Constant Matrix: (Units=GPa)
#
#
# Indices 1 2 3 4 5 6 
#
# 1 59.7833 34.9999 21.1045 0.0000 -8.0342 0.0000
# 2 34.9999 17.3581 -0.4564 0.0000 -1.4156 0.0000
# 3 21.1045 -0.4564 47.6657 0.0000 -1.3515 0.0000
# 4 0.0000 0.0000 0.0000 37.6405 0.0000 1.3244
# 5 -8.0342 -1.4156 -1.3515 0.0000 22.6219 0.0000
# 6 0.0000 0.0000 0.0000 1.3244 0.0000 2.5523
#
#
#
# Elastic Compliance Matrix: (Units=1/GPa)
#
#
# Indices 1 2 3 4 5 6 
#
# 1 -0.045694 0.091930 0.020850 0.000000 -0.009230 0.000000
# 2 0.091930 -0.127025 -0.041289 0.000000 0.022234 0.000000
# 3 0.020850 -0.041289 0.011509 0.000000 0.005509 0.000000
# 4 0.000000 0.000000 0.000000 0.027061 0.000000 -0.014042
# 5 -0.009230 0.022234 0.005509 0.000000 0.042647 0.000000
# 6 0.000000 0.000000 0.000000 -0.014042 0.000000 0.399085
#
#
# Mechanical properties :
#
#
# Convention : Reuss Voigt Hill
#
# Bulk Modulus (GPa) = -54.86155 26.23367 -14.31394
# Shear Modulus (GPa) = 31.54060 17.17354 24.35707
#
# Velocity S-wave (km/s) = 4.00026 2.95178 3.51533
# Velocity P-wave (km/s) = 2.54909 4.99269 3.03555
#
# Compressibility (1/GPa) = -0.01822770
#
# Stress axis : x y z
#
# Youngs Moduli (GPa) = -21.88484 -7.87248 86.89013
#
# Poissons Ratio (x) = 0.72372 -1.81165
# Poissons Ratio (y) = 2.01187 3.58759
# Poissons Ratio (z) = 0.45630 -0.32504
#
# Static dielectric constant tensor:
#      x y z
#    x 1.784910 0.000000 -0.000150 
#    y 0.000000 1.706040 0.000000 
#    z -0.000150 0.000000 1.692510 
# 
# From -- ./inp_files/89540.got.cif
#   From: 2010.05.17/outbox.ucp.g08.bks.cvg/sg10_45_cif.got.tgz:89540.got - 2010.06.11 11:31:16.
