data_PCOD9155991
_publ_section_title
;
Structure prediction by ZEFSAII (Michael W. Deem and Ramdas Pophale) SiO2 
 PCOD9155991
Probable space group: P 21/M
;
_chemical_formula_sum "Si O2"
_cell_formula_units_Z 28
_cell_length_a 14.364559
_cell_length_b 20.978430
_cell_length_c 7.858401
_cell_angle_alpha 90.000000
_cell_angle_beta 138.030883
_cell_angle_gamma 90.000000
_cell_volume 1583.617304
_symmetry_space_group_name_H-M "P 21/M"
_symmetry_group_IT_number 11
_symmetry_cell_setting 'monoclinic'
loop_
_space_group_symop_operation_xyz
x,y,z
-x,1/2+y,-z
-x,-y,-z
x,1/2-y,z
loop_
_atom_site_type_symbol
_atom_site_label
_atom_site_fract_x
_atom_site_fract_y
_atom_site_fract_z
Si Si1 0.391578 0.093009 0.171838
Si Si2 0.324934 0.536657 0.568125
Si Si3 0.005076 0.595052 0.640504
Si Si4 0.778119 0.010646 0.230793
Si Si5 0.733675 0.894955 0.652609
Si Si6 0.751437 0.825004 0.312841
Si Si7 0.035869 0.574700 0.065429
O O1 0.547589 0.070715 0.348653
O O2 0.364021 0.121277 0.321009
O O3 0.344874 0.139779 0.956377
O O4 0.292055 0.030211 0.014718
O O5 0.338749 0.525682 0.788949
O O6 0.301708 0.467298 0.452531
O O7 0.181571 0.576753 0.358487
O O8 0.892743 0.536689 0.471998
O O9 0.909501 0.655701 0.472984
O O10 0.136093 0.572230 0.710164
O O11 0.054612 0.599938 0.900698
O O12 0.727560 0.853754 0.470733
O O13 0.893854 0.893595 0.938603
O O14 0.731050 0.750000 0.285976
O O15 0.000000 0.500000 0.000000
#
# Coordination Sequence:
#
# PCOD9155991 Si02
#       7
#     4   4   4   4   4   4   4
#     4  11  22  34  55  87 117 146 178 221 282 337
#     4  11  19  31  52  88 122 143 172 220 281 351
#     4   9  17  30  51  80 105 142 180 224 276 316
#     4  10  17  28  52  81 118 142 168 221 282 331
#     4  10  20  35  55  81 111 146 181 225 280 324
#     4  10  22  40  58  77 105 145 198 235 259 320
#     4   9  15  29  46  76 110 140 172 210 266 328
#
# _framework density 17.681038999999998
#
# number of rings (size 3 to 8) (size 9 to 14) (size 15 to 20)
#    0.000    2.000    5.714    2.571    4.000    0.571 
#    0.000    0.000    0.000    4.286    0.000    0.000 
#    0.000    0.000    0.000    0.000    0.000    0.000 
#
# Total GULP energy -155987.339976 kJ/mol
# GULP energy per Si atom -5570.976428 kJ/mol
# Density = 1.764080 g / cm^3
# Si number density = 17.681039 Si / 1000 Ang^3
#
#
#
# Elastic Constant Matrix: (Units=GPa)
#
#
# Indices 1 2 3 4 5 6 
#
# 1 119.1636 33.3574 31.3809 0.0000 6.8229 0.0000
# 2 33.3574 69.3762 32.4622 0.0000 8.6324 0.0000
# 3 31.3809 32.4622 42.2639 0.0000 6.9670 0.0000
# 4 0.0000 0.0000 0.0000 5.9720 0.0000 1.7538
# 5 6.8229 8.6324 6.9670 0.0000 20.9613 0.0000
# 6 0.0000 0.0000 0.0000 1.7538 0.0000 14.4023
#
#
#
# Elastic Compliance Matrix: (Units=1/GPa)
#
#
# Indices 1 2 3 4 5 6 
#
# 1 0.010651 -0.002179 -0.006148 0.000000 -0.000526 0.000000
# 2 -0.002179 0.023225 -0.015617 0.000000 -0.003665 0.000000
# 3 -0.006148 -0.015617 0.041082 0.000000 -0.005222 0.000000
# 4 0.000000 0.000000 0.000000 0.173659 0.000000 -0.021147
# 5 -0.000526 -0.003665 -0.005222 0.000000 0.051123 0.000000
# 6 0.000000 0.000000 0.000000 -0.021147 0.000000 0.072008
#
#
# Mechanical properties :
#
#
# Convention : Reuss Voigt Hill
#
# Bulk Modulus (GPa) = 36.94112 47.24498 42.09305
# Shear Modulus (GPa) = 11.66427 17.17401 14.41914
#
# Velocity S-wave (km/s) = 2.57126 3.11999 2.85882
# Velocity P-wave (km/s) = 5.45469 6.30538 5.89540
#
# Compressibility (1/GPa) = 0.02707010
#
# Stress axis : x y z
#
# Youngs Moduli (GPa) = 93.88858 43.05651 24.34177
#
# Poissons Ratio (x) = 0.09382 0.14965
# Poissons Ratio (y) = 0.20458 0.38014
# Poissons Ratio (z) = 0.57722 0.67241
#
# Static dielectric constant tensor:
#      x y z
#    x 1.629770 0.000000 -0.002420 
#    y 0.000000 1.585040 0.000000 
#    z -0.002420 0.000000 1.648870 
# 
# From -- ./inp_files/22760.got.cif
#   From: 2010.05.17/outbox.cif.g08.bks.cpg/sg11_12_cif.got.tgz:22760.got - 2010.06.03 12:22:45.
