data_PCOD9155958
_publ_section_title
;
Structure prediction by ZEFSAII (Michael W. Deem and Ramdas Pophale) SiO2 
 PCOD9155958
Probable space group: P 21/M
;
_chemical_formula_sum "Si O2"
_cell_formula_units_Z 32
_cell_length_a 27.628232
_cell_length_b 7.680148
_cell_length_c 14.969915
_cell_angle_alpha 90.000000
_cell_angle_beta 144.819280
_cell_angle_gamma 90.000000
_cell_volume 1830.134878
_symmetry_space_group_name_H-M "P 21/M"
_symmetry_group_IT_number 11
_symmetry_cell_setting 'monoclinic'
loop_
_space_group_symop_operation_xyz
x,y,z
-x,1/2+y,-z
-x,-y,-z
x,1/2-y,z
loop_
_atom_site_type_symbol
_atom_site_label
_atom_site_fract_x
_atom_site_fract_y
_atom_site_fract_z
Si Si1 0.586021 0.044304 0.576496
Si Si2 0.095318 0.460967 0.541224
Si Si3 0.906178 0.041186 0.253316
Si Si4 0.735660 0.038171 0.922811
Si Si5 0.541708 0.958932 0.309367
Si Si6 0.259189 0.049805 0.700777
Si Si7 0.587209 0.960351 0.183399
Si Si8 0.651014 0.039474 0.984180
O O1 0.592248 0.250000 0.594015
O O2 0.670204 0.971036 0.750246
O O3 0.500000 0.000000 0.500000
O O4 0.580267 0.001275 0.463428
O O5 0.095730 0.250000 0.537234
O O6 0.114543 0.506645 0.673565
O O7 0.167217 0.527511 0.582511
O O8 0.000693 0.524723 0.379564
O O9 0.909061 0.250000 0.248030
O O10 0.831562 0.975070 0.077147
O O11 0.739762 0.250000 0.921120
O O12 0.693454 0.999266 0.954388
O O13 0.540042 0.750000 0.301105
O O14 0.582684 0.022642 0.279025
O O15 0.445231 0.018256 0.163746
O O16 0.246134 0.250000 0.652409
O O17 0.329797 0.971368 0.742040
O O18 0.302554 0.045607 0.863133
O O19 0.592611 0.750000 0.191442
O O20 0.500000 0.000000 0.000000
O O21 0.654035 0.250000 0.000786
#
# Coordination Sequence:
#
# PCOD9155958 Si02
#       8
#     4   4   4   4   4   4   4   4
#     4  11  21  33  48  67  90 117 151 189 225 267
#     4   9  17  27  41  65  93 115 143 182 220 262
#     4   9  16  28  45  62  86 120 149 176 216 266
#     4   9  17  29  44  63  86 116 151 179 212 260
#     4  10  20  34  46  62  89 121 155 189 222 261
#     4  10  19  29  42  67  95 119 149 186 225 262
#     4  10  20  32  47  65  91 122 154 189 224 266
#     4  10  17  28  45  63  89 122 152 182 215 262
#
# _framework density 17.485050000000001
#
# number of rings (size 3 to 8) (size 9 to 14) (size 15 to 20)
#    0.000    2.250    3.750    0.375    0.000    1.000 
#    0.000    1.250    0.000    0.000    0.000    0.875 
#    0.000    0.000    0.000    0.000    0.000    0.000 
#
# Total GULP energy -178363.413140 kJ/mol
# GULP energy per Si atom -5573.856661 kJ/mol
# Density = 1.744525 g / cm^3
# Si number density = 17.485050 Si / 1000 Ang^3
#
#
#
# Elastic Constant Matrix: (Units=GPa)
#
#
# Indices 1 2 3 4 5 6 
#
# 1 126.5678 7.8232 80.8548 0.0000 15.8786 0.0000
# 2 7.8232 28.5434 1.5512 0.0000 1.1230 0.0000
# 3 80.8548 1.5512 130.6779 0.0000 14.6875 0.0000
# 4 0.0000 0.0000 0.0000 14.0773 0.0000 -5.7978
# 5 15.8786 1.1230 14.6875 0.0000 31.4819 0.0000
# 6 0.0000 0.0000 0.0000 -5.7978 0.0000 7.7848
#
#
#
# Elastic Compliance Matrix: (Units=1/GPa)
#
#
# Indices 1 2 3 4 5 6 
#
# 1 0.013616 -0.003176 -0.008050 0.000000 -0.002999 0.000000
# 2 -0.003176 0.035835 0.001587 0.000000 -0.000417 0.000000
# 3 -0.008050 0.001587 0.012837 0.000000 -0.001986 0.000000
# 4 0.000000 0.000000 0.000000 0.102466 0.000000 0.076312
# 5 -0.002999 -0.000417 -0.001986 0.000000 0.034218 0.000000
# 6 0.000000 0.000000 0.000000 0.076312 0.000000 0.185288
#
#
# Mechanical properties :
#
#
# Convention : Reuss Voigt Hill
#
# Bulk Modulus (GPa) = 23.25072 51.80529 37.52801
# Shear Modulus (GPa) = 11.96529 23.70613 17.83571
#
# Velocity S-wave (km/s) = 2.61878 3.68611 3.19729
# Velocity P-wave (km/s) = 4.74029 6.91442 5.92788
#
# Compressibility (1/GPa) = 0.04300942
#
# Stress axis : x y z
#
# Youngs Moduli (GPa) = 73.44353 27.90562 77.89698
#
# Poissons Ratio (x) = 0.08864 0.62706
# Poissons Ratio (y) = 0.23329 -0.12361
# Poissons Ratio (z) = 0.59121 -0.04428
#
# Static dielectric constant tensor:
#      x y z
#    x 1.592830 0.000000 0.046570 
#    y 0.000000 1.651320 0.000000 
#    z 0.046570 0.000000 1.610160 
# 
# From -- ./inp_files/56466.got.cif
#   From: 2010.05.17/outbox.cif.g08.bks.cpg/sg11_29_cif.got.tgz:56466.got - 2010.06.03 12:22:45.
