data_PCOD9155895
_publ_section_title
;
Structure prediction by ZEFSAII (Michael W. Deem and Ramdas Pophale) SiO2 
 PCOD9155895
Probable space group: P 21/M
;
_chemical_formula_sum "Si O2"
_cell_formula_units_Z 32
_cell_length_a 22.393623
_cell_length_b 7.478245
_cell_length_c 13.193772
_cell_angle_alpha 90.000000
_cell_angle_beta 137.185966
_cell_angle_gamma 90.000000
_cell_volume 1501.619221
_symmetry_space_group_name_H-M "P 21/M"
_symmetry_group_IT_number 11
_symmetry_cell_setting 'monoclinic'
loop_
_space_group_symop_operation_xyz
x,y,z
-x,1/2+y,-z
-x,-y,-z
x,1/2-y,z
loop_
_atom_site_type_symbol
_atom_site_label
_atom_site_fract_x
_atom_site_fract_y
_atom_site_fract_z
Si Si1 0.244274 0.031696 0.256332
Si Si2 0.194208 0.038143 0.968478
Si Si3 0.200269 0.031738 0.584838
Si Si4 0.922843 0.962312 0.827763
Si Si5 0.011420 0.034563 0.306213
Si Si6 0.495870 0.538005 0.114338
Si Si7 0.673549 0.531513 0.441662
Si Si8 0.298129 0.040304 0.906015
O O1 0.244744 0.250000 0.251621
O O2 0.162042 0.969896 0.221246
O O3 0.320207 0.980572 0.431445
O O4 0.226116 0.968241 0.118777
O O5 0.210580 0.250000 0.994567
O O6 0.250820 0.963100 0.945954
O O7 0.090398 0.019378 0.813073
O O8 0.200825 0.250000 0.581678
O O9 0.098087 0.980132 0.478437
O O10 0.246349 0.977475 0.535253
O O11 0.260684 0.968831 0.752942
O O12 0.909074 0.750000 0.796064
O O13 0.954980 0.031982 0.761039
O O14 0.000000 0.000000 0.000000
O O15 0.008471 0.250000 0.306001
O O16 0.496734 0.750000 0.128279
O O17 0.582920 0.468932 0.278402
O O18 0.500000 0.500000 0.000000
O O19 0.402766 0.472903 0.039741
O O20 0.675532 0.750000 0.442454
O O21 0.275047 0.250000 0.874938
#
# Coordination Sequence:
#
# PCOD9155895 Si02
#       8
#     4   4   4   4   4   4   4   4
#     4   9  16  29  49  74 103 136 178 213 250 311
#     4  10  21  35  52  74 106 147 180 215 260 306
#     4   9  16  30  51  75 102 136 174 212 257 314
#     4  10  17  26  45  71  97 128 169 215 253 292
#     4  10  19  30  50  77 103 137 181 221 256 305
#     4  11  21  35  60  87 107 132 169 219 271 316
#     4   9  16  29  53  81 103 130 171 214 258 316
#     4  10  21  38  56  75 105 143 180 215 260 318
#
# _framework density 21.310327999999998
#
# number of rings (size 3 to 8) (size 9 to 14) (size 15 to 20)
#    0.000    2.250    3.750    0.375    0.000    1.000 
#    0.000    1.250    0.000    3.000    0.000    0.000 
#    0.000    0.000    0.000    0.000    0.000    0.000 
#
# Total GULP energy -178275.080062 kJ/mol
# GULP energy per Si atom -5571.096252 kJ/mol
# Density = 2.126183 g / cm^3
# Si number density = 21.310328 Si / 1000 Ang^3
#
#
#
# Elastic Constant Matrix: (Units=GPa)
#
#
# Indices 1 2 3 4 5 6 
#
# 1 131.4983 -1.7867 64.1024 0.0000 0.4423 0.0000
# 2 -1.7867 54.6114 -3.9501 0.0000 -10.0390 0.0000
# 3 64.1024 -3.9501 149.2231 0.0000 14.3848 0.0000
# 4 0.0000 0.0000 0.0000 12.8582 0.0000 8.9754
# 5 0.4423 -10.0390 14.3848 0.0000 21.0143 0.0000
# 6 0.0000 0.0000 0.0000 8.9754 0.0000 4.7405
#
#
#
# Elastic Compliance Matrix: (Units=1/GPa)
#
#
# Indices 1 2 3 4 5 6 
#
# 1 0.009793 0.000573 -0.004495 0.000000 0.003145 0.000000
# 2 0.000573 0.020132 -0.000684 0.000000 0.010074 0.000000
# 3 -0.004495 -0.000684 0.009247 0.000000 -0.006562 0.000000
# 4 0.000000 0.000000 0.000000 -0.241833 0.000000 0.457868
# 5 0.003145 0.010074 -0.006562 0.000000 0.056825 0.000000
# 6 0.000000 0.000000 0.000000 0.457868 0.000000 -0.655944
#
#
# Mechanical properties :
#
#
# Convention : Reuss Voigt Hill
#
# Bulk Modulus (GPa) = 33.37773 50.22934 41.80354
# Shear Modulus (GPa) = -6.38910 26.18709 9.89899
#
# Velocity S-wave (km/s) = -1.73339 3.50929 2.15760
# Velocity P-wave (km/s) = 3.41914 6.32786 5.08588
#
# Compressibility (1/GPa) = 0.02996010
#
# Stress axis : x y z
#
# Youngs Moduli (GPa) = 102.11408 49.67138 108.14727
#
# Poissons Ratio (x) = -0.02848 0.48610
# Poissons Ratio (y) = -0.05855 0.07403
# Poissons Ratio (z) = 0.45898 0.03400
#
# Static dielectric constant tensor:
#      x y z
#    x 1.744050 0.000000 -0.003320 
#    y 0.000000 1.801700 0.000000 
#    z -0.003320 0.000000 1.835750 
# 
# From -- ./inp_files/42925.got.cif
#   From: 2010.05.17/outbox.cif.g08.bks.cpg/sg11_22_cif.got.tgz:42925.got - 2010.06.03 12:22:45.
