data_PCOD9155557
_publ_section_title
;
Structure prediction by ZEFSAII (Michael W. Deem and Ramdas Pophale) SiO2 
 PCOD9155557
Probable space group: P 2/M
;
_chemical_formula_sum "Si O2"
_cell_formula_units_Z 24
_cell_length_a 12.000000
_cell_length_b 9.000000
_cell_length_c 12.000000
_cell_angle_alpha 90.000000
_cell_angle_beta 110.000000
_cell_angle_gamma 90.000000
_cell_volume 1217.841637
_symmetry_space_group_name_H-M "P 2/M"
_symmetry_group_IT_number 10
_symmetry_cell_setting 'monoclinic'
loop_
_space_group_symop_operation_xyz
x,y,z
-x,y,-z
-x,-y,-z
x,-y,z
loop_
_atom_site_type_symbol
_atom_site_label
_atom_site_fract_x
_atom_site_fract_y
_atom_site_fract_z
Si Si1 0.790757 0.824645 0.176565
Si Si2 0.606014 0.322325 0.272941
Si Si3 0.861315 0.174706 0.945952
Si Si4 0.973481 0.179977 0.617338
Si Si5 0.348766 0.677030 0.258936
Si Si6 0.701629 0.820996 0.533735
O O1 0.681803 0.739541 0.195531
O O2 0.916642 0.769823 0.270087
O O3 0.778579 0.000000 0.201029
O O4 0.804587 0.813039 0.049187
O O5 0.619968 0.500000 0.284966
O O6 0.464974 0.289578 0.223584
O O7 0.658570 0.246733 0.402490
O O8 0.773215 0.262838 0.835412
O O9 0.862839 0.000000 0.912361
O O10 0.000000 0.221591 0.000000
O O11 0.839759 0.223802 0.599776
O O12 0.000000 0.224717 0.500000
O O13 0.974109 0.000000 0.622658
O O14 0.342569 0.500000 0.271806
O O15 0.367145 0.755979 0.384146
O O16 0.693639 0.000000 0.527063
#
# Coordination Sequence:
#
# PCOD9155557 Si02
#       6
#     4   4   4   4   4   4
#     4  10  20  37  62  90 119 153 197 246 293 349
#     4  11  24  40  57  84 124 163 198 242 299 356
#     4  10  22  42  67  92 118 151 196 249 300 352
#     4   9  16  31  57  88 118 146 182 235 297 350
#     4  11  25  42  59  83 121 164 201 242 296 357
#     4  11  21  37  64  91 118 155 201 251 299 351
#
# _framework density 19.706996
#
# number of rings (size 3 to 8) (size 9 to 14) (size 15 to 20)
#    0.000    1.667    1.667    3.000    0.000    9.000 
#    0.000    7.500    0.000    0.000    0.000    0.000 
#    0.000    0.000    0.000    0.000    0.000    0.000 
#
# Total GULP energy -134081.670491 kJ/mol
# GULP energy per Si atom -5586.736270 kJ/mol
# Density = 1.966214 g / cm^3
# Si number density = 19.706996 Si / 1000 Ang^3
#
#
#
# Elastic Constant Matrix: (Units=GPa)
#
#
# Indices 1 2 3 4 5 6 
#
# 1 136.7882 50.4601 25.9949 0.0000 0.0116 0.0000
# 2 50.4601 64.3351 28.0196 0.0000 0.8089 0.0000
# 3 25.9949 28.0196 52.4411 0.0000 3.5084 0.0000
# 4 0.0000 0.0000 0.0000 3.0270 0.0000 10.3230
# 5 0.0116 0.8089 3.5084 0.0000 26.1521 0.0000
# 6 0.0000 0.0000 0.0000 10.3230 0.0000 19.5715
#
#
#
# Elastic Compliance Matrix: (Units=1/GPa)
#
#
# Indices 1 2 3 4 5 6 
#
# 1 0.010333 -0.007647 -0.001061 0.000000 0.000374 0.000000
# 2 -0.007647 0.025935 -0.010104 0.000000 0.000557 0.000000
# 3 -0.001061 -0.010104 0.025199 0.000000 -0.003068 0.000000
# 4 0.000000 0.000000 0.000000 -0.413588 0.000000 0.218146
# 5 0.000374 0.000557 -0.003068 0.000000 0.038632 0.000000
# 6 0.000000 0.000000 0.000000 0.218146 0.000000 -0.063966
#
#
# Mechanical properties :
#
#
# Convention : Reuss Voigt Hill
#
# Bulk Modulus (GPa) = 41.94176 51.39040 46.66608
# Shear Modulus (GPa) = -15.06554 19.68943 2.31195
#
# Velocity S-wave (km/s) = -2.76792 3.16430 1.08430
# Velocity P-wave (km/s) = 3.33373 6.28365 5.02981
#
# Compressibility (1/GPa) = 0.02384259
#
# Stress axis : x y z
#
# Youngs Moduli (GPa) = 96.77540 38.55790 39.68439
#
# Poissons Ratio (x) = 0.29486 0.04211
# Poissons Ratio (y) = 0.74006 0.40096
# Poissons Ratio (z) = 0.10270 0.38958
#
# Static dielectric constant tensor:
#      x y z
#    x 1.705680 0.000000 0.001760 
#    y 0.000000 1.663670 0.000000 
#    z 0.001760 0.000000 1.692440 
# 
# From -- ./inp_files/45268.got.cif
#   From: 2010.05.17/outbox.ucp.g08.bks.cvg/sg10_23_cif.got.tgz:45268.got - 2010.06.11 11:31:16.
