data_PCOD9155907
_publ_section_title
;
Structure prediction by ZEFSAII (Michael W. Deem and Ramdas Pophale) SiO2 
 PCOD9155907
Probable space group: P 21/M
;
_chemical_formula_sum "Si O2"
_cell_formula_units_Z 26
_cell_length_a 19.215991
_cell_length_b 7.326826
_cell_length_c 18.382661
_cell_angle_alpha 90.000000
_cell_angle_beta 158.946342
_cell_angle_gamma 90.000000
_cell_volume 929.767299
_symmetry_space_group_name_H-M "P 21/M"
_symmetry_group_IT_number 11
_symmetry_cell_setting 'monoclinic'
loop_
_space_group_symop_operation_xyz
x,y,z
-x,1/2+y,-z
-x,-y,-z
x,1/2-y,z
loop_
_atom_site_type_symbol
_atom_site_label
_atom_site_fract_x
_atom_site_fract_y
_atom_site_fract_z
Si Si1 0.275248 0.033356 0.291564
Si Si2 0.449965 0.250000 0.206120
Si Si3 0.198192 0.044264 0.376247
Si Si4 0.768824 0.534387 0.281788
Si Si5 0.809791 0.542822 0.948359
Si Si6 0.828129 0.971867 0.496220
Si Si7 0.713832 0.458101 0.067916
O O1 0.235985 0.250000 0.253741
O O2 0.229799 0.963087 0.327447
O O3 0.184815 0.963614 0.127722
O O4 0.500000 0.000000 0.500000
O O5 0.398226 0.406621 0.093139
O O6 0.400851 0.086757 0.223685
O O7 0.279643 0.250000 0.455677
O O8 0.246028 0.945149 0.499280
O O9 0.962293 0.057703 0.147902
O O10 0.738697 0.750000 0.252307
O O11 0.730851 0.465483 0.326542
O O12 0.672069 0.461493 0.114204
O O13 0.000000 0.500000 0.500000
O O14 0.887729 0.750000 0.023192
O O15 0.809196 0.750000 0.481804
O O16 0.057152 0.009395 0.713308
O O17 0.685327 0.250000 0.016071
#
# Coordination Sequence:
#
# PCOD9155907 Si02
#       7
#     4   2   4   4   4   4   4
#     4  10  22  38  53  74 105 140 175 221 268 324
#     4  10  18  30  50  70 108 136 176 228 260 316
#     4  10  18  31  53  77 103 136 175 222 270 319
#     4   9  15  22  35  58  95 140 175 206 253 322
#     4   9  19  33  50  76 103 133 176 220 269 317
#     4   8  14  24  39  63  94 134 171 208 257 316
#     4  10  17  27  41  66 101 143 175 210 267 318
#
# _framework density 27.963985000000001
#
# number of rings (size 3 to 8) (size 9 to 14) (size 15 to 20)
#    0.462    2.154    2.308    1.846    0.000    1.231 
#    0.000    0.000    0.000    0.000    0.000    0.000 
#    0.000    1.231    0.923    0.154    0.000    0.000 
#
# Total GULP energy -144854.010722 kJ/mol
# GULP energy per Si atom -5571.308105 kJ/mol
# Density = 2.790034 g / cm^3
# Si number density = 27.963985 Si / 1000 Ang^3
#
#
#
# Elastic Constant Matrix: (Units=GPa)
#
#
# Indices 1 2 3 4 5 6 
#
# 1 230.6355 2.0722 29.4771 0.0000 -41.6682 0.0000
# 2 2.0722 136.0612 -10.1237 0.0000 -15.5973 0.0000
# 3 29.4771 -10.1237 109.9170 0.0000 -35.2411 0.0000
# 4 0.0000 0.0000 0.0000 -85.0429 0.0000 -34.6641
# 5 -41.6682 -15.5973 -35.2411 0.0000 67.3650 0.0000
# 6 0.0000 0.0000 0.0000 -34.6641 0.0000 6.4416
#
#
#
# Elastic Compliance Matrix: (Units=1/GPa)
#
#
# Indices 1 2 3 4 5 6 
#
# 1 0.004904 0.000230 -0.000366 0.000000 0.002895 0.000000
# 2 0.000230 0.007775 0.001535 0.000000 0.002745 0.000000
# 3 -0.000366 0.001535 0.011269 0.000000 0.006024 0.000000
# 4 0.000000 0.000000 0.000000 -0.003682 0.000000 -0.019815
# 5 0.002895 0.002745 0.006024 0.000000 0.020422 0.000000
# 6 0.000000 0.000000 0.000000 -0.019815 0.000000 0.048612
#
#
# Mechanical properties :
#
#
# Convention : Reuss Voigt Hill
#
# Bulk Modulus (GPa) = 37.39011 57.71834 47.55422
# Shear Modulus (GPa) = 52.40176 28.09863 40.25019
#
# Velocity S-wave (km/s) = 4.33355 3.17332 3.79800
# Velocity P-wave (km/s) = 6.19995 5.84052 6.02292
#
# Compressibility (1/GPa) = 0.02674504
#
# Stress axis : x y z
#
# Youngs Moduli (GPa) = 203.93404 128.61719 88.74204
#
# Poissons Ratio (x) = -0.02958 0.03245
# Poissons Ratio (y) = -0.04690 -0.13618
# Poissons Ratio (z) = 0.07457 -0.19738
#
# Static dielectric constant tensor:
#      x y z
#    x 2.264410 0.000000 0.091140 
#    y 0.000000 2.051620 0.000000 
#    z 0.091140 0.000000 2.252440 
# 
# From -- ./inp_files/60869.got.cif
#   From: 2010.05.17/outbox.cif.g08.bks.cpg/sg11_31_cif.got.tgz:60869.got - 2010.06.03 12:22:45.
