data_PCOD9155689
_publ_section_title
;
Structure prediction by ZEFSAII (Michael W. Deem and Ramdas Pophale) SiO2 
 PCOD9155689
Probable space group: P 2/M
;
_chemical_formula_sum "Si O2"
_cell_formula_units_Z 32
_cell_length_a 30.000000
_cell_length_b 9.000000
_cell_length_c 12.000000
_cell_angle_alpha 90.000000
_cell_angle_beta 150.000000
_cell_angle_gamma 90.000000
_cell_volume 1620.000000
_symmetry_space_group_name_H-M "P 2/M"
_symmetry_group_IT_number 10
_symmetry_cell_setting 'monoclinic'
loop_
_space_group_symop_operation_xyz
x,y,z
-x,y,-z
-x,-y,-z
x,-y,z
loop_
_atom_site_type_symbol
_atom_site_label
_atom_site_fract_x
_atom_site_fract_y
_atom_site_fract_z
Si Si1 0.765410 0.320966 0.411829
Si Si2 0.849402 0.177720 0.209820
Si Si3 0.922705 0.325928 0.589629
Si Si4 0.345149 0.323981 0.198837
Si Si5 0.566910 0.323949 0.365498
Si Si6 0.391412 0.820764 0.071806
Si Si7 0.879643 0.323923 0.043743
Si Si8 0.722941 0.820564 0.561206
O O1 0.752692 0.500000 0.391873
O O2 0.863622 0.294043 0.571175
O O3 0.746393 0.246456 0.490308
O O4 0.696939 0.248405 0.175473
O O5 0.892565 0.227198 0.419794
O O6 0.892660 0.257318 0.195740
O O7 0.851839 0.000000 0.202372
O O8 0.748734 0.239569 0.996564
O O9 0.905392 0.500000 0.523602
O O10 0.029048 0.309393 0.828403
O O11 0.333462 0.500000 0.149027
O O12 0.389839 0.312364 0.417023
O O13 0.397389 0.247865 0.209424
O O14 0.554775 0.500000 0.315403
O O15 0.473813 0.237834 0.176366
O O16 0.632358 0.248981 0.416938
O O17 0.388251 0.000000 0.068821
O O18 0.857177 0.500000 0.003280
O O19 0.800756 0.234997 0.813051
O O20 0.718087 0.000000 0.546998
#
# Coordination Sequence:
#
# PCOD9155689 Si02
#       8
#     4   4   4   4   4   4   4   4
#     4  11  24  45  69  91 123 169 219 264 314 380
#     4  12  23  36  62  97 133 168 207 261 324 377
#     4  10  23  42  67  94 126 170 217 261 311 380
#     4  11  22  39  65  94 129 171 214 255 310 383
#     4  11  24  43  68  95 127 171 216 258 310 383
#     4  12  25  41  65  99 134 166 207 264 322 375
#     4  11  23  42  66  94 128 170 216 259 313 385
#     4  12  26  44  66  94 128 164 211 271 325 372
#
# _framework density 19.753086
#
# number of rings (size 3 to 8) (size 9 to 14) (size 15 to 20)
#    0.000    0.750    2.500    5.625    0.000    7.000 
#    0.000    5.000    0.000    0.000    0.000    0.000 
#    0.000    0.000    0.000    0.000    0.000    0.000 
#
# Total GULP energy -179048.984374 kJ/mol
# GULP energy per Si atom -5595.280762 kJ/mol
# Density = 1.970813 g / cm^3
# Si number density = 19.753086 Si / 1000 Ang^3
#
#
#
# Elastic Constant Matrix: (Units=GPa)
#
#
# Indices 1 2 3 4 5 6 
#
# 1 166.0855 62.6198 17.0090 0.0000 16.5871 0.0000
# 2 62.6198 163.2074 15.4751 0.0000 9.4301 0.0000
# 3 17.0090 15.4751 20.9187 0.0000 15.2119 0.0000
# 4 0.0000 0.0000 0.0000 20.0023 0.0000 -8.8631
# 5 16.5871 9.4301 15.2119 0.0000 40.4890 0.0000
# 6 0.0000 0.0000 0.0000 -8.8631 0.0000 28.1312
#
#
#
# Elastic Compliance Matrix: (Units=1/GPa)
#
#
# Indices 1 2 3 4 5 6 
#
# 1 0.007409 -0.002457 -0.003323 0.000000 -0.001214 0.000000
# 2 -0.002457 0.007409 -0.004073 0.000000 0.000811 0.000000
# 3 -0.003323 -0.004073 0.071327 0.000000 -0.024488 0.000000
# 4 0.000000 0.000000 0.000000 0.058106 0.000000 0.018307
# 5 -0.001214 0.000811 -0.024488 0.000000 0.034207 0.000000
# 6 0.000000 0.000000 0.000000 0.018307 0.000000 0.041316
#
#
# Mechanical properties :
#
#
# Convention : Reuss Voigt Hill
#
# Bulk Modulus (GPa) = 15.05173 60.04660 37.54916
# Shear Modulus (GPa) = 19.11111 34.73168 26.92139
#
# Velocity S-wave (km/s) = 3.11384 4.19775 3.69575
# Velocity P-wave (km/s) = 4.53481 7.34570 6.10425
#
# Compressibility (1/GPa) = 0.06643755
#
# Stress axis : x y z
#
# Youngs Moduli (GPa) = 134.96768 134.96381 14.01996
#
# Poissons Ratio (x) = 0.33167 0.04659
# Poissons Ratio (y) = 0.33168 0.05710
# Poissons Ratio (z) = 0.44855 0.54972
#
# Static dielectric constant tensor:
#      x y z
#    x 1.692820 0.000000 0.020270 
#    y 0.000000 1.655830 0.000000 
#    z 0.020270 0.000000 1.710890 
# 
# From -- ./inp_files/58253.got.cif
#   From: 2010.05.17/outbox.ucp.g08.bks.cvg/sg10_30_cif.got.tgz:58253.got - 2010.06.11 11:31:16.
