data_PCOD9155524
_publ_section_title
;
Structure prediction by ZEFSAII (Michael W. Deem and Ramdas Pophale) SiO2 
 PCOD9155524
Probable space group: P 2/M
;
_chemical_formula_sum "Si O2"
_cell_formula_units_Z 32
_cell_length_a 27.000000
_cell_length_b 9.000000
_cell_length_c 21.000000
_cell_angle_alpha 90.000000
_cell_angle_beta 160.000000
_cell_angle_gamma 90.000000
_cell_volume 1745.328791
_symmetry_space_group_name_H-M "P 2/M"
_symmetry_group_IT_number 10
_symmetry_cell_setting 'monoclinic'
loop_
_space_group_symop_operation_xyz
x,y,z
-x,y,-z
-x,-y,-z
x,-y,z
loop_
_atom_site_type_symbol
_atom_site_label
_atom_site_fract_x
_atom_site_fract_y
_atom_site_fract_z
Si Si1 0.932046 0.319960 0.516337
Si Si2 0.117727 0.325728 0.188829
Si Si3 0.547441 0.678892 0.239110
Si Si4 0.068213 0.673918 0.908538
Si Si5 0.556574 0.320970 0.401410
Si Si6 0.844349 0.178369 0.542938
Si Si7 0.380173 0.178594 0.300502
Si Si8 0.771716 0.320528 0.190686
O O1 0.929117 0.500000 0.521388
O O2 0.869622 0.238838 0.502295
O O3 0.833696 0.284564 0.335591
O O4 0.098835 0.275802 0.701420
O O5 0.133369 0.500000 0.189301
O O6 0.280421 0.267409 0.384853
O O7 0.045173 0.321715 0.170111
O O8 0.000000 0.254339 0.000000
O O9 0.563386 0.500000 0.248489
O O10 0.536359 0.703850 0.301739
O O11 0.692282 0.756468 0.386834
O O12 0.392735 0.729172 0.022238
O O13 0.091763 0.500000 0.920082
O O14 0.982584 0.760002 0.749730
O O15 0.221563 0.745678 0.114736
O O16 0.545429 0.500000 0.398358
O O17 0.445716 0.237114 0.313080
O O18 0.840705 0.000000 0.541120
O O19 0.500000 0.218348 0.500000
O O20 0.364567 0.000000 0.282165
O O21 0.766930 0.500000 0.181023
#
# Coordination Sequence:
#
# PCOD9155524 Si02
#       8
#     4   4   4   4   4   4   4   4
#     4   9  18  37  63  90 118 154 198 246 295 347
#     4   9  17  32  57  86 111 138 184 245 295 335
#     4  10  20  38  61  87 116 153 201 250 297 348
#     4  11  22  40  64  87 114 153 201 251 293 342
#     4  10  20  36  59  87 115 149 200 250 290 344
#     4  12  25  39  56  86 125 161 195 238 296 361
#     4  11  25  42  58  85 126 162 193 237 298 363
#     4   8  17  35  63  93 117 146 197 254 297 341
#
# _framework density 18.334654
#
# number of rings (size 3 to 8) (size 9 to 14) (size 15 to 20)
#    0.000    2.000    1.250    3.375    1.750    3.000 
#    0.000    5.000    0.000    2.625    0.000    0.000 
#    0.000    0.000    0.000    0.000    0.000    0.000 
#
# Total GULP energy -178542.743391 kJ/mol
# GULP energy per Si atom -5579.460731 kJ/mol
# Density = 1.829292 g / cm^3
# Si number density = 18.334654 Si / 1000 Ang^3
#
#
#
# Elastic Constant Matrix: (Units=GPa)
#
#
# Indices 1 2 3 4 5 6 
#
# 1 59.8880 28.0464 8.2052 0.0000 -2.1402 0.0000
# 2 28.0464 70.1069 29.1994 0.0000 -0.2196 0.0000
# 3 8.2052 29.1994 113.0913 0.0000 3.7103 0.0000
# 4 0.0000 0.0000 0.0000 22.9664 0.0000 3.6534
# 5 -2.1402 -0.2196 3.7103 0.0000 28.2877 0.0000
# 6 0.0000 0.0000 0.0000 3.6534 0.0000 9.5914
#
#
#
# Elastic Compliance Matrix: (Units=1/GPa)
#
#
# Indices 1 2 3 4 5 6 
#
# 1 0.020654 -0.008532 0.000658 0.000000 0.001410 0.000000
# 2 -0.008532 0.019520 -0.004424 0.000000 0.000086 0.000000
# 3 0.000658 -0.004424 0.009979 0.000000 -0.001293 0.000000
# 4 0.000000 0.000000 0.000000 0.046350 0.000000 -0.017655
# 5 0.001410 0.000086 -0.001293 0.000000 0.035628 0.000000
# 6 0.000000 0.000000 0.000000 -0.017655 0.000000 0.110985
#
#
# Mechanical properties :
#
#
# Convention : Reuss Voigt Hill
#
# Bulk Modulus (GPa) = 39.12746 41.55424 40.34085
# Shear Modulus (GPa) = 18.10075 24.01145 21.05610
#
# Velocity S-wave (km/s) = 3.14545 3.62280 3.39253
# Velocity P-wave (km/s) = 5.88038 6.34138 6.11522
#
# Compressibility (1/GPa) = 0.02555750
#
# Stress axis : x y z
#
# Youngs Moduli (GPa) = 48.41708 51.22941 100.20777
#
# Poissons Ratio (x) = 0.43711 -0.06596
# Poissons Ratio (y) = 0.41311 0.44329
# Poissons Ratio (z) = -0.03187 0.22662
#
# Static dielectric constant tensor:
#      x y z
#    x 1.628330 0.000000 -0.020820 
#    y 0.000000 1.619260 0.000000 
#    z -0.020820 0.000000 1.647440 
# 
# From -- ./inp_files/87017.got.cif
#   From: 2010.05.17/outbox.ucp.g08.bks.cvg/sg10_44_cif.got.tgz:87017.got - 2010.06.11 11:31:16.
