data_PCOD9155191
_publ_section_title
;
Structure prediction by ZEFSAII (Michael W. Deem and Ramdas Pophale) SiO2 
 PCOD9155191
Probable space group: P 2/M
;
_chemical_formula_sum "Si O2"
_cell_formula_units_Z 32
_cell_length_a 21.000000
_cell_length_b 9.000000
_cell_length_c 30.000000
_cell_angle_alpha 90.000000
_cell_angle_beta 20.000000
_cell_angle_gamma 90.000000
_cell_volume 1939.254213
_symmetry_space_group_name_H-M "P 2/M"
_symmetry_group_IT_number 10
_symmetry_cell_setting 'monoclinic'
loop_
_space_group_symop_operation_xyz
x,y,z
-x,y,-z
-x,-y,-z
x,-y,z
loop_
_atom_site_type_symbol
_atom_site_label
_atom_site_fract_x
_atom_site_fract_y
_atom_site_fract_z
Si Si1 0.312309 0.827187 0.490496
Si Si2 0.859720 0.180181 0.486185
Si Si3 0.518891 0.324725 0.538224
Si Si4 0.719742 0.833449 0.176290
Si Si5 0.160208 0.830457 0.356298
Si Si6 0.394370 0.326560 0.271546
Si Si7 0.801393 0.671071 0.034420
Si Si8 0.840661 0.169174 0.193004
O O1 0.174980 0.770403 0.541807
O O2 0.335613 0.746199 0.522470
O O3 0.514215 0.821898 0.333223
O O4 0.270809 0.000000 0.526532
O O5 0.703196 0.241022 0.623089
O O6 0.055750 0.221140 0.380327
O O7 0.847357 0.000000 0.495017
O O8 0.500000 0.267028 0.500000
O O9 0.552087 0.500000 0.514808
O O10 0.318085 0.284337 0.690066
O O11 0.748630 0.711086 0.120056
O O12 0.854252 0.824326 0.130419
O O13 0.735385 0.000000 0.146063
O O14 0.315956 0.730642 0.276270
O O15 0.000000 0.833048 0.500000
O O16 0.224621 0.000000 0.308086
O O17 0.350451 0.500000 0.305998
O O18 0.614317 0.306192 0.129962
O O19 0.861113 0.500000 0.991983
O O20 0.966819 0.780492 0.912714
O O21 0.786504 0.000000 0.239879
#
# Coordination Sequence:
#
# PCOD9155191 Si02
#       8
#     4   4   4   4   4   4   4   4
#     4   9  17  29  47  68  89 116 150 187 221 259
#     4   9  16  28  43  60  84 115 152 188 221 256
#     4  10  21  36  52  69  91 115 139 176 225 271
#     4   9  17  29  43  60  84 115 149 183 218 255
#     4   8  15  26  40  56  78 114 154 187 219 255
#     4  10  19  27  37  58  87 120 154 185 220 256
#     4  11  21  29  40  61  89 120 151 184 219 259
#     4  10  21  34  48  65  83 111 149 186 220 258
#
# _framework density 16.501189
#
# number of rings (size 3 to 8) (size 9 to 14) (size 15 to 20)
#    0.000    2.500    1.250    3.375    0.000    9.250 
#    0.000    0.000    0.000    0.000    0.000    0.000 
#    0.000    1.000    0.000   11.250    0.000    5.000 
#
# Total GULP energy -178153.543098 kJ/mol
# GULP energy per Si atom -5567.298222 kJ/mol
# Density = 1.646363 g / cm^3
# Si number density = 16.501189 Si / 1000 Ang^3
#
#
#
# Elastic Constant Matrix: (Units=GPa)
#
#
# Indices 1 2 3 4 5 6 
#
# 1 136.3160 39.1485 17.7969 0.0000 -18.0474 0.0000
# 2 39.1485 16.9078 6.0044 0.0000 -17.8840 0.0000
# 3 17.7969 6.0044 9.1685 0.0000 -7.5506 0.0000
# 4 0.0000 0.0000 0.0000 33.8541 0.0000 -10.7011
# 5 -18.0474 -17.8840 -7.5506 0.0000 18.2639 0.0000
# 6 0.0000 0.0000 0.0000 -10.7011 0.0000 27.1951
#
#
#
# Elastic Compliance Matrix: (Units=1/GPa)
#
#
# Indices 1 2 3 4 5 6 
#
# 1 0.001395 0.036031 0.005893 0.000000 0.039096 0.000000
# 2 0.036031 -0.152301 -0.096575 0.000000 -0.153454 0.000000
# 3 0.005893 -0.096575 0.133113 0.000000 -0.033711 0.000000
# 4 0.000000 0.000000 0.000000 0.033734 0.000000 0.013274
# 5 0.039096 -0.153454 -0.033711 0.000000 -0.070813 0.000000
# 6 0.000000 0.000000 0.000000 0.013274 0.000000 0.041995
#
#
# Mechanical properties :
#
#
# Convention : Reuss Voigt Hill
#
# Bulk Modulus (GPa) = -7.86821 32.03244 12.08211
# Shear Modulus (GPa) = 92.49136 22.49213 57.49175
#
# Velocity S-wave (km/s) = 7.49487 3.69597 5.90903
# Velocity P-wave (km/s) = 8.37369 6.13742 7.34121
#
# Compressibility (1/GPa) = -0.12709372
#
# Stress axis : x y z
#
# Youngs Moduli (GPa) = 716.93989 -6.56596 7.51243
#
# Poissons Ratio (x) = 0.23658 -0.04427
# Poissons Ratio (y) = -25.83222 0.72551
# Poissons Ratio (z) = -4.22522 -0.63411
#
# Static dielectric constant tensor:
#      x y z
#    x 1.594500 0.000000 -0.027750 
#    y 0.000000 1.558230 0.000000 
#    z -0.027750 0.000000 1.575070 
# 
# From -- ./inp_files/95648.got.cif
#   From: 2010.05.17/outbox.ucp.g08.bks.cvg/sg10_48_cif.got.tgz:95648.got - 2010.06.11 11:31:16.
