data_PCOD9155618
_publ_section_title
;
Structure prediction by ZEFSAII (Michael W. Deem and Ramdas Pophale) SiO2 
 PCOD9155618
Probable space group: P 2/M
;
_chemical_formula_sum "Si O2"
_cell_formula_units_Z 32
_cell_length_a 24.000000
_cell_length_b 9.000000
_cell_length_c 15.000000
_cell_angle_alpha 90.000000
_cell_angle_beta 30.000000
_cell_angle_gamma 90.000000
_cell_volume 1620.000000
_symmetry_space_group_name_H-M "P 2/M"
_symmetry_group_IT_number 10
_symmetry_cell_setting 'monoclinic'
loop_
_space_group_symop_operation_xyz
x,y,z
-x,y,-z
-x,-y,-z
x,-y,z
loop_
_atom_site_type_symbol
_atom_site_label
_atom_site_fract_x
_atom_site_fract_y
_atom_site_fract_z
Si Si1 0.262920 0.824378 0.956262
Si Si2 0.661778 0.169678 0.500079
Si Si3 0.941168 0.320929 0.672641
Si Si4 0.441403 0.327890 0.816350
Si Si5 0.241519 0.165801 0.439740
Si Si6 0.024065 0.326917 0.752521
Si Si7 0.387158 0.328755 0.097731
Si Si8 0.824873 0.822982 0.115345
O O1 0.179351 0.746217 0.141771
O O2 0.246442 0.000000 0.982852
O O3 0.380642 0.775533 0.829726
O O4 0.240806 0.776402 0.884524
O O5 0.569763 0.295478 0.621262
O O6 0.685094 0.159394 0.573046
O O7 0.762946 0.210262 0.293531
O O8 0.626905 0.000000 0.521381
O O9 0.934422 0.500000 0.677899
O O10 0.000000 0.270459 0.500000
O O11 0.002752 0.278151 0.679263
O O12 0.412114 0.500000 0.843659
O O13 0.411284 0.290370 0.961289
O O14 0.149987 0.285359 0.592887
O O15 0.304417 0.220220 0.264388
O O16 0.193948 0.000000 0.492085
O O17 0.000852 0.500000 0.788835
O O18 0.945125 0.246809 0.932316
O O19 0.344802 0.500000 0.158315
O O20 0.500000 0.326037 0.000000
O O21 0.836473 0.000000 0.096009
#
# Coordination Sequence:
#
# PCOD9155618 Si02
#       8
#     4   4   4   4   4   4   4   4
#     4  10  21  37  58  84 114 147 187 235 282 334
#     4  10  22  40  61  84 112 150 194 237 284 336
#     4   9  19  36  56  79 109 148 190 230 278 335
#     4  11  23  38  59  85 116 152 189 233 283 340
#     4  11  23  37  58  87 117 149 189 237 283 336
#     4  10  21  37  58  84 116 151 189 234 282 337
#     4  10  21  39  59  80 113 154 190 229 282 340
#     4   9  20  41  63  82 112 152 191 236 286 334
#
# _framework density 19.753086
#
# number of rings (size 3 to 8) (size 9 to 14) (size 15 to 20)
#    0.000    2.000    1.250    1.500    1.750    4.500 
#    0.000    5.000    0.000    0.000    0.000    0.000 
#    0.000    0.000    0.000    0.000    0.000    0.000 
#
# Total GULP energy -178327.426062 kJ/mol
# GULP energy per Si atom -5572.732064 kJ/mol
# Density = 1.970813 g / cm^3
# Si number density = 19.753086 Si / 1000 Ang^3
#
#
#
# Elastic Constant Matrix: (Units=GPa)
#
#
# Indices 1 2 3 4 5 6 
#
# 1 -20.5085 1.5348 -5.6570 0.0000 -4.4548 0.0000
# 2 1.5348 -11.0812 23.0894 0.0000 12.6660 0.0000
# 3 -5.6570 23.0894 71.7442 0.0000 21.4357 0.0000
# 4 0.0000 0.0000 0.0000 19.8801 0.0000 -10.2075
# 5 -4.4548 12.6660 21.4357 0.0000 24.2883 0.0000
# 6 0.0000 0.0000 0.0000 -10.2075 0.0000 16.5636
#
#
#
# Elastic Compliance Matrix: (Units=1/GPa)
#
#
# Indices 1 2 3 4 5 6 
#
# 1 -0.048789 -0.010171 0.000700 0.000000 -0.004262 0.000000
# 2 -0.010171 -0.051207 0.011214 0.000000 0.014942 0.000000
# 3 0.000700 0.011214 0.016425 0.000000 -0.020215 0.000000
# 4 0.000000 0.000000 0.000000 0.073585 0.000000 0.045347
# 5 -0.004262 0.014942 -0.020215 0.000000 0.050439 0.000000
# 6 0.000000 0.000000 0.000000 0.045347 0.000000 0.088319
#
#
# Mechanical properties :
#
#
# Convention : Reuss Voigt Hill
#
# Bulk Modulus (GPa) = -12.48655 8.67655 -1.90500
# Shear Modulus (GPa) = 50.71444 13.55890 32.13667
#
# Velocity S-wave (km/s) = 5.07247 2.62280 4.03788
# Velocity P-wave (km/s) = 5.28881 3.68431 4.55772
#
# Compressibility (1/GPa) = -0.08008615
#
# Stress axis : x y z
#
# Youngs Moduli (GPa) = -20.49654 -19.52848 60.88464
#
# Poissons Ratio (x) = -0.19862 -0.04261
# Poissons Ratio (y) = -0.20847 -0.68275
# Poissons Ratio (z) = 0.01434 0.21899
#
# Static dielectric constant tensor:
#      x y z
#    x 5.211230 0.000000 -1.360540 
#    y 0.000000 1.677960 0.000000 
#    z -1.360540 0.000000 2.167520 
# 
# From -- ./inp_files/66492.got.cif
#   From: 2010.05.17/outbox.ucp.g08.bks.cvg/sg10_34_cif.got.tgz:66492.got - 2010.06.11 11:31:16.
