data_PCOD9155478
_publ_section_title
;
Structure prediction by ZEFSAII (Michael W. Deem and Ramdas Pophale) SiO2 
 PCOD9155478
Probable space group: P 2/M
;
_chemical_formula_sum "Si O2"
_cell_formula_units_Z 32
_cell_length_a 15.000000
_cell_length_b 9.000000
_cell_length_c 24.000000
_cell_angle_alpha 90.000000
_cell_angle_beta 30.000000
_cell_angle_gamma 90.000000
_cell_volume 1620.000000
_symmetry_space_group_name_H-M "P 2/M"
_symmetry_group_IT_number 10
_symmetry_cell_setting 'monoclinic'
loop_
_space_group_symop_operation_xyz
x,y,z
-x,y,-z
-x,-y,-z
x,-y,z
loop_
_atom_site_type_symbol
_atom_site_label
_atom_site_fract_x
_atom_site_fract_y
_atom_site_fract_z
Si Si1 0.258347 0.823069 0.015872
Si Si2 0.792089 0.170666 0.836199
Si Si3 0.113945 0.321098 0.817680
Si Si4 0.591421 0.671421 0.253798
Si Si5 0.741175 0.670217 0.483455
Si Si6 0.795726 0.169367 0.344274
Si Si7 0.410770 0.174891 0.244845
Si Si8 0.126932 0.322331 0.320971
O O1 0.298089 0.773767 0.058045
O O2 0.087242 0.743365 0.080212
O O3 0.215099 0.000000 0.042371
O O4 0.435564 0.805061 0.884552
O O5 0.781632 0.266049 0.786022
O O6 0.998477 0.169568 0.745345
O O7 0.738561 0.000000 0.852771
O O8 0.108056 0.500000 0.820357
O O9 0.229418 0.276290 0.810129
O O10 0.210483 0.262159 0.709232
O O11 0.623666 0.500000 0.218643
O O12 0.433219 0.671532 0.384624
O O13 0.505576 0.759960 0.248770
O O14 0.782073 0.500000 0.444289
O O15 0.702047 0.761356 0.448689
O O16 0.917222 0.720065 0.423639
O O17 0.742349 0.000000 0.362546
O O18 0.232130 0.251523 0.316467
O O19 0.375433 0.000000 0.271629
O O20 0.135730 0.500000 0.321429
#
# Coordination Sequence:
#
# PCOD9155478 Si02
#       8
#     4   4   4   4   4   4   4   4
#     4   9  20  38  58  81 111 146 180 220 273 329
#     4   8  15  31  54  79 108 140 174 214 265 326
#     4  10  20  35  58  84 111 144 180 224 275 324
#     4  10  23  41  57  78 109 145 188 232 272 320
#     4   9  19  37  59  81 110 148 184 221 271 327
#     4   9  17  31  54  84 116 145 177 221 270 324
#     4  11  24  40  57  78 107 145 187 229 274 326
#     4  10  20  35  57  83 110 141 178 223 272 322
#
# _framework density 19.753086
#
# number of rings (size 3 to 8) (size 9 to 14) (size 15 to 20)
#    0.000    2.500    0.000    2.250    0.000    8.000 
#    0.000   10.000    0.000    0.000    0.000    0.000 
#    0.000    0.000    0.000    0.000    0.000    0.000 
#
# Total GULP energy -178479.453699 kJ/mol
# GULP energy per Si atom -5577.482928 kJ/mol
# Density = 1.970813 g / cm^3
# Si number density = 19.753086 Si / 1000 Ang^3
#
#
#
# Elastic Constant Matrix: (Units=GPa)
#
#
# Indices 1 2 3 4 5 6 
#
# 1 74.3975 17.0013 -23.3006 0.0000 -14.2510 0.0000
# 2 17.0013 52.4218 -1.9305 0.0000 -4.9037 0.0000
# 3 -23.3006 -1.9305 14.4548 0.0000 -7.5757 0.0000
# 4 0.0000 0.0000 0.0000 24.6148 0.0000 -1.7718
# 5 -14.2510 -4.9037 -7.5757 0.0000 26.9257 0.0000
# 6 0.0000 0.0000 0.0000 -1.7718 0.0000 45.1765
#
#
#
# Elastic Compliance Matrix: (Units=1/GPa)
#
#
# Indices 1 2 3 4 5 6 
#
# 1 0.187106 -0.026123 0.407637 0.000000 0.208963 0.000000
# 2 -0.026123 0.023395 -0.051608 0.000000 -0.024086 0.000000
# 3 0.407637 -0.051608 0.970663 0.000000 0.479453 0.000000
# 4 0.000000 0.000000 0.000000 0.040741 0.000000 0.001598
# 5 0.208963 -0.024086 0.479453 0.000000 0.278248 0.000000
# 6 0.000000 0.000000 0.000000 0.001598 0.000000 0.022198
#
#
# Mechanical properties :
#
#
# Convention : Reuss Voigt Hill
#
# Bulk Modulus (GPa) = 0.54319 13.86827 7.20573
# Shear Modulus (GPa) = 3.38708 29.31035 16.34871
#
# Velocity S-wave (km/s) = 1.31089 3.85624 2.88002
# Velocity P-wave (km/s) = 1.60213 5.18300 3.83603
#
# Compressibility (1/GPa) = 1.84097631
#
# Stress axis : x y z
#
# Youngs Moduli (GPa) = 5.34455 42.74508 1.03022
#
# Poissons Ratio (x) = 1.11662 -0.41996
# Poissons Ratio (y) = 0.13961 0.05317
# Poissons Ratio (z) = -2.17864 2.20597
#
# Static dielectric constant tensor:
#      x y z
#    x 1.687690 0.000000 0.002670 
#    y 0.000000 1.691130 0.000000 
#    z 0.002670 0.000000 1.744350 
# 
# From -- ./inp_files/89528.got.cif
#   From: 2010.05.17/outbox.ucp.g08.bks.cvg/sg10_45_cif.got.tgz:89528.got - 2010.06.11 11:31:16.
