data_PCOD9155591
_publ_section_title
;
Structure prediction by ZEFSAII (Michael W. Deem and Ramdas Pophale) SiO2 
 PCOD9155591
Probable space group: P 2/M
;
_chemical_formula_sum "Si O2"
_cell_formula_units_Z 26
_cell_length_a 21.000000
_cell_length_b 15.000000
_cell_length_c 24.000000
_cell_angle_alpha 90.000000
_cell_angle_beta 10.000000
_cell_angle_gamma 90.000000
_cell_volume 1312.780223
_symmetry_space_group_name_H-M "P 2/M"
_symmetry_group_IT_number 10
_symmetry_cell_setting 'monoclinic'
loop_
_space_group_symop_operation_xyz
x,y,z
-x,y,-z
-x,-y,-z
x,-y,z
loop_
_atom_site_type_symbol
_atom_site_label
_atom_site_fract_x
_atom_site_fract_y
_atom_site_fract_z
Si Si1 0.427883 0.400952 0.622082
Si Si2 0.928098 0.000000 0.626780
Si Si3 0.839540 0.181950 0.514933
Si Si4 0.642313 0.311029 0.001521
Si Si5 0.118724 0.722213 0.696954
Si Si6 0.564886 0.500000 0.877897
Si Si7 0.939881 0.000000 0.118960
Si Si8 0.644346 0.162057 0.176802
O O1 0.500000 0.357656 0.500000
O O2 0.596322 0.500000 0.475094
O O3 0.591175 0.347450 0.531880
O O4 0.000000 0.407337 0.000000
O O5 0.000000 0.000000 0.500000
O O6 0.063348 0.090827 0.538429
O O7 0.500000 0.000000 0.000000
O O8 0.550708 0.149754 0.715682
O O9 0.150451 0.238814 0.215565
O O10 0.699231 0.254812 0.680573
O O11 0.881422 0.320623 0.852054
O O12 0.576478 0.407201 0.029323
O O13 0.324411 0.807894 0.494317
O O14 0.894372 0.753842 0.944314
O O15 0.000000 0.500000 0.500000
O O16 0.500000 0.500000 0.000000
O O17 0.500000 0.000000 0.500000
O O18 0.000000 0.000000 0.000000
O O19 0.122450 0.915599 0.994471
#
# Coordination Sequence:
#
# PCOD9155591 Si02
#       8
#     4   2   4   4   4   2   2   4
#     4  10  21  35  53  82 115 148 183 232 294 334
#     4  12  25  38  63  96 118 154 196 240 307 358
#     4  10  22  43  63  88 124 158 203 252 296 365
#     4  10  23  41  64  90 119 162 205 247 301 357
#     4  10  21  38  62  84 111 153 200 240 285 345
#     4  12  26  42  64  94 126 164 200 244 316 376
#     4  12  25  38  57  88 122 158 202 252 303 352
#     4  10  22  40  59  83 113 156 197 237 294 344
#
# _framework density 19.805295000000001
#
# number of rings (size 3 to 8) (size 9 to 14) (size 15 to 20)
#    0.000    1.538    0.000    4.154    1.077    7.385 
#    0.000    6.154    0.000    0.000    0.000    0.000 
#    0.000    0.000    0.000    0.000    0.000    0.000 
#
# Total GULP energy -144866.796175 kJ/mol
# GULP energy per Si atom -5571.799853 kJ/mol
# Density = 1.976022 g / cm^3
# Si number density = 19.805295 Si / 1000 Ang^3
#
#
#
# Elastic Constant Matrix: (Units=GPa)
#
#
# Indices 1 2 3 4 5 6 
#
# 1 109.6912 77.6166 37.8830 0.0000 5.2247 0.0000
# 2 77.6166 93.9423 8.0416 0.0000 -16.4321 0.0000
# 3 37.8830 8.0416 65.8605 0.0000 15.6194 0.0000
# 4 0.0000 0.0000 0.0000 36.3181 0.0000 -43.0799
# 5 5.2247 -16.4321 15.6194 0.0000 39.4758 0.0000
# 6 0.0000 0.0000 0.0000 -43.0799 0.0000 15.7713
#
#
#
# Elastic Compliance Matrix: (Units=1/GPa)
#
#
# Indices 1 2 3 4 5 6 
#
# 1 0.036943 -0.031419 -0.014514 0.000000 -0.012225 0.000000
# 2 -0.031419 0.038689 0.009427 0.000000 0.016533 0.000000
# 3 -0.014514 0.009427 0.023169 0.000000 -0.003322 0.000000
# 4 0.000000 0.000000 0.000000 -0.012292 0.000000 -0.033575
# 5 -0.012225 0.016533 -0.003322 0.000000 0.035146 0.000000
# 6 0.000000 0.000000 0.000000 -0.033575 0.000000 -0.028305
#
#
# Mechanical properties :
#
#
# Convention : Reuss Voigt Hill
#
# Bulk Modulus (GPa) = 38.77588 57.39739 48.08663
# Shear Modulus (GPa) = 28.57812 28.04323 28.31067
#
# Velocity S-wave (km/s) = 3.80274 3.76699 3.78491
# Velocity P-wave (km/s) = 6.23716 6.92561 6.59038
#
# Compressibility (1/GPa) = 0.02578923
#
# Stress axis : x y z
#
# Youngs Moduli (GPa) = 27.06842 25.84730 43.16129
#
# Poissons Ratio (x) = 0.81210 0.62645
# Poissons Ratio (y) = 0.85047 -0.40690
# Poissons Ratio (z) = 0.39288 -0.24368
#
# Static dielectric constant tensor:
#      x y z
#    x 4.759870 0.000000 3.837450 
#    y 0.000000 1.573800 0.000000 
#    z 3.837450 0.000000 6.536950 
# 
# From -- ./inp_files/90469.got.cif
#   From: 2010.05.17/outbox.ucp.g08.bks.cvg/sg10_46_cif.got.tgz:90469.got - 2010.06.11 11:31:16.
