data_PCOD9155650
_publ_section_title
;
Structure prediction by ZEFSAII (Michael W. Deem and Ramdas Pophale) SiO2 
 PCOD9155650
Probable space group: P 2/M
;
_chemical_formula_sum "Si O2"
_cell_formula_units_Z 28
_cell_length_a 30.000000
_cell_length_b 9.000000
_cell_length_c 30.000000
_cell_angle_alpha 90.000000
_cell_angle_beta 170.000000
_cell_angle_gamma 90.000000
_cell_volume 1406.550239
_symmetry_space_group_name_H-M "P 2/M"
_symmetry_group_IT_number 10
_symmetry_cell_setting 'monoclinic'
loop_
_space_group_symop_operation_xyz
x,y,z
-x,y,-z
-x,-y,-z
x,-y,z
loop_
_atom_site_type_symbol
_atom_site_label
_atom_site_fract_x
_atom_site_fract_y
_atom_site_fract_z
Si Si1 0.560383 0.500000 0.898099
Si Si2 0.144585 0.173476 0.595039
Si Si3 0.907223 0.500000 0.622136
Si Si4 0.442242 0.327176 0.390731
Si Si5 0.668105 0.667790 0.088579
Si Si6 0.713199 0.831099 0.891166
Si Si7 0.973204 0.819711 0.884906
Si Si8 0.809693 0.179638 0.574552
O O1 0.269784 0.500000 0.596053
O O2 0.785988 0.500000 0.083869
O O3 0.606728 0.639941 0.976254
O O4 0.000000 0.186657 0.500000
O O5 0.937284 0.249590 0.358660
O O6 0.178216 0.000000 0.617992
O O7 0.422957 0.249945 0.868175
O O8 0.833699 0.335936 0.570294
O O9 0.500000 0.326617 0.500000
O O10 0.414674 0.500000 0.349202
O O11 0.178153 0.237015 0.123192
O O12 0.690378 0.250939 0.611643
O O13 0.691723 0.500000 0.131111
O O14 0.875861 0.763024 0.010854
O O15 0.432672 0.784594 0.631690
O O16 0.669183 0.000000 0.832663
O O17 0.915529 0.828910 0.130712
O O18 0.946932 0.000000 0.859007
O O19 0.765532 0.000000 0.515526
#
# Coordination Sequence:
#
# PCOD9155650 Si02
#       8
#     2   4   2   4   4   4   4   4
#     4  10  24  42  61  84 122 156 200 264 295 350
#     4  11  22  37  59  92 129 162 207 265 316 368
#     4  12  22  42  66  90 123 156 203 260 298 366
#     4  11  24  41  56  81 121 162 199 247 299 345
#     4  10  22  40  61  84 119 169 206 251 311 364
#     4   9  19  38  59  85 123 149 180 235 302 364
#     4  11  22  39  64  88 114 156 199 250 300 347
#     4  10  21  39  62  90 122 156 190 240 307 374
#
# _framework density 19.906860999999999
#
# number of rings (size 3 to 8) (size 9 to 14) (size 15 to 20)
#    0.429    1.143    0.000    5.143    0.000    8.000 
#    7.714    4.286    0.000    0.000    0.000    0.000 
#    0.000    0.000    0.000    0.000    0.000    0.000 
#
# Total GULP energy -155921.597450 kJ/mol
# GULP energy per Si atom -5568.628480 kJ/mol
# Density = 1.986155 g / cm^3
# Si number density = 19.906861 Si / 1000 Ang^3
#
#
#
# Elastic Constant Matrix: (Units=GPa)
#
#
# Indices 1 2 3 4 5 6 
#
# 1 27.8738 21.1928 -10.9258 0.0000 7.2210 0.0000
# 2 21.1928 101.5357 -0.5437 0.0000 9.6424 0.0000
# 3 -10.9258 -0.5437 63.3561 0.0000 19.3574 0.0000
# 4 0.0000 0.0000 0.0000 39.3992 0.0000 28.9595
# 5 7.2210 9.6424 19.3574 0.0000 39.7825 0.0000
# 6 0.0000 0.0000 0.0000 28.9595 0.0000 38.4170
#
#
#
# Elastic Compliance Matrix: (Units=1/GPa)
#
#
# Indices 1 2 3 4 5 6 
#
# 1 0.051548 -0.009423 0.012885 0.000000 -0.013342 0.000000
# 2 -0.009423 0.011855 -0.001372 0.000000 -0.000495 0.000000
# 3 0.012885 -0.001372 0.021856 0.000000 -0.012641 0.000000
# 4 0.000000 0.000000 0.000000 0.056919 0.000000 -0.042907
# 5 -0.013342 -0.000495 -0.012641 0.000000 0.033829 0.000000
# 6 0.000000 0.000000 0.000000 -0.042907 0.000000 0.058374
#
#
# Mechanical properties :
#
#
# Convention : Reuss Voigt Hill
#
# Bulk Modulus (GPa) = 11.18079 23.57914 17.37996
# Shear Modulus (GPa) = 19.22969 35.72256 27.47613
#
# Velocity S-wave (km/s) = 3.11140 4.24073 3.71918
# Velocity P-wave (km/s) = 4.30540 5.98739 5.21466
#
# Compressibility (1/GPa) = 0.08943916
#
# Stress axis : x y z
#
# Youngs Moduli (GPa) = 19.39957 84.35064 45.75332
#
# Poissons Ratio (x) = 0.79484 -0.58953
# Poissons Ratio (y) = 0.18280 0.06277
# Poissons Ratio (z) = -0.24996 0.11572
#
# Static dielectric constant tensor:
#      x y z
#    x 1.782380 0.000000 -0.036340 
#    y 0.000000 1.725410 0.000000 
#    z -0.036340 0.000000 1.674880 
# 
# From -- ./inp_files/96047.got.cif
#   From: 2010.05.17/outbox.ucp.g08.bks.cvg/sg10_49_cif.got.tgz:96047.got - 2010.06.11 11:31:16.
