data_PCOD9155699
_publ_section_title
;
Structure prediction by ZEFSAII (Michael W. Deem and Ramdas Pophale) SiO2 
 PCOD9155699
Probable space group: P 2/M
;
_chemical_formula_sum "Si O2"
_cell_formula_units_Z 28
_cell_length_a 21.000000
_cell_length_b 9.000000
_cell_length_c 9.000000
_cell_angle_alpha 90.000000
_cell_angle_beta 130.000000
_cell_angle_gamma 90.000000
_cell_volume 1303.041598
_symmetry_space_group_name_H-M "P 2/M"
_symmetry_group_IT_number 10
_symmetry_cell_setting 'monoclinic'
loop_
_space_group_symop_operation_xyz
x,y,z
-x,y,-z
-x,-y,-z
x,-y,z
loop_
_atom_site_type_symbol
_atom_site_label
_atom_site_fract_x
_atom_site_fract_y
_atom_site_fract_z
Si Si1 0.292677 0.168656 0.176899
Si Si2 0.659824 0.667705 0.249429
Si Si3 0.572335 0.330321 0.434372
Si Si4 0.869325 0.676668 0.158708
Si Si5 0.990518 0.173763 0.816125
Si Si6 0.176977 0.171366 0.603797
Si Si7 0.580751 0.165169 0.887394
O O1 0.354931 0.279383 0.349731
O O2 0.333234 0.161770 0.074038
O O3 0.294083 0.000000 0.238877
O O4 0.202175 0.238021 0.040007
O O5 0.689381 0.500000 0.271055
O O6 0.615530 0.680990 0.339291
O O7 0.737150 0.775539 0.338895
O O8 0.591072 0.711561 0.026621
O O9 0.545879 0.500000 0.419238
O O10 0.495848 0.217388 0.326613
O O11 0.861490 0.500000 0.135917
O O12 0.955570 0.732618 0.219443
O O13 0.852472 0.729539 0.301555
O O14 0.894922 0.180915 0.626255
O O15 0.017070 0.000000 0.846729
O O16 0.000000 0.224426 0.000000
O O17 0.182377 0.000000 0.662427
O O18 0.565553 0.000000 0.924157
#
# Coordination Sequence:
#
# PCOD9155699 Si02
#       7
#     4   4   4   4   4   4   4
#     4  11  24  42  65  93 127 168 219 268 315 380
#     4  11  24  41  63  93 130 169 213 266 323 380
#     4  11  25  41  61  93 132 171 212 267 330 381
#     4  12  25  42  67  97 130 170 213 261 320 379
#     4  10  24  45  69  99 132 168 209 260 317 377
#     4  11  23  42  68  96 127 169 217 262 312 378
#     4  11  23  41  65  93 124 168 222 269 317 379
#
# _framework density 21.488185999999999
#
# number of rings (size 3 to 8) (size 9 to 14) (size 15 to 20)
#    0.000    1.000    1.429    4.714    2.000   10.571 
#    0.000    0.000    0.000    0.000    0.000    0.000 
#    0.000    0.000    0.000    0.000    0.000    0.000 
#
# Total GULP energy -156499.311588 kJ/mol
# GULP energy per Si atom -5589.261128 kJ/mol
# Density = 2.143928 g / cm^3
# Si number density = 21.488186 Si / 1000 Ang^3
#
#
#
# Elastic Constant Matrix: (Units=GPa)
#
#
# Indices 1 2 3 4 5 6 
#
# 1 51.9465 23.5700 32.4841 0.0000 7.3129 0.0000
# 2 23.5700 56.5114 -21.0020 0.0000 3.8033 0.0000
# 3 32.4841 -21.0020 45.5625 0.0000 8.0262 0.0000
# 4 0.0000 0.0000 0.0000 -567.9021 0.0000 -633.4827
# 5 7.3129 3.8033 8.0262 0.0000 31.4643 0.0000
# 6 0.0000 0.0000 0.0000 -633.4827 0.0000 -657.5414
#
#
#
# Elastic Compliance Matrix: (Units=1/GPa)
#
#
# Indices 1 2 3 4 5 6 
#
# 1 -0.272875 0.231535 0.308913 0.000000 -0.043366 0.000000
# 2 0.231535 -0.174215 -0.250882 0.000000 0.031242 0.000000
# 3 0.308913 -0.250882 -0.321059 0.000000 0.040427 0.000000
# 4 0.000000 0.000000 0.000000 0.023584 0.000000 -0.022721
# 5 -0.043366 0.031242 0.040427 0.000000 0.027772 0.000000
# 6 0.000000 0.000000 0.000000 -0.022721 0.000000 0.020369
#
#
# Mechanical properties :
#
#
# Convention : Reuss Voigt Hill
#
# Bulk Modulus (GPa) = -5.29054 24.90273 9.80609
# Shear Modulus (GPa) = -3.73535 -230.86461 -117.29998
#
# Velocity S-wave (km/s) = -1.31989 -10.37647 -7.39639
# Velocity P-wave (km/s) = 2.18866 11.48683 8.26854
#
# Compressibility (1/GPa) = -0.18901647
#
# Stress axis : x y z
#
# Youngs Moduli (GPa) = -3.66468 -5.74005 -3.11469
#
# Poissons Ratio (x) = 1.32902 0.96217
# Poissons Ratio (y) = 0.84850 -0.78142
# Poissons Ratio (z) = 1.13207 -1.44008
#
# Static dielectric constant tensor:
#      x y z
#    x 1.753920 0.000000 -0.042350 
#    y 0.000000 1.725790 0.000000 
#    z -0.042350 0.000000 1.815860 
# 
# From -- ./inp_files/34302.got.cif
#   From: 2010.05.17/outbox.ucp.g08.bks.cvg/sg10_18_cif.got.tgz:34302.got - 2010.06.11 11:31:16.
