data_PCOD9155728
_publ_section_title
;
Structure prediction by ZEFSAII (Michael W. Deem and Ramdas Pophale) SiO2 
 PCOD9155728
Probable space group: P 21/M
;
_chemical_formula_sum "Si O2"
_cell_formula_units_Z 24
_cell_length_a 6.817929
_cell_length_b 20.500794
_cell_length_c 10.075748
_cell_angle_alpha 90.000000
_cell_angle_beta 48.929800
_cell_angle_gamma 90.000000
_cell_volume 1061.737581
_symmetry_space_group_name_H-M "P 21/M"
_symmetry_group_IT_number 11
_symmetry_cell_setting 'monoclinic'
loop_
_space_group_symop_operation_xyz
x,y,z
-x,1/2+y,-z
-x,-y,-z
x,1/2-y,z
loop_
_atom_site_type_symbol
_atom_site_label
_atom_site_fract_x
_atom_site_fract_y
_atom_site_fract_z
Si Si1 0.373165 0.321254 0.521330
Si Si2 0.139997 0.451392 0.637177
Si Si3 0.779412 0.044518 0.025387
Si Si4 0.125208 0.675298 0.863829
Si Si5 0.558904 0.678082 0.196668
Si Si6 0.408305 0.957897 0.335963
O O1 0.298011 0.250000 0.500955
O O2 0.210820 0.382152 0.539948
O O3 0.679474 0.330835 0.348308
O O4 0.339576 0.318443 0.695357
O O5 0.363121 0.454819 0.652878
O O6 0.176612 0.512088 0.524308
O O7 0.871718 0.453036 0.834035
O O8 0.788655 0.117582 0.077598
O O9 0.514611 0.009879 0.183211
O O10 0.000000 0.000000 0.000000
O O11 0.157997 0.750000 0.898370
O O12 0.812690 0.666905 0.990895
O O13 0.446542 0.750000 0.216041
O O14 0.386070 0.613344 0.281632
#
# Coordination Sequence:
#
# PCOD9155728 Si02
#       6
#     4   4   4   4   4   4
#     4   9  15  20  25  31  37  42  47  52  56  61
#     4   9  15  19  26  31  36  42  47  51  57  62
#     4  10  15  20  26  31  36  42  47  52  57  62
#     4  10  16  20  25  31  37  42  47  52  57  62
#     4   9  16  22  26  30  35  42  46  51  58  64
#     4   9  15  20  26  31  37  39  47  53  57  62
#
# _framework density 22.604455999999999
#
# number of rings (size 3 to 8) (size 9 to 14) (size 15 to 20)
#    0.000    2.667    6.667    0.000    2.333    0.000 
#    0.000    0.000    0.000    0.000    0.000    0.000 
#    0.000    0.000    0.000    0.000    0.000    0.000 
#
# Total GULP energy -133699.216482 kJ/mol
# GULP energy per Si atom -5570.800687 kJ/mol
# Density = 2.255301 g / cm^3
# Si number density = 22.604456 Si / 1000 Ang^3
#
#
#
# Elastic Constant Matrix: (Units=GPa)
#
#
# Indices 1 2 3 4 5 6 
#
# 1 59.7579 1.5164 -9.0673 0.0000 0.6076 0.0000
# 2 1.5164 157.1154 31.3544 0.0000 17.7641 0.0000
# 3 -9.0673 31.3544 104.3983 0.0000 6.9836 0.0000
# 4 0.0000 0.0000 0.0000 36.7508 0.0000 2.0914
# 5 0.6076 17.7641 6.9836 0.0000 -17.1862 0.0000
# 6 0.0000 0.0000 0.0000 2.0914 0.0000 -5.0338
#
#
#
# Elastic Compliance Matrix: (Units=1/GPa)
#
#
# Indices 1 2 3 4 5 6 
#
# 1 0.016984 -0.000559 0.001598 0.000000 0.000672 0.000000
# 2 -0.000559 0.006206 -0.002278 0.000000 0.005470 0.000000
# 3 0.001598 -0.002278 0.010276 0.000000 0.001877 0.000000
# 4 0.000000 0.000000 0.000000 0.026582 0.000000 0.011044
# 5 0.000672 0.005470 0.001877 0.000000 -0.051746 0.000000
# 6 0.000000 0.000000 0.000000 0.011044 0.000000 -0.194070
#
#
# Mechanical properties :
#
#
# Convention : Reuss Voigt Hill
#
# Bulk Modulus (GPa) = 32.27047 40.98652 36.62850
# Shear Modulus (GPa) = -28.90839 22.73738 -3.08550
#
# Velocity S-wave (km/s) = -3.58002 3.17500 -1.16960
# Velocity P-wave (km/s) = 1.66781 5.62248 3.79675
#
# Compressibility (1/GPa) = 0.03098808
#
# Stress axis : x y z
#
# Youngs Moduli (GPa) = 58.87896 161.12347 97.31230
#
# Poissons Ratio (x) = 0.09004 -0.15550
# Poissons Ratio (y) = 0.03290 0.22172
# Poissons Ratio (z) = -0.09409 0.36711
#
# Static dielectric constant tensor:
#      x y z
#    x 1.862750 0.000000 -0.012890 
#    y 0.000000 1.944400 0.000000 
#    z -0.012890 0.000000 1.849800 
# 
# From -- ./inp_files/32603.got.cif
#   From: 2010.05.17/outbox.cif.g08.bks.cpg/sg11_17_cif.got.tgz:32603.got - 2010.06.03 12:22:45.
