data_PCOD9155747
_publ_section_title
;
Structure prediction by ZEFSAII (Michael W. Deem and Ramdas Pophale) SiO2 
 PCOD9155747
Probable space group: P 21/M
;
_chemical_formula_sum "Si O2"
_cell_formula_units_Z 28
_cell_length_a 6.995806
_cell_length_b 8.106534
_cell_length_c 24.274893
_cell_angle_alpha 90.000000
_cell_angle_beta 126.435776
_cell_angle_gamma 90.000000
_cell_volume 1107.563949
_symmetry_space_group_name_H-M "P 21/M"
_symmetry_group_IT_number 11
_symmetry_cell_setting 'monoclinic'
loop_
_space_group_symop_operation_xyz
x,y,z
-x,1/2+y,-z
-x,-y,-z
x,1/2-y,z
loop_
_atom_site_type_symbol
_atom_site_label
_atom_site_fract_x
_atom_site_fract_y
_atom_site_fract_z
Si Si1 0.040735 0.445471 0.297776
Si Si2 0.294304 0.057313 0.844845
Si Si3 0.317213 0.444104 0.017009
Si Si4 0.568173 0.058965 0.571244
Si Si5 0.820039 0.433625 0.421410
Si Si6 0.076187 0.057803 0.127086
Si Si7 0.556654 0.548756 0.725498
O O1 0.033820 0.250000 0.304481
O O2 0.154848 0.532859 0.369880
O O3 0.235707 0.489197 0.283760
O O4 0.793097 0.503202 0.230207
O O5 0.245957 0.250000 0.844397
O O6 0.564420 0.022387 0.908550
O O7 0.124665 0.959538 0.858864
O O8 0.668969 0.750000 0.974306
O O9 0.500000 0.500000 0.000000
O O10 0.058333 0.487672 0.949212
O O11 0.504082 0.250000 0.570369
O O12 0.500000 0.000000 0.500000
O O13 0.420278 0.935942 0.583941
O O14 0.905315 0.250000 0.422130
O O15 0.695911 0.508143 0.344125
O O16 0.000000 0.500000 0.500000
O O17 0.117841 0.250000 0.123389
O O18 0.315184 0.987613 0.196496
O O19 0.538364 0.750000 0.725950
#
# Coordination Sequence:
#
# PCOD9155747 Si02
#       7
#     4   4   4   4   4   4   4
#     4   9  16  28  42  58  80 108 141 181 223 268
#     4  10  16  22  32  48  69  98 135 173 211 259
#     4  10  16  21  28  42  65  95 130 171 213 256
#     4  11  21  34  51  72  95 124 158 196 238 284
#     4  10  19  33  50  71  96 125 159 198 239 284
#     4   9  14  22  33  46  66  97 134 174 215 258
#     4   7  13  24  39  55  76 105 139 177 220 265
#
# _framework density 25.280708000000001
#
# number of rings (size 3 to 8) (size 9 to 14) (size 15 to 20)
#    0.000    2.571    0.000    8.571    0.000    0.000 
#    0.000    2.143    0.000    0.000    0.000    0.000 
#    0.000    0.000    0.000    1.286    0.000   17.714 
#
# Total GULP energy -156200.637396 kJ/mol
# GULP energy per Si atom -5578.594193 kJ/mol
# Density = 2.522317 g / cm^3
# Si number density = 25.280708 Si / 1000 Ang^3
#
#
#
# Elastic Constant Matrix: (Units=GPa)
#
#
# Indices 1 2 3 4 5 6 
#
# 1 72.7678 -12.8870 34.2610 0.0000 22.9720 0.0000
# 2 -12.8870 83.2746 24.2100 0.0000 0.5057 0.0000
# 3 34.2610 24.2100 327.6505 0.0000 15.0120 0.0000
# 4 0.0000 0.0000 0.0000 44.1254 0.0000 4.6163
# 5 22.9720 0.5057 15.0120 0.0000 40.8105 0.0000
# 6 0.0000 0.0000 0.0000 4.6163 0.0000 -5.9144
#
#
#
# Elastic Compliance Matrix: (Units=1/GPa)
#
#
# Indices 1 2 3 4 5 6 
#
# 1 0.018191 0.003371 -0.001709 0.000000 -0.009653 0.000000
# 2 0.003371 0.012898 -0.001232 0.000000 -0.001604 0.000000
# 3 -0.001709 -0.001232 0.003333 0.000000 -0.000249 0.000000
# 4 0.000000 0.000000 0.000000 0.020952 0.000000 0.016353
# 5 -0.009653 -0.001604 -0.000249 0.000000 0.030049 0.000000
# 6 0.000000 0.000000 0.000000 0.016353 0.000000 -0.156315
#
#
# Mechanical properties :
#
#
# Convention : Reuss Voigt Hill
#
# Bulk Modulus (GPa) = 28.34334 63.87344 46.10839
# Shear Modulus (GPa) = -83.34646 45.01154 -19.16746
#
# Velocity S-wave (km/s) = -5.74804 4.22414 -2.75650
# Velocity P-wave (km/s) = 5.72866 7.00797 2.85431
#
# Compressibility (1/GPa) = 0.03528165
#
# Stress axis : x y z
#
# Youngs Moduli (GPa) = 54.97158 77.53150 300.01513
#
# Poissons Ratio (x) = -0.26133 0.51271
# Poissons Ratio (y) = -0.18529 0.36962
# Poissons Ratio (z) = 0.09394 0.09552
#
# Static dielectric constant tensor:
#      x y z
#    x 2.006330 0.000000 -0.168280 
#    y 0.000000 1.899470 0.000000 
#    z -0.168280 0.000000 2.061580 
# 
# From -- ./inp_files/64069.got.cif
#   From: 2010.05.17/outbox.cif.g08.bks.cpg/sg11_33_cif.got.tgz:64069.got - 2010.06.03 12:22:45.
