data_PCOD9155325
_publ_section_title
;
Structure prediction by ZEFSAII (Michael W. Deem and Ramdas Pophale) SiO2 
 PCOD9155325
Probable space group: P 2/M
;
_chemical_formula_sum "Si O2"
_cell_formula_units_Z 28
_cell_length_a 15.000000
_cell_length_b 9.000000
_cell_length_c 18.000000
_cell_angle_alpha 90.000000
_cell_angle_beta 140.000000
_cell_angle_gamma 90.000000
_cell_volume 1561.973892
_symmetry_space_group_name_H-M "P 2/M"
_symmetry_group_IT_number 10
_symmetry_cell_setting 'monoclinic'
loop_
_space_group_symop_operation_xyz
x,y,z
-x,y,-z
-x,-y,-z
x,-y,z
loop_
_atom_site_type_symbol
_atom_site_label
_atom_site_fract_x
_atom_site_fract_y
_atom_site_fract_z
Si Si1 0.753117 0.321032 0.556728
Si Si2 0.372100 0.820844 0.669010
Si Si3 0.919222 0.179059 0.087343
Si Si4 0.941941 0.820345 0.268925
Si Si5 0.147601 0.678369 0.636017
Si Si6 0.677497 0.819836 0.827508
Si Si7 0.243289 0.819716 0.285397
O O1 0.752792 0.500000 0.554146
O O2 0.666160 0.249379 0.434873
O O3 0.706800 0.259866 0.607677
O O4 0.907457 0.256842 0.639674
O O5 0.270792 0.749187 0.665621
O O6 0.535573 0.786447 0.780167
O O7 0.353301 0.000000 0.656233
O O8 0.879238 0.212886 0.147240
O O9 0.079145 0.220238 0.174627
O O10 0.917822 0.000000 0.080813
O O11 0.810065 0.237243 0.957835
O O12 0.863801 0.753493 0.290117
O O13 0.956221 0.000000 0.285146
O O14 0.164562 0.500000 0.652608
O O15 0.000000 0.705737 0.500000
O O16 0.683492 0.774307 0.744763
O O17 0.686781 0.000000 0.830591
O O18 0.253480 0.000000 0.301085
#
# Coordination Sequence:
#
# PCOD9155325 Si02
#       7
#     4   4   4   4   4   4   4
#     4  11  21  34  51  76 111 144 176 219 268 316
#     4  11  22  35  54  79 108 141 179 221 264 316
#     4   8  15  30  55  85 110 134 172 221 268 307
#     4  10  19  33  58  86 107 133 174 223 266 311
#     4  11  22  36  56  80 107 141 175 215 266 321
#     4   9  18  33  54  81 110 140 177 223 267 307
#     4   9  17  32  57  83 106 138 181 223 262 309
#
# _framework density 17.926036
#
# number of rings (size 3 to 8) (size 9 to 14) (size 15 to 20)
#    0.000    2.143    1.429    3.857    0.000    2.857 
#    0.000    5.000    0.000   20.571    0.000    0.000 
#    0.000    0.000    0.000    0.000    0.000    0.000 
#
# Total GULP energy -156173.606331 kJ/mol
# GULP energy per Si atom -5577.628798 kJ/mol
# Density = 1.788524 g / cm^3
# Si number density = 17.926036 Si / 1000 Ang^3
#
#
#
# Elastic Constant Matrix: (Units=GPa)
#
#
# Indices 1 2 3 4 5 6 
#
# 1 119.0849 27.2191 9.9966 0.0000 -8.7442 0.0000
# 2 27.2191 70.5579 4.7188 0.0000 -1.8573 0.0000
# 3 9.9966 4.7188 16.7110 0.0000 -5.5366 0.0000
# 4 0.0000 0.0000 0.0000 3.2217 0.0000 -0.5798
# 5 -8.7442 -1.8573 -5.5366 0.0000 20.5499 0.0000
# 6 0.0000 0.0000 0.0000 -0.5798 0.0000 18.8694
#
#
#
# Elastic Compliance Matrix: (Units=1/GPa)
#
#
# Indices 1 2 3 4 5 6 
#
# 1 0.009710 -0.003410 -0.003929 0.000000 0.002765 0.000000
# 2 -0.003410 0.015644 -0.002624 0.000000 -0.000744 0.000000
# 3 -0.003929 -0.002624 0.068406 0.000000 0.016521 0.000000
# 4 0.000000 0.000000 0.000000 0.312119 0.000000 0.009591
# 5 0.002765 -0.000744 0.016521 0.000000 0.054222 0.000000
# 6 0.000000 0.000000 0.000000 0.009591 0.000000 0.053290
#
#
# Mechanical properties :
#
#
# Convention : Reuss Voigt Hill
#
# Bulk Modulus (GPa) = 13.54420 32.24697 22.89558
# Shear Modulus (GPa) = 8.96171 19.48951 14.22561
#
# Velocity S-wave (km/s) = 2.23833 3.30088 2.82010
# Velocity P-wave (km/s) = 3.77520 5.70576 4.83776
#
# Compressibility (1/GPa) = 0.07383234
#
# Stress axis : x y z
#
# Youngs Moduli (GPa) = 102.99000 63.92148 14.61863
#
# Poissons Ratio (x) = 0.21798 0.05744
# Poissons Ratio (y) = 0.35121 0.03836
# Poissons Ratio (z) = 0.40469 0.16774
#
# Static dielectric constant tensor:
#      x y z
#    x 1.607000 0.000000 -0.001300 
#    y 0.000000 1.595550 0.000000 
#    z -0.001300 0.000000 1.645220 
# 
# From -- ./inp_files/77712.got.cif
#   From: 2010.05.17/outbox.ucp.g08.bks.cvg/sg10_39_cif.got.tgz:77712.got - 2010.06.11 11:31:16.
