data_PCOD9155234
_publ_section_title
;
Structure prediction by ZEFSAII (Michael W. Deem and Ramdas Pophale) SiO2 
 PCOD9155234
Probable space group: P 2/M
;
_chemical_formula_sum "Si O2"
_cell_formula_units_Z 28
_cell_length_a 18.000000
_cell_length_b 9.000000
_cell_length_c 15.000000
_cell_angle_alpha 90.000000
_cell_angle_beta 140.000000
_cell_angle_gamma 90.000000
_cell_volume 1561.973892
_symmetry_space_group_name_H-M "P 2/M"
_symmetry_group_IT_number 10
_symmetry_cell_setting 'monoclinic'
loop_
_space_group_symop_operation_xyz
x,y,z
-x,y,-z
-x,-y,-z
x,-y,z
loop_
_atom_site_type_symbol
_atom_site_label
_atom_site_fract_x
_atom_site_fract_y
_atom_site_fract_z
Si Si1 0.330240 0.819598 0.682902
Si Si2 0.948513 0.322302 0.255957
Si Si3 0.767665 0.820390 0.951991
Si Si4 0.175189 0.820268 0.383243
Si Si5 0.207231 0.179791 0.746188
Si Si6 0.131797 0.180306 0.141855
Si Si7 0.411705 0.179156 0.070331
O O1 0.288164 0.783497 0.544931
O O2 0.238865 0.774687 0.674944
O O3 0.458929 0.762679 0.821018
O O4 0.333985 0.000000 0.692291
O O5 0.949569 0.500000 0.258459
O O6 0.900308 0.257042 0.304645
O O7 0.070469 0.254787 0.339702
O O8 0.861630 0.260692 0.099867
O O9 0.787972 0.777812 0.868124
O O10 0.645648 0.786115 0.886640
O O11 0.785686 0.000000 0.976086
O O12 0.171888 0.772007 0.276936
O O13 0.160139 0.000000 0.371120
O O14 0.192466 0.000000 0.737022
O O15 0.319798 0.220868 0.909775
O O16 0.129786 0.000000 0.141795
O O17 0.000000 0.228851 0.000000
O O18 0.418561 0.000000 0.070953
#
# Coordination Sequence:
#
# PCOD9155234 Si02
#       7
#     4   4   4   4   4   4   4
#     4   9  17  29  48  74  97 124 162 200 230 273
#     4  11  21  32  47  71  99 123 158 203 244 280
#     4   9  16  30  52  74  96 126 158 192 238 284
#     4  10  19  32  49  69  98 130 161 193 233 285
#     4   9  17  31  52  72  94 125 160 195 238 284
#     4   9  15  26  48  73  96 124 159 192 232 282
#     4   8  14  26  48  75  98 119 155 200 236 271
#
# _framework density 17.926036
#
# number of rings (size 3 to 8) (size 9 to 14) (size 15 to 20)
#    0.000    2.714    1.429    2.571    0.000    2.286 
#    0.000    5.714    0.000   14.571    0.000    0.000 
#    0.000    5.714    0.000    0.000    0.000    0.000 
#
# Total GULP energy -155999.805076 kJ/mol
# GULP energy per Si atom -5571.421610 kJ/mol
# Density = 1.788524 g / cm^3
# Si number density = 17.926036 Si / 1000 Ang^3
#
#
#
# Elastic Constant Matrix: (Units=GPa)
#
#
# Indices 1 2 3 4 5 6 
#
# 1 75.1198 5.5954 14.7499 0.0000 -26.0405 0.0000
# 2 5.5954 21.5086 4.1079 0.0000 -0.8328 0.0000
# 3 14.7499 4.1079 32.1711 0.0000 -20.5730 0.0000
# 4 0.0000 0.0000 0.0000 2.6039 0.0000 -2.7204
# 5 -26.0405 -0.8328 -20.5730 0.0000 27.3838 0.0000
# 6 0.0000 0.0000 0.0000 -2.7204 0.0000 1.4543
#
#
#
# Elastic Compliance Matrix: (Units=1/GPa)
#
#
# Indices 1 2 3 4 5 6 
#
# 1 0.021121 -0.005908 0.007314 0.000000 0.025400 0.000000
# 2 -0.005908 0.049827 -0.012082 0.000000 -0.013180 0.000000
# 3 0.007314 -0.012082 0.064450 0.000000 0.055008 0.000000
# 4 0.000000 0.000000 0.000000 -0.402450 0.000000 -0.752808
# 5 0.025400 -0.013180 0.055008 0.000000 0.101598 0.000000
# 6 0.000000 0.000000 0.000000 -0.752808 0.000000 -0.720562
#
#
# Mechanical properties :
#
#
# Convention : Reuss Voigt Hill
#
# Bulk Modulus (GPa) = 8.76839 19.74511 14.25675
# Shear Modulus (GPa) = -6.04852 13.24482 3.59815
#
# Velocity S-wave (km/s) = -1.83888 2.72115 1.41830
# Velocity P-wave (km/s) = 0.62722 4.57291 3.26381
#
# Compressibility (1/GPa) = 0.11404596
#
# Stress axis : x y z
#
# Youngs Moduli (GPa) = 47.34619 20.06941 15.51584
#
# Poissons Ratio (x) = 0.11857 -0.11348
# Poissons Ratio (y) = 0.27972 0.18746
# Poissons Ratio (z) = -0.34628 0.24248
#
# Static dielectric constant tensor:
#      x y z
#    x 1.633970 0.000000 -0.000390 
#    y 0.000000 1.588740 0.000000 
#    z -0.000390 0.000000 1.629950 
# 
# From -- ./inp_files/68690.got.cif
#   From: 2010.05.17/outbox.ucp.g08.bks.cvg/sg10_35_cif.got.tgz:68690.got - 2010.06.11 11:31:16.
