data_PCOD9155586
_publ_section_title
;
Structure prediction by ZEFSAII (Michael W. Deem and Ramdas Pophale) SiO2 
 PCOD9155586
Probable space group: P 2/M
;
_chemical_formula_sum "Si O2"
_cell_formula_units_Z 28
_cell_length_a 27.000000
_cell_length_b 9.000000
_cell_length_c 9.000000
_cell_angle_alpha 90.000000
_cell_angle_beta 40.000000
_cell_angle_gamma 90.000000
_cell_volume 1405.776502
_symmetry_space_group_name_H-M "P 2/M"
_symmetry_group_IT_number 10
_symmetry_cell_setting 'monoclinic'
loop_
_space_group_symop_operation_xyz
x,y,z
-x,y,-z
-x,-y,-z
x,-y,z
loop_
_atom_site_type_symbol
_atom_site_label
_atom_site_fract_x
_atom_site_fract_y
_atom_site_fract_z
Si Si1 0.245793 0.322696 0.244895
Si Si2 0.043346 0.179960 0.195794
Si Si3 0.878920 0.179575 0.669057
Si Si4 0.400315 0.321746 0.051486
Si Si5 0.665200 0.178076 0.498104
Si Si6 0.181525 0.822036 0.690276
Si Si7 0.537707 0.179040 0.570222
O O1 0.240838 0.500000 0.244222
O O2 0.199134 0.249553 0.215935
O O3 0.335387 0.284324 0.074611
O O4 0.205914 0.264020 0.487457
O O5 0.089720 0.222875 0.239396
O O6 0.954082 0.224573 0.398283
O O7 0.041766 0.000000 0.204408
O O8 0.097060 0.223927 0.936859
O O9 0.870185 0.000000 0.686542
O O10 0.408267 0.500000 0.037933
O O11 0.372857 0.261729 0.274283
O O12 0.478719 0.241828 0.827233
O O13 0.756262 0.203626 0.319266
O O14 0.622679 0.220822 0.440864
O O15 0.653671 0.000000 0.541516
O O16 0.182797 0.000000 0.657436
O O17 0.500000 0.231925 0.500000
O O18 0.536256 0.000000 0.568078
#
# Coordination Sequence:
#
# PCOD9155586 Si02
#       7
#     4   4   4   4   4   4   4
#     4  10  21  35  49  72 103 131 166 209 248 291
#     4   8  16  31  52  77 101 127 166 209 245 293
#     4   9  17  32  53  75 100 132 167 204 249 297
#     4  10  21  36  53  72  98 134 171 205 244 293
#     4   9  18  33  53  75  99 129 165 204 247 296
#     4   9  17  32  53  74  97 129 167 205 247 294
#     4  10  21  35  52  78 107 130 159 203 250 295
#
# _framework density 19.917818
#
# number of rings (size 3 to 8) (size 9 to 14) (size 15 to 20)
#    0.000    2.714    0.000    2.143    0.000    6.000 
#    0.000    8.571    0.000    3.429    0.000    0.000 
#    0.000    0.000    0.000    0.000    0.000    0.000 
#
# Total GULP energy -156039.096817 kJ/mol
# GULP energy per Si atom -5572.824886 kJ/mol
# Density = 1.987248 g / cm^3
# Si number density = 19.917818 Si / 1000 Ang^3
#
#
#
# Elastic Constant Matrix: (Units=GPa)
#
#
# Indices 1 2 3 4 5 6 
#
# 1 82.6109 11.3018 -27.1183 0.0000 -8.0397 0.0000
# 2 11.3018 6.2236 -9.4650 0.0000 -4.9440 0.0000
# 3 -27.1183 -9.4650 26.1477 0.0000 -8.4766 0.0000
# 4 0.0000 0.0000 0.0000 -21.1881 0.0000 -2.4195
# 5 -8.0397 -4.9440 -8.4766 0.0000 18.4130 0.0000
# 6 0.0000 0.0000 0.0000 -2.4195 0.0000 24.9591
#
#
#
# Elastic Compliance Matrix: (Units=1/GPa)
#
#
# Indices 1 2 3 4 5 6 
#
# 1 0.013261 -0.072619 -0.019956 0.000000 -0.022896 0.000000
# 2 -0.072619 -0.371112 -0.296480 0.000000 -0.267840 0.000000
# 3 -0.019956 -0.296480 -0.139176 0.000000 -0.152390 0.000000
# 4 0.000000 0.000000 0.000000 -0.046680 0.000000 -0.004525
# 5 -0.022896 -0.267840 -0.152390 0.000000 -0.097758 0.000000
# 6 0.000000 0.000000 0.000000 -0.004525 0.000000 0.039627
#
#
# Mechanical properties :
#
#
# Convention : Reuss Voigt Hill
#
# Bulk Modulus (GPa) = -0.78423 7.15769 3.18673
# Shear Modulus (GPa) = -20.09860 13.78770 -3.15545
#
# Velocity S-wave (km/s) = -3.18004 2.63388 -1.26003
# Velocity P-wave (km/s) = 3.72534 3.58485 0.71658
#
# Compressibility (1/GPa) = -1.27513803
#
# Stress axis : x y z
#
# Youngs Moduli (GPa) = 75.41116 -2.69460 -7.18516
#
# Poissons Ratio (x) = -0.19568 -0.14339
# Poissons Ratio (y) = 5.47628 -2.13025
# Poissons Ratio (z) = 1.50493 -0.79890
#
# Static dielectric constant tensor:
#      x y z
#    x 1.729640 0.000000 -0.005140 
#    y 0.000000 1.660650 0.000000 
#    z -0.005140 0.000000 1.731150 
# 
# From -- ./inp_files/36892.got.cif
#   From: 2010.05.17/outbox.ucp.g08.bks.cvg/sg10_19_cif.got.tgz:36892.got - 2010.06.11 11:31:16.
