data_PCOD9155801
_publ_section_title
;
Structure prediction by ZEFSAII (Michael W. Deem and Ramdas Pophale) SiO2 
 PCOD9155801
Probable space group: P 21/M
;
_chemical_formula_sum "Si O2"
_cell_formula_units_Z 28
_cell_length_a 16.659204
_cell_length_b 14.837594
_cell_length_c 10.025988
_cell_angle_alpha 90.000000
_cell_angle_beta 29.422339
_cell_angle_gamma 90.000000
_cell_volume 1217.423365
_symmetry_space_group_name_H-M "P 21/M"
_symmetry_group_IT_number 11
_symmetry_cell_setting 'monoclinic'
loop_
_space_group_symop_operation_xyz
x,y,z
-x,1/2+y,-z
-x,-y,-z
x,1/2-y,z
loop_
_atom_site_type_symbol
_atom_site_label
_atom_site_fract_x
_atom_site_fract_y
_atom_site_fract_z
Si Si1 0.245570 0.353447 0.150192
Si Si2 0.968182 0.589139 0.131011
Si Si3 0.435281 0.849460 0.666671
Si Si4 0.293573 0.655299 0.571749
Si Si5 0.495161 0.502637 0.759699
Si Si6 0.073033 0.645197 0.256381
Si Si7 0.624588 0.851712 0.733421
O O1 0.271321 0.250000 0.062217
O O2 0.051739 0.371076 0.442742
O O3 0.313906 0.356111 0.203468
O O4 0.343273 0.436808 0.946232
O O5 0.027867 0.581324 0.198315
O O6 0.785186 0.625836 0.410940
O O7 0.000000 0.500000 0.000000
O O8 0.101199 0.654381 0.871712
O O9 0.508506 0.750000 0.581226
O O10 0.374803 0.851122 0.601836
O O11 0.535066 0.934624 0.573967
O O12 0.266115 0.857555 0.996186
O O13 0.346044 0.750000 0.433305
O O14 0.362128 0.566672 0.405082
O O15 0.490216 0.574946 0.886424
O O16 0.037002 0.750000 0.266054
O O17 0.569067 0.750000 0.789726
#
# Coordination Sequence:
#
# PCOD9155801 Si02
#       7
#     4   4   4   4   4   4   4
#     4   9  19  34  51  72  97 130 168 203 245 292
#     4  10  16  30  51  75  92 122 171 206 233 287
#     4   9  19  34  51  72  97 130 168 203 245 292
#     4  10  20  34  50  71 102 132 162 204 247 293
#     4  12  20  30  50  78 102 128 164 206 246 296
#     4   8  16  33  53  70  95 131 167 203 238 287
#     4  10  20  34  50  71 102 132 162 204 247 293
#
# _framework density 22.999393000000001
#
# number of rings (size 3 to 8) (size 9 to 14) (size 15 to 20)
#    0.000    2.286    1.429    4.714    0.000    0.571 
#    0.000    0.000    0.000    0.000    0.000    0.000 
#    0.000    0.000    0.000    0.000    0.000    0.000 
#
# Total GULP energy -156087.600664 kJ/mol
# GULP energy per Si atom -5574.557167 kJ/mol
# Density = 2.294705 g / cm^3
# Si number density = 22.999393 Si / 1000 Ang^3
#
#
#
# Elastic Constant Matrix: (Units=GPa)
#
#
# Indices 1 2 3 4 5 6 
#
# 1 37.0378 13.3271 -16.2400 0.0000 4.0064 0.0000
# 2 13.3271 171.8287 18.3914 0.0000 9.6072 0.0000
# 3 -16.2400 18.3914 69.5102 0.0000 -6.2584 0.0000
# 4 0.0000 0.0000 0.0000 25.2519 0.0000 3.0118
# 5 4.0064 9.6072 -6.2584 0.0000 15.3719 0.0000
# 6 0.0000 0.0000 0.0000 3.0118 0.0000 15.6737
#
#
#
# Elastic Compliance Matrix: (Units=1/GPa)
#
#
# Indices 1 2 3 4 5 6 
#
# 1 0.031997 -0.003169 0.008036 0.000000 -0.003087 0.000000
# 2 -0.003169 0.006627 -0.002899 0.000000 -0.004496 0.000000
# 3 0.008036 -0.002899 0.017653 0.000000 0.006904 0.000000
# 4 0.000000 0.000000 0.000000 0.040530 0.000000 -0.007788
# 5 -0.003087 -0.004496 0.006904 0.000000 0.071479 0.000000
# 6 0.000000 0.000000 0.000000 -0.007788 0.000000 0.065297
#
#
# Mechanical properties :
#
#
# Convention : Reuss Voigt Hill
#
# Bulk Modulus (GPa) = 16.60747 34.37041 25.48894
# Shear Modulus (GPa) = 20.02257 28.78606 24.40431
#
# Velocity S-wave (km/s) = 2.95374 3.54163 3.26096
# Velocity P-wave (km/s) = 4.34388 5.63034 5.02842
#
# Compressibility (1/GPa) = 0.06021386
#
# Stress axis : x y z
#
# Youngs Moduli (GPa) = 31.25247 150.89324 56.64909
#
# Poissons Ratio (x) = 0.47823 -0.45525
# Poissons Ratio (y) = 0.09905 0.16421
# Poissons Ratio (z) = -0.25116 0.43740
#
# Static dielectric constant tensor:
#      x y z
#    x 1.867090 0.000000 -0.027650 
#    y 0.000000 1.919570 0.000000 
#    z -0.027650 0.000000 1.951940 
# 
# From -- ./inp_files/43210.got.cif
#   From: 2010.05.17/outbox.cif.g08.bks.cpg/sg11_22_cif.got.tgz:43210.got - 2010.06.03 12:22:45.
