data_PCOD9155342
_publ_section_title
;
Structure prediction by ZEFSAII (Michael W. Deem and Ramdas Pophale) SiO2 
 PCOD9155342
Probable space group: P 2/M
;
_chemical_formula_sum "Si O2"
_cell_formula_units_Z 24
_cell_length_a 9.000000
_cell_length_b 9.000000
_cell_length_c 30.000000
_cell_angle_alpha 90.000000
_cell_angle_beta 150.000000
_cell_angle_gamma 90.000000
_cell_volume 1215.000000
_symmetry_space_group_name_H-M "P 2/M"
_symmetry_group_IT_number 10
_symmetry_cell_setting 'monoclinic'
loop_
_space_group_symop_operation_xyz
x,y,z
-x,y,-z
-x,-y,-z
x,-y,z
loop_
_atom_site_type_symbol
_atom_site_label
_atom_site_fract_x
_atom_site_fract_y
_atom_site_fract_z
Si Si1 0.756679 0.323196 0.367638
Si Si2 0.247659 0.819406 0.969133
Si Si3 0.395432 0.180584 0.853417
Si Si4 0.269867 0.826672 0.304361
Si Si5 0.432309 0.180192 0.202278
Si Si6 0.627493 0.173220 0.485770
O O1 0.759038 0.500000 0.370102
O O2 0.514312 0.259511 0.339268
O O3 0.651970 0.260711 0.292827
O O4 0.089188 0.260439 0.459521
O O5 0.906480 0.776082 0.873387
O O6 0.247464 0.000000 0.967263
O O7 0.500000 0.768654 0.000000
O O8 0.358218 0.774720 0.046800
O O9 0.485714 0.222232 0.826997
O O10 0.068648 0.229861 0.784755
O O11 0.381915 0.000000 0.850037
O O12 0.372099 0.822628 0.382274
O O13 0.273242 0.000000 0.290300
O O14 0.457181 0.000000 0.212719
O O15 0.500000 0.227910 0.500000
O O16 0.716551 0.000000 0.515103
#
# Coordination Sequence:
#
# PCOD9155342 Si02
#       6
#     4   4   4   4   4   4
#     4  12  25  38  54  79 113 150 187 226 270 322
#     4   9  16  27  50  85 117 142 174 223 279 329
#     4   9  17  31  55  87 113 137 178 230 280 327
#     4  10  20  36  59  83 109 142 181 226 275 328
#     4  10  19  34  57  82 111 146 185 229 274 324
#     4  10  21  39  63  88 111 139 179 225 274 328
#
# _framework density 19.753086
#
# number of rings (size 3 to 8) (size 9 to 14) (size 15 to 20)
#    0.000    2.000    0.000    4.500    0.000   10.333 
#    0.000    2.500    0.000    6.500    0.000    0.000 
#    0.000    0.000    0.000    0.000    0.000    0.000 
#
# Total GULP energy -134029.502051 kJ/mol
# GULP energy per Si atom -5584.562585 kJ/mol
# Density = 1.970813 g / cm^3
# Si number density = 19.753086 Si / 1000 Ang^3
#
#
#
# Elastic Constant Matrix: (Units=GPa)
#
#
# Indices 1 2 3 4 5 6 
#
# 1 50.0396 3.7194 -29.4868 0.0000 -0.0543 0.0000
# 2 3.7194 37.5807 2.8741 0.0000 6.3575 0.0000
# 3 -29.4868 2.8741 52.5214 0.0000 9.6918 0.0000
# 4 0.0000 0.0000 0.0000 -0.3191 0.0000 2.4166
# 5 -0.0543 6.3575 9.6918 0.0000 37.7586 0.0000
# 6 0.0000 0.0000 0.0000 2.4166 0.0000 0.7288
#
#
#
# Elastic Compliance Matrix: (Units=1/GPa)
#
#
# Indices 1 2 3 4 5 6 
#
# 1 0.031121 -0.003805 0.018426 0.000000 -0.004044 0.000000
# 2 -0.003805 0.027878 -0.002934 0.000000 -0.003946 0.000000
# 3 0.018426 -0.002934 0.030914 0.000000 -0.007414 0.000000
# 4 0.000000 0.000000 0.000000 -0.120008 0.000000 0.397953
# 5 -0.004044 -0.003946 -0.007414 0.000000 0.029046 0.000000
# 6 0.000000 0.000000 0.000000 0.397953 0.000000 0.052551
#
#
# Mechanical properties :
#
#
# Convention : Reuss Voigt Hill
#
# Bulk Modulus (GPa) = 8.82708 10.48390 9.65549
# Shear Modulus (GPa) = 75.88667 18.50264 47.19466
#
# Velocity S-wave (km/s) = 6.20492 3.06387 4.89328
# Velocity P-wave (km/s) = 7.47082 4.22320 6.06830
#
# Compressibility (1/GPa) = 0.11328781
#
# Stress axis : x y z
#
# Youngs Moduli (GPa) = 32.13293 35.87066 32.34821
#
# Poissons Ratio (x) = 0.13649 -0.59606
# Poissons Ratio (y) = 0.12227 0.09490
# Poissons Ratio (z) = -0.59210 0.10523
#
# Static dielectric constant tensor:
#      x y z
#    x 1.691220 0.000000 -0.021110 
#    y 0.000000 1.666530 0.000000 
#    z -0.021110 0.000000 1.692070 
# 
# From -- ./inp_files/27061.got.cif
#   From: 2010.05.17/outbox.ucp.g08.bks.cvg/sg10_14_cif.got.tgz:27061.got - 2010.06.11 11:31:16.
