data_PCOD9155979
_publ_section_title
;
Structure prediction by ZEFSAII (Michael W. Deem and Ramdas Pophale) SiO2 
 PCOD9155979
Probable space group: P 21/M
;
_chemical_formula_sum "Si O2"
_cell_formula_units_Z 32
_cell_length_a 15.461949
_cell_length_b 7.689713
_cell_length_c 17.376200
_cell_angle_alpha 90.000000
_cell_angle_beta 134.594497
_cell_angle_gamma 90.000000
_cell_volume 1471.181261
_symmetry_space_group_name_H-M "P 21/M"
_symmetry_group_IT_number 11
_symmetry_cell_setting 'monoclinic'
loop_
_space_group_symop_operation_xyz
x,y,z
-x,1/2+y,-z
-x,-y,-z
x,1/2-y,z
loop_
_atom_site_type_symbol
_atom_site_label
_atom_site_fract_x
_atom_site_fract_y
_atom_site_fract_z
Si Si1 0.156744 0.536856 0.247351
Si Si2 0.088044 0.550889 0.371627
Si Si3 0.890887 0.544960 0.032392
Si Si4 0.292555 0.539133 0.946939
Si Si5 0.241476 0.050237 0.609553
Si Si6 0.164707 0.949484 0.720258
Si Si7 0.690158 0.051012 0.790432
Si Si8 0.487327 0.536882 0.188838
O O1 0.160959 0.750000 0.247423
O O2 0.149723 0.484051 0.331948
O O3 0.268280 0.472908 0.264812
O O4 0.028111 0.483808 0.129581
O O5 0.051116 0.750000 0.333196
O O6 0.179025 0.544889 0.500001
O O7 0.965352 0.455486 0.319561
O O8 0.891673 0.750000 0.015196
O O9 0.817069 0.517087 0.065485
O O10 0.812667 0.450808 0.918487
O O11 0.291635 0.750000 0.944021
O O12 0.262928 0.477579 0.842465
O O13 0.415074 0.481556 0.066890
O O14 0.254955 0.250000 0.593358
O O15 0.374070 0.982932 0.716636
O O16 0.161902 0.043826 0.637160
O O17 0.194978 0.750000 0.722131
O O18 0.652214 0.250000 0.752808
O O19 0.589258 0.974413 0.784536
O O20 0.483408 0.750000 0.185766
#
# Coordination Sequence:
#
# PCOD9155979 Si02
#       8
#     4   4   4   4   4   4   4   4
#     4   9  18  31  52  79 108 141 178 217 267 321
#     4  11  22  39  58  80 111 143 179 224 272 320
#     4  10  17  28  47  79 115 143 174 214 266 317
#     4   9  18  34  56  81 109 143 178 215 266 327
#     4  11  23  39  57  78 105 144 187 226 269 317
#     4  11  22  37  59  86 110 136 176 224 275 328
#     4   9  17  33  54  77 106 145 182 214 261 321
#     4   8  17  35  57  78 107 145 184 219 258 314
#
# _framework density 21.75123
#
# number of rings (size 3 to 8) (size 9 to 14) (size 15 to 20)
#    0.000    2.250    1.250    3.000    0.000    1.000 
#    0.000    7.500    0.000    0.000    0.000    0.000 
#    0.000    0.000    0.000    0.000    0.000    0.000 
#
# Total GULP energy -178663.280810 kJ/mol
# GULP energy per Si atom -5583.227525 kJ/mol
# Density = 2.170172 g / cm^3
# Si number density = 21.751230 Si / 1000 Ang^3
#
#
#
# Elastic Constant Matrix: (Units=GPa)
#
#
# Indices 1 2 3 4 5 6 
#
# 1 14.7094 5.1132 24.8115 0.0000 -25.1993 0.0000
# 2 5.1132 47.2463 0.4258 0.0000 1.9878 0.0000
# 3 24.8115 0.4258 60.8226 0.0000 -0.7661 0.0000
# 4 0.0000 0.0000 0.0000 -12.7154 0.0000 -4.9133
# 5 -25.1993 1.9878 -0.7661 0.0000 26.2481 0.0000
# 6 0.0000 0.0000 0.0000 -4.9133 0.0000 9.2739
#
#
#
# Elastic Compliance Matrix: (Units=1/GPa)
#
#
# Indices 1 2 3 4 5 6 
#
# 1 -0.049982 0.007249 0.019734 0.000000 -0.047958 0.000000
# 2 0.007249 0.020184 -0.003031 0.000000 0.005342 0.000000
# 3 0.019734 -0.003031 0.008657 0.000000 0.019428 0.000000
# 4 0.000000 0.000000 0.000000 -0.065281 0.000000 -0.034585
# 5 -0.047958 0.005342 0.019428 0.000000 -0.007781 0.000000
# 6 0.000000 0.000000 0.000000 -0.034585 0.000000 0.089506
#
#
# Mechanical properties :
#
#
# Convention : Reuss Voigt Hill
#
# Bulk Modulus (GPa) = 37.36449 20.38658 28.87554
# Shear Modulus (GPa) = -114.46698 10.72319 -51.87189
#
# Velocity S-wave (km/s) = -7.26221 2.22275 -4.88872
# Velocity P-wave (km/s) = 7.28727 3.99756 4.30835
#
# Compressibility (1/GPa) = 0.02676338
#
# Stress axis : x y z
#
# Youngs Moduli (GPa) = -20.00722 49.54491 115.51496
#
# Poissons Ratio (x) = -0.35916 -2.27962
# Poissons Ratio (y) = 0.14503 0.35014
# Poissons Ratio (z) = 0.39483 0.15018
#
# Static dielectric constant tensor:
#      x y z
#    x 1.802140 0.000000 -0.018390 
#    y 0.000000 1.785650 0.000000 
#    z -0.018390 0.000000 1.777130 
# 
# From -- ./inp_files/60761.got.cif
#   From: 2010.05.17/outbox.cif.g08.bks.cpg/sg11_31_cif.got.tgz:60761.got - 2010.06.03 12:22:45.
