data_PCOD9155475
_publ_section_title
;
Structure prediction by ZEFSAII (Michael W. Deem and Ramdas Pophale) SiO2 
 PCOD9155475
Probable space group: P 2/M
;
_chemical_formula_sum "Si O2"
_cell_formula_units_Z 32
_cell_length_a 27.000000
_cell_length_b 9.000000
_cell_length_c 21.000000
_cell_angle_alpha 90.000000
_cell_angle_beta 20.000000
_cell_angle_gamma 90.000000
_cell_volume 1745.328791
_symmetry_space_group_name_H-M "P 2/M"
_symmetry_group_IT_number 10
_symmetry_cell_setting 'monoclinic'
loop_
_space_group_symop_operation_xyz
x,y,z
-x,y,-z
-x,-y,-z
x,-y,z
loop_
_atom_site_type_symbol
_atom_site_label
_atom_site_fract_x
_atom_site_fract_y
_atom_site_fract_z
Si Si1 0.510279 0.322166 0.677947
Si Si2 0.200269 0.179592 0.079960
Si Si3 0.022602 0.179509 0.762978
Si Si4 0.670833 0.677934 0.614639
Si Si5 0.599293 0.825036 0.438966
Si Si6 0.844885 0.820753 0.717242
Si Si7 0.436691 0.678886 0.007037
Si Si8 0.939304 0.824295 0.005724
O O1 0.498940 0.500000 0.689752
O O2 0.608872 0.282107 0.619777
O O3 0.571507 0.261613 0.537605
O O4 0.354270 0.250386 0.877996
O O5 0.160784 0.221706 0.200718
O O6 0.089377 0.224737 0.157554
O O7 0.209970 0.000000 0.066644
O O8 0.180161 0.237790 0.554541
O O9 0.988843 0.233871 0.876372
O O10 0.019366 0.000000 0.768740
O O11 0.694224 0.500000 0.587658
O O12 0.554256 0.713449 0.810119
O O13 0.500000 0.774176 0.500000
O O14 0.566322 0.000000 0.489873
O O15 0.766405 0.812719 0.217687
O O16 0.713476 0.751230 0.835191
O O17 0.000000 0.779185 0.500000
O O18 0.831522 0.000000 0.730485
O O19 0.417428 0.500000 0.032250
O O20 0.500000 0.724491 0.000000
O O21 0.979521 0.000000 0.957180
O O22 0.000000 0.762159 0.000000
#
# Coordination Sequence:
#
# PCOD9155475 Si02
#       8
#     4   4   4   4   4   4   4   4
#     4  11  22  37  58  83 115 153 193 239 287 341
#     4  10  21  38  58  83 116 152 192 237 288 347
#     4  10  21  36  58  85 111 146 193 238 285 342
#     4  10  22  39  56  82 117 150 192 239 284 335
#     4  10  20  35  57  82 110 146 189 237 288 341
#     4  10  22  39  60  88 120 150 186 239 294 341
#     4  10  22  41  62  85 116 156 198 237 279 340
#     4   9  17  31  51  77 107 139 180 229 277 332
#
# _framework density 18.334654
#
# number of rings (size 3 to 8) (size 9 to 14) (size 15 to 20)
#    0.000    2.000    1.250    1.875    1.750    5.750 
#    0.000    0.625    0.000    2.250    0.000    0.000 
#    0.000    0.000    0.000    0.000    0.000    0.000 
#
# Total GULP energy -178586.007348 kJ/mol
# GULP energy per Si atom -5580.812730 kJ/mol
# Density = 1.829292 g / cm^3
# Si number density = 18.334654 Si / 1000 Ang^3
#
#
#
# Elastic Constant Matrix: (Units=GPa)
#
#
# Indices 1 2 3 4 5 6 
#
# 1 145.9344 23.9868 36.9752 0.0000 -4.0946 0.0000
# 2 23.9868 8.6185 17.1821 0.0000 -0.6656 0.0000
# 3 36.9752 17.1821 67.9947 0.0000 4.3730 0.0000
# 4 0.0000 0.0000 0.0000 28.7541 0.0000 -1.2856
# 5 -4.0946 -0.6656 4.3730 0.0000 38.4781 0.0000
# 6 0.0000 0.0000 0.0000 -1.2856 0.0000 23.6268
#
#
#
# Elastic Compliance Matrix: (Units=1/GPa)
#
#
# Indices 1 2 3 4 5 6 
#
# 1 0.013213 -0.045181 0.004223 0.000000 0.000145 0.000000
# 2 -0.045181 0.392898 -0.075394 0.000000 0.010557 0.000000
# 3 0.004223 -0.075394 0.031750 0.000000 -0.004463 0.000000
# 4 0.000000 0.000000 0.000000 0.034862 0.000000 0.001897
# 5 0.000145 0.010557 -0.004463 0.000000 0.026694 0.000000
# 6 0.000000 0.000000 0.000000 0.001897 0.000000 0.042428
#
#
# Mechanical properties :
#
#
# Convention : Reuss Voigt Hill
#
# Bulk Modulus (GPa) = 4.87434 42.09287 23.48361
# Shear Modulus (GPa) = 5.93166 27.79869 16.86518
#
# Velocity S-wave (km/s) = 1.80062 3.89804 3.03620
# Velocity P-wave (km/s) = 2.64335 6.57781 5.01273
#
# Compressibility (1/GPa) = 0.20515578
#
# Stress axis : x y z
#
# Youngs Moduli (GPa) = 75.68441 2.54519 31.49638
#
# Poissons Ratio (x) = 0.11499 -0.13300
# Poissons Ratio (y) = 3.41947 2.37464
# Poissons Ratio (z) = -0.31959 0.19189
#
# Static dielectric constant tensor:
#      x y z
#    x 1.637310 0.000000 0.009700 
#    y 0.000000 1.618380 0.000000 
#    z 0.009700 0.000000 1.611650 
# 
# From -- ./inp_files/86813.got.cif
#   From: 2010.05.17/outbox.ucp.g08.bks.cvg/sg10_44_cif.got.tgz:86813.got - 2010.06.11 11:31:16.
