data_PCOD9155605
_publ_section_title
;
Structure prediction by ZEFSAII (Michael W. Deem and Ramdas Pophale) SiO2 
 PCOD9155605
Probable space group: P 2/M
;
_chemical_formula_sum "Si O2"
_cell_formula_units_Z 32
_cell_length_a 24.000000
_cell_length_b 15.000000
_cell_length_c 9.000000
_cell_angle_alpha 90.000000
_cell_angle_beta 30.000000
_cell_angle_gamma 90.000000
_cell_volume 1620.000000
_symmetry_space_group_name_H-M "P 2/M"
_symmetry_group_IT_number 10
_symmetry_cell_setting 'monoclinic'
loop_
_space_group_symop_operation_xyz
x,y,z
-x,y,-z
-x,-y,-z
x,-y,z
loop_
_atom_site_type_symbol
_atom_site_label
_atom_site_fract_x
_atom_site_fract_y
_atom_site_fract_z
Si Si1 0.311538 0.603325 0.081835
Si Si2 0.692974 0.734132 0.176682
Si Si3 0.006784 0.899472 0.661895
Si Si4 0.818395 0.228025 0.175468
Si Si5 0.732423 0.098599 0.890476
Si Si6 0.649117 0.104424 0.749918
Si Si7 0.482499 0.723992 0.874321
Si Si8 0.872530 0.398268 0.249319
O O1 0.349831 0.500000 0.980839
O O2 0.197700 0.603708 0.437095
O O3 0.296099 0.651027 0.959323
O O4 0.391877 0.665961 0.995404
O O5 0.792498 0.750950 0.062943
O O6 0.589886 0.720023 0.523848
O O7 0.677502 0.821608 0.109484
O O8 0.000000 0.890697 0.500000
O O9 0.135790 0.890880 0.399243
O O10 0.968141 0.000000 0.790183
O O11 0.932487 0.827141 0.915521
O O12 0.723672 0.161521 0.461504
O O13 0.828155 0.319657 0.245050
O O14 0.710430 0.100805 0.766666
O O15 0.699558 0.000000 0.023622
O O16 0.627351 0.000000 0.756761
O O17 0.549449 0.172061 0.025041
O O18 0.500000 0.686433 0.000000
O O19 0.861502 0.500000 0.212834
O O20 0.000000 0.382885 0.000000
#
# Coordination Sequence:
#
# PCOD9155605 Si02
#       8
#     4   4   4   4   4   4   4   4
#     4  11  25  47  71  95 127 164 209 267 324 380
#     4  12  24  40  64  94 129 165 219 264 319 379
#     4  10  21  36  58  93 131 170 216 260 313 377
#     4  12  23  38  65  93 129 172 211 265 322 380
#     4  10  22  40  61  89 129 172 216 262 311 376
#     4  11  24  42  62  93 130 170 217 261 314 379
#     4  12  24  44  65  95 129 167 214 268 317 378
#     4  10  23  43  68  96 128 166 208 259 324 390
#
# _framework density 19.753086
#
# number of rings (size 3 to 8) (size 9 to 14) (size 15 to 20)
#    0.000    1.000    5.000    0.750    3.500    3.000 
#    0.000    3.125    0.000    2.625    0.000    0.000 
#    0.000    0.000    0.000    0.000    0.000    0.000 
#
# Total GULP energy -178636.655021 kJ/mol
# GULP energy per Si atom -5582.395469 kJ/mol
# Density = 1.970813 g / cm^3
# Si number density = 19.753086 Si / 1000 Ang^3
#
#
#
# Elastic Constant Matrix: (Units=GPa)
#
#
# Indices 1 2 3 4 5 6 
#
# 1 99.7619 42.1295 24.8052 0.0000 13.4260 0.0000
# 2 42.1295 151.2772 40.6109 0.0000 17.9079 0.0000
# 3 24.8052 40.6109 46.2154 0.0000 4.6665 0.0000
# 4 0.0000 0.0000 0.0000 117.4722 0.0000 -29.5431
# 5 13.4260 17.9079 4.6665 0.0000 25.3865 0.0000
# 6 0.0000 0.0000 0.0000 -29.5431 0.0000 33.1803
#
#
#
# Elastic Compliance Matrix: (Units=1/GPa)
#
#
# Indices 1 2 3 4 5 6 
#
# 1 0.012536 -0.001658 -0.004809 0.000000 -0.004576 0.000000
# 2 -0.001658 0.009484 -0.006986 0.000000 -0.004529 0.000000
# 3 -0.004809 -0.006986 0.030164 0.000000 0.001927 0.000000
# 4 0.000000 0.000000 0.000000 0.010969 0.000000 0.009766
# 5 -0.004576 -0.004529 0.001927 0.000000 0.044651 0.000000
# 6 0.000000 0.000000 0.000000 0.009766 0.000000 0.038834
#
#
# Mechanical properties :
#
#
# Convention : Reuss Voigt Hill
#
# Bulk Modulus (GPa) = 39.56385 56.92731 48.24558
# Shear Modulus (GPa) = 27.47700 47.85505 37.66602
#
# Velocity S-wave (km/s) = 3.73369 4.92739 4.37148
# Velocity P-wave (km/s) = 6.21771 7.82651 7.06803
#
# Compressibility (1/GPa) = 0.02527560
#
# Stress axis : x y z
#
# Youngs Moduli (GPa) = 79.77172 105.44235 33.15264
#
# Poissons Ratio (x) = 0.17487 0.15943
# Poissons Ratio (y) = 0.13230 0.23162
# Poissons Ratio (z) = 0.38362 0.73666
#
# Static dielectric constant tensor:
#      x y z
#    x 1.747540 0.000000 -0.053330 
#    y 0.000000 1.714600 0.000000 
#    z -0.053330 0.000000 1.701470 
# 
# From -- ./inp_files/36367.got.cif
#   From: 2010.05.17/outbox.ucp.g08.bks.cvg/sg10_19_cif.got.tgz:36367.got - 2010.06.11 11:31:16.
