data_PCOD9155255
_publ_section_title
;
Structure prediction by ZEFSAII (Michael W. Deem and Ramdas Pophale) SiO2 
 PCOD9155255
Probable space group: P 2/M
;
_chemical_formula_sum "Si O2"
_cell_formula_units_Z 28
_cell_length_a 18.000000
_cell_length_b 9.000000
_cell_length_c 15.000000
_cell_angle_alpha 90.000000
_cell_angle_beta 40.000000
_cell_angle_gamma 90.000000
_cell_volume 1561.973892
_symmetry_space_group_name_H-M "P 2/M"
_symmetry_group_IT_number 10
_symmetry_cell_setting 'monoclinic'
loop_
_space_group_symop_operation_xyz
x,y,z
-x,y,-z
-x,-y,-z
x,-y,z
loop_
_atom_site_type_symbol
_atom_site_label
_atom_site_fract_x
_atom_site_fract_y
_atom_site_fract_z
Si Si1 0.187246 0.677686 0.677201
Si Si2 0.863913 0.830127 0.098203
Si Si3 0.125826 0.824683 0.415704
Si Si4 0.922553 0.324106 0.867468
Si Si5 0.760382 0.174054 0.877697
Si Si6 0.519312 0.320818 0.085724
Si Si7 0.708734 0.678815 0.598994
O O1 0.192321 0.500000 0.687854
O O2 0.200810 0.762114 0.757524
O O3 0.276063 0.720691 0.518079
O O4 0.058052 0.709751 0.758180
O O5 0.830746 0.000000 0.110871
O O6 0.856847 0.731408 0.016520
O O7 0.000000 0.828865 0.000000
O O8 0.209628 0.807374 0.253948
O O9 0.183457 0.741064 0.444498
O O10 0.000000 0.770605 0.500000
O O11 0.114895 0.000000 0.446972
O O12 0.911216 0.500000 0.867248
O O13 0.865289 0.241936 0.837387
O O14 0.751587 0.000000 0.904987
O O15 0.639799 0.254134 0.007721
O O16 0.525798 0.500000 0.082794
O O17 0.409888 0.272113 0.245284
O O18 0.500000 0.277675 0.000000
O O19 0.713166 0.500000 0.599470
#
# Coordination Sequence:
#
# PCOD9155255 Si02
#       7
#     4   4   4   4   4   4   4
#     4   9  18  32  51  78 107 135 169 208 254 305
#     4   9  17  30  50  76 106 138 169 203 248 305
#     4  10  21  34  48  71 104 137 166 204 256 307
#     4  10  19  32  52  77 106 137 169 208 254 305
#     4  11  22  34  51  74 102 135 173 215 256 303
#     4  10  20  36  55  73  97 133 178 219 256 299
#     4  10  20  34  53  75 100 133 173 215 252 297
#
# _framework density 17.926036
#
# number of rings (size 3 to 8) (size 9 to 14) (size 15 to 20)
#    0.000    2.143    1.429    2.143    0.000    4.571 
#    0.000    0.000    0.000    0.857    0.000    6.000 
#    0.000    0.000    0.000    0.000    0.000    0.000 
#
# Total GULP energy -156231.994294 kJ/mol
# GULP energy per Si atom -5579.714082 kJ/mol
# Density = 1.788524 g / cm^3
# Si number density = 17.926036 Si / 1000 Ang^3
#
#
#
# Elastic Constant Matrix: (Units=GPa)
#
#
# Indices 1 2 3 4 5 6 
#
# 1 4.5210 7.2951 -6.4895 0.0000 4.3621 0.0000
# 2 7.2951 9.8057 28.0978 0.0000 8.7483 0.0000
# 3 -6.4895 28.0978 90.1536 0.0000 4.7849 0.0000
# 4 0.0000 0.0000 0.0000 8.3561 0.0000 -10.6243
# 5 4.3621 8.7483 4.7849 0.0000 26.7558 0.0000
# 6 0.0000 0.0000 0.0000 -10.6243 0.0000 11.2102
#
#
#
# Elastic Compliance Matrix: (Units=1/GPa)
#
#
# Indices 1 2 3 4 5 6 
#
# 1 0.013909 0.118976 -0.034219 0.000000 -0.035050 0.000000
# 2 0.118976 -0.047686 0.023855 0.000000 -0.008071 0.000000
# 3 -0.034219 0.023855 0.001325 0.000000 -0.002458 0.000000
# 4 0.000000 0.000000 0.000000 -0.583810 0.000000 -0.553295
# 5 -0.035050 -0.008071 -0.002458 0.000000 0.046168 0.000000
# 6 0.000000 0.000000 0.000000 -0.553295 0.000000 -0.435171
#
#
# Mechanical properties :
#
#
# Convention : Reuss Voigt Hill
#
# Bulk Modulus (GPa) = 5.41211 18.03188 11.72200
# Shear Modulus (GPa) = -4.30701 14.30289 4.99794
#
# Velocity S-wave (km/s) = -1.55173 2.82775 1.67157
# Velocity P-wave (km/s) = 0.42989 4.55439 3.20606
#
# Compressibility (1/GPa) = 0.18477069
#
# Stress axis : x y z
#
# Youngs Moduli (GPa) = 71.89467 -20.97037 754.88620
#
# Poissons Ratio (x) = 2.49497 25.83163
# Poissons Ratio (y) = -8.55374 -18.00766
# Poissons Ratio (z) = 2.46018 0.50024
#
# Static dielectric constant tensor:
#      x y z
#    x 1.585100 0.000000 0.012310 
#    y 0.000000 1.597080 0.000000 
#    z 0.012310 0.000000 1.633370 
# 
# From -- ./inp_files/48788.got.cif
#   From: 2010.05.17/outbox.ucp.g08.bks.cvg/sg10_25_cif.got.tgz:48788.got - 2010.06.11 11:31:16.
