data_PCOD9155055
_publ_section_title
;
Structure prediction by ZEFSAII (Michael W. Deem and Ramdas Pophale) SiO2 
 PCOD9155055
Probable space group: P 2/M
;
_chemical_formula_sum "Si O2"
_cell_formula_units_Z 20
_cell_length_a 5.297678
_cell_length_b 11.096713
_cell_length_c 21.503107
_cell_angle_alpha 90.000000
_cell_angle_beta 119.884742
_cell_angle_gamma 90.000000
_cell_volume 1096.011182
_symmetry_space_group_name_H-M "P 2/M"
_symmetry_group_IT_number 10
_symmetry_cell_setting 'monoclinic'
loop_
_space_group_symop_operation_xyz
x,y,z
-x,y,-z
-x,-y,-z
x,-y,z
loop_
_atom_site_type_symbol
_atom_site_label
_atom_site_fract_x
_atom_site_fract_y
_atom_site_fract_z
Si Si1 0.290922 0.852756 0.792376
Si Si2 0.665069 0.146832 0.957708
Si Si3 0.286055 0.866208 0.414754
Si Si4 0.146838 0.631007 0.450533
Si Si5 0.377253 0.855540 0.288735
O O1 0.491556 0.815408 0.874793
O O2 0.427486 0.810619 0.743889
O O3 0.957202 0.813375 0.758773
O O4 0.286667 0.000000 0.791997
O O5 0.666776 0.000000 0.957436
O O6 0.500000 0.184413 0.000000
O O7 0.000000 0.186166 0.000000
O O8 0.500000 0.875578 0.500000
O O9 0.085286 0.752184 0.404879
O O10 0.451485 0.837844 0.370694
O O11 0.145503 0.000000 0.390419
O O12 0.500000 0.628001 0.500000
O O13 0.059025 0.500000 0.413264
O O14 0.000000 0.640837 0.500000
O O15 0.374432 0.000000 0.280777
#
# Coordination Sequence:
#
# PCOD9155055 Si02
#       5
#     4   4   4   4   4
#     4   9  16  26  37  51  75 104 134 169 210 256
#     4   9  15  22  34  51  69  94 132 171 200 236
#     4   9  18  31  47  67  89 115 153 196 228 258
#     4   9  18  32  48  65  86 112 143 183 231 276
#     4   9  17  27  38  53  76 106 136 170 215 258
#
# _framework density 18.247986999999998
#
# number of rings (size 3 to 8) (size 9 to 14) (size 15 to 20)
#    0.000    3.000    0.000    1.200    0.000    8.400 
#    0.000    6.000    0.000    0.000    0.000    0.000 
#    0.000    0.000    0.000    0.000    0.000   20.000 
#
# Total GULP energy -111359.647486 kJ/mol
# GULP energy per Si atom -5567.982374 kJ/mol
# Density = 1.820645 g / cm^3
# Si number density = 18.247987 Si / 1000 Ang^3
#
#
#
# Elastic Constant Matrix: (Units=GPa)
#
#
# Indices 1 2 3 4 5 6 
#
# 1 123.8549 7.3463 56.3916 0.0000 -13.7260 0.0000
# 2 7.3463 87.2367 4.9295 0.0000 -16.7741 0.0000
# 3 56.3916 4.9295 135.3528 0.0000 -3.7595 0.0000
# 4 0.0000 0.0000 0.0000 1.2261 0.0000 -1.1158
# 5 -13.7260 -16.7741 -3.7595 0.0000 30.7717 0.0000
# 6 0.0000 0.0000 0.0000 -1.1158 0.0000 2.4727
#
#
#
# Elastic Compliance Matrix: (Units=1/GPa)
#
#
# Indices 1 2 3 4 5 6 
#
# 1 0.010469 0.000175 -0.004250 0.000000 0.004246 0.000000
# 2 0.000175 0.012818 -0.000345 0.000000 0.007023 0.000000
# 3 -0.004250 -0.000345 0.009145 0.000000 -0.000966 0.000000
# 4 0.000000 0.000000 0.000000 1.383991 0.000000 0.624542
# 5 0.004246 0.007023 -0.000966 0.000000 0.038102 0.000000
# 6 0.000000 0.000000 0.000000 0.624542 0.000000 0.686243
#
#
# Mechanical properties :
#
#
# Convention : Reuss Voigt Hill
#
# Bulk Modulus (GPa) = 42.38668 53.75326 48.06997
# Shear Modulus (GPa) = 2.31753 25.41259 13.86506
#
# Velocity S-wave (km/s) = 1.12817 3.73584 2.75946
# Velocity P-wave (km/s) = 4.99756 6.93756 6.04588
#
# Compressibility (1/GPa) = 0.02359232
#
# Stress axis : x y z
#
# Youngs Moduli (GPa) = 95.51754 78.01361 109.35462
#
# Poissons Ratio (x) = -0.01365 0.46478
# Poissons Ratio (y) = -0.01671 0.03769
# Poissons Ratio (z) = 0.40597 0.02689
#
# Static dielectric constant tensor:
#      x y z
#    x 1.672930 0.000000 0.019800 
#    y 0.000000 1.648960 0.000000 
#    z 0.019800 0.000000 1.651480 
# 
# From -- ./inp_files/8769.got.cif
#   From: 2010.05.17/outbox.cif.g08.bks.cpg/sg10_5_cif.got.tgz:8769.got - 2010.06.03 11:33:40.
