data_PCOD9155614
_publ_section_title
;
Structure prediction by ZEFSAII (Michael W. Deem and Ramdas Pophale) SiO2 
 PCOD9155614
Probable space group: P 2/M
;
_chemical_formula_sum "Si O2"
_cell_formula_units_Z 28
_cell_length_a 27.000000
_cell_length_b 9.000000
_cell_length_c 9.000000
_cell_angle_alpha 90.000000
_cell_angle_beta 140.000000
_cell_angle_gamma 90.000000
_cell_volume 1405.776502
_symmetry_space_group_name_H-M "P 2/M"
_symmetry_group_IT_number 10
_symmetry_cell_setting 'monoclinic'
loop_
_space_group_symop_operation_xyz
x,y,z
-x,y,-z
-x,-y,-z
x,-y,z
loop_
_atom_site_type_symbol
_atom_site_label
_atom_site_fract_x
_atom_site_fract_y
_atom_site_fract_z
Si Si1 0.968118 0.178506 0.591388
Si Si2 0.891776 0.322483 0.930364
Si Si3 0.452359 0.322607 0.186727
Si Si4 0.750498 0.825473 0.763866
Si Si5 0.833822 0.179106 0.492340
Si Si6 0.324101 0.172676 0.734554
Si Si7 0.380405 0.319940 0.340809
O O1 0.881015 0.212787 0.449372
O O2 0.000000 0.216103 0.500000
O O3 0.977318 0.000000 0.628214
O O4 0.024745 0.264715 0.831289
O O5 0.886831 0.500000 0.916008
O O6 0.830629 0.257542 0.910887
O O7 0.872886 0.255502 0.724993
O O8 0.454176 0.500000 0.193560
O O9 0.406689 0.278322 0.233364
O O10 0.541537 0.275190 0.390811
O O11 0.400932 0.264215 0.935691
O O12 0.707039 0.814257 0.504587
O O13 0.695025 0.755779 0.762031
O O14 0.765260 0.000000 0.829127
O O15 0.744128 0.221508 0.308254
O O16 0.836848 0.000000 0.520019
O O17 0.339922 0.000000 0.800552
O O18 0.371225 0.500000 0.325691
#
# Coordination Sequence:
#
# PCOD9155614 Si02
#       7
#     4   4   4   4   4   4   4
#     4  10  21  37  57  81 110 144 180 217 261 313
#     4  11  22  36  56  81 108 139 177 220 266 317
#     4   9  19  35  54  76 107 144 177 213 263 319
#     4  10  21  37  56  79 106 138 177 220 266 315
#     4   9  19  37  57  77 106 143 179 217 262 313
#     4   9  19  34  52  77 106 136 178 225 263 306
#     4   9  19  36  54  76 107 142 179 217 261 315
#
# _framework density 19.917818
#
# number of rings (size 3 to 8) (size 9 to 14) (size 15 to 20)
#    0.000    2.429    0.000    3.857    0.000    8.286 
#    0.000    5.714    0.000    0.000    0.000    0.000 
#    0.000    0.000    0.000    0.000    0.000    0.000 
#
# Total GULP energy -156199.618056 kJ/mol
# GULP energy per Si atom -5578.557788 kJ/mol
# Density = 1.987248 g / cm^3
# Si number density = 19.917818 Si / 1000 Ang^3
#
#
#
# Elastic Constant Matrix: (Units=GPa)
#
#
# Indices 1 2 3 4 5 6 
#
# 1 77.7196 4.5792 -27.9794 0.0000 7.9382 0.0000
# 2 4.5792 15.0901 0.7736 0.0000 1.1446 0.0000
# 3 -27.9794 0.7736 27.5058 0.0000 9.1482 0.0000
# 4 0.0000 0.0000 0.0000 23.3172 0.0000 1.2032
# 5 7.9382 1.1446 9.1482 0.0000 18.2744 0.0000
# 6 0.0000 0.0000 0.0000 1.2032 0.0000 38.1881
#
#
#
# Elastic Compliance Matrix: (Units=1/GPa)
#
#
# Indices 1 2 3 4 5 6 
#
# 1 0.035125 -0.010202 0.049045 0.000000 -0.039171 0.000000
# 2 -0.010202 0.069556 -0.014828 0.000000 0.007498 0.000000
# 3 0.049045 -0.014828 0.112104 0.000000 -0.076495 0.000000
# 4 0.000000 0.000000 0.000000 0.042957 0.000000 -0.001353
# 5 -0.039171 0.007498 -0.076495 0.000000 0.109561 0.000000
# 6 0.000000 0.000000 0.000000 -0.001353 0.000000 0.026229
#
#
# Mechanical properties :
#
#
# Convention : Reuss Voigt Hill
#
# Bulk Modulus (GPa) = 3.77624 8.34025 6.05825
# Shear Modulus (GPa) = 11.47387 25.48541 18.47964
#
# Velocity S-wave (km/s) = 2.40273 3.58093 3.04928
# Velocity P-wave (km/s) = 3.09798 4.61452 3.93010
#
# Compressibility (1/GPa) = 0.26481367
#
# Stress axis : x y z
#
# Youngs Moduli (GPa) = 28.46971 14.37695 8.92032
#
# Poissons Ratio (x) = 0.14668 -0.43749
# Poissons Ratio (y) = 0.29045 0.13227
# Poissons Ratio (z) = -1.39629 0.21318
#
# Static dielectric constant tensor:
#      x y z
#    x 1.701710 0.000000 -0.008640 
#    y 0.000000 1.665490 0.000000 
#    z -0.008640 0.000000 1.724600 
# 
# From -- ./inp_files/37091.got.cif
#   From: 2010.05.17/outbox.ucp.g08.bks.cvg/sg10_19_cif.got.tgz:37091.got - 2010.06.11 11:31:16.
