data_PCOD9155583
_publ_section_title
;
Structure prediction by ZEFSAII (Michael W. Deem and Ramdas Pophale) SiO2 
 PCOD9155583
Probable space group: P 2/M
;
_chemical_formula_sum "Si O2"
_cell_formula_units_Z 20
_cell_length_a 15.000000
_cell_length_b 12.000000
_cell_length_c 12.000000
_cell_angle_alpha 90.000000
_cell_angle_beta 30.000000
_cell_angle_gamma 90.000000
_cell_volume 1080.000000
_symmetry_space_group_name_H-M "P 2/M"
_symmetry_group_IT_number 10
_symmetry_cell_setting 'monoclinic'
loop_
_space_group_symop_operation_xyz
x,y,z
-x,y,-z
-x,-y,-z
x,-y,z
loop_
_atom_site_type_symbol
_atom_site_label
_atom_site_fract_x
_atom_site_fract_y
_atom_site_fract_z
Si Si1 0.997015 0.500000 0.364466
Si Si2 0.786227 0.867374 0.431438
Si Si3 0.573340 0.500000 0.794771
Si Si4 0.868901 0.740240 0.869857
Si Si5 0.531633 0.747552 0.099562
Si Si6 0.285988 0.868237 0.748021
O O1 0.084271 0.611059 0.213850
O O2 0.000000 0.500000 0.500000
O O3 0.786917 0.500000 0.563375
O O4 0.604403 0.823703 0.683961
O O5 0.792246 0.843852 0.291153
O O6 0.944605 0.804903 0.324202
O O7 0.799427 0.000000 0.428894
O O8 0.504652 0.618553 0.823703
O O9 0.500000 0.500000 0.000000
O O10 0.731353 0.776144 0.921938
O O11 0.776988 0.781743 0.087220
O O12 0.500000 0.755655 0.000000
O O13 0.500000 0.862412 0.500000
O O14 0.242995 0.000000 0.822842
#
# Coordination Sequence:
#
# PCOD9155583 Si02
#       6
#     2   4   2   4   4   4
#     4  12  24  42  69  99 133 176 223 264 336 405
#     4  11  24  42  67  97 131 175 221 270 332 396
#     4  10  20  42  65  89 124 173 220 266 321 389
#     4  12  24  41  69  99 129 174 224 277 324 391
#     4  11  23  41  65  94 133 174 220 272 328 396
#     4  10  21  43  71  95 129 178 224 270 332 393
#
# _framework density 18.518519000000001
#
# number of rings (size 3 to 8) (size 9 to 14) (size 15 to 20)
#    0.000    1.000    4.000    4.200    0.000    2.800 
#    0.000    4.500    0.000    0.000    0.000    0.000 
#    0.000    0.000    0.000    0.000    0.000    0.000 
#
# Total GULP energy -111604.573201 kJ/mol
# GULP energy per Si atom -5580.228660 kJ/mol
# Density = 1.847637 g / cm^3
# Si number density = 18.518519 Si / 1000 Ang^3
#
#
#
# Elastic Constant Matrix: (Units=GPa)
#
#
# Indices 1 2 3 4 5 6 
#
# 1 136.9950 52.2020 34.9356 0.0000 -11.0227 0.0000
# 2 52.2020 127.0852 44.4865 0.0000 13.8965 0.0000
# 3 34.9356 44.4865 95.8594 0.0000 -3.8284 0.0000
# 4 0.0000 0.0000 0.0000 44.1639 0.0000 7.2283
# 5 -11.0227 13.8965 -3.8284 0.0000 47.3471 0.0000
# 6 0.0000 0.0000 0.0000 7.2283 0.0000 23.9644
#
#
#
# Elastic Compliance Matrix: (Units=1/GPa)
#
#
# Indices 1 2 3 4 5 6 
#
# 1 0.009334 -0.003613 -0.001601 0.000000 0.003104 0.000000
# 2 -0.003613 0.011277 -0.004095 0.000000 -0.004482 0.000000
# 3 -0.001601 -0.004095 0.012991 0.000000 0.001880 0.000000
# 4 0.000000 0.000000 0.000000 0.023819 0.000000 -0.007184
# 5 0.003104 -0.004482 0.001880 0.000000 0.023311 0.000000
# 6 0.000000 0.000000 0.000000 -0.007184 0.000000 0.043896
#
#
# Mechanical properties :
#
#
# Convention : Reuss Voigt Hill
#
# Bulk Modulus (GPa) = 66.74370 69.24309 67.99339
# Shear Modulus (GPa) = 33.72885 38.31612 36.02248
#
# Velocity S-wave (km/s) = 4.27237 4.55364 4.41524
# Velocity P-wave (km/s) = 7.77543 8.06969 7.92393
#
# Compressibility (1/GPa) = 0.01498269
#
# Stress axis : x y z
#
# Youngs Moduli (GPa) = 107.13045 88.67888 76.97540
#
# Poissons Ratio (x) = 0.32041 0.12325
# Poissons Ratio (y) = 0.38708 0.31525
# Poissons Ratio (z) = 0.17153 0.36318
#
# Static dielectric constant tensor:
#      x y z
#    x 1.650200 0.000000 -0.030340 
#    y 0.000000 1.643740 0.000000 
#    z -0.030340 0.000000 1.655160 
# 
# From -- ./inp_files/46474.got.cif
#   From: 2010.05.17/outbox.ucp.g08.bks.cvg/sg10_24_cif.got.tgz:46474.got - 2010.06.11 11:31:16.
