data_PCOD9155264
_publ_section_title
;
Structure prediction by ZEFSAII (Michael W. Deem and Ramdas Pophale) SiO2 
 PCOD9155264
Probable space group: P 2/M
;
_chemical_formula_sum "Si O2"
_cell_formula_units_Z 32
_cell_length_a 27.000000
_cell_length_b 9.000000
_cell_length_c 21.000000
_cell_angle_alpha 90.000000
_cell_angle_beta 20.000000
_cell_angle_gamma 90.000000
_cell_volume 1745.328791
_symmetry_space_group_name_H-M "P 2/M"
_symmetry_group_IT_number 10
_symmetry_cell_setting 'monoclinic'
loop_
_space_group_symop_operation_xyz
x,y,z
-x,y,-z
-x,-y,-z
x,-y,z
loop_
_atom_site_type_symbol
_atom_site_label
_atom_site_fract_x
_atom_site_fract_y
_atom_site_fract_z
Si Si1 0.194253 0.820870 0.992297
Si Si2 0.871603 0.178675 0.425441
Si Si3 0.285687 0.678508 0.500548
Si Si4 0.160960 0.321099 0.784296
Si Si5 0.331789 0.821152 0.692326
Si Si6 0.384178 0.322946 0.872563
Si Si7 0.812443 0.321912 0.768849
Si Si8 0.881814 0.820801 0.559791
O O1 0.240072 0.773974 0.865676
O O2 0.305224 0.759118 0.910379
O O3 0.199103 0.000000 0.987876
O O4 0.033322 0.774025 0.208217
O O5 0.762672 0.248184 0.506548
O O6 0.844165 0.218588 0.532446
O O7 0.865939 0.000000 0.428453
O O8 0.276910 0.500000 0.504332
O O9 0.188276 0.725075 0.678478
O O10 0.448760 0.717847 0.322792
O O11 0.175818 0.500000 0.768887
O O12 0.271417 0.251016 0.701122
O O13 0.000000 0.279878 0.000000
O O14 0.500000 0.782934 0.500000
O O15 0.321499 0.000000 0.699474
O O16 0.373555 0.500000 0.874034
O O17 0.306805 0.292171 0.033446
O O18 0.830974 0.500000 0.740182
O O19 0.784681 0.249792 0.733202
O O20 0.959604 0.246918 0.617254
O O21 0.885711 0.000000 0.560897
#
# Coordination Sequence:
#
# PCOD9155264 Si02
#       8
#     4   4   4   4   4   4   4   4
#     4  10  20  35  55  79 108 139 177 224 269 317
#     4  10  21  36  54  80 107 138 180 221 263 315
#     4  10  22  38  55  77 109 145 180 221 269 320
#     4  10  21  37  56  79 106 140 183 225 268 321
#     4  10  21  35  53  80 109 138 176 221 270 323
#     4  10  21  36  54  80 110 142 181 220 265 322
#     4  10  19  32  53  81 109 138 176 217 262 316
#     4  10  19  33  54  80 110 139 174 219 264 311
#
# _framework density 18.334654
#
# number of rings (size 3 to 8) (size 9 to 14) (size 15 to 20)
#    0.000    2.000    1.250    3.000    0.000    4.000 
#    0.000    0.625    0.000    3.750    0.000    0.000 
#    0.000    0.000    0.000    0.000    0.000    0.000 
#
# Total GULP energy -178638.620087 kJ/mol
# GULP energy per Si atom -5582.456878 kJ/mol
# Density = 1.829292 g / cm^3
# Si number density = 18.334654 Si / 1000 Ang^3
#
#
#
# Elastic Constant Matrix: (Units=GPa)
#
#
# Indices 1 2 3 4 5 6 
#
# 1 96.6813 15.4327 -6.1585 0.0000 7.6047 0.0000
# 2 15.4327 18.6243 1.5375 0.0000 2.4756 0.0000
# 3 -6.1585 1.5375 15.7817 0.0000 6.2964 0.0000
# 4 0.0000 0.0000 0.0000 15.1477 0.0000 -6.2930
# 5 7.6047 2.4756 6.2964 0.0000 32.8877 0.0000
# 6 0.0000 0.0000 0.0000 -6.2930 0.0000 2.5666
#
#
#
# Elastic Compliance Matrix: (Units=1/GPa)
#
#
# Indices 1 2 3 4 5 6 
#
# 1 0.012820 -0.010764 0.007483 0.000000 -0.003587 0.000000
# 2 -0.010764 0.063503 -0.010257 0.000000 -0.000327 0.000000
# 3 0.007483 -0.010257 0.073262 0.000000 -0.014984 0.000000
# 4 0.000000 0.000000 0.000000 -3.544877 0.000000 -8.691679
# 5 -0.003587 -0.000327 -0.014984 0.000000 0.034129 0.000000
# 6 0.000000 0.000000 0.000000 -8.691679 0.000000-20.921491
#
#
# Mechanical properties :
#
#
# Convention : Reuss Voigt Hill
#
# Bulk Modulus (GPa) = 8.16271 16.96786 12.56529
# Shear Modulus (GPa) = -0.20649 18.13877 8.96614
#
# Velocity S-wave (km/s) = -0.33595 3.14875 2.21379
# Velocity P-wave (km/s) = 2.07635 4.74280 3.66097
#
# Compressibility (1/GPa) = 0.12250836
#
# Stress axis : x y z
#
# Youngs Moduli (GPa) = 78.00157 15.74729 13.64966
#
# Poissons Ratio (x) = 0.16951 -0.10213
# Poissons Ratio (y) = 0.83963 0.14000
# Poissons Ratio (z) = -0.58365 0.16152
#
# Static dielectric constant tensor:
#      x y z
#    x 1.602970 0.000000 0.021830 
#    y 0.000000 1.614710 0.000000 
#    z 0.021830 0.000000 1.647020 
# 
# From -- ./inp_files/86826.got.cif
#   From: 2010.05.17/outbox.ucp.g08.bks.cvg/sg10_44_cif.got.tgz:86826.got - 2010.06.11 11:31:16.
