data_PCOD9155009
_publ_section_title
;
Structure prediction by ZEFSAII (Michael W. Deem and Ramdas Pophale) SiO2 
 PCOD9155009
Probable space group: P 2/M
;
_chemical_formula_sum "Si O2"
_cell_formula_units_Z 32
_cell_length_a 17.015545
_cell_length_b 9.487127
_cell_length_c 20.910734
_cell_angle_alpha 90.000000
_cell_angle_beta 148.409748
_cell_angle_gamma 90.000000
_cell_volume 1768.273076
_symmetry_space_group_name_H-M "P 2/M"
_symmetry_group_IT_number 10
_symmetry_cell_setting 'monoclinic'
loop_
_space_group_symop_operation_xyz
x,y,z
-x,y,-z
-x,-y,-z
x,-y,z
loop_
_atom_site_type_symbol
_atom_site_label
_atom_site_fract_x
_atom_site_fract_y
_atom_site_fract_z
Si Si1 0.136806 0.663356 0.224355
Si Si2 0.337524 0.668291 0.582534
Si Si3 0.491563 0.333663 0.827094
Si Si4 0.818146 0.839032 0.867276
Si Si5 0.230396 0.835889 0.700108
Si Si6 0.928731 0.835317 0.550120
Si Si7 0.209971 0.668729 0.025195
Si Si8 0.588646 0.334112 0.501006
O O1 0.143618 0.500000 0.207432
O O2 0.205365 0.757851 0.215419
O O3 0.238014 0.674539 0.357241
O O4 0.962045 0.697514 0.113476
O O5 0.316556 0.500000 0.561008
O O6 0.427465 0.689985 0.710641
O O7 0.177204 0.743336 0.478598
O O8 0.423428 0.722459 0.578976
O O9 0.519308 0.500000 0.167005
O O10 0.383280 0.250324 0.799703
O O11 0.665803 0.292545 0.941420
O O12 0.762512 0.751698 0.889815
O O13 0.763845 0.000000 0.829058
O O14 0.000000 0.842336 0.000000
O O15 0.150452 0.828624 0.574825
O O16 0.100375 0.786820 0.658743
O O17 0.261070 0.000000 0.734091
O O18 0.929628 0.000000 0.569353
O O19 0.225067 0.500000 0.047208
O O20 0.500000 0.271962 0.500000
O O21 0.543938 0.500000 0.466754
#
# Coordination Sequence:
#
# PCOD9155009 Si02
#       8
#     4   4   4   4   4   4   4   4
#     4   9  17  30  47  62  79 110 149 183 214 256
#     4   9  17  28  42  63  86 112 145 178 213 254
#     4   9  17  26  40  64  93 114 135 173 216 256
#     4   9  17  28  42  61  83 106 137 179 222 259
#     4   8  14  25  41  62  88 116 142 165 203 261
#     4   8  14  26  43  61  85 116 143 170 206 254
#     4   9  17  28  43  64  86 111 143 176 215 261
#     4   9  18  30  46  64  84 114 150 185 219 252
#
# _framework density 18.096753
#
# number of rings (size 3 to 8) (size 9 to 14) (size 15 to 20)
#    0.000    3.250    0.000    1.125    1.750    2.500 
#    0.000    3.125    0.000    0.750    0.000    0.875 
#    0.000    7.000    0.000    0.000    0.000    0.000 
#
# Total GULP energy -178136.435685 kJ/mol
# GULP energy per Si atom -5566.763615 kJ/mol
# Density = 1.805556 g / cm^3
# Si number density = 18.096753 Si / 1000 Ang^3
#
#
#
# Elastic Constant Matrix: (Units=GPa)
#
#
# Indices 1 2 3 4 5 6 
#
# 1 64.5171 12.5171 16.3680 0.0000 28.8088 0.0000
# 2 12.5171 19.3324 14.0320 0.0000 12.7842 0.0000
# 3 16.3680 14.0320 40.0071 0.0000 23.8091 0.0000
# 4 0.0000 0.0000 0.0000 7.6427 0.0000 2.7615
# 5 28.8088 12.7842 23.8091 0.0000 31.8144 0.0000
# 6 0.0000 0.0000 0.0000 2.7615 0.0000 7.7560
#
#
#
# Elastic Compliance Matrix: (Units=1/GPa)
#
#
# Indices 1 2 3 4 5 6 
#
# 1 0.027086 -0.004044 0.007151 0.000000 -0.028254 0.000000
# 2 -0.004044 0.075809 -0.016199 0.000000 -0.014678 0.000000
# 3 0.007151 -0.016199 0.050000 0.000000 -0.037385 0.000000
# 4 0.000000 0.000000 0.000000 0.150161 0.000000 -0.053465
# 5 -0.028254 -0.014678 -0.037385 0.000000 0.090893 0.000000
# 6 0.000000 0.000000 0.000000 -0.053465 0.000000 0.147969
#
#
# Mechanical properties :
#
#
# Convention : Reuss Voigt Hill
#
# Bulk Modulus (GPa) = 7.89197 23.29898 15.59547
# Shear Modulus (GPa) = 8.19215 14.83860 11.51537
#
# Velocity S-wave (km/s) = 2.12995 2.86660 2.52528
# Velocity P-wave (km/s) = 3.22791 4.88458 4.13996
#
# Compressibility (1/GPa) = 0.12671103
#
# Stress axis : x y z
#
# Youngs Moduli (GPa) = 36.91882 13.19104 20.00001
#
# Poissons Ratio (x) = 0.05335 -0.14303
# Poissons Ratio (y) = 0.14930 0.32399
# Poissons Ratio (z) = -0.26402 0.21369
#
# Static dielectric constant tensor:
#      x y z
#    x 1.635120 0.000000 0.022970 
#    y 0.000000 1.612620 0.000000 
#    z 0.022970 0.000000 1.657640 
# 
# From -- ./inp_files/79917.got.cif
#   From: 2010.05.17/outbox.cif.g08.bks.cpg/sg10_40_cif.got.tgz:79917.got - 2010.06.03 11:33:40.
