data_PCOD9155919
_publ_section_title
;
Structure prediction by ZEFSAII (Michael W. Deem and Ramdas Pophale) SiO2 
 PCOD9155919
Probable space group: P 21/M
;
_chemical_formula_sum "Si O2"
_cell_formula_units_Z 32
_cell_length_a 24.557194
_cell_length_b 8.823761
_cell_length_c 17.790719
_cell_angle_alpha 90.000000
_cell_angle_beta 146.945397
_cell_angle_gamma 90.000000
_cell_volume 2102.671377
_symmetry_space_group_name_H-M "P 21/M"
_symmetry_group_IT_number 11
_symmetry_cell_setting 'monoclinic'
loop_
_space_group_symop_operation_xyz
x,y,z
-x,1/2+y,-z
-x,-y,-z
x,1/2-y,z
loop_
_atom_site_type_symbol
_atom_site_label
_atom_site_fract_x
_atom_site_fract_y
_atom_site_fract_z
Si Si1 0.773210 0.066970 0.716986
Si Si2 0.929821 0.074521 0.021469
Si Si3 0.741508 0.425741 0.916150
Si Si4 0.890737 0.931884 0.387294
Si Si5 0.609259 0.930643 0.636138
Si Si6 0.928186 0.568441 0.593186
Si Si7 0.149501 0.432088 0.821652
Si Si8 0.124882 0.570473 0.313165
O O1 0.762728 0.250000 0.711609
O O2 0.791438 0.027103 0.651374
O O3 0.681467 0.989543 0.652915
O O4 0.873489 0.027370 0.880129
O O5 0.963398 0.250000 0.053725
O O6 0.842830 0.069639 0.983521
O O7 0.019761 0.971325 0.152396
O O8 0.713590 0.250000 0.892611
O O9 0.659386 0.511503 0.771606
O O10 0.770487 0.500234 0.028508
O O11 0.897152 0.750000 0.393092
O O12 0.867814 0.973460 0.447026
O O13 0.830402 0.975466 0.242522
O O14 0.000000 0.000000 0.500000
O O15 0.605434 0.750000 0.631090
O O16 0.500000 0.000000 0.500000
O O17 0.940871 0.750000 0.610665
O O18 0.875411 0.512611 0.607547
O O19 0.038993 0.495230 0.715003
O O20 0.147120 0.250000 0.825535
O O21 0.130090 0.750000 0.331106
#
# Coordination Sequence:
#
# PCOD9155919 Si02
#       8
#     4   4   4   4   4   4   4   4
#     4   9  20  35  47  64  89 117 151 190 229 268
#     4   9  17  29  43  59  86 120 152 187 226 266
#     4  10  19  31  47  69  94 121 152 188 229 273
#     4   8  16  27  39  56  81 116 157 195 228 264
#     4  11  22  37  56  73  91 117 147 185 230 276
#     4  10  18  28  40  57  87 126 159 191 231 268
#     4  10  17  27  43  63  86 116 158 198 229 267
#     4  11  20  28  42  63  90 121 156 194 224 263
#
# _framework density 15.218736
#
# number of rings (size 3 to 8) (size 9 to 14) (size 15 to 20)
#    0.000    2.250    1.250    3.750    0.000    4.000 
#    0.000    0.000    0.000    0.000    0.000    0.000 
#    0.000    1.000    0.000    3.000    0.000    4.625 
#
# Total GULP energy -178337.965990 kJ/mol
# GULP energy per Si atom -5573.061437 kJ/mol
# Density = 1.518410 g / cm^3
# Si number density = 15.218736 Si / 1000 Ang^3
#
#
#
# Elastic Constant Matrix: (Units=GPa)
#
#
# Indices 1 2 3 4 5 6 
#
# 1 107.1576 43.6190 60.6015 0.0000 -34.9170 0.0000
# 2 43.6190 63.8119 39.2520 0.0000 -11.9914 0.0000
# 3 60.6015 39.2520 80.8931 0.0000 -19.2168 0.0000
# 4 0.0000 0.0000 0.0000 19.5840 0.0000 -1.5604
# 5 -34.9170 -11.9914 -19.2168 0.0000 24.1517 0.0000
# 6 0.0000 0.0000 0.0000 -1.5604 0.0000 18.5840
#
#
#
# Elastic Compliance Matrix: (Units=1/GPa)
#
#
# Indices 1 2 3 4 5 6 
#
# 1 0.026794 -0.006891 -0.010283 0.000000 0.027134 0.000000
# 2 -0.006891 0.024293 -0.007555 0.000000 -0.003912 0.000000
# 3 -0.010283 -0.007555 0.023809 0.000000 0.000326 0.000000
# 4 0.000000 0.000000 0.000000 0.051406 0.000000 0.004316
# 5 0.027134 -0.003912 0.000326 0.000000 0.078950 0.000000
# 6 0.000000 0.000000 0.000000 0.004316 0.000000 0.054172
#
#
# Mechanical properties :
#
#
# Convention : Reuss Voigt Hill
#
# Bulk Modulus (GPa) = 39.31077 59.86750 49.58913
# Shear Modulus (GPa) = 15.75484 19.68996 17.72240
#
# Velocity S-wave (km/s) = 3.22098 3.60084 3.41620
# Velocity P-wave (km/s) = 6.30235 7.53070 6.94374
#
# Compressibility (1/GPa) = 0.02543832
#
# Stress axis : x y z
#
# Youngs Moduli (GPa) = 37.32174 41.16342 42.00041
#
# Poissons Ratio (x) = 0.28365 0.43191
# Poissons Ratio (y) = 0.25718 0.31731
# Poissons Ratio (z) = 0.38380 0.31099
#
# Static dielectric constant tensor:
#      x y z
#    x 1.534570 0.000000 -0.043840 
#    y 0.000000 1.508950 0.000000 
#    z -0.043840 0.000000 1.490000 
# 
# From -- ./inp_files/61799.got.cif
#   From: 2010.05.17/outbox.cif.g08.bks.cpg/sg11_31_cif.got.tgz:61799.got - 2010.06.03 12:22:45.
