data_PCOD9155127
_publ_section_title
;
Structure prediction by ZEFSAII (Michael W. Deem and Ramdas Pophale) SiO2 
 PCOD9155127
Probable space group: P 2/M
;
_chemical_formula_sum "Si O2"
_cell_formula_units_Z 32
_cell_length_a 27.000000
_cell_length_b 9.000000
_cell_length_c 21.000000
_cell_angle_alpha 90.000000
_cell_angle_beta 160.000000
_cell_angle_gamma 90.000000
_cell_volume 1745.328791
_symmetry_space_group_name_H-M "P 2/M"
_symmetry_group_IT_number 10
_symmetry_cell_setting 'monoclinic'
loop_
_space_group_symop_operation_xyz
x,y,z
-x,y,-z
-x,-y,-z
x,-y,z
loop_
_atom_site_type_symbol
_atom_site_label
_atom_site_fract_x
_atom_site_fract_y
_atom_site_fract_z
Si Si1 0.647791 0.179217 0.326952
Si Si2 0.113411 0.676422 0.730278
Si Si3 0.630723 0.175278 0.449403
Si Si4 0.325880 0.822642 0.887180
Si Si5 0.782375 0.677746 0.366561
Si Si6 0.339142 0.326737 0.384633
Si Si7 0.311556 0.324986 0.211570
Si Si8 0.715615 0.174341 0.950350
O O1 0.676616 0.229090 0.434594
O O2 0.744874 0.254820 0.390097
O O3 0.665378 0.000000 0.345340
O O4 0.479079 0.210543 0.106361
O O5 0.124182 0.500000 0.732262
O O6 0.193780 0.759133 0.769641
O O7 0.198705 0.726227 0.896289
O O8 0.945625 0.712983 0.540348
O O9 0.696867 0.248663 0.592503
O O10 0.659156 0.000000 0.486432
O O11 0.456174 0.193984 0.244013
O O12 0.320221 0.749136 0.810971
O O13 0.312845 0.000000 0.866155
O O14 0.766359 0.500000 0.348831
O O15 0.302863 0.500000 0.345961
O O16 0.276808 0.272432 0.241420
O O17 0.513701 0.317044 0.586216
O O18 0.273300 0.500000 0.159292
O O19 0.250682 0.228140 0.080453
O O20 0.748647 0.000000 0.998992
#
# Coordination Sequence:
#
# PCOD9155127 Si02
#       8
#     4   4   4   4   4   4   4   4
#     4  10  21  38  56  78 107 139 174 216 263 311
#     4  11  23  38  55  77 108 140 173 218 264 309
#     4   9  17  30  47  71 103 133 169 215 256 302
#     4  11  22  39  61  82 104 134 174 216 263 318
#     4  11  25  40  54  79 108 136 176 218 261 315
#     4   8  14  24  40  65  98 135 172 206 249 306
#     4   8  14  25  40  64 100 136 169 208 254 302
#     4  10  18  30  49  74 102 134 176 216 255 310
#
# _framework density 18.334654
#
# number of rings (size 3 to 8) (size 9 to 14) (size 15 to 20)
#    0.000    2.250    1.250    3.000    0.000    7.500 
#    0.000    2.500    0.000    0.000    0.000    0.875 
#    0.000    7.000    0.000    0.000    0.000    0.000 
#
# Total GULP energy -178503.959206 kJ/mol
# GULP energy per Si atom -5578.248725 kJ/mol
# Density = 1.829292 g / cm^3
# Si number density = 18.334654 Si / 1000 Ang^3
#
#
#
# Elastic Constant Matrix: (Units=GPa)
#
#
# Indices 1 2 3 4 5 6 
#
# 1 142.7561 30.8603 21.2403 0.0000 -21.0117 0.0000
# 2 30.8603 25.9381 10.1708 0.0000 3.9034 0.0000
# 3 21.2403 10.1708 7.9775 0.0000 1.1163 0.0000
# 4 0.0000 0.0000 0.0000 18.4811 0.0000 -1.9308
# 5 -21.0117 3.9034 1.1163 0.0000 27.4705 0.0000
# 6 0.0000 0.0000 0.0000 -1.9308 0.0000 35.1879
#
#
#
# Elastic Compliance Matrix: (Units=1/GPa)
#
#
# Indices 1 2 3 4 5 6 
#
# 1 0.016036 -0.007496 -0.035206 0.000000 0.014762 0.000000
# 2 -0.007496 0.081961 -0.082574 0.000000 -0.014025 0.000000
# 3 -0.035206 -0.082574 0.328359 0.000000 -0.028538 0.000000
# 4 0.000000 0.000000 0.000000 0.054421 0.000000 0.002986
# 5 0.014762 -0.014025 -0.028538 0.000000 0.050846 0.000000
# 6 0.000000 0.000000 0.000000 0.002986 0.000000 0.028583
#
#
# Mechanical properties :
#
#
# Convention : Reuss Voigt Hill
#
# Bulk Modulus (GPa) = 5.68814 33.46827 19.57821
# Shear Modulus (GPa) = 5.75136 23.85458 14.80297
#
# Velocity S-wave (km/s) = 1.77304 3.61094 2.84452
# Velocity P-wave (km/s) = 2.70198 5.97318 4.63571
#
# Compressibility (1/GPa) = 0.17580429
#
# Stress axis : x y z
#
# Youngs Moduli (GPa) = 62.35845 12.20086 3.04545
#
# Poissons Ratio (x) = 0.09146 0.10722
# Poissons Ratio (y) = 0.46745 0.25148
# Poissons Ratio (z) = 2.19537 1.00748
#
# Static dielectric constant tensor:
#      x y z
#    x 1.645780 0.000000 -0.018840 
#    y 0.000000 1.611520 0.000000 
#    z -0.018840 0.000000 1.641080 
# 
# From -- ./inp_files/86996.got.cif
#   From: 2010.05.17/outbox.ucp.g08.bks.cvg/sg10_44_cif.got.tgz:86996.got - 2010.06.11 11:31:16.
