data_PCOD9155490
_publ_section_title
;
Structure prediction by ZEFSAII (Michael W. Deem and Ramdas Pophale) SiO2 
 PCOD9155490
Probable space group: P 2/M
;
_chemical_formula_sum "Si O2"
_cell_formula_units_Z 32
_cell_length_a 24.000000
_cell_length_b 9.000000
_cell_length_c 15.000000
_cell_angle_alpha 90.000000
_cell_angle_beta 30.000000
_cell_angle_gamma 90.000000
_cell_volume 1620.000000
_symmetry_space_group_name_H-M "P 2/M"
_symmetry_group_IT_number 10
_symmetry_cell_setting 'monoclinic'
loop_
_space_group_symop_operation_xyz
x,y,z
-x,y,-z
-x,-y,-z
x,-y,z
loop_
_atom_site_type_symbol
_atom_site_label
_atom_site_fract_x
_atom_site_fract_y
_atom_site_fract_z
Si Si1 0.625560 0.679139 0.851161
Si Si2 0.011897 0.824616 0.378144
Si Si3 0.626788 0.671268 0.358657
Si Si4 0.655671 0.178223 0.506123
Si Si5 0.142077 0.676920 0.548724
Si Si6 0.259218 0.824002 0.962137
Si Si7 0.908016 0.820340 0.201440
Si Si8 0.421417 0.177816 0.903043
O O1 0.626776 0.500000 0.850791
O O2 0.728515 0.726617 0.645327
O O3 0.500000 0.728333 0.000000
O O4 0.639223 0.742449 0.931391
O O5 0.924211 0.724901 0.447226
O O6 0.000000 0.802534 0.500000
O O7 0.137127 0.792399 0.170798
O O8 0.989737 0.000000 0.390558
O O9 0.500000 0.679555 0.500000
O O10 0.651849 0.500000 0.345631
O O11 0.634407 0.770758 0.435369
O O12 0.708880 0.730971 0.168752
O O13 0.781120 0.227304 0.354593
O O14 0.549549 0.230762 0.711686
O O15 0.654331 0.000000 0.513748
O O16 0.141818 0.500000 0.561425
O O17 0.078343 0.753837 0.719199
O O18 0.263751 0.000000 0.934264
O O19 0.352219 0.795198 0.908814
O O20 0.911908 0.000000 0.200158
O O21 0.000000 0.774647 0.000000
O O22 0.421916 0.000000 0.918089
#
# Coordination Sequence:
#
# PCOD9155490 Si02
#       8
#     4   4   4   4   4   4   4   4
#     4  10  22  39  59  84 117 155 192 233 292 357
#     4  10  22  41  65  90 120 161 204 249 302 358
#     4  11  23  37  56  87 123 160 196 238 297 360
#     4  10  21  38  61  86 117 156 200 251 302 348
#     4  11  24  41  62  90 124 161 199 248 305 360
#     4  10  21  37  59  85 116 153 194 243 298 349
#     4  10  23  42  63  88 118 157 206 254 301 357
#     4  10  20  35  59  89 114 145 193 245 292 346
#
# _framework density 19.753086
#
# number of rings (size 3 to 8) (size 9 to 14) (size 15 to 20)
#    0.000    1.750    1.250    2.250    1.750    5.250 
#    0.000    0.000    0.000    0.000    0.000    0.000 
#    0.000    0.000    0.000    0.000    0.000    0.000 
#
# Total GULP energy -178715.327419 kJ/mol
# GULP energy per Si atom -5584.853982 kJ/mol
# Density = 1.970813 g / cm^3
# Si number density = 19.753086 Si / 1000 Ang^3
#
#
#
# Elastic Constant Matrix: (Units=GPa)
#
#
# Indices 1 2 3 4 5 6 
#
# 1 35.5588 0.7863 11.6944 0.0000 1.7652 0.0000
# 2 0.7863 -15.6934 17.0746 0.0000 -2.5984 0.0000
# 3 11.6944 17.0746 138.6427 0.0000 10.8307 0.0000
# 4 0.0000 0.0000 0.0000 29.0988 0.0000 13.5079
# 5 1.7652 -2.5984 10.8307 0.0000 36.1848 0.0000
# 6 0.0000 0.0000 0.0000 13.5079 0.0000 48.9350
#
#
#
# Elastic Compliance Matrix: (Units=1/GPa)
#
#
# Indices 1 2 3 4 5 6 
#
# 1 0.028928 -0.000887 -0.002269 0.000000 -0.000796 0.000000
# 2 -0.000887 -0.054816 0.007301 0.000000 -0.006078 0.000000
# 3 -0.002269 0.007301 0.006610 0.000000 -0.001344 0.000000
# 4 0.000000 0.000000 0.000000 0.039417 0.000000 -0.010880
# 5 -0.000796 -0.006078 -0.001344 0.000000 0.027640 0.000000
# 6 0.000000 0.000000 0.000000 -0.010880 0.000000 0.023439
#
#
# Mechanical properties :
#
#
# Convention : Reuss Voigt Hill
#
# Bulk Modulus (GPa) = -91.00276 24.17987 -33.41144
# Shear Modulus (GPa) = 84.36775 31.44057 57.90416
#
# Velocity S-wave (km/s) = 6.54247 3.99391 5.42011
# Velocity P-wave (km/s) = 3.30177 5.79104 4.71369
#
# Compressibility (1/GPa) = -0.01098868
#
# Stress axis : x y z
#
# Youngs Moduli (GPa) = 34.56903 -18.24281 151.28609
#
# Poissons Ratio (x) = -0.01618 0.34321
# Poissons Ratio (y) = 0.03066 -1.10447
# Poissons Ratio (z) = 0.07842 0.13318
#
# Static dielectric constant tensor:
#      x y z
#    x 1.717600 0.000000 -0.024060 
#    y 0.000000 1.665060 0.000000 
#    z -0.024060 0.000000 1.683200 
# 
# From -- ./inp_files/71490.got.cif
#   From: 2010.05.17/outbox.ucp.g08.bks.cvg/sg10_36_cif.got.tgz:71490.got - 2010.06.11 11:31:16.
