data_PCOD9155254
_publ_section_title
;
Structure prediction by ZEFSAII (Michael W. Deem and Ramdas Pophale) SiO2 
 PCOD9155254
Probable space group: P 2/M
;
_chemical_formula_sum "Si O2"
_cell_formula_units_Z 32
_cell_length_a 21.000000
_cell_length_b 9.000000
_cell_length_c 27.000000
_cell_angle_alpha 90.000000
_cell_angle_beta 20.000000
_cell_angle_gamma 90.000000
_cell_volume 1745.328791
_symmetry_space_group_name_H-M "P 2/M"
_symmetry_group_IT_number 10
_symmetry_cell_setting 'monoclinic'
loop_
_space_group_symop_operation_xyz
x,y,z
-x,y,-z
-x,-y,-z
x,-y,z
loop_
_atom_site_type_symbol
_atom_site_label
_atom_site_fract_x
_atom_site_fract_y
_atom_site_fract_z
Si Si1 0.572187 0.179124 0.093703
Si Si2 0.091946 0.180505 0.079603
Si Si3 0.674210 0.178026 0.405472
Si Si4 0.921020 0.321732 0.408647
Si Si5 0.174871 0.819648 0.905601
Si Si6 0.850901 0.821302 0.565929
Si Si7 0.598445 0.177289 0.576850
Si Si8 0.653267 0.679103 0.929136
O O1 0.363195 0.215056 0.264232
O O2 0.582938 0.000000 0.082736
O O3 0.740302 0.229899 0.007057
O O4 0.600449 0.249692 0.019695
O O5 0.882634 0.236232 0.243063
O O6 0.087689 0.000000 0.087018
O O7 0.137221 0.216522 0.990019
O O8 0.500000 0.235629 0.500000
O O9 0.637650 0.197340 0.490162
O O10 0.681838 0.000000 0.389625
O O11 0.907555 0.500000 0.417102
O O12 0.896154 0.261220 0.482155
O O13 0.758249 0.254187 0.492898
O O14 0.132187 0.279241 0.238882
O O15 0.385458 0.769448 0.740210
O O16 0.178170 0.000000 0.897677
O O17 0.000000 0.767286 0.000000
O O18 0.000000 0.782531 0.500000
O O19 0.862543 0.000000 0.550284
O O20 0.604428 0.000000 0.583784
O O21 0.646091 0.500000 0.937385
O O22 0.500000 0.724838 0.000000
#
# Coordination Sequence:
#
# PCOD9155254 Si02
#       8
#     4   4   4   4   4   4   4   4
#     4  10  20  34  54  80 107 136 171 213 264 319
#     4   9  16  26  41  65  98 128 157 199 246 295
#     4   9  16  26  43  70 100 128 162 206 256 307
#     4  11  23  37  55  79 108 144 184 223 266 323
#     4   9  16  27  46  73 103 134 168 209 259 311
#     4  10  21  37  57  82 110 138 173 220 272 325
#     4  10  19  32  52  76 104 137 173 219 270 316
#     4  10  22  39  56  76 104 138 178 223 267 314
#
# _framework density 18.334654
#
# number of rings (size 3 to 8) (size 9 to 14) (size 15 to 20)
#    0.000    2.250    0.000    3.375    0.000    8.000 
#    0.000    0.000    0.000    0.750    0.000    1.750 
#    0.000    0.000    0.000    0.000    0.000    0.000 
#
# Total GULP energy -178479.132210 kJ/mol
# GULP energy per Si atom -5577.472882 kJ/mol
# Density = 1.829292 g / cm^3
# Si number density = 18.334654 Si / 1000 Ang^3
#
#
#
# Elastic Constant Matrix: (Units=GPa)
#
#
# Indices 1 2 3 4 5 6 
#
# 1 87.6101 20.9480 29.5369 0.0000 -49.9802 0.0000
# 2 20.9480 8.4522 24.2699 0.0000 -2.6784 0.0000
# 3 29.5369 24.2699 140.2426 0.0000 -27.7877 0.0000
# 4 0.0000 0.0000 0.0000 13.4717 0.0000 -4.0708
# 5 -49.9802 -2.6784 -27.7877 0.0000 31.2974 0.0000
# 6 0.0000 0.0000 0.0000 -4.0708 0.0000 57.2216
#
#
#
# Elastic Compliance Matrix: (Units=1/GPa)
#
#
# Indices 1 2 3 4 5 6 
#
# 1 -0.011465 0.054797 -0.011852 0.000000 -0.024143 0.000000
# 2 0.054797 -0.016566 0.010173 0.000000 0.095123 0.000000
# 3 -0.011852 0.010173 0.005204 0.000000 -0.013436 0.000000
# 4 0.000000 0.000000 0.000000 0.075861 0.000000 0.005397
# 5 -0.024143 0.095123 -0.013436 0.000000 -0.010392 0.000000
# 6 0.000000 0.000000 0.000000 0.005397 0.000000 0.017860
#
#
# Mechanical properties :
#
#
# Convention : Reuss Voigt Hill
#
# Bulk Modulus (GPa) = 11.98898 42.86828 27.42863
# Shear Modulus (GPa) = -278.82662 31.16815 -123.82923
#
# Velocity S-wave (km/s) = -12.34530 4.12753 -8.22709
# Velocity P-wave (km/s) = 14.02339 6.79316 8.67492
#
# Compressibility (1/GPa) = 0.08340991
#
# Stress axis : x y z
#
# Youngs Moduli (GPa) = -87.21940 -60.36559 192.16327
#
# Poissons Ratio (x) = 3.30785 2.27750
# Poissons Ratio (y) = 4.77936 -1.95496
# Poissons Ratio (z) = -1.03371 0.61413
#
# Static dielectric constant tensor:
#      x y z
#    x 1.605300 0.000000 -0.007340 
#    y 0.000000 1.610320 0.000000 
#    z -0.007340 0.000000 1.664050 
# 
# From -- ./inp_files/93617.got.cif
#   From: 2010.05.17/outbox.ucp.g08.bks.cvg/sg10_47_cif.got.tgz:93617.got - 2010.06.11 11:31:16.
