data_PCOD9155481
_publ_section_title
;
Structure prediction by ZEFSAII (Michael W. Deem and Ramdas Pophale) SiO2 
 PCOD9155481
Probable space group: P 2/M
;
_chemical_formula_sum "Si O2"
_cell_formula_units_Z 32
_cell_length_a 24.000000
_cell_length_b 9.000000
_cell_length_c 15.000000
_cell_angle_alpha 90.000000
_cell_angle_beta 30.000000
_cell_angle_gamma 90.000000
_cell_volume 1620.000000
_symmetry_space_group_name_H-M "P 2/M"
_symmetry_group_IT_number 10
_symmetry_cell_setting 'monoclinic'
loop_
_space_group_symop_operation_xyz
x,y,z
-x,y,-z
-x,-y,-z
x,-y,z
loop_
_atom_site_type_symbol
_atom_site_label
_atom_site_fract_x
_atom_site_fract_y
_atom_site_fract_z
Si Si1 0.227152 0.169028 0.608387
Si Si2 0.178287 0.679014 0.847524
Si Si3 0.120606 0.319759 0.296619
Si Si4 0.939964 0.321281 0.807980
Si Si5 0.324558 0.679684 0.142400
Si Si6 0.440178 0.679927 0.495803
Si Si7 0.171170 0.169380 0.483990
Si Si8 0.466262 0.679241 0.264027
O O1 0.154602 0.249940 0.784359
O O2 0.170063 0.166395 0.592081
O O3 0.343455 0.252990 0.428442
O O4 0.249997 0.000000 0.605492
O O5 0.169384 0.500000 0.853756
O O6 0.309331 0.717823 0.678549
O O7 0.107403 0.730318 0.031119
O O8 0.117294 0.500000 0.304407
O O9 0.134543 0.277398 0.173875
O O10 0.225364 0.277161 0.211505
O O11 0.000000 0.267560 0.500000
O O12 0.942797 0.500000 0.808278
O O13 0.062598 0.265242 0.612573
O O14 0.325706 0.500000 0.151251
O O15 0.283271 0.755990 0.290243
O O16 0.442396 0.724987 0.935649
O O17 0.500000 0.740124 0.500000
O O18 0.443732 0.500000 0.494285
O O19 0.498320 0.719887 0.321707
O O20 0.163048 0.000000 0.462309
O O21 0.458100 0.500000 0.270295
#
# Coordination Sequence:
#
# PCOD9155481 Si02
#       8
#     4   4   4   4   4   4   4   4
#     4  10  22  40  58  74 104 147 185 227 274 320
#     4   9  19  34  55  84 111 137 177 224 270 319
#     4   9  16  30  54  83 114 143 173 214 266 322
#     4  10  20  35  57  85 113 142 177 221 270 321
#     4  10  20  35  57  85 113 142 177 221 270 321
#     4   8  14  26  47  79 112 137 166 210 260 312
#     4  11  24  39  55  77 105 144 190 229 269 322
#     4   9  19  34  55  84 111 137 177 224 270 319
#
# _framework density 19.753086
#
# number of rings (size 3 to 8) (size 9 to 14) (size 15 to 20)
#    0.000    2.500    1.250    1.500    1.750    4.000 
#    0.000    6.250    0.000    6.000    0.000    0.000 
#    0.000    0.000    0.000    0.000    0.000    0.000 
#
# Total GULP energy -178315.548815 kJ/mol
# GULP energy per Si atom -5572.360900 kJ/mol
# Density = 1.970813 g / cm^3
# Si number density = 19.753086 Si / 1000 Ang^3
#
#
#
# Elastic Constant Matrix: (Units=GPa)
#
#
# Indices 1 2 3 4 5 6 
#
# 1 47.3513 12.1454 4.8026 0.0000 20.5515 0.0000
# 2 12.1454 21.3311 21.0977 0.0000 13.0918 0.0000
# 3 4.8026 21.0977 99.4600 0.0000 29.7165 0.0000
# 4 0.0000 0.0000 0.0000 15.5461 0.0000 16.4544
# 5 20.5515 13.0918 29.7165 0.0000 27.8464 0.0000
# 6 0.0000 0.0000 0.0000 16.4544 0.0000 36.4529
#
#
#
# Elastic Compliance Matrix: (Units=1/GPa)
#
#
# Indices 1 2 3 4 5 6 
#
# 1 0.037622 -0.011175 0.010688 0.000000 -0.033918 0.000000
# 2 -0.011175 0.072637 -0.010466 0.000000 -0.014733 0.000000
# 3 0.010688 -0.010466 0.018564 0.000000 -0.022778 0.000000
# 4 0.000000 0.000000 0.000000 0.123171 0.000000 -0.055598
# 5 -0.033918 -0.014733 -0.022778 0.000000 0.092178 0.000000
# 6 0.000000 0.000000 0.000000 -0.055598 0.000000 0.052529
#
#
# Mechanical properties :
#
#
# Convention : Reuss Voigt Hill
#
# Bulk Modulus (GPa) = 9.35320 27.13710 18.24515
# Shear Modulus (GPa) = 11.00722 24.64219 17.82470
#
# Velocity S-wave (km/s) = 2.36316 3.53584 3.00722
# Velocity P-wave (km/s) = 3.49161 5.51703 4.61676
#
# Compressibility (1/GPa) = 0.10691532
#
# Stress axis : x y z
#
# Youngs Moduli (GPa) = 26.57998 13.76716 53.86797
#
# Poissons Ratio (x) = 0.15385 -0.57573
# Poissons Ratio (y) = 0.29704 0.56380
# Poissons Ratio (z) = -0.28408 0.14409
#
# Static dielectric constant tensor:
#      x y z
#    x 1.774900 0.000000 0.018330 
#    y 0.000000 1.685670 0.000000 
#    z 0.018330 0.000000 1.661530 
# 
# From -- ./inp_files/66612.got.cif
#   From: 2010.05.17/outbox.ucp.g08.bks.cvg/sg10_34_cif.got.tgz:66612.got - 2010.06.11 11:31:16.
