data_PCOD9155965
_publ_section_title
;
Structure prediction by ZEFSAII (Michael W. Deem and Ramdas Pophale) SiO2 
 PCOD9155965
Probable space group: P 21/M
;
_chemical_formula_sum "Si O2"
_cell_formula_units_Z 32
_cell_length_a 22.679708
_cell_length_b 8.349726
_cell_length_c 27.805433
_cell_angle_alpha 90.000000
_cell_angle_beta 19.771831
_cell_angle_gamma 90.000000
_cell_volume 1781.187494
_symmetry_space_group_name_H-M "P 21/M"
_symmetry_group_IT_number 11
_symmetry_cell_setting 'monoclinic'
loop_
_space_group_symop_operation_xyz
x,y,z
-x,1/2+y,-z
-x,-y,-z
x,1/2-y,z
loop_
_atom_site_type_symbol
_atom_site_label
_atom_site_fract_x
_atom_site_fract_y
_atom_site_fract_z
Si Si1 0.463408 0.059006 0.146487
Si Si2 0.067742 0.943438 0.099723
Si Si3 0.167253 0.555054 0.183674
Si Si4 0.492466 0.056926 0.330707
Si Si5 0.113426 0.556710 0.957455
Si Si6 0.143011 0.446095 0.647520
Si Si7 0.680492 0.441876 0.837152
Si Si8 0.540108 0.560396 0.188977
O O1 0.468810 0.250000 0.145167
O O2 0.323409 0.009366 0.213606
O O3 0.440654 0.990846 0.217115
O O4 0.653811 0.003408 0.980263
O O5 0.066888 0.750000 0.100594
O O6 0.041422 0.996814 0.064923
O O7 0.927425 0.998794 0.246475
O O8 0.261598 0.994938 0.966565
O O9 0.168940 0.750000 0.181421
O O10 0.177420 0.507408 0.231982
O O11 0.999491 0.502499 0.282747
O O12 0.494819 0.250000 0.330490
O O13 0.334289 0.999565 0.485220
O O14 0.465265 0.008279 0.296166
O O15 0.684860 0.001252 0.198896
O O16 0.114410 0.750000 0.956639
O O17 0.000000 0.500000 0.000000
O O18 0.144016 0.250000 0.646879
O O19 0.679822 0.250000 0.835019
O O20 0.500000 0.500000 0.000000
O O21 0.546145 0.750000 0.187664
#
# Coordination Sequence:
#
# PCOD9155965 Si02
#       8
#     4   4   4   4   4   4   4   4
#     4  10  17  28  46  67  94 127 169 213 251 292
#     4   9  17  32  54  77  99 126 167 205 240 291
#     4   8  14  24  44  70  94 123 156 199 250 294
#     4   9  19  34  53  75  98 128 167 202 242 296
#     4   9  18  32  51  75 101 133 166 200 236 282
#     4   9  15  29  54  77  97 125 163 208 248 291
#     4   9  16  25  38  64  98 128 162 202 252 305
#     4  11  20  30  47  72 101 131 163 206 256 296
#
# _framework density 17.965544000000001
#
# number of rings (size 3 to 8) (size 9 to 14) (size 15 to 20)
#    0.000    2.750    1.250    3.375    0.000    2.000 
#    0.000    1.250    0.000    0.750    0.000    0.000 
#    0.000    0.000    0.000    0.000    0.000    0.000 
#
# Total GULP energy -178292.982308 kJ/mol
# GULP energy per Si atom -5571.655697 kJ/mol
# Density = 1.792465 g / cm^3
# Si number density = 17.965544 Si / 1000 Ang^3
#
#
#
# Elastic Constant Matrix: (Units=GPa)
#
#
# Indices 1 2 3 4 5 6 
#
# 1 158.3459 10.6918 65.8201 0.0000 0.9992 0.0000
# 2 10.6918 8.3368 12.4725 0.0000 1.9624 0.0000
# 3 65.8201 12.4725 94.4944 0.0000 16.6905 0.0000
# 4 0.0000 0.0000 0.0000 5.9199 0.0000 -4.3564
# 5 0.9992 1.9624 16.6905 0.0000 20.4213 0.0000
# 6 0.0000 0.0000 0.0000 -4.3564 0.0000 27.3224
#
#
#
# Elastic Compliance Matrix: (Units=1/GPa)
#
#
# Indices 1 2 3 4 5 6 
#
# 1 0.009477 -0.002633 -0.007265 0.000000 0.005727 0.000000
# 2 -0.002633 0.150270 -0.018083 0.000000 0.000468 0.000000
# 3 -0.007265 -0.018083 0.020640 0.000000 -0.014776 0.000000
# 4 0.000000 0.000000 0.000000 0.191378 0.000000 0.030514
# 5 0.005727 0.000468 -0.014776 0.000000 0.060720 0.000000
# 6 0.000000 0.000000 0.000000 0.030514 0.000000 0.041465
#
#
# Mechanical properties :
#
#
# Convention : Reuss Voigt Hill
#
# Bulk Modulus (GPa) = 8.03702 48.79400 28.41551
# Shear Modulus (GPa) = 8.75063 22.21223 15.48143
#
# Velocity S-wave (km/s) = 2.20938 3.52003 2.93871
# Velocity P-wave (km/s) = 3.31538 6.61359 5.23122
#
# Compressibility (1/GPa) = 0.12442429
#
# Stress axis : x y z
#
# Youngs Moduli (GPa) = 105.52019 6.65469 48.44967
#
# Poissons Ratio (x) = 0.01752 0.35200
# Poissons Ratio (y) = 0.27781 0.87613
# Poissons Ratio (z) = 0.76663 0.12034
#
# Static dielectric constant tensor:
#      x y z
#    x 1.635160 0.000000 0.009380 
#    y 0.000000 1.616300 0.000000 
#    z 0.009380 0.000000 1.604000 
# 
# From -- ./inp_files/72081.got.cif
#   From: 2010.05.17/outbox.cif.g08.bks.cpg/sg11_37_cif.got.tgz:72081.got - 2010.06.03 12:22:45.
