data_PCOD9155003
_publ_section_title
;
Structure prediction by ZEFSAII (Michael W. Deem and Ramdas Pophale) SiO2 
 PCOD9155003
Probable space group: P 2/M
;
_chemical_formula_sum "Si O2"
_cell_formula_units_Z 28
_cell_length_a 10.582985
_cell_length_b 18.615395
_cell_length_c 7.400413
_cell_angle_alpha 90.000000
_cell_angle_beta 110.465260
_cell_angle_gamma 90.000000
_cell_volume 1365.910935
_symmetry_space_group_name_H-M "P 2/M"
_symmetry_group_IT_number 10
_symmetry_cell_setting 'monoclinic'
loop_
_space_group_symop_operation_xyz
x,y,z
-x,y,-z
-x,-y,-z
x,-y,z
loop_
_atom_site_type_symbol
_atom_site_label
_atom_site_fract_x
_atom_site_fract_y
_atom_site_fract_z
Si Si1 0.843981 0.000000 0.700637
Si Si2 0.156049 0.580130 0.857693
Si Si3 0.343380 0.870100 0.955606
Si Si4 0.656622 0.870099 0.612231
Si Si5 0.156054 0.580129 0.298355
Si Si6 0.656170 0.708274 0.044066
Si Si7 0.156016 0.000000 0.856653
Si Si8 0.656172 0.291724 0.612110
O O1 0.760598 0.929935 0.598473
O O2 0.999998 0.000000 0.722886
O O3 0.843214 0.000000 0.921608
O O4 0.199925 0.500000 0.823137
O O5 0.999997 0.589734 0.727621
O O6 0.159479 0.580481 0.079738
O O7 0.248097 0.645297 0.838719
O O8 0.328034 0.867377 0.164014
O O9 0.319382 0.789177 0.873506
O O10 0.500000 0.889349 0.000000
O O11 0.239397 0.929934 0.837870
O O12 0.500000 0.889341 0.500000
O O13 0.680633 0.789177 0.554139
O O14 0.199933 0.500000 0.376788
O O15 0.248105 0.645295 0.409377
O O16 0.675651 0.711336 0.837829
O O17 0.500000 0.691084 0.000000
O O18 0.500000 0.308907 0.500000
#
# Coordination Sequence:
#
# PCOD9155003 Si02
#       8
#     2   4   4   4   4   4   2   4
#     4   9  17  28  43  65  88 107 134 174 212 241
#     4   8  14  25  41  61  84 109 138 172 207 242
#     4   9  17  29  45  63  84 111 139 168 204 246
#     4   9  17  29  45  63  84 111 139 168 204 246
#     4   8  14  25  41  61  84 109 138 172 207 242
#     4   9  17  28  43  64  86 108 137 171 206 244
#     4   9  17  28  43  65  88 107 134 174 212 241
#     4   9  17  28  43  64  86 108 137 171 206 244
#
# _framework density 20.499139
#
# number of rings (size 3 to 8) (size 9 to 14) (size 15 to 20)
#    0.000    3.286    0.000    1.286    0.000    1.714 
#    0.000    5.714    0.000    2.571    0.000   10.000 
#    0.000    0.000    0.000    0.000    0.000    0.000 
#
# Total GULP energy -156195.838930 kJ/mol
# GULP energy per Si atom -5578.422819 kJ/mol
# Density = 2.045248 g / cm^3
# Si number density = 20.499139 Si / 1000 Ang^3
#
#
#
# Elastic Constant Matrix: (Units=GPa)
#
#
# Indices 1 2 3 4 5 6 
#
# 1 92.2240 108.1248 36.1024 0.0000 32.0083 0.0000
# 2 108.1248 208.1603 61.6876 0.0000 72.5132 0.0000
# 3 36.1024 61.6876 65.6360 0.0000 9.4963 0.0000
# 4 0.0000 0.0000 0.0000 55.1680 0.0000 71.5178
# 5 32.0083 72.5132 9.4963 0.0000 52.9539 0.0000
# 6 0.0000 0.0000 0.0000 71.5178 0.0000 100.9630
#
#
#
# Elastic Compliance Matrix: (Units=1/GPa)
#
#
# Indices 1 2 3 4 5 6 
#
# 1 0.028700 -0.016460 -0.001096 0.000000 0.005388 0.000000
# 2 -0.016460 0.023369 -0.009978 0.000000 -0.020262 0.000000
# 3 -0.001096 -0.009978 0.023760 0.000000 0.010065 0.000000
# 4 0.000000 0.000000 0.000000 0.221835 0.000000 -0.157138
# 5 0.005388 -0.020262 0.010065 0.000000 0.041569 0.000000
# 6 0.000000 0.000000 0.000000 -0.157138 0.000000 0.121215
#
#
# Mechanical properties :
#
#
# Convention : Reuss Voigt Hill
#
# Bulk Modulus (GPa) = 48.16715 86.42778 67.29746
# Shear Modulus (GPa) = 9.57056 52.49068 31.03062
#
# Velocity S-wave (km/s) = 2.16308 5.06575 3.89492
# Velocity P-wave (km/s) = 5.45772 8.74466 7.28889
#
# Compressibility (1/GPa) = 0.02076104
#
# Stress axis : x y z
#
# Youngs Moduli (GPa) = 34.84356 42.79167 42.08739
#
# Poissons Ratio (x) = 0.70434 0.04613
# Poissons Ratio (y) = 0.57351 0.41996
# Poissons Ratio (z) = 0.03819 0.42699
#
# Static dielectric constant tensor:
#      x y z
#    x 1.712870 0.000000 -0.060970 
#    y 0.000000 1.737280 0.000000 
#    z -0.060970 0.000000 1.751930 
# 
# From -- ./inp_files/47774.got.cif
#   From: 2010.05.17/outbox.cif.g08.bks.cpg/sg10_24_cif.got.tgz:47774.got - 2010.06.03 11:33:40.
