data_PCOD9155192
_publ_section_title
;
Structure prediction by ZEFSAII (Michael W. Deem and Ramdas Pophale) SiO2 
 PCOD9155192
Probable space group: P 2/M
;
_chemical_formula_sum "Si O2"
_cell_formula_units_Z 32
_cell_length_a 21.000000
_cell_length_b 9.000000
_cell_length_c 12.000000
_cell_angle_alpha 90.000000
_cell_angle_beta 60.000000
_cell_angle_gamma 90.000000
_cell_volume 1964.145616
_symmetry_space_group_name_H-M "P 2/M"
_symmetry_group_IT_number 10
_symmetry_cell_setting 'monoclinic'
loop_
_space_group_symop_operation_xyz
x,y,z
-x,y,-z
-x,-y,-z
x,-y,z
loop_
_atom_site_type_symbol
_atom_site_label
_atom_site_fract_x
_atom_site_fract_y
_atom_site_fract_z
Si Si1 0.114203 0.168327 0.097345
Si Si2 0.736637 0.677570 0.988100
Si Si3 0.462408 0.819915 0.205274
Si Si4 0.613744 0.179583 0.952925
Si Si5 0.567142 0.820952 0.519416
Si Si6 0.160253 0.165493 0.796626
Si Si7 0.975391 0.668715 0.152477
Si Si8 0.302303 0.674069 0.725712
O O1 0.184326 0.245880 0.089723
O O2 0.042326 0.269109 0.165732
O O3 0.102908 0.000000 0.146535
O O4 0.132699 0.159602 0.948814
O O5 0.743669 0.500000 0.980260
O O6 0.683666 0.738765 0.940066
O O7 0.702992 0.719239 0.139356
O O8 0.406852 0.777456 0.155242
O O9 0.443298 0.765724 0.345056
O O10 0.461819 0.000000 0.208715
O O11 0.543683 0.779413 0.091446
O O12 0.622140 0.000000 0.950651
O O13 0.500000 0.773761 0.500000
O O14 0.638801 0.763588 0.395507
O O15 0.568161 0.000000 0.522036
O O16 0.092729 0.220190 0.782355
O O17 0.223864 0.286338 0.741663
O O18 0.186186 0.000000 0.744274
O O19 0.956147 0.500000 0.197967
O O20 0.000000 0.667192 0.000000
O O21 0.317660 0.500000 0.707858
#
# Coordination Sequence:
#
# PCOD9155192 Si02
#       8
#     4   4   4   4   4   4   4   4
#     4   9  16  25  38  57  81 112 149 182 214 258
#     4  10  19  29  41  61  89 117 147 184 224 262
#     4   8  16  30  48  69  88 109 142 183 222 261
#     4   9  16  30  50  66  84 112 145 180 220 266
#     4  10  19  31  48  68  89 114 146 182 219 262
#     4   9  16  26  40  57  79 111 150 185 215 255
#     4   9  15  23  36  55  82 114 144 177 218 259
#     4  10  20  31  42  60  88 119 149 183 223 264
#
# _framework density 16.292071
#
# number of rings (size 3 to 8) (size 9 to 14) (size 15 to 20)
#    0.000    2.750    0.000    3.375    0.000    7.250 
#    0.000    2.500    0.000    0.000    0.000    0.000 
#    0.000    1.000    0.000   10.750    0.000    8.250 
#
# Total GULP energy -178189.873290 kJ/mol
# GULP energy per Si atom -5568.433540 kJ/mol
# Density = 1.625499 g / cm^3
# Si number density = 16.292071 Si / 1000 Ang^3
#
#
#
# Elastic Constant Matrix: (Units=GPa)
#
#
# Indices 1 2 3 4 5 6 
#
# 1 104.1351 18.1265 13.4574 0.0000 9.4670 0.0000
# 2 18.1265 26.5099 0.1887 0.0000 10.6444 0.0000
# 3 13.4574 0.1887 23.2375 0.0000 8.1868 0.0000
# 4 0.0000 0.0000 0.0000 13.9685 0.0000 -6.9188
# 5 9.4670 10.6444 8.1868 0.0000 8.5346 0.0000
# 6 0.0000 0.0000 0.0000 -6.9188 0.0000 27.7785
#
#
#
# Elastic Compliance Matrix: (Units=1/GPa)
#
#
# Indices 1 2 3 4 5 6 
#
# 1 0.012524 -0.017127 -0.014720 0.000000 0.021588 0.000000
# 2 -0.017127 0.172553 0.117280 0.000000 -0.308713 0.000000
# 3 -0.014720 0.117280 0.145590 0.000000 -0.269602 0.000000
# 4 0.000000 0.000000 0.000000 0.081664 0.000000 0.020340
# 5 0.021588 -0.308713 -0.269602 0.000000 0.736869 0.000000
# 6 0.000000 0.000000 0.000000 0.020340 0.000000 0.041065
#
#
# Mechanical properties :
#
#
# Convention : Reuss Voigt Hill
#
# Bulk Modulus (GPa) = 1.99388 24.15864 13.07626
# Shear Modulus (GPa) = 4.21380 18.19697 11.20539
#
# Velocity S-wave (km/s) = 1.60998 3.34566 2.62540
# Velocity P-wave (km/s) = 2.16392 5.45759 4.15137
#
# Compressibility (1/GPa) = 0.50153438
#
# Stress axis : x y z
#
# Youngs Moduli (GPa) = 79.84857 5.79531 6.86862
#
# Poissons Ratio (x) = 0.09925 0.10110
# Poissons Ratio (y) = 1.36755 -0.80555
# Poissons Ratio (z) = 1.17533 -0.67967
#
# Static dielectric constant tensor:
#      x y z
#    x 1.596750 0.000000 -0.022100 
#    y 0.000000 1.542910 0.000000 
#    z -0.022100 0.000000 1.530660 
# 
# From -- ./inp_files/54786.got.cif
#   From: 2010.05.17/outbox.ucp.g08.bks.cvg/sg10_28_cif.got.tgz:54786.got - 2010.06.11 11:31:16.
