data_PCOD9155060
_publ_section_title
;
Structure prediction by ZEFSAII (Michael W. Deem and Ramdas Pophale) SiO2 
 PCOD9155060
Probable space group: P 2/M
;
_chemical_formula_sum "Si O2"
_cell_formula_units_Z 24
_cell_length_a 20.365315
_cell_length_b 7.367090
_cell_length_c 25.968871
_cell_angle_alpha 90.000000
_cell_angle_beta 161.443359
_cell_angle_gamma 90.000000
_cell_volume 1239.931389
_symmetry_space_group_name_H-M "P 2/M"
_symmetry_group_IT_number 10
_symmetry_cell_setting 'monoclinic'
loop_
_space_group_symop_operation_xyz
x,y,z
-x,y,-z
-x,-y,-z
x,-y,z
loop_
_atom_site_type_symbol
_atom_site_label
_atom_site_fract_x
_atom_site_fract_y
_atom_site_fract_z
Si Si1 0.628135 0.278732 0.981527
Si Si2 0.041958 0.278741 0.688025
Si Si3 0.657684 0.000000 0.741682
Si Si4 0.418802 0.285158 0.624387
Si Si5 0.008178 0.000000 0.091627
Si Si6 0.761637 0.714847 0.966691
Si Si7 0.166253 0.721723 0.665974
O O1 0.625525 0.500000 0.979618
O O2 0.702285 0.224996 0.979909
O O3 0.788265 0.220848 0.144329
O O4 0.396327 0.220004 0.822082
O O5 0.042247 0.500000 0.687582
O O6 0.812269 0.225045 0.533906
O O7 0.101121 0.219993 0.674614
O O8 0.518639 0.173647 0.652026
O O9 0.769826 0.000000 0.770205
O O10 0.841202 0.000000 0.920783
O O11 0.417783 0.500000 0.612886
O O12 0.565478 0.255667 0.783183
O O13 0.950330 0.173626 0.083038
O O14 0.804641 0.500000 0.999156
O O15 0.166941 0.500000 0.666649
O O16 0.000000 0.778789 0.500000
#
# Coordination Sequence:
#
# PCOD9155060 Si02
#       7
#     4   4   2   4   2   4   4
#     4   9  16  26  42  66  97 132 168 204 243 287
#     4   9  16  26  42  66  97 132 168 204 243 287
#     4   9  18  32  51  76 101 124 157 203 250 295
#     4   9  17  30  49  72  98 129 164 201 243 291
#     4   9  18  32  51  76 101 124 157 203 250 295
#     4   9  17  30  49  72  98 129 164 201 243 291
#     4   9  15  23  39  66  99 132 168 207 243 284
#
# _framework density 19.355910999999999
#
# number of rings (size 3 to 8) (size 9 to 14) (size 15 to 20)
#    0.000    3.000    0.000    1.500    0.000    6.667 
#    0.000    4.167    0.000    3.000    0.000   11.667 
#    0.000    0.000    0.000    0.000    0.000    0.000 
#
# Total GULP energy -133961.388626 kJ/mol
# GULP energy per Si atom -5581.724526 kJ/mol
# Density = 1.931186 g / cm^3
# Si number density = 19.355911 Si / 1000 Ang^3
#
#
#
# Elastic Constant Matrix: (Units=GPa)
#
#
# Indices 1 2 3 4 5 6 
#
# 1 181.9282 52.2093 133.0280 0.0000 45.6110 0.0000
# 2 52.2093 76.0877 41.6218 0.0000 7.9267 0.0000
# 3 133.0280 41.6218 108.6473 0.0000 10.5330 0.0000
# 4 0.0000 0.0000 0.0000 12.4838 0.0000 23.3849
# 5 45.6110 7.9267 10.5330 0.0000 25.9502 0.0000
# 6 0.0000 0.0000 0.0000 23.3849 0.0000 39.5331
#
#
#
# Elastic Compliance Matrix: (Units=1/GPa)
#
#
# Indices 1 2 3 4 5 6 
#
# 1 -0.041437 -0.002686 0.046453 0.000000 0.054798 0.000000
# 2 -0.002686 0.016623 -0.003169 0.000000 0.000930 0.000000
# 3 0.046453 -0.003169 -0.040220 0.000000 -0.064354 0.000000
# 4 0.000000 0.000000 0.000000 -0.741348 0.000000 0.438526
# 5 0.054798 0.000930 -0.064354 0.000000 -0.031942 0.000000
# 6 0.000000 0.000000 0.000000 0.438526 0.000000 -0.234104
#
#
# Mechanical properties :
#
#
# Convention : Reuss Voigt Hill
#
# Bulk Modulus (GPa) = 61.88060 91.15349 76.51705
# Shear Modulus (GPa) = -4.35450 24.91371 10.27960
#
# Velocity S-wave (km/s) = -1.50153 3.59156 2.30702
# Velocity P-wave (km/s) = 5.38824 8.02463 6.83476
#
# Compressibility (1/GPa) = 0.01616015
#
# Stress axis : x y z
#
# Youngs Moduli (GPa) = -24.13282 60.15893 -24.86353
#
# Poissons Ratio (x) = 0.16160 1.15498
# Poissons Ratio (y) = -0.06483 -0.07880
# Poissons Ratio (z) = 1.12103 0.19065
#
# Static dielectric constant tensor:
#      x y z
#    x 1.635150 0.000000 -0.003280 
#    y 0.000000 1.729250 0.000000 
#    z -0.003280 0.000000 1.638760 
# 
# From -- ./inp_files/27383.got.cif
#   From: 2010.05.17/outbox.cif.g08.bks.cpg/sg10_14_cif.got.tgz:27383.got - 2010.06.03 11:33:40.
