data_PCOD9155201
_publ_section_title
;
Structure prediction by ZEFSAII (Michael W. Deem and Ramdas Pophale) SiO2 
 PCOD9155201
Probable space group: P 2/M
;
_chemical_formula_sum "Si O2"
_cell_formula_units_Z 28
_cell_length_a 15.000000
_cell_length_b 9.000000
_cell_length_c 21.000000
_cell_angle_alpha 90.000000
_cell_angle_beta 30.000000
_cell_angle_gamma 90.000000
_cell_volume 1417.500000
_symmetry_space_group_name_H-M "P 2/M"
_symmetry_group_IT_number 10
_symmetry_cell_setting 'monoclinic'
loop_
_space_group_symop_operation_xyz
x,y,z
-x,y,-z
-x,-y,-z
x,-y,z
loop_
_atom_site_type_symbol
_atom_site_label
_atom_site_fract_x
_atom_site_fract_y
_atom_site_fract_z
Si Si1 0.623988 0.822952 0.279647
Si Si2 0.412084 0.333384 0.986291
Si Si3 0.043128 0.176771 0.254702
Si Si4 0.107354 0.825629 0.786135
Si Si5 0.430881 0.821258 0.224401
Si Si6 0.235525 0.180316 0.469895
Si Si7 0.789319 0.677619 0.060718
O O1 0.698545 0.799027 0.304106
O O2 0.421060 0.775613 0.390522
O O3 0.766538 0.740855 0.146036
O O4 0.630880 0.000000 0.261155
O O5 0.380684 0.500000 0.978961
O O6 0.223893 0.252800 0.117061
O O7 0.500000 0.347248 0.000000
O O8 0.555807 0.245253 0.854245
O O9 0.906447 0.197574 0.280532
O O10 0.940127 0.230886 0.382492
O O11 0.079180 0.000000 0.239629
O O12 0.063523 0.000000 0.824768
O O13 0.958522 0.732033 0.915834
O O14 0.274516 0.779407 0.371508
O O15 0.614827 0.753261 0.137508
O O16 0.438541 0.000000 0.217759
O O17 0.227417 0.000000 0.476770
O O18 0.781209 0.500000 0.066824
#
# Coordination Sequence:
#
# PCOD9155201 Si02
#       7
#     4   4   4   4   4   4   4
#     4   9  18  32  49  73 110 151 193 236 273 315
#     4  11  24  41  61  87 115 142 178 224 276 336
#     4  10  20  36  59  85 113 147 186 228 282 333
#     4  10  19  30  49  77 109 148 191 235 277 322
#     4  10  19  36  61  85 111 145 185 228 276 329
#     4   8  17  34  56  83 114 148 188 231 271 323
#     4  11  20  30  48  75 110 148 190 235 279 325
#
# _framework density 19.753086
#
# number of rings (size 3 to 8) (size 9 to 14) (size 15 to 20)
#    0.000    2.143    1.429    3.429    0.000    4.000 
#    0.000    7.143    0.000    4.286    0.000    6.000 
#    0.000    0.000    0.000    0.000    0.000    0.000 
#
# Total GULP energy -156005.258942 kJ/mol
# GULP energy per Si atom -5571.616391 kJ/mol
# Density = 1.970813 g / cm^3
# Si number density = 19.753086 Si / 1000 Ang^3
#
#
#
# Elastic Constant Matrix: (Units=GPa)
#
#
# Indices 1 2 3 4 5 6 
#
# 1 50.1937 12.9103 -1.4555 0.0000 17.6230 0.0000
# 2 12.9103 63.0772 24.4902 0.0000 13.6642 0.0000
# 3 -1.4555 24.4902 80.8319 0.0000 23.8482 0.0000
# 4 0.0000 0.0000 0.0000 9.2592 0.0000 3.1034
# 5 17.6230 13.6642 23.8482 0.0000 20.2842 0.0000
# 6 0.0000 0.0000 0.0000 3.1034 0.0000 19.4904
#
#
#
# Elastic Compliance Matrix: (Units=1/GPa)
#
#
# Indices 1 2 3 4 5 6 
#
# 1 0.039730 -0.003462 0.017240 0.000000 -0.052455 0.000000
# 2 -0.003462 0.019339 -0.004541 0.000000 -0.004681 0.000000
# 3 0.017240 -0.004541 0.026908 0.000000 -0.043556 0.000000
# 4 0.000000 0.000000 0.000000 0.114090 0.000000 -0.018166
# 5 -0.052455 -0.004681 -0.043556 0.000000 0.149234 0.000000
# 6 0.000000 0.000000 0.000000 -0.018166 0.000000 0.054200
#
#
# Mechanical properties :
#
#
# Convention : Reuss Voigt Hill
#
# Bulk Modulus (GPa) = 9.57374 29.55477 19.56425
# Shear Modulus (GPa) = 11.90920 20.35062 16.12991
#
# Velocity S-wave (km/s) = 2.45807 3.21323 2.86068
# Velocity P-wave (km/s) = 3.59352 5.36294 4.56478
#
# Compressibility (1/GPa) = 0.10445241
#
# Stress axis : x y z
#
# Youngs Moduli (GPa) = 25.16968 51.70845 37.16389
#
# Poissons Ratio (x) = 0.17903 -0.64072
# Poissons Ratio (y) = 0.08715 0.16875
# Poissons Ratio (z) = -0.43394 0.23479
#
# Static dielectric constant tensor:
#      x y z
#    x 1.828700 0.000000 0.042680 
#    y 0.000000 1.682650 0.000000 
#    z 0.042680 0.000000 1.688880 
# 
# From -- ./inp_files/84890.got.cif
#   From: 2010.05.17/outbox.ucp.g08.bks.cvg/sg10_43_cif.got.tgz:84890.got - 2010.06.11 11:31:16.
