data_PCOD9155885
_publ_section_title
;
Structure prediction by ZEFSAII (Michael W. Deem and Ramdas Pophale) SiO2 
 PCOD9155885
Probable space group: P 21/M
;
_chemical_formula_sum "Si O2"
_cell_formula_units_Z 32
_cell_length_a 13.756111
_cell_length_b 8.738725
_cell_length_c 20.263263
_cell_angle_alpha 90.000000
_cell_angle_beta 59.100245
_cell_angle_gamma 90.000000
_cell_volume 2090.135189
_symmetry_space_group_name_H-M "P 21/M"
_symmetry_group_IT_number 11
_symmetry_cell_setting 'monoclinic'
loop_
_space_group_symop_operation_xyz
x,y,z
-x,1/2+y,-z
-x,-y,-z
x,1/2-y,z
loop_
_atom_site_type_symbol
_atom_site_label
_atom_site_fract_x
_atom_site_fract_y
_atom_site_fract_z
Si Si1 0.245140 0.433949 0.832041
Si Si2 0.892161 0.566218 0.999031
Si Si3 0.065590 0.072830 0.680880
Si Si4 0.972657 0.432386 0.169169
Si Si5 0.445588 0.568103 0.679845
Si Si6 0.082796 0.434759 0.526314
Si Si7 0.666643 0.432540 0.555193
Si Si8 0.338615 0.071612 0.585792
O O1 0.253095 0.250000 0.824039
O O2 0.213938 0.479383 0.918435
O O3 0.359313 0.508393 0.765318
O O4 0.138965 0.488296 0.823648
O O5 0.895346 0.750000 0.001050
O O6 0.918894 0.523739 0.914091
O O7 0.000000 0.500000 0.000000
O O8 0.031220 0.250000 0.699020
O O9 0.042142 0.019675 0.614402
O O10 0.202291 0.067344 0.639617
O O11 0.015783 0.979904 0.759130
O O12 0.955931 0.250000 0.170252
O O13 0.454538 0.750000 0.678454
O O14 0.569583 0.492856 0.637769
O O15 0.390660 0.514240 0.629723
O O16 0.086884 0.250000 0.523451
O O17 0.000000 0.500000 0.500000
O O18 0.209707 0.498808 0.473073
O O19 0.671133 0.250000 0.553445
O O20 0.634243 0.493262 0.493285
O O21 0.373907 0.250000 0.573094
#
# Coordination Sequence:
#
# PCOD9155885 Si02
#       8
#     4   4   4   4   4   4   4   4
#     4  10  18  29  42  58  87 125 160 193 234 272
#     4   8  16  27  39  57  83 118 156 194 230 267
#     4   9  18  30  46  67  93 122 153 188 230 276
#     4  10  17  26  42  64  89 118 158 197 228 269
#     4  12  22  31  44  64  91 122 159 197 230 270
#     4  10  21  38  56  73  94 119 151 190 236 281
#     4  11  22  35  50  68  90 119 154 189 231 276
#     4  10  19  32  46  63  91 123 156 192 231 270
#
# _framework density 15.310014000000001
#
# number of rings (size 3 to 8) (size 9 to 14) (size 15 to 20)
#    0.000    2.000    1.250    4.875    0.000    3.500 
#    0.000    0.000    0.000    0.000    0.000    0.000 
#    0.000    1.000    0.000    3.000    0.000    4.625 
#
# Total GULP energy -178428.661037 kJ/mol
# GULP energy per Si atom -5575.895657 kJ/mol
# Density = 1.527517 g / cm^3
# Si number density = 15.310014 Si / 1000 Ang^3
#
#
#
# Elastic Constant Matrix: (Units=GPa)
#
#
# Indices 1 2 3 4 5 6 
#
# 1 47.0378 20.2646 44.4913 0.0000 7.5591 0.0000
# 2 20.2646 78.7494 50.8130 0.0000 1.3064 0.0000
# 3 44.4913 50.8130 152.1809 0.0000 1.7363 0.0000
# 4 0.0000 0.0000 0.0000 24.2564 0.0000 -0.8003
# 5 7.5591 1.3064 1.7363 0.0000 13.5066 0.0000
# 6 0.0000 0.0000 0.0000 -0.8003 0.0000 18.6573
#
#
#
# Elastic Compliance Matrix: (Units=1/GPa)
#
#
# Indices 1 2 3 4 5 6 
#
# 1 0.033407 -0.002721 -0.008661 0.000000 -0.017320 0.000000
# 2 -0.002721 0.016418 -0.004692 0.000000 0.000538 0.000000
# 3 -0.008661 -0.004692 0.010625 0.000000 0.003935 0.000000
# 4 0.000000 0.000000 0.000000 0.041285 0.000000 0.001771
# 5 -0.017320 0.000538 0.003935 0.000000 0.083173 0.000000
# 6 0.000000 0.000000 0.000000 0.001771 0.000000 0.053674
#
#
# Mechanical properties :
#
#
# Convention : Reuss Voigt Hill
#
# Bulk Modulus (GPa) = 35.33401 56.56731 45.95066
# Shear Modulus (GPa) = 17.84671 22.11066 19.97868
#
# Velocity S-wave (km/s) = 3.41792 3.80438 3.61632
# Velocity P-wave (km/s) = 6.22136 7.50506 6.89316
#
# Compressibility (1/GPa) = 0.02830135
#
# Stress axis : x y z
#
# Youngs Moduli (GPa) = 29.93397 60.91029 94.11735
#
# Poissons Ratio (x) = 0.16574 0.81511
# Poissons Ratio (y) = 0.08145 0.44164
# Poissons Ratio (z) = 0.25925 0.28582
#
# Static dielectric constant tensor:
#      x y z
#    x 1.475830 0.000000 0.003020 
#    y 0.000000 1.513660 0.000000 
#    z 0.003020 0.000000 1.560110 
# 
# From -- ./inp_files/61817.got.cif
#   From: 2010.05.17/outbox.cif.g08.bks.cpg/sg11_31_cif.got.tgz:61817.got - 2010.06.03 12:22:45.
