data_PCOD9155841
_publ_section_title
;
Structure prediction by ZEFSAII (Michael W. Deem and Ramdas Pophale) SiO2 
 PCOD9155841
Probable space group: P 21/M
;
_chemical_formula_sum "Si O2"
_cell_formula_units_Z 32
_cell_length_a 22.643290
_cell_length_b 8.337945
_cell_length_c 6.934347
_cell_angle_alpha 90.000000
_cell_angle_beta 101.748040
_cell_angle_gamma 90.000000
_cell_volume 1281.769928
_symmetry_space_group_name_H-M "P 21/M"
_symmetry_group_IT_number 11
_symmetry_cell_setting 'monoclinic'
loop_
_space_group_symop_operation_xyz
x,y,z
-x,1/2+y,-z
-x,-y,-z
x,1/2-y,z
loop_
_atom_site_type_symbol
_atom_site_label
_atom_site_fract_x
_atom_site_fract_y
_atom_site_fract_z
Si Si1 0.425772 0.558028 0.602516
Si Si2 0.206691 0.435202 0.850861
Si Si3 0.549780 0.561487 0.814357
Si Si4 0.958902 0.569270 0.755794
Si Si5 0.325407 0.563723 0.055971
Si Si6 0.077952 0.430437 0.712986
Si Si7 0.171550 0.062646 0.276585
Si Si8 0.700692 0.560613 0.536190
O O1 0.431989 0.750000 0.577625
O O2 0.479852 0.507441 0.782290
O O3 0.438292 0.468427 0.407822
O O4 0.356240 0.521906 0.603295
O O5 0.213322 0.250000 0.793164
O O6 0.271667 0.516650 0.875981
O O7 0.192629 0.437879 0.070453
O O8 0.143834 0.509399 0.733087
O O9 0.554571 0.750000 0.860841
O O10 0.605320 0.470601 0.950528
O O11 0.961439 0.750000 0.834224
O O12 0.949009 0.579172 0.517886
O O13 0.895253 0.487391 0.769047
O O14 0.025865 0.497026 0.817263
O O15 0.319328 0.750000 0.099789
O O16 0.313521 0.465157 0.244975
O O17 0.091123 0.250000 0.788479
O O18 0.163075 0.250000 0.330593
O O19 0.229520 0.001890 0.435985
O O20 0.699166 0.750000 0.495666
#
# Coordination Sequence:
#
# PCOD9155841 Si02
#       8
#     4   4   4   4   4   4   4   4
#     4   9  15  21  31  49  73 103 140 175 204 240
#     4   9  17  30  44  59  83 112 139 167 204 249
#     4   9  15  22  32  47  72 107 140 169 205 247
#     4   9  17  31  48  64  84 109 137 169 204 243
#     4  10  17  24  36  55  78 104 137 174 208 243
#     4   9  18  31  47  65  84 108 137 169 205 245
#     4   8  15  27  43  61  82 111 141 168 202 245
#     4   9  15  24  37  52  76 109 139 168 206 248
#
# _framework density 24.965478999999998
#
# number of rings (size 3 to 8) (size 9 to 14) (size 15 to 20)
#    0.000    3.000    0.000    4.500    0.000    2.500 
#    0.000    3.125    0.000    0.000    0.000    0.000 
#    0.000    1.000    0.000    2.000    0.000    7.875 
#
# Total GULP energy -178543.530579 kJ/mol
# GULP energy per Si atom -5579.485331 kJ/mol
# Density = 2.490866 g / cm^3
# Si number density = 24.965479 Si / 1000 Ang^3
#
#
#
# Elastic Constant Matrix: (Units=GPa)
#
#
# Indices 1 2 3 4 5 6 
#
# 1 201.8334 10.0296 35.9486 0.0000 45.4133 0.0000
# 2 10.0296 30.6793 1.5529 0.0000 13.5508 0.0000
# 3 35.9486 1.5529 100.3948 0.0000 41.9013 0.0000
# 4 0.0000 0.0000 0.0000 11.7494 0.0000 19.7379
# 5 45.4133 13.5508 41.9013 0.0000 66.9592 0.0000
# 6 0.0000 0.0000 0.0000 19.7379 0.0000 25.6911
#
#
#
# Elastic Compliance Matrix: (Units=1/GPa)
#
#
# Indices 1 2 3 4 5 6 
#
# 1 0.005876 -0.000332 -0.000628 0.000000 -0.003525 0.000000
# 2 -0.000332 0.036662 0.003457 0.000000 -0.009358 0.000000
# 3 -0.000628 0.003457 0.013868 0.000000 -0.008953 0.000000
# 4 0.000000 0.000000 0.000000 -0.292839 0.000000 0.224982
# 5 -0.003525 -0.009358 -0.008953 0.000000 0.024822 0.000000
# 6 0.000000 0.000000 0.000000 0.224982 0.000000 -0.133925
#
#
# Mechanical properties :
#
#
# Convention : Reuss Voigt Hill
#
# Bulk Modulus (GPa) = 16.28608 47.55219 31.91913
# Shear Modulus (GPa) = -15.14855 39.90501 12.37823
#
# Velocity S-wave (km/s) = -2.46596 4.00235 2.22910
# Velocity P-wave (km/s) = 1.25314 6.35979 4.40888
#
# Compressibility (1/GPa) = 0.06140214
#
# Stress axis : x y z
#
# Youngs Moduli (GPa) = 170.18140 27.27615 72.10649
#
# Poissons Ratio (x) = 0.00906 0.04525
# Poissons Ratio (y) = 0.05652 -0.24930
# Poissons Ratio (z) = 0.10680 -0.09431
#
# Static dielectric constant tensor:
#      x y z
#    x 2.090910 0.000000 0.015730 
#    y 0.000000 1.852710 0.000000 
#    z 0.015730 0.000000 2.076790 
# 
# From -- ./inp_files/43675.got.cif
#   From: 2010.05.17/outbox.cif.g08.bks.cpg/sg11_22_cif.got.tgz:43675.got - 2010.06.03 12:22:45.
