data_PCOD9155374
_publ_section_title
;
Structure prediction by ZEFSAII (Michael W. Deem and Ramdas Pophale) SiO2 
 PCOD9155374
Probable space group: P 2/M
;
_chemical_formula_sum "Si O2"
_cell_formula_units_Z 32
_cell_length_a 24.000000
_cell_length_b 9.000000
_cell_length_c 15.000000
_cell_angle_alpha 90.000000
_cell_angle_beta 30.000000
_cell_angle_gamma 90.000000
_cell_volume 1620.000000
_symmetry_space_group_name_H-M "P 2/M"
_symmetry_group_IT_number 10
_symmetry_cell_setting 'monoclinic'
loop_
_space_group_symop_operation_xyz
x,y,z
-x,y,-z
-x,-y,-z
x,-y,z
loop_
_atom_site_type_symbol
_atom_site_label
_atom_site_fract_x
_atom_site_fract_y
_atom_site_fract_z
Si Si1 0.885344 0.680011 0.705916
Si Si2 0.518941 0.678284 0.241453
Si Si3 0.719721 0.821607 0.442826
Si Si4 0.214850 0.821301 0.446720
Si Si5 0.681434 0.320753 0.862436
Si Si6 0.181399 0.822338 0.878879
Si Si7 0.975224 0.678474 0.768039
Si Si8 0.379089 0.673807 0.714755
O O1 0.881188 0.500000 0.711036
O O2 0.782196 0.727844 0.788651
O O3 0.895473 0.722789 0.795301
O O4 0.000000 0.726012 0.500000
O O5 0.507140 0.500000 0.264793
O O6 0.399698 0.752875 0.414598
O O7 0.599497 0.720348 0.212414
O O8 0.572222 0.712787 0.071734
O O9 0.756743 0.777427 0.490828
O O10 0.801810 0.781233 0.247999
O O11 0.710170 0.000000 0.455614
O O12 0.303337 0.759382 0.252655
O O13 0.096679 0.747860 0.585538
O O14 0.208342 0.000000 0.450862
O O15 0.688089 0.500000 0.840761
O O16 0.290442 0.768906 0.782704
O O17 0.169437 0.000000 0.902145
O O18 0.078084 0.742125 0.068563
O O19 0.983249 0.500000 0.758319
O O20 0.500000 0.681053 0.500000
O O21 0.342501 0.500000 0.764881
#
# Coordination Sequence:
#
# PCOD9155374 Si02
#       8
#     4   4   4   4   4   4   4   4
#     4   9  16  32  60  87 115 150 183 222 283 352
#     4  10  21  37  61  90 120 152 192 242 290 344
#     4  10  24  43  60  79 114 160 199 239 291 346
#     4  11  24  42  60  82 114 154 199 245 290 342
#     4  10  20  37  60  88 118 151 190 234 290 347
#     4  11  23  39  60  87 119 156 195 237 289 350
#     4  11  22  39  64  90 117 151 191 239 292 348
#     4  10  19  35  61  91 121 153 190 236 290 345
#
# _framework density 19.753086
#
# number of rings (size 3 to 8) (size 9 to 14) (size 15 to 20)
#    0.000    1.750    2.500    1.875    0.000    5.750 
#    0.000    8.125    0.000    0.000    0.000    0.000 
#    0.000    0.000    0.000    0.000    0.000    0.000 
#
# Total GULP energy -178765.924899 kJ/mol
# GULP energy per Si atom -5586.435153 kJ/mol
# Density = 1.970813 g / cm^3
# Si number density = 19.753086 Si / 1000 Ang^3
#
#
#
# Elastic Constant Matrix: (Units=GPa)
#
#
# Indices 1 2 3 4 5 6 
#
# 1 79.9381 19.0209 10.9570 0.0000 37.5960 0.0000
# 2 19.0209 33.1601 16.4488 0.0000 16.4571 0.0000
# 3 10.9570 16.4488 71.9933 0.0000 36.4928 0.0000
# 4 0.0000 0.0000 0.0000 17.8741 0.0000 4.5116
# 5 37.5960 16.4571 36.4928 0.0000 37.9782 0.0000
# 6 0.0000 0.0000 0.0000 4.5116 0.0000 20.9692
#
#
#
# Elastic Compliance Matrix: (Units=1/GPa)
#
#
# Indices 1 2 3 4 5 6 
#
# 1 0.039711 -0.004827 0.027148 0.000000 -0.063306 0.000000
# 2 -0.004827 0.039022 -0.003961 0.000000 -0.008325 0.000000
# 3 0.027148 -0.003961 0.045651 0.000000 -0.069024 0.000000
# 4 0.000000 0.000000 0.000000 0.059160 0.000000 -0.012728
# 5 -0.063306 -0.008325 -0.069024 0.000000 0.158932 0.000000
# 6 0.000000 0.000000 0.000000 -0.012728 0.000000 0.050427
#
#
# Mechanical properties :
#
#
# Convention : Reuss Voigt Hill
#
# Bulk Modulus (GPa) = 6.20716 30.88275 18.54495
# Shear Modulus (GPa) = 12.19859 24.60862 18.40361
#
# Velocity S-wave (km/s) = 2.48776 3.53343 3.05566
# Velocity P-wave (km/s) = 3.37655 5.68465 4.67527
#
# Compressibility (1/GPa) = 0.16110437
#
# Stress axis : x y z
#
# Youngs Moduli (GPa) = 25.18214 25.62664 21.90528
#
# Poissons Ratio (x) = 0.12369 -0.59469
# Poissons Ratio (y) = 0.12155 0.08677
# Poissons Ratio (z) = -0.68365 0.10151
#
# Static dielectric constant tensor:
#      x y z
#    x 1.695110 0.000000 0.020450 
#    y 0.000000 1.657240 0.000000 
#    z 0.020450 0.000000 1.711630 
# 
# From -- ./inp_files/71473.got.cif
#   From: 2010.05.17/outbox.ucp.g08.bks.cvg/sg10_36_cif.got.tgz:71473.got - 2010.06.11 11:31:16.
