data_PCOD9155736
_publ_section_title
;
Structure prediction by ZEFSAII (Michael W. Deem and Ramdas Pophale) SiO2 
 PCOD9155736
Probable space group: P 21/M
;
_chemical_formula_sum "Si O2"
_cell_formula_units_Z 32
_cell_length_a 11.467546
_cell_length_b 19.175322
_cell_length_c 10.620983
_cell_angle_alpha 90.000000
_cell_angle_beta 125.263250
_cell_angle_gamma 90.000000
_cell_volume 1906.945797
_symmetry_space_group_name_H-M "P 21/M"
_symmetry_group_IT_number 11
_symmetry_cell_setting 'monoclinic'
loop_
_space_group_symop_operation_xyz
x,y,z
-x,1/2+y,-z
-x,-y,-z
x,1/2-y,z
loop_
_atom_site_type_symbol
_atom_site_label
_atom_site_fract_x
_atom_site_fract_y
_atom_site_fract_z
Si Si1 0.523323 0.390988 0.586803
Si Si2 0.715472 0.936866 0.894740
Si Si3 0.411561 0.967893 0.634883
Si Si4 0.977576 0.402721 0.238434
Si Si5 0.191191 0.594368 0.114875
Si Si6 0.750254 0.670559 0.688205
Si Si7 0.017724 0.069698 0.788405
Si Si8 0.898656 0.066865 0.458220
O O1 0.580553 0.424646 0.491246
O O2 0.442871 0.452993 0.611991
O O3 0.662750 0.368969 0.751202
O O4 0.402499 0.336236 0.475345
O O5 0.545582 0.943678 0.803448
O O6 0.743212 0.879222 0.805746
O O7 0.767803 0.012166 0.875049
O O8 0.815080 0.921740 0.076260
O O9 0.261020 0.956667 0.607108
O O10 0.008438 0.485731 0.236660
O O11 0.907143 0.393594 0.331125
O O12 0.124125 0.360871 0.318696
O O13 0.875403 0.382209 0.058663
O O14 0.072843 0.597675 0.150305
O O15 0.780049 0.750000 0.740588
O O16 0.963827 0.101848 0.624134
O O17 0.000000 0.000000 0.500000
#
# Coordination Sequence:
#
# PCOD9155736 Si02
#       8
#     4   4   4   4   4   4   4   4
#     4   9  17  28  49  72  95 125 168 200 253 291
#     4   9  17  29  51  76  99 123 168 203 253 296
#     4   9  16  28  47  74  99 127 154 209 255 294
#     4  10  19  31  46  75 106 132 161 196 248 307
#     4  10  15  29  54  74 101 126 157 207 257 292
#     4  11  20  32  49  71 100 131 167 208 243 295
#     4  10  15  29  51  78 102 128 156 208 252 293
#     4  10  19  27  45  75 109 131 157 194 249 309
#
# _framework density 16.780759
#
# number of rings (size 3 to 8) (size 9 to 14) (size 15 to 20)
#    0.000    2.250    3.750    3.000    0.000    0.000 
#    0.000   11.875    0.000    3.750    0.000    0.000 
#    0.000    0.000    0.000    0.000    0.000    0.000 
#
# Total GULP energy -178268.544609 kJ/mol
# GULP energy per Si atom -5570.892019 kJ/mol
# Density = 1.674257 g / cm^3
# Si number density = 16.780759 Si / 1000 Ang^3
#
#
#
# Elastic Constant Matrix: (Units=GPa)
#
#
# Indices 1 2 3 4 5 6 
#
# 1 110.0434 15.7746 55.4703 0.0000 12.1630 0.0000
# 2 15.7746 23.7331 4.2581 0.0000 3.9752 0.0000
# 3 55.4703 4.2581 129.7327 0.0000 3.9386 0.0000
# 4 0.0000 0.0000 0.0000 7.3930 0.0000 1.2072
# 5 12.1630 3.9752 3.9386 0.0000 26.7022 0.0000
# 6 0.0000 0.0000 0.0000 1.2072 0.0000 4.3318
#
#
#
# Elastic Compliance Matrix: (Units=1/GPa)
#
#
# Indices 1 2 3 4 5 6 
#
# 1 0.013249 -0.007153 -0.005303 0.000000 -0.004188 0.000000
# 2 -0.007153 0.047270 0.001629 0.000000 -0.004019 0.000000
# 3 -0.005303 0.001629 0.009900 0.000000 0.000713 0.000000
# 4 0.000000 0.000000 0.000000 0.141713 0.000000 -0.039494
# 5 -0.004188 -0.004019 0.000713 0.000000 0.039851 0.000000
# 6 0.000000 0.000000 0.000000 -0.039494 0.000000 0.241857
#
#
# Mechanical properties :
#
#
# Convention : Reuss Voigt Hill
#
# Bulk Modulus (GPa) = 20.50623 46.05726 33.28174
# Shear Modulus (GPa) = 9.40294 20.21915 14.81104
#
# Velocity S-wave (km/s) = 2.36972 3.47493 2.97412
# Velocity P-wave (km/s) = 4.44230 6.60350 5.62762
#
# Compressibility (1/GPa) = 0.04876567
#
# Stress axis : x y z
#
# Youngs Moduli (GPa) = 75.47973 21.15484 101.00597
#
# Poissons Ratio (x) = 0.15132 0.53562
# Poissons Ratio (y) = 0.53991 -0.16453
# Poissons Ratio (z) = 0.40026 -0.03446
#
# Static dielectric constant tensor:
#      x y z
#    x 1.557600 0.000000 0.005020 
#    y 0.000000 1.543100 0.000000 
#    z 0.005020 0.000000 1.628040 
# 
# From -- ./inp_files/36283.got.cif
#   From: 2010.05.17/outbox.cif.g08.bks.cpg/sg11_19_cif.got.tgz:36283.got - 2010.06.03 12:22:45.
