data_PCOD9155836
_publ_section_title
;
Structure prediction by ZEFSAII (Michael W. Deem and Ramdas Pophale) SiO2 
 PCOD9155836
Probable space group: P 21/M
;
_chemical_formula_sum "Si O2"
_cell_formula_units_Z 20
_cell_length_a 6.867193
_cell_length_b 14.625139
_cell_length_c 10.458413
_cell_angle_alpha 90.000000
_cell_angle_beta 45.863152
_cell_angle_gamma 90.000000
_cell_volume 753.832812
_symmetry_space_group_name_H-M "P 21/M"
_symmetry_group_IT_number 11
_symmetry_cell_setting 'monoclinic'
loop_
_space_group_symop_operation_xyz
x,y,z
-x,1/2+y,-z
-x,-y,-z
x,1/2-y,z
loop_
_atom_site_type_symbol
_atom_site_label
_atom_site_fract_x
_atom_site_fract_y
_atom_site_fract_z
Si Si1 0.017308 0.052076 0.700430
Si Si2 0.227191 0.250000 0.545210
Si Si3 0.394366 0.250000 0.093626
Si Si4 0.624786 0.442915 0.632315
Si Si5 0.338980 0.750000 0.311854
Si Si6 0.134077 0.750000 0.815432
Si Si7 0.718897 0.407528 0.085034
O O1 0.815045 0.052862 0.671880
O O2 0.154411 0.152448 0.641412
O O3 0.777974 0.026824 0.434858
O O4 0.857182 0.041590 0.903950
O O5 0.545370 0.250000 0.365897
O O6 0.992420 0.250000 0.539952
O O7 0.491457 0.339808 0.126638
O O8 0.079900 0.250000 0.200591
O O9 0.559751 0.250000 0.882488
O O10 0.549386 0.338119 0.668311
O O11 0.403282 0.518353 0.764611
O O12 0.090526 0.838851 0.923844
#
# Coordination Sequence:
#
# PCOD9155836 Si02
#       7
#     4   2   2   4   2   2   4
#     4  10  19  34  68  97 130 178 231 279 338 418
#     4  10  16  38  63  91 135 180 217 272 349 399
#     4  11  23  41  66 107 143 173 232 291 338 417
#     4  10  20  36  67 105 130 178 239 283 339 415
#     4  10  21  40  67  98 137 181 229 290 347 404
#     4  11  24  39  70 104 141 184 226 287 346 410
#     4  11  21  42  73  97 136 191 227 275 355 413
#
# _framework density 26.531082000000001
#
# number of rings (size 3 to 8) (size 9 to 14) (size 15 to 20)
#    0.000    1.600    6.000    1.200    0.000    0.000 
#    0.000    2.000   17.600    6.000    0.000    0.000 
#    0.000    0.000    0.000    0.000    0.000    0.000 
#
# Total GULP energy -112200.448308 kJ/mol
# GULP energy per Si atom -5610.022415 kJ/mol
# Density = 2.647070 g / cm^3
# Si number density = 26.531082 Si / 1000 Ang^3
#
#
#
# Elastic Constant Matrix: (Units=GPa)
#
#
# Indices 1 2 3 4 5 6 
#
# 1 177.1891 23.1993 34.6720 0.0000 -13.9228 0.0000
# 2 23.1993 196.2414 45.0978 0.0000 5.5896 0.0000
# 3 34.6720 45.0978 135.4113 0.0000 8.0066 0.0000
# 4 0.0000 0.0000 0.0000 30.1704 0.0000 1.8759
# 5 -13.9228 5.5896 8.0066 0.0000 37.2051 0.0000
# 6 0.0000 0.0000 0.0000 1.8759 0.0000 -4.2445
#
#
#
# Elastic Compliance Matrix: (Units=1/GPa)
#
#
# Indices 1 2 3 4 5 6 
#
# 1 0.006233 -0.000445 -0.001610 0.000000 0.002746 0.000000
# 2 -0.000445 0.005557 -0.001699 0.000000 -0.000636 0.000000
# 3 -0.001610 -0.001699 0.008492 0.000000 -0.002175 0.000000
# 4 0.000000 0.000000 0.000000 0.032259 0.000000 0.014257
# 5 0.002746 -0.000636 -0.002175 0.000000 0.028469 0.000000
# 6 0.000000 0.000000 0.000000 0.014257 0.000000 -0.229297
#
#
# Mechanical properties :
#
#
# Convention : Reuss Voigt Hill
#
# Bulk Modulus (GPa) = 78.29083 79.42000 78.85541
# Shear Modulus (GPa) = -36.62411 39.68438 1.53013
#
# Velocity S-wave (km/s) = -3.71943 3.87171 0.76025
# Velocity P-wave (km/s) = 3.33580 7.07012 5.52784
#
# Compressibility (1/GPa) = 0.01277289
#
# Stress axis : x y z
#
# Youngs Moduli (GPa) = 160.44277 179.95432 117.76304
#
# Poissons Ratio (x) = 0.08009 0.18960
# Poissons Ratio (y) = 0.07140 0.20010
# Poissons Ratio (z) = 0.25832 0.30577
#
# Static dielectric constant tensor:
#      x y z
#    x 2.094470 0.000000 -0.058560 
#    y 0.000000 2.036780 0.000000 
#    z -0.058560 0.000000 2.056710 
# 
# From -- ./inp_files/10078.got.cif
#   From: 2010.05.17/outbox.cif.g08.bks.cpg/sg11_6_cif.got.tgz:10078.got - 2010.06.03 12:22:45.
