data_PCOD9155880
_publ_section_title
;
Structure prediction by ZEFSAII (Michael W. Deem and Ramdas Pophale) SiO2 
 PCOD9155880
Probable space group: P 21/M
;
_chemical_formula_sum "Si O2"
_cell_formula_units_Z 32
_cell_length_a 16.435464
_cell_length_b 8.917263
_cell_length_c 14.676645
_cell_angle_alpha 90.000000
_cell_angle_beta 95.718200
_cell_angle_gamma 90.000000
_cell_volume 2140.296188
_symmetry_space_group_name_H-M "P 21/M"
_symmetry_group_IT_number 11
_symmetry_cell_setting 'monoclinic'
loop_
_space_group_symop_operation_xyz
x,y,z
-x,1/2+y,-z
-x,-y,-z
x,1/2-y,z
loop_
_atom_site_type_symbol
_atom_site_label
_atom_site_fract_x
_atom_site_fract_y
_atom_site_fract_z
Si Si1 0.381038 0.422858 0.545135
Si Si2 0.228631 0.926593 0.444885
Si Si3 0.074455 0.429441 0.951969
Si Si4 0.975804 0.069223 0.773585
Si Si5 0.051895 0.070946 0.424335
Si Si6 0.468090 0.423023 0.355397
Si Si7 0.313964 0.926979 0.256707
Si Si8 0.824789 0.569840 0.871482
O O1 0.363540 0.250000 0.565173
O O2 0.298590 0.516474 0.521366
O O3 0.425777 0.425136 0.451096
O O4 0.445691 0.494271 0.621986
O O5 0.212518 0.750000 0.455160
O O6 0.264875 0.947667 0.346866
O O7 0.146001 0.019717 0.444746
O O8 0.067231 0.250000 0.955537
O O9 0.054665 0.469437 0.845383
O O10 0.153952 0.468596 0.020653
O O11 0.000000 0.500000 0.000000
O O12 0.968371 0.250000 0.765301
O O13 0.978395 0.995641 0.675260
O O14 0.895996 0.005672 0.817679
O O15 0.045832 0.250000 0.423878
O O16 0.000000 0.000000 0.500000
O O17 0.479267 0.250000 0.331033
O O18 0.403522 0.504606 0.282928
O O19 0.318846 0.750000 0.240178
O O20 0.260937 0.008538 0.174009
O O21 0.828689 0.750000 0.860574
#
# Coordination Sequence:
#
# PCOD9155880 Si02
#       8
#     4   4   4   4   4   4   4   4
#     4   9  16  26  40  57  78 104 138 173 209 250
#     4  10  19  31  45  60  80 107 141 177 217 256
#     4   8  16  27  41  60  82 107 137 172 209 251
#     4  10  18  31  46  61  82 108 139 177 218 257
#     4  12  24  36  49  64  83 108 143 184 226 264
#     4   9  16  25  37  55  79 107 140 174 208 246
#     4  10  18  26  39  58  84 114 143 176 213 250
#     4  10  17  26  41  62  85 112 144 175 209 252
#
# _framework density 14.951203
#
# number of rings (size 3 to 8) (size 9 to 14) (size 15 to 20)
#    0.000    2.250    1.250    3.375    0.000    5.000 
#    0.000    0.000    0.000    0.000    0.000    0.000 
#    0.000    0.000    0.000    1.125    0.000   14.250 
#
# Total GULP energy -178292.064972 kJ/mol
# GULP energy per Si atom -5571.627030 kJ/mol
# Density = 1.491717 g / cm^3
# Si number density = 14.951203 Si / 1000 Ang^3
#
#
#
# Elastic Constant Matrix: (Units=GPa)
#
#
# Indices 1 2 3 4 5 6 
#
# 1 64.7080 45.6536 57.4933 0.0000 37.3958 0.0000
# 2 45.6536 92.9324 44.1591 0.0000 21.2043 0.0000
# 3 57.4933 44.1591 84.1293 0.0000 31.7120 0.0000
# 4 0.0000 0.0000 0.0000 16.8474 0.0000 6.6086
# 5 37.3958 21.2043 31.7120 0.0000 32.6372 0.0000
# 6 0.0000 0.0000 0.0000 6.6086 0.0000 24.6770
#
#
#
# Elastic Compliance Matrix: (Units=1/GPa)
#
#
# Indices 1 2 3 4 5 6 
#
# 1 0.087983 -0.015370 -0.028124 0.000000 -0.063499 0.000000
# 2 -0.015370 0.017231 -0.001513 0.000000 0.007887 0.000000
# 3 -0.028124 -0.001513 0.030585 0.000000 0.003490 0.000000
# 4 0.000000 0.000000 0.000000 0.066324 0.000000 -0.017762
# 5 -0.063499 0.007887 0.003490 0.000000 0.094882 0.000000
# 6 0.000000 0.000000 0.000000 -0.017762 0.000000 0.045280
#
#
# Mechanical properties :
#
#
# Convention : Reuss Voigt Hill
#
# Bulk Modulus (GPa) = 21.84153 59.59796 40.71974
# Shear Modulus (GPa) = 11.17164 21.12991 16.15078
#
# Velocity S-wave (km/s) = 2.73647 3.76341 3.29025
# Velocity P-wave (km/s) = 4.96232 7.67024 6.45977
#
# Compressibility (1/GPa) = 0.04578435
#
# Stress axis : x y z
#
# Youngs Moduli (GPa) = 11.36578 58.03558 32.69560
#
# Poissons Ratio (x) = 0.89202 0.91953
# Poissons Ratio (y) = 0.17469 0.04948
# Poissons Ratio (z) = 0.31965 0.08783
#
# Static dielectric constant tensor:
#      x y z
#    x 1.485270 0.000000 0.039430 
#    y 0.000000 1.510490 0.000000 
#    z 0.039430 0.000000 1.498120 
# 
# From -- ./inp_files/51332.got.cif
#   From: 2010.05.17/outbox.cif.g08.bks.cpg/sg11_26_cif.got.tgz:51332.got - 2010.06.03 12:22:45.
