data_PCOD9155929
_publ_section_title
;
Structure prediction by ZEFSAII (Michael W. Deem and Ramdas Pophale) SiO2 
 PCOD9155929
Probable space group: P 21/M
;
_chemical_formula_sum "Si O2"
_cell_formula_units_Z 32
_cell_length_a 17.479261
_cell_length_b 7.599561
_cell_length_c 17.335553
_cell_angle_alpha 90.000000
_cell_angle_beta 51.905896
_cell_angle_gamma 90.000000
_cell_volume 1812.271183
_symmetry_space_group_name_H-M "P 21/M"
_symmetry_group_IT_number 11
_symmetry_cell_setting 'monoclinic'
loop_
_space_group_symop_operation_xyz
x,y,z
-x,1/2+y,-z
-x,-y,-z
x,1/2-y,z
loop_
_atom_site_type_symbol
_atom_site_label
_atom_site_fract_x
_atom_site_fract_y
_atom_site_fract_z
Si Si1 0.722414 0.547501 0.218693
Si Si2 0.960077 0.538142 0.806367
Si Si3 0.485573 0.037769 0.600339
Si Si4 0.958771 0.042200 0.636535
Si Si5 0.902704 0.962340 0.010312
Si Si6 0.817268 0.463247 0.319435
Si Si7 0.313989 0.964955 0.453335
Si Si8 0.843476 0.455083 0.562402
O O1 0.706988 0.750000 0.203602
O O2 0.615977 0.468872 0.301591
O O3 0.803822 0.468743 0.111216
O O4 0.774061 0.543232 0.269339
O O5 0.958470 0.750000 0.809408
O O6 0.921923 0.485620 0.746057
O O7 0.072257 0.480468 0.738410
O O8 0.913434 0.475342 0.915392
O O9 0.482807 0.250000 0.606451
O O10 0.577592 0.976015 0.593431
O O11 0.500000 0.000000 0.500000
O O12 0.970240 0.250000 0.616212
O O13 0.886887 0.970006 0.614927
O O14 0.066132 0.964009 0.554121
O O15 0.896469 0.750000 0.013063
O O16 0.000000 0.000000 0.000000
O O17 0.815241 0.250000 0.313278
O O18 0.751652 0.512477 0.432419
O O19 0.315897 0.750000 0.448499
O O20 0.253668 0.029073 0.416527
O O21 0.823253 0.250000 0.589907
#
# Coordination Sequence:
#
# PCOD9155929 Si02
#       8
#     4   4   4   4   4   4   4   4
#     4  10  20  31  43  65  94 115 145 196 230 246
#     4  10  19  31  45  61  87 123 154 177 215 270
#     4  10  19  30  45  65  89 118 149 183 219 259
#     4  10  19  28  44  68  91 113 143 186 227 260
#     4  10  20  32  46  65  89 120 153 187 224 264
#     4  10  17  27  45  64  85 120 157 179 208 263
#     4   9  16  28  45  62  84 118 152 174 204 262
#     4   9  17  31  46  63  89 119 148 178 217 269
#
# _framework density 17.657402000000001
#
# number of rings (size 3 to 8) (size 9 to 14) (size 15 to 20)
#    0.000    2.250    3.750    0.375    0.000    1.500 
#    0.000    0.625    0.000    0.000    0.000    0.875 
#    0.000    0.000    0.000    0.000    0.000    0.000 
#
# Total GULP energy -178385.268682 kJ/mol
# GULP energy per Si atom -5574.539646 kJ/mol
# Density = 1.761721 g / cm^3
# Si number density = 17.657402 Si / 1000 Ang^3
#
#
#
# Elastic Constant Matrix: (Units=GPa)
#
#
# Indices 1 2 3 4 5 6 
#
# 1 135.8168 0.5649 76.0771 0.0000 2.9488 0.0000
# 2 0.5649 38.4243 4.1657 0.0000 -3.4861 0.0000
# 3 76.0771 4.1657 131.3174 0.0000 -6.2766 0.0000
# 4 0.0000 0.0000 0.0000 9.1671 0.0000 7.4980
# 5 2.9488 -3.4861 -6.2766 0.0000 28.1022 0.0000
# 6 0.0000 0.0000 0.0000 7.4980 0.0000 9.0318
#
#
#
# Elastic Compliance Matrix: (Units=1/GPa)
#
#
# Indices 1 2 3 4 5 6 
#
# 1 0.011092 0.000313 -0.006560 0.000000 -0.002590 0.000000
# 2 0.000313 0.026392 -0.000873 0.000000 0.003046 0.000000
# 3 -0.006560 -0.000873 0.011595 0.000000 0.003170 0.000000
# 4 0.000000 0.000000 0.000000 0.339847 0.000000 -0.282133
# 5 -0.002590 0.003046 0.003170 0.000000 0.036942 0.000000
# 6 0.000000 0.000000 0.000000 -0.282133 0.000000 0.344941
#
#
# Mechanical properties :
#
#
# Convention : Reuss Voigt Hill
#
# Bulk Modulus (GPa) = 28.70346 51.90822 40.30584
# Shear Modulus (GPa) = 6.27620 24.24361 15.25990
#
# Velocity S-wave (km/s) = 1.88736 3.70942 2.94295
# Velocity P-wave (km/s) = 4.58700 6.91431 5.86721
#
# Compressibility (1/GPa) = 0.03483900
#
# Stress axis : x y z
#
# Youngs Moduli (GPa) = 90.15257 37.89083 86.24595
#
# Poissons Ratio (x) = -0.01186 0.56577
# Poissons Ratio (y) = -0.02823 0.07529
# Poissons Ratio (z) = 0.59139 0.03308
#
# Static dielectric constant tensor:
#      x y z
#    x 1.624460 0.000000 -0.002620 
#    y 0.000000 1.672740 0.000000 
#    z -0.002620 0.000000 1.609190 
# 
# From -- ./inp_files/60689.got.cif
#   From: 2010.05.17/outbox.cif.g08.bks.cpg/sg11_31_cif.got.tgz:60689.got - 2010.06.03 12:22:45.
