data_PCOD9155337
_publ_section_title
;
Structure prediction by ZEFSAII (Michael W. Deem and Ramdas Pophale) SiO2 
 PCOD9155337
Probable space group: P 2/M
;
_chemical_formula_sum "Si O2"
_cell_formula_units_Z 32
_cell_length_a 24.000000
_cell_length_b 9.000000
_cell_length_c 15.000000
_cell_angle_alpha 90.000000
_cell_angle_beta 30.000000
_cell_angle_gamma 90.000000
_cell_volume 1620.000000
_symmetry_space_group_name_H-M "P 2/M"
_symmetry_group_IT_number 10
_symmetry_cell_setting 'monoclinic'
loop_
_space_group_symop_operation_xyz
x,y,z
-x,y,-z
-x,-y,-z
x,-y,z
loop_
_atom_site_type_symbol
_atom_site_label
_atom_site_fract_x
_atom_site_fract_y
_atom_site_fract_z
Si Si1 0.073938 0.322459 0.646641
Si Si2 0.253858 0.332393 0.684238
Si Si3 0.292415 0.326059 0.428088
Si Si4 0.518679 0.823151 0.077262
Si Si5 0.052691 0.167479 0.025111
Si Si6 0.492768 0.324226 0.609390
Si Si7 0.672823 0.680775 0.006801
Si Si8 0.927050 0.680490 0.686255
O O1 0.082552 0.500000 0.625888
O O2 0.201845 0.271010 0.481600
O O3 0.009000 0.280150 0.825395
O O4 0.997331 0.264051 0.673182
O O5 0.222193 0.500000 0.756522
O O6 0.235714 0.320742 0.603713
O O7 0.384404 0.314876 0.520192
O O8 0.180443 0.214724 0.837821
O O9 0.321463 0.500000 0.371261
O O10 0.402765 0.229487 0.280863
O O11 0.618721 0.744358 0.991463
O O12 0.532771 0.000000 0.062645
O O13 0.500000 0.779672 0.000000
O O14 0.039635 0.000000 0.076978
O O15 0.000000 0.174819 0.000000
O O16 0.500000 0.259099 0.500000
O O17 0.464595 0.500000 0.638143
O O18 0.403518 0.267237 0.804216
O O19 0.668419 0.500000 0.007661
O O20 0.799628 0.727829 0.849757
O O21 0.922444 0.500000 0.699587
O O22 0.000000 0.718668 0.500000
#
# Coordination Sequence:
#
# PCOD9155337 Si02
#       8
#     4   4   4   4   4   4   4   4
#     4  10  21  37  60  88 117 152 196 243 295 348
#     4  10  19  34  56  82 114 146 190 242 290 345
#     4  10  20  36  60  90 116 145 194 248 296 347
#     4  11  25  41  59  85 118 155 194 239 297 355
#     4  11  23  36  52  80 118 158 195 231 282 343
#     4   9  18  32  54  85 115 148 188 233 287 344
#     4  10  20  38  63  89 118 152 195 243 291 347
#     4   9  20  37  60  91 120 148 191 249 302 346
#
# _framework density 19.753086
#
# number of rings (size 3 to 8) (size 9 to 14) (size 15 to 20)
#    0.000    2.000    2.500    0.750    3.500    2.500 
#    0.000    0.625    0.000    1.500    0.000    0.000 
#    0.000    0.000    0.000    0.000    0.000    0.000 
#
# Total GULP energy -178428.985268 kJ/mol
# GULP energy per Si atom -5575.905790 kJ/mol
# Density = 1.970813 g / cm^3
# Si number density = 19.753086 Si / 1000 Ang^3
#
#
#
# Elastic Constant Matrix: (Units=GPa)
#
#
# Indices 1 2 3 4 5 6 
#
# 1 134.3116 20.6784 23.0840 0.0000 -10.6094 0.0000
# 2 20.6784 -11.5539 -4.7940 0.0000 -7.7539 0.0000
# 3 23.0840 -4.7940 23.8754 0.0000 -8.8508 0.0000
# 4 0.0000 0.0000 0.0000 -536.0632 0.0000 189.7168
# 5 -10.6094 -7.7539 -8.8508 0.0000 22.1226 0.0000
# 6 0.0000 0.0000 0.0000 189.7168 0.0000 -65.0528
#
#
#
# Elastic Compliance Matrix: (Units=1/GPa)
#
#
# Indices 1 2 3 4 5 6 
#
# 1 0.006861 0.009606 -0.002626 0.000000 0.005606 0.000000
# 2 0.009606 -0.044228 -0.026074 0.000000 -0.021327 0.000000
# 3 -0.002626 -0.026074 0.041486 0.000000 0.006200 0.000000
# 4 0.000000 0.000000 0.000000 0.058081 0.000000 0.169385
# 5 0.005606 -0.021327 0.006200 0.000000 0.042897 0.000000
# 6 0.000000 0.000000 0.000000 0.169385 0.000000 0.478615
#
#
# Mechanical properties :
#
#
# Convention : Reuss Voigt Hill
#
# Bulk Modulus (GPa) = -29.35182 24.95223 -2.19979
# Shear Modulus (GPa) = 8.18941 -108.62106 -50.21582
#
# Velocity S-wave (km/s) = 2.03836 -7.42353 -5.04747
# Velocity P-wave (km/s) = 3.05807 7.79865 5.92329
#
# Compressibility (1/GPa) = -0.03406944
#
# Stress axis : x y z
#
# Youngs Moduli (GPa) = 145.75856 -22.61028 24.10450
#
# Poissons Ratio (x) = 0.21719 0.06330
# Poissons Ratio (y) = -1.40015 0.62850
# Poissons Ratio (z) = 0.38278 -0.58954
#
# Static dielectric constant tensor:
#      x y z
#    x 1.635990 0.000000 0.020600 
#    y 0.000000 1.678760 0.000000 
#    z 0.020600 0.000000 1.704730 
# 
# From -- ./inp_files/71542.got.cif
#   From: 2010.05.17/outbox.ucp.g08.bks.cvg/sg10_36_cif.got.tgz:71542.got - 2010.06.11 11:31:16.
