data_PCOD9155185
_publ_section_title
;
Structure prediction by ZEFSAII (Michael W. Deem and Ramdas Pophale) SiO2 
 PCOD9155185
Probable space group: P 2/M
;
_chemical_formula_sum "Si O2"
_cell_formula_units_Z 32
_cell_length_a 21.000000
_cell_length_b 9.000000
_cell_length_c 27.000000
_cell_angle_alpha 90.000000
_cell_angle_beta 160.000000
_cell_angle_gamma 90.000000
_cell_volume 1745.328791
_symmetry_space_group_name_H-M "P 2/M"
_symmetry_group_IT_number 10
_symmetry_cell_setting 'monoclinic'
loop_
_space_group_symop_operation_xyz
x,y,z
-x,y,-z
-x,-y,-z
x,-y,z
loop_
_atom_site_type_symbol
_atom_site_label
_atom_site_fract_x
_atom_site_fract_y
_atom_site_fract_z
Si Si1 0.821171 0.830932 0.647873
Si Si2 0.522694 0.179288 0.174916
Si Si3 0.543680 0.673368 0.379071
Si Si4 0.255037 0.177565 0.567233
Si Si5 0.455813 0.325324 0.023480
Si Si6 0.915157 0.167378 0.255822
Si Si7 0.175333 0.172456 0.091993
Si Si8 0.140256 0.180152 0.951025
O O1 0.649301 0.735670 0.504148
O O2 0.949568 0.839054 0.692515
O O3 0.953486 0.767923 0.787243
O O4 0.764172 0.000000 0.618481
O O5 0.678988 0.220914 0.329801
O O6 0.519411 0.000000 0.167841
O O7 0.545060 0.247225 0.136710
O O8 0.326112 0.226391 0.056950
O O9 0.572664 0.500000 0.396270
O O10 0.622737 0.747349 0.386329
O O11 0.331682 0.720772 0.227072
O O12 0.041401 0.204418 0.395678
O O13 0.284641 0.000000 0.584548
O O14 0.495584 0.500000 0.054547
O O15 0.238053 0.288067 0.867840
O O16 0.500000 0.270178 0.000000
O O17 0.834673 0.000000 0.202510
O O18 0.242499 0.000000 0.140205
O O19 0.141162 0.215401 0.009713
O O20 0.000000 0.177790 0.000000
O O21 0.138211 0.000000 0.945589
#
# Coordination Sequence:
#
# PCOD9155185 Si02
#       8
#     4   4   4   4   4   4   4   4
#     4   9  17  32  54  78 105 135 174 224 268 308
#     4  10  18  34  59  82 104 133 177 229 267 306
#     4  11  21  32  50  79 112 144 177 214 264 320
#     4   9  18  34  57  82 108 134 171 224 273 314
#     4  11  24  38  51  74 112 150 179 213 263 324
#     4   9  17  32  55  81 103 135 177 221 270 313
#     4  10  20  36  58  81 108 144 181 221 271 321
#     4   9  16  31  56  83 105 131 176 227 268 307
#
# _framework density 18.334654
#
# number of rings (size 3 to 8) (size 9 to 14) (size 15 to 20)
#    0.000    2.250    2.500    2.250    0.000    3.750 
#    0.000    1.875    0.000    7.500    0.000    0.000 
#    0.000    0.000    0.000    0.000    0.000    0.000 
#
# Total GULP energy -178305.856807 kJ/mol
# GULP energy per Si atom -5572.058025 kJ/mol
# Density = 1.829292 g / cm^3
# Si number density = 18.334654 Si / 1000 Ang^3
#
#
#
# Elastic Constant Matrix: (Units=GPa)
#
#
# Indices 1 2 3 4 5 6 
#
# 1 35.6425 -1.4552 1.4330 0.0000 -13.6431 0.0000
# 2 -1.4552 13.1241 11.5499 0.0000 -7.6738 0.0000
# 3 1.4330 11.5499 62.0066 0.0000 -33.0163 0.0000
# 4 0.0000 0.0000 0.0000 43.9505 0.0000 11.6440
# 5 -13.6431 -7.6738 -33.0163 0.0000 21.0059 0.0000
# 6 0.0000 0.0000 0.0000 11.6440 0.0000 9.3535
#
#
#
# Elastic Compliance Matrix: (Units=1/GPa)
#
#
# Indices 1 2 3 4 5 6 
#
# 1 -0.054924 -0.039753 -0.110689 0.000000 -0.224172 0.000000
# 2 -0.039753 0.068363 -0.075202 0.000000 -0.119045 0.000000
# 3 -0.110689 -0.075202 -0.123942 0.000000 -0.294171 0.000000
# 4 0.000000 0.000000 0.000000 0.033950 0.000000 -0.042264
# 5 -0.224172 -0.119045 -0.294171 0.000000 -0.603847 0.000000
# 6 0.000000 0.000000 0.000000 -0.042264 0.000000 0.159525
#
#
# Mechanical properties :
#
#
# Convention : Reuss Voigt Hill
#
# Bulk Modulus (GPa) = -1.78002 14.86985 6.54492
# Shear Modulus (GPa) = -19.46658 21.47834 1.00588
#
# Velocity S-wave (km/s) = -3.26197 3.42638 0.74149
# Velocity P-wave (km/s) = 3.89361 4.87660 2.07618
#
# Compressibility (1/GPa) = -0.56179093
#
# Stress axis : x y z
#
# Youngs Moduli (GPa) = -18.20698 14.62773 -8.06828
#
# Poissons Ratio (x) = 0.58149 -0.89307
# Poissons Ratio (y) = -0.72378 -0.60675
# Poissons Ratio (z) = -2.01531 1.10004
#
# Static dielectric constant tensor:
#      x y z
#    x 1.623740 0.000000 -0.005620 
#    y 0.000000 1.628320 0.000000 
#    z -0.005620 0.000000 1.681240 
# 
# From -- ./inp_files/93720.got.cif
#   From: 2010.05.17/outbox.ucp.g08.bks.cvg/sg10_47_cif.got.tgz:93720.got - 2010.06.11 11:31:16.
