data_PCOD9155626
_publ_section_title
;
Structure prediction by ZEFSAII (Michael W. Deem and Ramdas Pophale) SiO2 
 PCOD9155626
Probable space group: P 2/M
;
_chemical_formula_sum "Si O2"
_cell_formula_units_Z 32
_cell_length_a 27.000000
_cell_length_b 9.000000
_cell_length_c 21.000000
_cell_angle_alpha 90.000000
_cell_angle_beta 160.000000
_cell_angle_gamma 90.000000
_cell_volume 1745.328791
_symmetry_space_group_name_H-M "P 2/M"
_symmetry_group_IT_number 10
_symmetry_cell_setting 'monoclinic'
loop_
_space_group_symop_operation_xyz
x,y,z
-x,y,-z
-x,-y,-z
x,-y,z
loop_
_atom_site_type_symbol
_atom_site_label
_atom_site_fract_x
_atom_site_fract_y
_atom_site_fract_z
Si Si1 0.015249 0.175483 0.682339
Si Si2 0.697181 0.671933 0.016548
Si Si3 0.078941 0.321665 0.891324
Si Si4 0.619152 0.828993 0.589023
Si Si5 0.921696 0.678293 0.969163
Si Si6 0.472262 0.321565 0.067954
Si Si7 0.591339 0.668263 0.746789
Si Si8 0.731323 0.322164 0.299226
O O1 0.879175 0.235581 0.479473
O O2 0.159168 0.235843 0.822496
O O3 0.009481 0.244004 0.746556
O O4 0.018127 0.000000 0.689914
O O5 0.737393 0.500000 0.080581
O O6 0.595859 0.734426 0.949399
O O7 0.614188 0.667894 0.849574
O O8 0.060792 0.500000 0.862962
O O9 0.026304 0.272606 0.897613
O O10 0.252149 0.293099 0.094349
O O11 0.500000 0.808427 0.500000
O O12 0.755649 0.725323 0.763758
O O13 0.532203 0.781201 0.421683
O O14 0.665242 0.000000 0.644206
O O15 0.933647 0.500000 0.983846
O O16 0.000000 0.735048 0.000000
O O17 0.487871 0.500000 0.093329
O O18 0.359434 0.297236 0.874523
O O19 0.628061 0.269160 0.232233
O O20 0.554370 0.500000 0.680900
O O21 0.755948 0.500000 0.334623
#
# Coordination Sequence:
#
# PCOD9155626 Si02
#       8
#     4   4   4   4   4   4   4   4
#     4  11  22  34  51  78 110 144 177 211 257 315
#     4   9  18  35  56  80 106 135 175 223 268 305
#     4   9  18  35  57  78 102 136 176 220 264 307
#     4  11  22  34  53  79 107 142 177 211 258 316
#     4  10  21  38  59  81 104 133 175 224 269 309
#     4   8  16  33  59  83 103 133 176 223 265 305
#     4   9  17  31  54  78 102 134 175 222 263 303
#     4   9  17  34  58  81 105 137 177 218 260 311
#
# _framework density 18.334654
#
# number of rings (size 3 to 8) (size 9 to 14) (size 15 to 20)
#    0.000    2.500    1.250    3.000    0.000    3.750 
#    2.250    5.000    0.000    0.000    0.000    0.000 
#    0.000    0.000    0.000    0.000    0.000    0.000 
#
# Total GULP energy -178302.131512 kJ/mol
# GULP energy per Si atom -5571.941610 kJ/mol
# Density = 1.829292 g / cm^3
# Si number density = 18.334654 Si / 1000 Ang^3
#
#
#
# Elastic Constant Matrix: (Units=GPa)
#
#
# Indices 1 2 3 4 5 6 
#
# 1 82.8494 4.3847 -17.4726 0.0000 8.6496 0.0000
# 2 4.3847 -5.1196 -1.9328 0.0000 -2.5881 0.0000
# 3 -17.4726 -1.9328 8.4871 0.0000 0.6227 0.0000
# 4 0.0000 0.0000 0.0000 123.0343 0.0000 -50.4395
# 5 8.6496 -2.5881 0.6227 0.0000 -3.4325 0.0000
# 6 0.0000 0.0000 0.0000 -50.4395 0.0000 19.3282
#
#
#
# Elastic Compliance Matrix: (Units=1/GPa)
#
#
# Indices 1 2 3 4 5 6 
#
# 1 0.011559 -0.019810 0.015841 0.000000 0.046938 0.000000
# 2 -0.019810 -0.226519 -0.099909 0.000000 0.102754 0.000000
# 3 0.015841 -0.099909 0.117662 0.000000 0.136599 0.000000
# 4 0.000000 0.000000 0.000000 -0.116362 0.000000 -0.303662
# 5 0.046938 0.102754 0.136599 0.000000 -0.225749 0.000000
# 6 0.000000 0.000000 0.000000 -0.303662 0.000000 -0.740706
#
#
# Mechanical properties :
#
#
# Convention : Reuss Voigt Hill
#
# Bulk Modulus (GPa) = -3.27811 6.24171 1.48180
# Shear Modulus (GPa) = -4.65530 34.53518 14.93994
#
# Velocity S-wave (km/s) = -1.59518 4.34476 2.85765
# Velocity P-wave (km/s) = 2.27697 5.34611 3.42026
#
# Compressibility (1/GPa) = -0.30505422
#
# Stress axis : x y z
#
# Youngs Moduli (GPa) = 86.51354 -4.41464 8.49890
#
# Poissons Ratio (x) = -0.08745 -0.13463
# Poissons Ratio (y) = 1.71382 0.84912
# Poissons Ratio (z) = -1.37046 -0.44106
#
# Static dielectric constant tensor:
#      x y z
#    x 1.545290 0.000000 0.025380 
#    y 0.000000 1.620120 0.000000 
#    z 0.025380 0.000000 1.601560 
# 
# From -- ./inp_files/86949.got.cif
#   From: 2010.05.17/outbox.ucp.g08.bks.cvg/sg10_44_cif.got.tgz:86949.got - 2010.06.11 11:31:16.
