data_PCOD9155427
_publ_section_title
;
Structure prediction by ZEFSAII (Michael W. Deem and Ramdas Pophale) SiO2 
 PCOD9155427
Probable space group: P 2/M
;
_chemical_formula_sum "Si O2"
_cell_formula_units_Z 28
_cell_length_a 15.000000
_cell_length_b 9.000000
_cell_length_c 18.000000
_cell_angle_alpha 90.000000
_cell_angle_beta 140.000000
_cell_angle_gamma 90.000000
_cell_volume 1561.973892
_symmetry_space_group_name_H-M "P 2/M"
_symmetry_group_IT_number 10
_symmetry_cell_setting 'monoclinic'
loop_
_space_group_symop_operation_xyz
x,y,z
-x,y,-z
-x,-y,-z
x,-y,z
loop_
_atom_site_type_symbol
_atom_site_label
_atom_site_fract_x
_atom_site_fract_y
_atom_site_fract_z
Si Si1 0.920913 0.180834 0.193327
Si Si2 0.604739 0.323442 0.798087
Si Si3 0.662238 0.820031 0.295435
Si Si4 0.343187 0.180791 0.879644
Si Si5 0.555105 0.676505 0.454813
Si Si6 0.905367 0.179914 0.011632
Si Si7 0.815251 0.178941 0.541872
O O1 0.773062 0.229131 0.134548
O O2 0.948040 0.224342 0.124120
O O3 0.041612 0.228389 0.328012
O O4 0.919787 0.000000 0.192348
O O5 0.612422 0.500000 0.817529
O O6 0.483156 0.250650 0.770370
O O7 0.557510 0.302535 0.682265
O O8 0.751783 0.246001 0.904017
O O9 0.691600 0.777856 0.228374
O O10 0.775897 0.777149 0.431483
O O11 0.649651 0.000000 0.289362
O O12 0.343390 0.000000 0.881815
O O13 0.500000 0.229248 0.000000
O O14 0.500000 0.724934 0.500000
O O15 0.585898 0.500000 0.478501
O O16 0.690776 0.761958 0.513748
O O17 0.900402 0.000000 0.007361
O O18 0.000000 0.224625 0.000000
O O19 0.815888 0.000000 0.542782
#
# Coordination Sequence:
#
# PCOD9155427 Si02
#       7
#     4   4   4   4   4   4   4
#     4   9  18  32  49  75 107 133 166 212 256 299
#     4  10  20  34  52  74 100 131 167 209 254 298
#     4   9  17  31  52  77 101 130 168 206 250 301
#     4   9  16  27  49  76 101 134 171 207 249 299
#     4   9  19  34  51  71  97 132 170 207 248 299
#     4  10  21  35  52  73 100 135 171 208 252 301
#     4   9  18  31  49  75 104 130 163 210 254 295
#
# _framework density 17.926036
#
# number of rings (size 3 to 8) (size 9 to 14) (size 15 to 20)
#    0.000    2.714    0.000    1.286    2.000    4.000 
#    0.000    3.571    0.000    4.714    0.000    4.000 
#    0.000    0.000    0.000    0.000    0.000    0.000 
#
# Total GULP energy -156025.091882 kJ/mol
# GULP energy per Si atom -5572.324710 kJ/mol
# Density = 1.788524 g / cm^3
# Si number density = 17.926036 Si / 1000 Ang^3
#
#
#
# Elastic Constant Matrix: (Units=GPa)
#
#
# Indices 1 2 3 4 5 6 
#
# 1 125.4192 7.9015 68.3936 0.0000 -22.0942 0.0000
# 2 7.9015 4.6032 12.9770 0.0000 -2.0403 0.0000
# 3 68.3936 12.9770 129.0538 0.0000 0.4357 0.0000
# 4 0.0000 0.0000 0.0000 15.4255 0.0000 -4.0540
# 5 -22.0942 -2.0403 0.4357 0.0000 32.8128 0.0000
# 6 0.0000 0.0000 0.0000 -4.0540 0.0000 10.8166
#
#
#
# Elastic Compliance Matrix: (Units=1/GPa)
#
#
# Indices 1 2 3 4 5 6 
#
# 1 0.013526 0.001683 -0.007369 0.000000 0.009310 0.000000
# 2 0.001683 0.316071 -0.032746 0.000000 0.021222 0.000000
# 3 -0.007369 -0.032746 0.014971 0.000000 -0.007197 0.000000
# 4 0.000000 0.000000 0.000000 0.071911 0.000000 0.026952
# 5 0.009310 0.021222 -0.007197 0.000000 0.038160 0.000000
# 6 0.000000 0.000000 0.000000 0.026952 0.000000 0.102552
#
#
# Mechanical properties :
#
#
# Convention : Reuss Voigt Hill
#
# Bulk Modulus (GPa) = 3.73547 48.62450 26.17999
# Shear Modulus (GPa) = 6.91287 23.13124 15.02206
#
# Velocity S-wave (km/s) = 1.96588 3.59607 2.89797
# Velocity P-wave (km/s) = 2.69096 6.66530 5.08269
#
# Compressibility (1/GPa) = 0.26770358
#
# Stress axis : x y z
#
# Youngs Moduli (GPa) = 73.93402 3.16385 66.79628
#
# Poissons Ratio (x) = -0.00532 0.49220
# Poissons Ratio (y) = -0.12441 2.18731
# Poissons Ratio (z) = 0.54480 0.10360
#
# Static dielectric constant tensor:
#      x y z
#    x 1.601510 0.000000 -0.018850 
#    y 0.000000 1.586760 0.000000 
#    z -0.018850 0.000000 1.639540 
# 
# From -- ./inp_files/68681.got.cif
#   From: 2010.05.17/outbox.ucp.g08.bks.cvg/sg10_35_cif.got.tgz:68681.got - 2010.06.11 11:31:16.
