data_PCOD9155922
_publ_section_title
;
Structure prediction by ZEFSAII (Michael W. Deem and Ramdas Pophale) SiO2 
 PCOD9155922
Probable space group: P 21/M
;
_chemical_formula_sum "Si O2"
_cell_formula_units_Z 32
_cell_length_a 13.669829
_cell_length_b 8.825960
_cell_length_c 17.707427
_cell_angle_alpha 90.000000
_cell_angle_beta 100.997355
_cell_angle_gamma 90.000000
_cell_volume 2097.157123
_symmetry_space_group_name_H-M "P 21/M"
_symmetry_group_IT_number 11
_symmetry_cell_setting 'monoclinic'
loop_
_space_group_symop_operation_xyz
x,y,z
-x,1/2+y,-z
-x,-y,-z
x,1/2-y,z
loop_
_atom_site_type_symbol
_atom_site_label
_atom_site_fract_x
_atom_site_fract_y
_atom_site_fract_z
Si Si1 0.608926 0.068359 0.502236
Si Si2 0.892473 0.431192 0.968034
Si Si3 0.425179 0.426442 0.086496
Si Si4 0.625205 0.930418 0.182678
Si Si5 0.715658 0.431158 0.056703
Si Si6 0.354953 0.931983 0.328750
Si Si7 0.576214 0.067558 0.333058
Si Si8 0.758114 0.925607 0.822835
O O1 0.601603 0.250000 0.501530
O O2 0.668157 0.026724 0.587020
O O3 0.633401 0.026243 0.419574
O O4 0.500000 0.000000 0.500000
O O5 0.897842 0.250000 0.964423
O O6 0.844325 0.495471 0.884088
O O7 0.814998 0.470285 0.024166
O O8 0.000000 0.500000 0.000000
O O9 0.449074 0.250000 0.074964
O O10 0.520517 0.513074 0.131890
O O11 0.340014 0.431484 0.138252
O O12 0.375829 0.504025 0.006543
O O13 0.628460 0.750000 0.185104
O O14 0.707860 0.996006 0.137951
O O15 0.626969 0.998262 0.266865
O O16 0.707920 0.250000 0.060330
O O17 0.363225 0.750000 0.323533
O O18 0.463040 0.003632 0.323820
O O19 0.273359 0.993026 0.258762
O O20 0.570375 0.250000 0.325178
O O21 0.782242 0.750000 0.813187
#
# Coordination Sequence:
#
# PCOD9155922 Si02
#       8
#     4   4   4   4   4   4   4   4
#     4   8  16  27  40  58  83 118 156 193 229 267
#     4  10  21  37  56  73  92 117 147 187 234 280
#     4  10  19  31  45  62  89 121 154 190 227 266
#     4  12  22  30  43  63  90 122 157 194 228 266
#     4  10  21  35  49  66  88 116 151 186 226 273
#     4  10  17  27  43  64  90 119 156 196 231 269
#     4  10  18  29  42  59  87 124 161 193 230 270
#     4  10  19  30  47  69  93 123 157 190 228 272
#
# _framework density 15.258751999999999
#
# number of rings (size 3 to 8) (size 9 to 14) (size 15 to 20)
#    0.000    2.000    1.250    3.750    0.000    3.500 
#    0.000    0.000    0.000    0.000    0.000    0.000 
#    0.000    1.000    0.000    3.000    0.000    4.000 
#
# Total GULP energy -178452.481893 kJ/mol
# GULP energy per Si atom -5576.640059 kJ/mol
# Density = 1.522402 g / cm^3
# Si number density = 15.258752 Si / 1000 Ang^3
#
#
#
# Elastic Constant Matrix: (Units=GPa)
#
#
# Indices 1 2 3 4 5 6 
#
# 1 47.3073 30.2682 51.2566 0.0000 3.3383 0.0000
# 2 30.2682 82.7460 61.2338 0.0000 -4.7654 0.0000
# 3 51.2566 61.2338 163.7312 0.0000 -12.1285 0.0000
# 4 0.0000 0.0000 0.0000 24.7496 0.0000 -0.5013
# 5 3.3383 -4.7654 -12.1285 0.0000 19.1652 0.0000
# 6 0.0000 0.0000 0.0000 -0.5013 0.0000 18.5872
#
#
#
# Elastic Compliance Matrix: (Units=1/GPa)
#
#
# Indices 1 2 3 4 5 6 
#
# 1 0.037904 -0.007087 -0.010319 0.000000 -0.014895 0.000000
# 2 -0.007087 0.018036 -0.004305 0.000000 0.002995 0.000000
# 3 -0.010319 -0.004305 0.011543 0.000000 0.008032 0.000000
# 4 0.000000 0.000000 0.000000 0.040427 0.000000 0.001090
# 5 -0.014895 0.002995 0.008032 0.000000 0.060600 0.000000
# 6 0.000000 0.000000 0.000000 0.001090 0.000000 0.053830
#
#
# Mechanical properties :
#
#
# Convention : Reuss Voigt Hill
#
# Bulk Modulus (GPa) = 41.55996 64.36684 52.96340
# Shear Modulus (GPa) = 18.26280 22.56881 20.41580
#
# Velocity S-wave (km/s) = 3.46334 3.85004 3.66180
# Velocity P-wave (km/s) = 6.57943 7.87648 7.25699
#
# Compressibility (1/GPa) = 0.02406162
#
# Stress axis : x y z
#
# Youngs Moduli (GPa) = 26.38233 55.44613 86.63362
#
# Poissons Ratio (x) = 0.39293 0.89397
# Poissons Ratio (y) = 0.18696 0.37294
# Poissons Ratio (z) = 0.27224 0.23868
#
# Static dielectric constant tensor:
#      x y z
#    x 1.478240 0.000000 -0.025550 
#    y 0.000000 1.508680 0.000000 
#    z -0.025550 0.000000 1.545020 
# 
# From -- ./inp_files/59891.got.cif
#   From: 2010.05.17/outbox.cif.g08.bks.cpg/sg11_30_cif.got.tgz:59891.got - 2010.06.03 12:22:45.
