data_PCOD9155104
_publ_section_title
;
Structure prediction by ZEFSAII (Michael W. Deem and Ramdas Pophale) SiO2 
 PCOD9155104
Probable space group: P 2/M
;
_chemical_formula_sum "Si O2"
_cell_formula_units_Z 28
_cell_length_a 15.000000
_cell_length_b 9.000000
_cell_length_c 12.000000
_cell_angle_alpha 90.000000
_cell_angle_beta 60.000000
_cell_angle_gamma 90.000000
_cell_volume 1402.961154
_symmetry_space_group_name_H-M "P 2/M"
_symmetry_group_IT_number 10
_symmetry_cell_setting 'monoclinic'
loop_
_space_group_symop_operation_xyz
x,y,z
-x,y,-z
-x,-y,-z
x,-y,z
loop_
_atom_site_type_symbol
_atom_site_label
_atom_site_fract_x
_atom_site_fract_y
_atom_site_fract_z
Si Si1 0.411953 0.834440 0.966923
Si Si2 0.446930 0.324825 0.727325
Si Si3 0.253857 0.819919 0.248914
Si Si4 0.206237 0.321903 0.901498
Si Si5 0.089615 0.821298 0.188169
Si Si6 0.856295 0.178375 0.281911
Si Si7 0.661649 0.179851 0.561909
O O1 0.456490 0.721497 0.850196
O O2 0.386195 0.000000 0.934675
O O3 0.500000 0.858012 0.000000
O O4 0.320800 0.773120 0.099875
O O5 0.452706 0.500000 0.701969
O O6 0.325494 0.277725 0.793817
O O7 0.547832 0.247835 0.608850
O O8 0.140193 0.782025 0.276432
O O9 0.297532 0.770165 0.340662
O O10 0.262371 0.000000 0.247914
O O11 0.206198 0.500000 0.913130
O O12 0.144497 0.264388 0.833811
O O13 0.152539 0.252313 0.045331
O O14 0.967948 0.788555 0.265040
O O15 0.101037 0.000000 0.166592
O O16 0.754735 0.217270 0.418573
O O17 0.851268 0.000000 0.266620
O O18 0.650328 0.000000 0.570026
#
# Coordination Sequence:
#
# PCOD9155104 Si02
#       7
#     4   4   4   4   4   4   4
#     4  10  17  30  54  83 113 148 185 226 282 339
#     4  11  23  36  54  84 116 148 189 236 283 332
#     4   9  17  31  57  88 116 146 179 223 280 340
#     4  11  24  40  59  83 113 150 191 238 289 335
#     4  10  20  37  62  90 115 143 186 237 284 330
#     4  10  23  40  60  85 113 148 193 240 277 327
#     4  10  21  39  59  84 118 154 188 222 278 346
#
# _framework density 19.957787
#
# number of rings (size 3 to 8) (size 9 to 14) (size 15 to 20)
#    0.000    1.857    2.857    1.286    0.000    6.000 
#    0.000    6.429    0.000    0.000    0.000    3.000 
#    0.000    0.000    0.000    0.000    0.000    0.000 
#
# Total GULP energy -155901.603958 kJ/mol
# GULP energy per Si atom -5567.914427 kJ/mol
# Density = 1.991236 g / cm^3
# Si number density = 19.957787 Si / 1000 Ang^3
#
#
#
# Elastic Constant Matrix: (Units=GPa)
#
#
# Indices 1 2 3 4 5 6 
#
# 1 62.7069 10.3166 -1.0978 0.0000 -14.0126 0.0000
# 2 10.3166 17.9780 7.6945 0.0000 -7.2584 0.0000
# 3 -1.0978 7.6945 54.9414 0.0000 -11.4607 0.0000
# 4 0.0000 0.0000 0.0000 14.8083 0.0000 -15.5020
# 5 -14.0126 -7.2584 -11.4607 0.0000 26.6015 0.0000
# 6 0.0000 0.0000 0.0000 -15.5020 0.0000 -0.7772
#
#
#
# Elastic Compliance Matrix: (Units=1/GPa)
#
#
# Indices 1 2 3 4 5 6 
#
# 1 0.019596 -0.008986 0.003617 0.000000 0.009429 0.000000
# 2 -0.008986 0.068305 -0.007521 0.000000 0.010663 0.000000
# 3 0.003617 -0.007521 0.021202 0.000000 0.008987 0.000000
# 4 0.000000 0.000000 0.000000 0.003086 0.000000 -0.061559
# 5 0.009429 0.010663 0.008987 0.000000 0.049340 0.000000
# 6 0.000000 0.000000 0.000000 -0.061559 0.000000 -0.058805
#
#
# Mechanical properties :
#
#
# Convention : Reuss Voigt Hill
#
# Bulk Modulus (GPa) = 12.00181 18.82811 15.41496
# Shear Modulus (GPa) = 31.99406 16.04072 24.01739
#
# Velocity S-wave (km/s) = 4.00820 2.83809 3.47278
# Velocity P-wave (km/s) = 5.23904 4.49379 4.88066
#
# Compressibility (1/GPa) = 0.08332073
#
# Stress axis : x y z
#
# Youngs Moduli (GPa) = 51.03105 14.64027 47.16638
#
# Poissons Ratio (x) = 0.13156 -0.17060
# Poissons Ratio (y) = 0.45858 0.35475
# Poissons Ratio (z) = -0.18457 0.11011
#
# Static dielectric constant tensor:
#      x y z
#    x 1.811210 0.000000 -0.007210 
#    y 0.000000 1.694460 0.000000 
#    z -0.007210 0.000000 1.706190 
# 
# From -- ./inp_files/49661.got.cif
#   From: 2010.05.17/outbox.ucp.g08.bks.cvg/sg10_25_cif.got.tgz:49661.got - 2010.06.11 11:31:16.
