data_PCOD9155081
_publ_section_title
;
Structure prediction by ZEFSAII (Michael W. Deem and Ramdas Pophale) SiO2 
 PCOD9155081
Probable space group: P 2/M
;
_chemical_formula_sum "Si O2"
_cell_formula_units_Z 28
_cell_length_a 26.477882
_cell_length_b 9.923330
_cell_length_c 7.572250
_cell_angle_alpha 90.000000
_cell_angle_beta 44.360070
_cell_angle_gamma 90.000000
_cell_volume 1391.058690
_symmetry_space_group_name_H-M "P 2/M"
_symmetry_group_IT_number 10
_symmetry_cell_setting 'monoclinic'
loop_
_space_group_symop_operation_xyz
x,y,z
-x,y,-z
-x,-y,-z
x,-y,z
loop_
_atom_site_type_symbol
_atom_site_label
_atom_site_fract_x
_atom_site_fract_y
_atom_site_fract_z
Si Si1 0.919219 0.653374 0.663906
Si Si2 0.793322 0.847092 0.979022
Si Si3 0.629212 0.846338 0.888221
Si Si4 0.500000 0.344638 0.783439
Si Si5 0.080781 0.653374 0.760002
Si Si6 0.206678 0.847092 0.445631
Si Si7 0.629212 0.846338 0.465719
O O1 0.914118 0.500000 0.745078
O O2 0.855354 0.748093 0.891408
O O3 0.912182 0.647133 0.469546
O O4 0.000000 0.704444 0.500000
O O5 0.799781 0.851820 0.750547
O O6 0.801986 0.000000 0.024516
O O7 0.711478 0.803979 0.223660
O O8 0.711478 0.803979 0.718949
O O9 0.620553 0.853709 0.698617
O O10 0.619163 0.000000 0.981811
O O11 0.570162 0.739967 0.099711
O O12 0.500000 0.500000 0.725961
O O13 0.570162 0.260033 0.549481
O O14 0.500000 0.346673 0.000000
O O15 0.085882 0.500000 0.815667
O O16 0.144646 0.748093 0.668177
O O17 0.000000 0.704444 0.000000
O O18 0.198014 0.000000 0.534447
O O19 0.619163 0.000000 0.422375
#
# Coordination Sequence:
#
# PCOD9155081 Si02
#       7
#     4   4   4   4   4   4   4
#     4   9  18  32  48  66  90 120 151 183 222 267
#     4   9  18  32  48  67  92 120 149 183 224 267
#     4   9  17  30  48  68  90 118 151 185 222 265
#     4   9  17  29  46  69  94 118 148 187 226 262
#     4   9  18  32  48  66  90 120 151 183 222 267
#     4   9  18  32  48  67  92 120 149 183 224 267
#     4   9  17  30  48  68  90 118 151 185 222 265
#
# _framework density 20.128551999999999
#
# number of rings (size 3 to 8) (size 9 to 14) (size 15 to 20)
#    0.000    3.000    0.000    0.429    0.000    4.571 
#    0.000    0.714    0.000    4.286    0.000    0.000 
#    0.000    0.000    0.000    0.000    0.000    0.000 
#
# Total GULP energy -156192.121606 kJ/mol
# GULP energy per Si atom -5578.290057 kJ/mol
# Density = 2.008274 g / cm^3
# Si number density = 20.128552 Si / 1000 Ang^3
#
#
#
# Elastic Constant Matrix: (Units=GPa)
#
#
# Indices 1 2 3 4 5 6 
#
# 1 74.9386 64.3199 43.5014 0.0000 -36.9259 0.0000
# 2 64.3199 125.8155 85.2630 0.0000 -68.7202 0.0000
# 3 43.5014 85.2630 101.6871 0.0000 -50.8428 0.0000
# 4 0.0000 0.0000 0.0000 25.7963 0.0000 -19.7835
# 5 -36.9259 -68.7202 -50.8428 0.0000 67.0104 0.0000
# 6 0.0000 0.0000 0.0000 -19.7835 0.0000 19.7670
#
#
#
# Elastic Compliance Matrix: (Units=1/GPa)
#
#
# Indices 1 2 3 4 5 6 
#
# 1 0.023841 -0.011510 0.000191 0.000000 0.001479 0.000000
# 2 -0.011510 0.031902 -0.013919 0.000000 0.015812 0.000000
# 3 0.000191 -0.013919 0.023103 0.000000 0.003360 0.000000
# 4 0.000000 0.000000 0.000000 0.166771 0.000000 0.166910
# 5 0.001479 0.015812 0.003360 0.000000 0.034504 0.000000
# 6 0.000000 0.000000 0.000000 0.166910 0.000000 0.217639
#
#
# Mechanical properties :
#
#
# Convention : Reuss Voigt Hill
#
# Bulk Modulus (GPa) = 35.24761 76.51220 55.87990
# Shear Modulus (GPa) = 8.96553 29.80518 19.38536
#
# Velocity S-wave (km/s) = 2.11277 3.85221 3.10672
# Velocity P-wave (km/s) = 4.84778 7.60792 6.37893
#
# Compressibility (1/GPa) = 0.02837072
#
# Stress axis : x y z
#
# Youngs Moduli (GPa) = 41.94461 31.34631 43.28370
#
# Poissons Ratio (x) = 0.36079 -0.00828
# Poissons Ratio (y) = 0.48277 0.60247
# Poissons Ratio (z) = -0.00802 0.43631
#
# Static dielectric constant tensor:
#      x y z
#    x 1.719610 0.000000 0.032350 
#    y 0.000000 1.708270 0.000000 
#    z 0.032350 0.000000 1.709750 
# 
# From -- ./inp_files/37902.got.cif
#   From: 2010.05.17/outbox.cif.g08.bks.cpg/sg10_19_cif.got.tgz:37902.got - 2010.06.03 11:33:40.
