data_PCOD9155115
_publ_section_title
;
Structure prediction by ZEFSAII (Michael W. Deem and Ramdas Pophale) SiO2 
 PCOD9155115
Probable space group: P 2/M
;
_chemical_formula_sum "Si O2"
_cell_formula_units_Z 32
_cell_length_a 15.000000
_cell_length_b 9.000000
_cell_length_c 15.000000
_cell_angle_alpha 90.000000
_cell_angle_beta 80.000000
_cell_angle_gamma 90.000000
_cell_volume 1994.235700
_symmetry_space_group_name_H-M "P 2/M"
_symmetry_group_IT_number 10
_symmetry_cell_setting 'monoclinic'
loop_
_space_group_symop_operation_xyz
x,y,z
-x,y,-z
-x,-y,-z
x,-y,z
loop_
_atom_site_type_symbol
_atom_site_label
_atom_site_fract_x
_atom_site_fract_y
_atom_site_fract_z
Si Si1 0.220582 0.172953 0.426411
Si Si2 0.138580 0.178447 0.931667
Si Si3 0.605124 0.678424 0.582935
Si Si4 0.944225 0.175486 0.676634
Si Si5 0.235714 0.321281 0.761431
Si Si6 0.874801 0.676671 0.391832
Si Si7 0.594452 0.680308 0.377644
Si Si8 0.944929 0.179936 0.877938
O O1 0.314343 0.243829 0.380865
O O2 0.146024 0.191065 0.363682
O O3 0.186539 0.255416 0.520693
O O4 0.231033 0.000000 0.444653
O O5 0.215162 0.252077 0.859755
O O6 0.043834 0.217582 0.899005
O O7 0.146700 0.000000 0.928251
O O8 0.127232 0.229124 0.035521
O O9 0.613352 0.500000 0.585102
O O10 0.610386 0.723556 0.477475
O O11 0.506095 0.723101 0.632082
O O12 0.933007 0.231333 0.779549
O O13 0.024630 0.263188 0.616045
O O14 0.968702 0.000000 0.674617
O O15 0.235668 0.500000 0.767734
O O16 0.161051 0.278840 0.699899
O O17 0.329044 0.268145 0.702084
O O18 0.870273 0.500000 0.398487
O O19 0.597601 0.500000 0.378462
O O20 0.940707 0.000000 0.877416
#
# Coordination Sequence:
#
# PCOD9155115 Si02
#       8
#     4   4   4   4   4   4   4   4
#     4  11  22  32  45  66  93 124 155 189 228 263
#     4   9  16  28  48  68  86 115 152 186 222 269
#     4   9  16  31  51  66  85 118 155 189 221 268
#     4  10  20  34  48  63  90 126 157 188 226 265
#     4  10  18  29  45  69  95 119 146 181 227 272
#     4  11  21  32  46  65  92 126 160 189 214 256
#     4   8  15  29  49  67  87 118 152 182 225 276
#     4   8  15  29  47  65  86 116 154 187 219 267
#
# _framework density 16.046247999999999
#
# number of rings (size 3 to 8) (size 9 to 14) (size 15 to 20)
#    0.000    2.500    2.500    2.625    0.000    3.000 
#    0.000    3.750    0.000    0.000    0.000    0.875 
#    0.000    7.000    0.000    0.000    0.000    0.000 
#
# Total GULP energy -178216.162548 kJ/mol
# GULP energy per Si atom -5569.255080 kJ/mol
# Density = 1.600973 g / cm^3
# Si number density = 16.046248 Si / 1000 Ang^3
#
#
#
# Elastic Constant Matrix: (Units=GPa)
#
#
# Indices 1 2 3 4 5 6 
#
# 1 50.3238 48.1083 14.6216 0.0000 -16.1602 0.0000
# 2 48.1083 8.1175 11.5865 0.0000 1.4761 0.0000
# 3 14.6216 11.5865 30.9100 0.0000 -11.4134 0.0000
# 4 0.0000 0.0000 0.0000 14.3482 0.0000 -0.4314
# 5 -16.1602 1.4761 -11.4134 0.0000 16.5821 0.0000
# 6 0.0000 0.0000 0.0000 -0.4314 0.0000 18.6156
#
#
#
# Elastic Compliance Matrix: (Units=1/GPa)
#
#
# Indices 1 2 3 4 5 6 
#
# 1 -0.000492 0.021345 -0.011593 0.000000 -0.010359 0.000000
# 2 0.021345 -0.015255 0.005100 0.000000 0.025670 0.000000
# 3 -0.011593 0.005100 0.042347 0.000000 0.017395 0.000000
# 4 0.000000 0.000000 0.000000 0.069744 0.000000 0.001616
# 5 -0.010359 0.025670 0.017395 0.000000 0.059899 0.000000
# 6 0.000000 0.000000 0.000000 0.001616 0.000000 0.053756
#
#
# Mechanical properties :
#
#
# Convention : Reuss Voigt Hill
#
# Bulk Modulus (GPa) = 17.76095 26.44267 22.10181
# Shear Modulus (GPa) = 25.11743 10.91152 18.01448
#
# Velocity S-wave (km/s) = 3.96070 2.61052 3.35425
# Velocity P-wave (km/s) = 5.65763 5.05977 5.36703
#
# Compressibility (1/GPa) = 0.05630331
#
# Stress axis : x y z
#
# Youngs Moduli (GPa) = -2034.19836 -65.55318 23.61415
#
# Poissons Ratio (x) = 1.39921 0.27377
# Poissons Ratio (y) = 43.41914 -0.12043
# Poissons Ratio (z) = -23.58305 0.33431
#
# Static dielectric constant tensor:
#      x y z
#    x 1.552500 0.000000 -0.023010 
#    y 0.000000 1.537260 0.000000 
#    z -0.023010 0.000000 1.515090 
# 
# From -- ./inp_files/66004.got.cif
#   From: 2010.05.17/outbox.ucp.g08.bks.cvg/sg10_34_cif.got.tgz:66004.got - 2010.06.11 11:31:16.
