data_PCOD9155188
_publ_section_title
;
Structure prediction by ZEFSAII (Michael W. Deem and Ramdas Pophale) SiO2 
 PCOD9155188
Probable space group: P 2/M
;
_chemical_formula_sum "Si O2"
_cell_formula_units_Z 24
_cell_length_a 15.000000
_cell_length_b 9.000000
_cell_length_c 15.000000
_cell_angle_alpha 90.000000
_cell_angle_beta 140.000000
_cell_angle_gamma 90.000000
_cell_volume 1301.644910
_symmetry_space_group_name_H-M "P 2/M"
_symmetry_group_IT_number 10
_symmetry_cell_setting 'monoclinic'
loop_
_space_group_symop_operation_xyz
x,y,z
-x,y,-z
-x,-y,-z
x,-y,z
loop_
_atom_site_type_symbol
_atom_site_label
_atom_site_fract_x
_atom_site_fract_y
_atom_site_fract_z
Si Si1 0.609311 0.319948 0.833724
Si Si2 0.847160 0.319976 0.665287
Si Si3 0.684508 0.825971 0.378097
Si Si4 0.849541 0.680256 0.147818
Si Si5 0.841517 0.670240 0.346862
Si Si6 0.358813 0.680409 0.344240
O O1 0.595857 0.500000 0.826400
O O2 0.465750 0.244251 0.744870
O O3 0.648757 0.276291 0.763625
O O4 0.724072 0.270477 0.991215
O O5 0.844045 0.500000 0.657557
O O6 0.761739 0.257143 0.517469
O O7 0.771604 0.273225 0.697436
O O8 0.003964 0.267998 0.777523
O O9 0.763885 0.784530 0.349375
O O10 0.680440 0.000000 0.391779
O O11 0.852225 0.500000 0.146469
O O12 0.834973 0.717572 0.239711
O O13 0.786394 0.500000 0.313918
O O14 0.000000 0.664615 0.500000
O O15 0.500000 0.732405 0.500000
O O16 0.363188 0.500000 0.349283
#
# Coordination Sequence:
#
# PCOD9155188 Si02
#       6
#     4   4   4   4   4   4
#     4  10  20  37  57  82 115 145 181 228 275 328
#     4  10  18  35  59  84 112 143 184 229 274 329
#     4  12  24  36  54  83 112 148 190 227 273 323
#     4   9  19  34  58  87 110 140 181 227 281 329
#     4  10  19  36  61  84 108 142 183 228 275 327
#     4   9  16  28  55  87 110 141 181 224 275 322
#
# _framework density 18.438207999999999
#
# number of rings (size 3 to 8) (size 9 to 14) (size 15 to 20)
#    0.000    2.000    3.333    1.500    0.000    1.667 
#    0.000   10.000    0.000    0.000    0.000    2.333 
#    0.000    0.000    0.000    0.000    0.000    0.000 
#
# Total GULP energy -133842.896778 kJ/mol
# GULP energy per Si atom -5576.787366 kJ/mol
# Density = 1.839624 g / cm^3
# Si number density = 18.438208 Si / 1000 Ang^3
#
#
#
# Elastic Constant Matrix: (Units=GPa)
#
#
# Indices 1 2 3 4 5 6 
#
# 1 84.1856 15.0926 51.0487 0.0000 3.0026 0.0000
# 2 15.0926 14.1299 11.3448 0.0000 4.8887 0.0000
# 3 51.0487 11.3448 112.4693 0.0000 -0.4577 0.0000
# 4 0.0000 0.0000 0.0000 -4.0740 0.0000 -7.8214
# 5 3.0026 4.8887 -0.4577 0.0000 25.5835 0.0000
# 6 0.0000 0.0000 0.0000 -7.8214 0.0000 -32.1787
#
#
#
# Elastic Compliance Matrix: (Units=1/GPa)
#
#
# Indices 1 2 3 4 5 6 
#
# 1 0.018731 -0.014513 -0.007036 0.000000 0.000449 0.000000
# 2 -0.014513 0.094346 -0.002996 0.000000 -0.016379 0.000000
# 3 -0.007036 -0.002996 0.012394 0.000000 0.001620 0.000000
# 4 0.000000 0.000000 0.000000 -0.460215 0.000000 0.111861
# 5 0.000449 -0.016379 0.001620 0.000000 0.042194 0.000000
# 6 0.000000 0.000000 0.000000 0.111861 0.000000 -0.058265
#
#
# Mechanical properties :
#
#
# Convention : Reuss Voigt Hill
#
# Bulk Modulus (GPa) = 13.09237 40.63966 26.86602
# Shear Modulus (GPa) = -18.09857 6.75273 -5.67292
#
# Velocity S-wave (km/s) = -3.13642 1.91580 -1.75596
# Velocity P-wave (km/s) = 2.44950 5.19448 3.23902
#
# Compressibility (1/GPa) = 0.07638035
#
# Stress axis : x y z
#
# Youngs Moduli (GPa) = 53.38765 10.59926 80.68632
#
# Poissons Ratio (x) = 0.15383 0.56771
# Poissons Ratio (y) = 0.77483 0.24173
# Poissons Ratio (z) = 0.37564 0.03175
#
# Static dielectric constant tensor:
#      x y z
#    x 1.658600 0.000000 0.005240 
#    y 0.000000 1.621290 0.000000 
#    z 0.005240 0.000000 1.615790 
# 
# From -- ./inp_files/60369.got.cif
#   From: 2010.05.17/outbox.ucp.g08.bks.cvg/sg10_31_cif.got.tgz:60369.got - 2010.06.11 11:31:16.
