data_PCOD9155221
_publ_section_title
;
Structure prediction by ZEFSAII (Michael W. Deem and Ramdas Pophale) SiO2 
 PCOD9155221
Probable space group: P 2/M
;
_chemical_formula_sum "Si O2"
_cell_formula_units_Z 28
_cell_length_a 9.000000
_cell_length_b 9.000000
_cell_length_c 30.000000
_cell_angle_alpha 90.000000
_cell_angle_beta 140.000000
_cell_angle_gamma 90.000000
_cell_volume 1561.973892
_symmetry_space_group_name_H-M "P 2/M"
_symmetry_group_IT_number 10
_symmetry_cell_setting 'monoclinic'
loop_
_space_group_symop_operation_xyz
x,y,z
-x,y,-z
-x,-y,-z
x,-y,z
loop_
_atom_site_type_symbol
_atom_site_label
_atom_site_fract_x
_atom_site_fract_y
_atom_site_fract_z
Si Si1 0.085946 0.678988 0.068399
Si Si2 0.856241 0.820493 0.778381
Si Si3 0.168310 0.181118 0.498767
Si Si4 0.035396 0.179715 0.643838
Si Si5 0.527353 0.678224 0.777543
Si Si6 0.315842 0.819614 0.358561
Si Si7 0.238403 0.821416 0.931736
O O1 0.069699 0.500000 0.065659
O O2 0.342795 0.717191 0.145884
O O3 0.916486 0.747740 0.065951
O O4 0.000000 0.729123 0.000000
O O5 0.686737 0.743326 0.774702
O O6 0.786901 0.771901 0.712753
O O7 0.115114 0.787284 0.855980
O O8 0.826262 0.000000 0.773955
O O9 0.426280 0.232475 0.570179
O O10 0.000000 0.225441 0.500000
O O11 0.064737 0.227110 0.427296
O O12 0.175312 0.000000 0.499145
O O13 0.277649 0.251636 0.712721
O O14 0.852301 0.219327 0.639803
O O15 0.061909 0.000000 0.648797
O O16 0.516707 0.500000 0.772099
O O17 0.325727 0.000000 0.358940
O O18 0.231364 0.000000 0.935031
O O19 0.500000 0.772018 0.000000
#
# Coordination Sequence:
#
# PCOD9155221 Si02
#       7
#     4   4   4   4   4   4   4
#     4   9  19  35  52  70  94 127 166 203 238 282
#     4   9  17  32  52  71  95 129 166 201 239 287
#     4   9  16  27  47  74 100 127 161 200 238 279
#     4  10  19  31  50  75 101 128 159 198 244 290
#     4  10  20  34  51  71  97 128 163 202 241 285
#     4   9  17  29  48  75 101 125 160 204 242 280
#     4   9  18  31  48  73 102 128 157 198 246 292
#
# _framework density 17.926036
#
# number of rings (size 3 to 8) (size 9 to 14) (size 15 to 20)
#    0.000    2.714    0.000    1.714    0.000    6.286 
#    0.000    2.143    0.000    5.571    0.000    0.000 
#    0.000    0.000    0.000    0.000    0.000    0.000 
#
# Total GULP energy -155997.381705 kJ/mol
# GULP energy per Si atom -5571.335061 kJ/mol
# Density = 1.788524 g / cm^3
# Si number density = 17.926036 Si / 1000 Ang^3
#
#
#
# Elastic Constant Matrix: (Units=GPa)
#
#
# Indices 1 2 3 4 5 6 
#
# 1 102.6296 17.1417 114.4874 0.0000 -4.0723 0.0000
# 2 17.1417 5.7887 31.5053 0.0000 -0.4094 0.0000
# 3 114.4874 31.5053 243.2332 0.0000 -5.0768 0.0000
# 4 0.0000 0.0000 0.0000 20.2105 0.0000 -2.8452
# 5 -4.0723 -0.4094 -5.0768 0.0000 39.1571 0.0000
# 6 0.0000 0.0000 0.0000 -2.8452 0.0000 -21.2483
#
#
#
# Elastic Compliance Matrix: (Units=1/GPa)
#
#
# Indices 1 2 3 4 5 6 
#
# 1 0.021975 -0.029919 -0.006444 0.000000 0.001137 0.000000
# 2 -0.029919 0.626793 -0.067214 0.000000 -0.005272 0.000000
# 3 -0.006444 -0.067214 0.015865 0.000000 0.000684 0.000000
# 4 0.000000 0.000000 0.000000 0.048564 0.000000 -0.006503
# 5 0.001137 -0.005272 0.000684 0.000000 0.025690 0.000000
# 6 0.000000 0.000000 0.000000 -0.006503 0.000000 -0.046192
#
#
# Mechanical properties :
#
#
# Convention : Reuss Voigt Hill
#
# Bulk Modulus (GPa) = 2.18590 75.32446 38.75518
# Shear Modulus (GPa) = 4.75131 20.19167 12.47149
#
# Velocity S-wave (km/s) = 1.62980 3.35981 2.64051
# Velocity P-wave (km/s) = 2.18260 7.56055 5.56442
#
# Compressibility (1/GPa) = 0.45747770
#
# Stress axis : x y z
#
# Youngs Moduli (GPa) = 45.50614 1.59542 63.03203
#
# Poissons Ratio (x) = 0.04773 0.40620
# Poissons Ratio (y) = 1.36149 4.23665
# Poissons Ratio (z) = 0.29326 0.10724
#
# Static dielectric constant tensor:
#      x y z
#    x 1.592190 0.000000 0.005650 
#    y 0.000000 1.591400 0.000000 
#    z 0.005650 0.000000 1.641180 
# 
# From -- ./inp_files/34566.got.cif
#   From: 2010.05.17/outbox.ucp.g08.bks.cvg/sg10_18_cif.got.tgz:34566.got - 2010.06.11 11:31:16.
