data_PCOD9155642
_publ_section_title
;
Structure prediction by ZEFSAII (Michael W. Deem and Ramdas Pophale) SiO2 
 PCOD9155642
Probable space group: P 2/M
;
_chemical_formula_sum "Si O2"
_cell_formula_units_Z 32
_cell_length_a 15.000000
_cell_length_b 9.000000
_cell_length_c 24.000000
_cell_angle_alpha 90.000000
_cell_angle_beta 30.000000
_cell_angle_gamma 90.000000
_cell_volume 1620.000000
_symmetry_space_group_name_H-M "P 2/M"
_symmetry_group_IT_number 10
_symmetry_cell_setting 'monoclinic'
loop_
_space_group_symop_operation_xyz
x,y,z
-x,y,-z
-x,-y,-z
x,-y,z
loop_
_atom_site_type_symbol
_atom_site_label
_atom_site_fract_x
_atom_site_fract_y
_atom_site_fract_z
Si Si1 0.058055 0.171592 0.761281
Si Si2 0.806100 0.669227 0.087509
Si Si3 0.570102 0.174114 0.398534
Si Si4 0.230164 0.337391 0.025891
Si Si5 0.944662 0.331460 0.710151
Si Si6 0.683937 0.667983 0.552607
Si Si7 0.363683 0.326054 0.202296
Si Si8 0.442571 0.174137 0.277134
O O1 0.226958 0.230314 0.704948
O O2 0.883251 0.201463 0.891316
O O3 0.012663 0.247742 0.727744
O O4 0.097731 0.000000 0.729531
O O5 0.791707 0.500000 0.117561
O O6 0.634632 0.765793 0.194896
O O7 0.790600 0.660295 0.029242
O O8 0.000000 0.727736 0.000000
O O9 0.500000 0.181555 0.500000
O O10 0.448002 0.267947 0.423244
O O11 0.566337 0.000000 0.383083
O O12 0.165247 0.500000 0.081252
O O13 0.436318 0.321895 0.930052
O O14 0.892150 0.500000 0.754097
O O15 0.780910 0.266206 0.763107
O O16 0.117645 0.337721 0.578109
O O17 0.628990 0.500000 0.597905
O O18 0.685776 0.773761 0.604628
O O19 0.319959 0.500000 0.236506
O O20 0.381374 0.246249 0.252124
O O21 0.452234 0.000000 0.264832
#
# Coordination Sequence:
#
# PCOD9155642 Si02
#       8
#     4   4   4   4   4   4   4   4
#     4  11  23  37  57  85 120 155 189 234 288 348
#     4   9  19  37  59  84 113 150 196 241 285 336
#     4  10  21  39  58  80 117 158 190 232 291 348
#     4   9  19  36  58  83 114 150 190 236 284 338
#     4  10  22  40  63  87 111 147 199 247 289 339
#     4  11  23  38  60  88 116 151 196 244 287 341
#     4   9  20  42  65  84 112 151 194 244 292 338
#     4  11  23  38  58  86 120 154 189 234 290 351
#
# _framework density 19.753086
#
# number of rings (size 3 to 8) (size 9 to 14) (size 15 to 20)
#    0.000    2.000    1.250    2.625    1.750    5.500 
#    0.000    5.000    0.000    0.000    0.000    0.000 
#    0.000    0.000    0.000    0.000    0.000    0.000 
#
# Total GULP energy -178414.471584 kJ/mol
# GULP energy per Si atom -5575.452237 kJ/mol
# Density = 1.970813 g / cm^3
# Si number density = 19.753086 Si / 1000 Ang^3
#
#
#
# Elastic Constant Matrix: (Units=GPa)
#
#
# Indices 1 2 3 4 5 6 
#
# 1 5.8633 -9.2995 23.5455 0.0000 -40.4012 0.0000
# 2 -9.2995 34.3081 5.9967 0.0000 -9.5118 0.0000
# 3 23.5455 5.9967 38.5566 0.0000 -11.7663 0.0000
# 4 0.0000 0.0000 0.0000 33.6949 0.0000 -12.3761
# 5 -40.4012 -9.5118 -11.7663 0.0000 29.3147 0.0000
# 6 0.0000 0.0000 0.0000 -12.3761 0.0000 171.3155
#
#
#
# Elastic Compliance Matrix: (Units=1/GPa)
#
#
# Indices 1 2 3 4 5 6 
#
# 1 -0.014652 -0.010786 0.003869 0.000000 -0.022141 0.000000
# 2 -0.010786 0.024233 0.000776 0.000000 -0.006691 0.000000
# 3 0.003869 0.000776 0.028668 0.000000 0.017090 0.000000
# 4 0.000000 0.000000 0.000000 0.030487 0.000000 0.002202
# 5 -0.022141 -0.006691 0.017090 0.000000 0.008287 0.000000
# 6 0.000000 0.000000 0.000000 0.002202 0.000000 0.005996
#
#
# Mechanical properties :
#
#
# Convention : Reuss Voigt Hill
#
# Bulk Modulus (GPa) = 38.51219 13.24594 25.87906
# Shear Modulus (GPa) = 48.09648 50.76404 49.43026
#
# Velocity S-wave (km/s) = 4.93981 5.07495 5.00783
# Velocity P-wave (km/s) = 7.21628 6.40784 6.82404
#
# Compressibility (1/GPa) = 0.02596581
#
# Stress axis : x y z
#
# Youngs Moduli (GPa) = -68.24823 41.26571 34.88195
#
# Poissons Ratio (x) = 0.44510 -0.13495
# Poissons Ratio (y) = -0.73615 -0.02707
# Poissons Ratio (z) = 0.26403 -0.03202
#
# Static dielectric constant tensor:
#      x y z
#    x 1.625330 0.000000 -0.023260 
#    y 0.000000 1.694170 0.000000 
#    z -0.023260 0.000000 1.712990 
# 
# From -- ./inp_files/66577.got.cif
#   From: 2010.05.17/outbox.ucp.g08.bks.cvg/sg10_34_cif.got.tgz:66577.got - 2010.06.11 11:31:16.
