data_PCOD9155753
_publ_section_title
;
Structure prediction by ZEFSAII (Michael W. Deem and Ramdas Pophale) SiO2 
 PCOD9155753
Probable space group: P 21/M
;
_chemical_formula_sum "Si O2"
_cell_formula_units_Z 32
_cell_length_a 16.004413
_cell_length_b 17.702784
_cell_length_c 11.907172
_cell_angle_alpha 90.000000
_cell_angle_beta 23.436339
_cell_angle_gamma 90.000000
_cell_volume 1341.770286
_symmetry_space_group_name_H-M "P 21/M"
_symmetry_group_IT_number 11
_symmetry_cell_setting 'monoclinic'
loop_
_space_group_symop_operation_xyz
x,y,z
-x,1/2+y,-z
-x,-y,-z
x,1/2-y,z
loop_
_atom_site_type_symbol
_atom_site_label
_atom_site_fract_x
_atom_site_fract_y
_atom_site_fract_z
Si Si1 0.793774 0.338178 0.940448
Si Si2 0.458030 0.910544 0.557720
Si Si3 0.437809 0.157742 0.093851
Si Si4 0.051056 0.088557 0.433635
Si Si5 0.957634 0.086865 0.073695
Si Si6 0.786985 0.836952 0.418719
Si Si7 0.292470 0.337980 0.941102
Si Si8 0.728015 0.337687 0.546674
O O1 0.739298 0.250000 0.999374
O O2 0.868273 0.369113 0.728451
O O3 0.005795 0.343236 0.756555
O O4 0.613500 0.382459 0.231193
O O5 0.250013 0.892484 0.740935
O O6 0.642491 0.870308 0.260092
O O7 0.500000 0.000000 0.500000
O O8 0.401244 0.250000 0.128462
O O9 0.259443 0.111286 0.247931
O O10 0.401880 0.137134 0.267857
O O11 0.655012 0.142225 0.762384
O O12 0.116640 0.117640 0.229009
O O13 0.000000 0.000000 0.500000
O O14 0.894904 0.110941 0.276183
O O15 0.153010 0.124947 0.771109
O O16 0.000000 0.000000 0.000000
O O17 0.753173 0.750000 0.435780
O O18 0.236577 0.250000 0.003284
O O19 0.507498 0.342262 0.749835
O O20 0.793819 0.250000 0.460238
#
# Coordination Sequence:
#
# PCOD9155753 Si02
#       8
#     4   4   4   4   4   4   4   4
#     4   9  16  27  43  63  86 116 154 192 222 259
#     4  10  19  31  47  67  91 118 150 188 228 268
#     4   8  14  26  43  63  84 109 149 198 230 256
#     4  10  16  22  36  63  94 117 140 180 235 274
#     4  10  19  29  43  67  95 116 140 178 226 272
#     4   8  14  26  45  64  83 110 147 187 223 257
#     4   9  16  27  43  63  86 116 154 192 222 259
#     4   8  14  26  45  64  83 110 147 187 223 257
#
# _framework density 23.849091999999999
#
# number of rings (size 3 to 8) (size 9 to 14) (size 15 to 20)
#    0.000    3.000    0.000    4.125    0.000    3.000 
#    0.000    0.625    0.000    3.000    0.000    0.000 
#    0.000    4.000    0.000    0.000    0.000    0.000 
#
# Total GULP energy -178828.314914 kJ/mol
# GULP energy per Si atom -5588.384841 kJ/mol
# Density = 2.379481 g / cm^3
# Si number density = 23.849092 Si / 1000 Ang^3
#
#
#
# Elastic Constant Matrix: (Units=GPa)
#
#
# Indices 1 2 3 4 5 6 
#
# 1 97.2237 21.6343 70.7339 0.0000 20.1125 0.0000
# 2 21.6343 111.5186 121.6716 0.0000 42.5334 0.0000
# 3 70.7339 121.6716 280.4264 0.0000 49.0377 0.0000
# 4 0.0000 0.0000 0.0000 45.8259 0.0000 2.0634
# 5 20.1125 42.5334 49.0377 0.0000 65.9015 0.0000
# 6 0.0000 0.0000 0.0000 2.0634 0.0000 -8.0343
#
#
#
# Elastic Compliance Matrix: (Units=1/GPa)
#
#
# Indices 1 2 3 4 5 6 
#
# 1 0.013238 0.003105 -0.004173 0.000000 -0.002940 0.000000
# 2 0.003105 0.020396 -0.008237 0.000000 -0.007982 0.000000
# 3 -0.004173 -0.008237 0.008093 0.000000 0.000567 0.000000
# 4 0.000000 0.000000 0.000000 0.021572 0.000000 0.005540
# 5 -0.002940 -0.007982 0.000567 0.000000 0.020801 0.000000
# 6 0.000000 0.000000 0.000000 0.005540 0.000000 -0.123043
#
#
# Mechanical properties :
#
#
# Convention : Reuss Voigt Hill
#
# Bulk Modulus (GPa) = 43.25379 101.91648 72.58513
# Shear Modulus (GPa) = -395.94547 39.08054 -178.43247
#
# Velocity S-wave (km/s) = -12.89890 4.05243 -8.65908
# Velocity P-wave (km/s) = 14.27117 8.04505 8.33497
#
# Compressibility (1/GPa) = 0.02311936
#
# Stress axis : x y z
#
# Youngs Moduli (GPa) = 75.53825 49.02947 123.56327
#
# Poissons Ratio (x) = -0.15225 0.51557
# Poissons Ratio (y) = -0.23457 1.01777
# Poissons Ratio (z) = 0.31518 0.40385
#
# Static dielectric constant tensor:
#      x y z
#    x 2.034890 0.000000 -0.022180 
#    y 0.000000 1.792970 0.000000 
#    z -0.022180 0.000000 1.924560 
# 
# From -- ./inp_files/55935.got.cif
#   From: 2010.05.17/outbox.cif.g08.bks.cpg/sg11_28_cif.got.tgz:55935.got - 2010.06.03 12:22:45.
