data_PCOD9155935
_publ_section_title
;
Structure prediction by ZEFSAII (Michael W. Deem and Ramdas Pophale) SiO2 
 PCOD9155935
Probable space group: P 21/M
;
_chemical_formula_sum "Si O2"
_cell_formula_units_Z 32
_cell_length_a 24.302193
_cell_length_b 8.629691
_cell_length_c 21.233884
_cell_angle_alpha 90.000000
_cell_angle_beta 23.990195
_cell_angle_gamma 90.000000
_cell_volume 1810.574861
_symmetry_space_group_name_H-M "P 21/M"
_symmetry_group_IT_number 11
_symmetry_cell_setting 'monoclinic'
loop_
_space_group_symop_operation_xyz
x,y,z
-x,1/2+y,-z
-x,-y,-z
x,1/2-y,z
loop_
_atom_site_type_symbol
_atom_site_label
_atom_site_fract_x
_atom_site_fract_y
_atom_site_fract_z
Si Si1 0.578338 0.064291 0.148457
Si Si2 0.144734 0.936212 0.372803
Si Si3 0.966427 0.061954 0.383557
Si Si4 0.940622 0.063055 0.267595
Si Si5 0.474699 0.935803 0.595610
Si Si6 0.227657 0.936068 0.938900
Si Si7 0.649877 0.063940 0.525892
Si Si8 0.739965 0.564402 0.867798
O O1 0.569010 0.250000 0.158076
O O2 0.441935 0.993658 0.319869
O O3 0.695770 0.019095 0.076201
O O4 0.622439 0.002528 0.034489
O O5 0.145706 0.750000 0.367556
O O6 0.142297 0.982011 0.449024
O O7 0.253446 0.004231 0.210715
O O8 0.000000 0.000000 0.500000
O O9 0.967774 0.250000 0.380794
O O10 0.938471 0.006560 0.342477
O O11 0.116535 0.014769 0.250002
O O12 0.941551 0.250000 0.268005
O O13 0.804340 0.013965 0.374991
O O14 0.079624 0.007029 0.091681
O O15 0.478928 0.750000 0.590452
O O16 0.500000 0.000000 0.500000
O O17 0.584184 0.996110 0.531405
O O18 0.328788 0.983030 0.777037
O O19 0.217135 0.750000 0.949631
O O20 0.644009 0.250000 0.529533
O O21 0.735358 0.750000 0.872691
#
# Coordination Sequence:
#
# PCOD9155935 Si02
#       8
#     4   4   4   4   4   4   4   4
#     4  10  19  32  50  74 103 136 176 221 266 311
#     4   9  16  26  40  63  97 132 170 216 267 317
#     4   8  15  27  44  68  98 133 168 210 262 309
#     4  10  19  33  53  78 107 139 175 212 255 311
#     4  10  21  39  61  84 110 139 175 212 252 301
#     4   9  19  33  52  80 107 133 168 213 257 301
#     4  10  21  35  54  80 109 140 173 210 255 307
#     4  10  17  27  46  70  98 131 172 221 272 317
#
# _framework density 17.673943999999999
#
# number of rings (size 3 to 8) (size 9 to 14) (size 15 to 20)
#    0.000    2.500    1.250    3.375    0.000    3.500 
#    0.000    1.250    0.000    0.750    0.000    0.000 
#    0.000    0.000    0.000    0.000    0.000    0.000 
#
# Total GULP energy -178398.852999 kJ/mol
# GULP energy per Si atom -5574.964156 kJ/mol
# Density = 1.763372 g / cm^3
# Si number density = 17.673944 Si / 1000 Ang^3
#
#
#
# Elastic Constant Matrix: (Units=GPa)
#
#
# Indices 1 2 3 4 5 6 
#
# 1 87.6212 24.8106 75.3313 0.0000 20.3521 0.0000
# 2 24.8106 41.4336 33.6242 0.0000 4.8333 0.0000
# 3 75.3313 33.6242 135.1569 0.0000 10.6039 0.0000
# 4 0.0000 0.0000 0.0000 28.6963 0.0000 7.0015
# 5 20.3521 4.8333 10.6039 0.0000 33.4706 0.0000
# 6 0.0000 0.0000 0.0000 7.0015 0.0000 21.8754
#
#
#
# Elastic Compliance Matrix: (Units=1/GPa)
#
#
# Indices 1 2 3 4 5 6 
#
# 1 0.026005 -0.004027 -0.012611 0.000000 -0.011236 0.000000
# 2 -0.004027 0.030999 -0.005444 0.000000 -0.000303 0.000000
# 3 -0.012611 -0.005444 0.015504 0.000000 0.003542 0.000000
# 4 0.000000 0.000000 0.000000 0.037800 0.000000 -0.012098
# 5 -0.011236 -0.000303 0.003542 0.000000 0.035630 0.000000
# 6 0.000000 0.000000 0.000000 -0.012098 0.000000 0.049586
#
#
# Mechanical properties :
#
#
# Convention : Reuss Voigt Hill
#
# Bulk Modulus (GPa) = 35.27956 59.08264 47.18110
# Shear Modulus (GPa) = 20.06944 25.50482 22.78713
#
# Velocity S-wave (km/s) = 3.37343 3.80290 3.59459
# Velocity P-wave (km/s) = 5.93111 7.26530 6.63184
#
# Compressibility (1/GPa) = 0.02834502
#
# Stress axis : x y z
#
# Youngs Moduli (GPa) = 38.45455 32.25865 64.50015
#
# Poissons Ratio (x) = 0.12991 0.81339
# Poissons Ratio (y) = 0.15487 0.35111
# Poissons Ratio (z) = 0.48494 0.17560
#
# Static dielectric constant tensor:
#      x y z
#    x 1.600750 0.000000 0.012680 
#    y 0.000000 1.594370 0.000000 
#    z 0.012680 0.000000 1.609820 
# 
# From -- ./inp_files/70333.got.cif
#   From: 2010.05.17/outbox.cif.g08.bks.cpg/sg11_36_cif.got.tgz:70333.got - 2010.06.03 12:22:45.
