data_PCOD9155137
_publ_section_title
;
Structure prediction by ZEFSAII (Michael W. Deem and Ramdas Pophale) SiO2 
 PCOD9155137
Probable space group: P 2/M
;
_chemical_formula_sum "Si O2"
_cell_formula_units_Z 32
_cell_length_a 12.000000
_cell_length_b 15.000000
_cell_length_c 18.000000
_cell_angle_alpha 90.000000
_cell_angle_beta 30.000000
_cell_angle_gamma 90.000000
_cell_volume 1620.000000
_symmetry_space_group_name_H-M "P 2/M"
_symmetry_group_IT_number 10
_symmetry_cell_setting 'monoclinic'
loop_
_space_group_symop_operation_xyz
x,y,z
-x,y,-z
-x,-y,-z
x,-y,z
loop_
_atom_site_type_symbol
_atom_site_label
_atom_site_fract_x
_atom_site_fract_y
_atom_site_fract_z
Si Si1 0.300985 0.325526 0.403476
Si Si2 0.228018 0.100225 0.824110
Si Si3 0.851757 0.702792 0.747812
Si Si4 0.664844 0.127890 0.664130
Si Si5 0.477252 0.598881 0.159326
Si Si6 0.964316 0.605505 0.837145
Si Si7 0.372119 0.725534 0.651925
Si Si8 0.107914 0.096427 0.313693
O O1 0.329031 0.234216 0.341463
O O2 0.366805 0.396931 0.304254
O O3 0.461157 0.315753 0.382505
O O4 0.050343 0.327234 0.577665
O O5 0.430287 0.099188 0.766514
O O6 0.284610 0.179728 0.734332
O O7 0.213171 0.000000 0.799663
O O8 0.000000 0.118602 0.000000
O O9 0.628589 0.668442 0.837273
O O10 0.902234 0.653522 0.795522
O O11 0.860732 0.810776 0.748195
O O12 0.726027 0.098549 0.711426
O O13 0.862943 0.099899 0.493445
O O14 0.444366 0.500000 0.145879
O O15 0.740966 0.613731 0.015062
O O16 0.012042 0.500000 0.798815
O O17 0.170089 0.657834 0.753894
O O18 0.500000 0.738463 0.500000
O O19 0.132007 0.000000 0.261182
#
# Coordination Sequence:
#
# PCOD9155137 Si02
#       8
#     4   4   4   4   4   4   4   4
#     4  10  21  38  63  95 122 156 205 261 309 360
#     4  10  22  38  63  96 128 165 207 252 307 367
#     4  11  21  40  63  93 129 162 202 253 311 375
#     4   9  17  33  54  88 127 160 192 246 301 356
#     4  11  24  41  64  93 121 158 207 258 321 380
#     4  11  26  45  64  87 122 170 210 252 317 386
#     4  11  24  44  64  90 124 168 214 256 313 369
#     4  10  18  30  58  92 122 159 201 246 298 357
#
# _framework density 19.753086
#
# number of rings (size 3 to 8) (size 9 to 14) (size 15 to 20)
#    0.000    1.625    2.500    2.625    3.500    3.500 
#    0.000    1.875    0.000    1.500    0.000    0.000 
#    0.000    0.000    0.000    0.000    0.000    0.000 
#
# Total GULP energy -178667.041771 kJ/mol
# GULP energy per Si atom -5583.345055 kJ/mol
# Density = 1.970813 g / cm^3
# Si number density = 19.753086 Si / 1000 Ang^3
#
#
#
# Elastic Constant Matrix: (Units=GPa)
#
#
# Indices 1 2 3 4 5 6 
#
# 1 74.1956 31.0816 26.7982 0.0000 -18.3688 0.0000
# 2 31.0816 125.4507 44.0242 0.0000 -13.9788 0.0000
# 3 26.7982 44.0242 67.0554 0.0000 -21.0645 0.0000
# 4 0.0000 0.0000 0.0000 57.9542 0.0000 -48.7282
# 5 -18.3688 -13.9788 -21.0645 0.0000 25.7010 0.0000
# 6 0.0000 0.0000 0.0000 -48.7282 0.0000 62.1841
#
#
#
# Elastic Compliance Matrix: (Units=1/GPa)
#
#
# Indices 1 2 3 4 5 6 
#
# 1 0.017719 -0.002461 -0.002569 0.000000 0.009220 0.000000
# 2 -0.002461 0.010700 -0.006418 0.000000 -0.001200 0.000000
# 3 -0.002569 -0.006418 0.024888 0.000000 0.015071 0.000000
# 4 0.000000 0.000000 0.000000 0.050581 0.000000 0.039636
# 5 0.009220 -0.001200 0.015071 0.000000 0.057198 0.000000
# 6 0.000000 0.000000 0.000000 0.039636 0.000000 0.047141
#
#
# Mechanical properties :
#
#
# Convention : Reuss Voigt Hill
#
# Bulk Modulus (GPa) = 32.88388 52.27885 42.58136
# Shear Modulus (GPa) = 20.72451 40.15438 30.43944
#
# Velocity S-wave (km/s) = 3.24262 4.51357 3.92981
# Velocity P-wave (km/s) = 5.54103 7.32712 6.49576
#
# Compressibility (1/GPa) = 0.03041004
#
# Stress axis : x y z
#
# Youngs Moduli (GPa) = 56.43508 93.46158 40.18041
#
# Poissons Ratio (x) = 0.23002 0.10324
# Poissons Ratio (y) = 0.13890 0.25787
# Poissons Ratio (z) = 0.14500 0.59983
#
# Static dielectric constant tensor:
#      x y z
#    x 1.666580 0.000000 -0.008460 
#    y 0.000000 1.722800 0.000000 
#    z -0.008460 0.000000 1.694840 
# 
# From -- ./inp_files/77006.got.cif
#   From: 2010.05.17/outbox.ucp.g08.bks.cvg/sg10_39_cif.got.tgz:77006.got - 2010.06.11 11:31:16.
