data_PCOD9155813
_publ_section_title
;
Structure prediction by ZEFSAII (Michael W. Deem and Ramdas Pophale) SiO2 
 PCOD9155813
Probable space group: P 21/M
;
_chemical_formula_sum "Si O2"
_cell_formula_units_Z 32
_cell_length_a 16.115040
_cell_length_b 20.151017
_cell_length_c 9.491311
_cell_angle_alpha 90.000000
_cell_angle_beta 37.867206
_cell_angle_gamma 90.000000
_cell_volume 1891.930232
_symmetry_space_group_name_H-M "P 21/M"
_symmetry_group_IT_number 11
_symmetry_cell_setting 'monoclinic'
loop_
_space_group_symop_operation_xyz
x,y,z
-x,1/2+y,-z
-x,-y,-z
x,1/2-y,z
loop_
_atom_site_type_symbol
_atom_site_label
_atom_site_fract_x
_atom_site_fract_y
_atom_site_fract_z
Si Si1 0.535004 0.824599 0.709810
Si Si2 0.940058 0.466389 0.221031
Si Si3 0.683326 0.957426 0.497278
Si Si4 0.821844 0.176225 0.319159
Si Si5 0.781719 0.508664 0.048500
Si Si6 0.447942 0.675926 0.139734
Si Si7 0.458394 0.063551 0.789856
Si Si8 0.349949 0.626806 0.706324
O O1 0.590057 0.750000 0.625889
O O2 0.650454 0.880592 0.561413
O O3 0.434281 0.837203 0.714276
O O4 0.453364 0.830233 0.965295
O O5 0.799714 0.505893 0.431667
O O6 0.911287 0.389116 0.226444
O O7 0.000000 0.500000 0.000000
O O8 0.059364 0.477015 0.172713
O O9 0.728228 0.966925 0.274107
O O10 0.544877 0.997861 0.708611
O O11 0.884027 0.250000 0.244216
O O12 0.702133 0.171925 0.595107
O O13 0.746202 0.168086 0.269724
O O14 0.691443 0.544790 0.053862
O O15 0.741404 0.431313 0.104398
O O16 0.499715 0.750000 0.107692
O O17 0.531184 0.617676 0.102176
O O18 0.539080 0.093581 0.546849
#
# Coordination Sequence:
#
# PCOD9155813 Si02
#       8
#     4   4   4   4   4   4   4   4
#     4  11  21  32  50  79 109 134 167 218 267 310
#     4  10  18  32  52  77 109 138 164 214 261 301
#     4  10  17  32  52  75 105 132 167 207 263 300
#     4  10  18  33  54  76 101 137 178 212 254 310
#     4  10  17  30  53  78 106 132 166 216 256 301
#     4   9  20  34  50  76 107 135 170 215 262 304
#     4  10  16  32  54  76  99 131 169 214 253 300
#     4  10  16  31  53  77 103 130 167 218 264 296
#
# _framework density 16.913941999999999
#
# number of rings (size 3 to 8) (size 9 to 14) (size 15 to 20)
#    0.000    2.000    7.500    1.125    0.000    1.000 
#    0.000    3.125    0.000    3.000    0.000    3.500 
#    0.000    0.000    0.000    0.000    0.000    0.000 
#
# Total GULP energy -178227.637028 kJ/mol
# GULP energy per Si atom -5569.613657 kJ/mol
# Density = 1.687545 g / cm^3
# Si number density = 16.913942 Si / 1000 Ang^3
#
#
#
# Elastic Constant Matrix: (Units=GPa)
#
#
# Indices 1 2 3 4 5 6 
#
# 1 73.2566 38.2511 22.4205 0.0000 -23.7685 0.0000
# 2 38.2511 139.0078 25.7047 0.0000 -11.1057 0.0000
# 3 22.4205 25.7047 18.4262 0.0000 -5.6665 0.0000
# 4 0.0000 0.0000 0.0000 18.7429 0.0000 -3.7285
# 5 -23.7685 -11.1057 -5.6665 0.0000 26.6576 0.0000
# 6 0.0000 0.0000 0.0000 -3.7285 0.0000 26.2324
#
#
#
# Elastic Compliance Matrix: (Units=1/GPa)
#
#
# Indices 1 2 3 4 5 6 
#
# 1 0.029135 -0.001363 -0.027535 0.000000 0.019556 0.000000
# 2 -0.001363 0.009797 -0.011906 0.000000 0.000336 0.000000
# 3 -0.027535 -0.011906 0.101974 0.000000 -0.007834 0.000000
# 4 0.000000 0.000000 0.000000 0.054906 0.000000 0.007804
# 5 0.019556 0.000336 -0.007834 0.000000 0.053424 0.000000
# 6 0.000000 0.000000 0.000000 0.007804 0.000000 0.039230
#
#
# Mechanical properties :
#
#
# Convention : Reuss Voigt Hill
#
# Bulk Modulus (GPa) = 16.86382 44.82702 30.84542
# Shear Modulus (GPa) = 12.82581 23.94752 18.38666
#
# Velocity S-wave (km/s) = 2.75671 3.76685 3.30065
# Velocity P-wave (km/s) = 4.48605 6.74385 5.72731
#
# Compressibility (1/GPa) = 0.05929854
#
# Stress axis : x y z
#
# Youngs Moduli (GPa) = 34.32330 102.06955 9.80645
#
# Poissons Ratio (x) = 0.13912 0.27002
# Poissons Ratio (y) = 0.04678 0.11675
# Poissons Ratio (z) = 0.94509 1.21520
#
# Static dielectric constant tensor:
#      x y z
#    x 1.588620 0.000000 -0.008380 
#    y 0.000000 1.603960 0.000000 
#    z -0.008380 0.000000 1.560610 
# 
# From -- ./inp_files/23067.got.cif
#   From: 2010.05.17/outbox.cif.g08.bks.cpg/sg11_12_cif.got.tgz:23067.got - 2010.06.03 12:22:45.
