data_PCOD9155712
_publ_section_title
;
Structure prediction by ZEFSAII (Michael W. Deem and Ramdas Pophale) SiO2 
 PCOD9155712
Probable space group: P 2/M
;
_chemical_formula_sum "Si O2"
_cell_formula_units_Z 28
_cell_length_a 30.000000
_cell_length_b 9.000000
_cell_length_c 30.000000
_cell_angle_alpha 90.000000
_cell_angle_beta 170.000000
_cell_angle_gamma 90.000000
_cell_volume 1406.550239
_symmetry_space_group_name_H-M "P 2/M"
_symmetry_group_IT_number 10
_symmetry_cell_setting 'monoclinic'
loop_
_space_group_symop_operation_xyz
x,y,z
-x,y,-z
-x,-y,-z
x,-y,z
loop_
_atom_site_type_symbol
_atom_site_label
_atom_site_fract_x
_atom_site_fract_y
_atom_site_fract_z
Si Si1 0.447856 0.677876 0.539821
Si Si2 0.740463 0.172796 0.259817
Si Si3 0.034311 0.830059 0.980937
Si Si4 0.371571 0.319099 0.567293
Si Si5 0.152758 0.319857 0.907495
Si Si6 0.287394 0.677326 0.940337
Si Si7 0.191917 0.170695 0.569316
O O1 0.439953 0.500000 0.527757
O O2 0.426543 0.718341 0.570701
O O3 0.209329 0.749960 0.280053
O O4 0.711351 0.740676 0.780538
O O5 0.728302 0.169962 0.300489
O O6 0.000000 0.247355 0.500000
O O7 0.748668 0.000000 0.251547
O O8 0.500000 0.246279 0.000000
O O9 0.054045 0.000000 0.984427
O O10 0.000000 0.832062 0.000000
O O11 0.366978 0.500000 0.565090
O O12 0.099730 0.263825 0.316867
O O13 0.595820 0.264658 0.820010
O O14 0.153215 0.500000 0.911351
O O15 0.164343 0.286571 0.867071
O O16 0.289804 0.500000 0.935859
O O17 0.578130 0.737449 0.226853
O O18 0.089613 0.757126 0.712208
O O19 0.183697 0.000000 0.545359
#
# Coordination Sequence:
#
# PCOD9155712 Si02
#       7
#     4   4   4   4   4   4   4
#     4  11  22  37  62  91 114 141 186 245 290 321
#     4   9  17  31  53  79 104 137 186 232 269 325
#     4  11  24  41  59  81 116 159 192 222 274 345
#     4   9  17  31  53  82 110 137 180 234 279 319
#     4   9  17  31  53  79 108 145 186 224 266 327
#     4  11  22  37  59  85 114 151 192 230 272 333
#     4  11  22  37  59  85 114 147 184 235 290 331
#
# _framework density 19.906860999999999
#
# number of rings (size 3 to 8) (size 9 to 14) (size 15 to 20)
#    0.000    1.857    0.000    4.714    0.000    9.714 
#    0.000    0.000    0.000   25.714    0.000    0.000 
#    0.000    0.000    0.000    0.000    0.000    0.000 
#
# Total GULP energy -156245.268422 kJ/mol
# GULP energy per Si atom -5580.188158 kJ/mol
# Density = 1.986155 g / cm^3
# Si number density = 19.906861 Si / 1000 Ang^3
#
#
#
# Elastic Constant Matrix: (Units=GPa)
#
#
# Indices 1 2 3 4 5 6 
#
# 1 30.9637 14.9835 31.2511 0.0000 11.2504 0.0000
# 2 14.9835 65.1305 24.3499 0.0000 7.4089 0.0000
# 3 31.2511 24.3499 146.1889 0.0000 13.8496 0.0000
# 4 0.0000 0.0000 0.0000 17.7890 0.0000 -1.3130
# 5 11.2504 7.4089 13.8496 0.0000 50.9343 0.0000
# 6 0.0000 0.0000 0.0000 -1.3130 0.0000 7.4357
#
#
#
# Elastic Compliance Matrix: (Units=1/GPa)
#
#
# Indices 1 2 3 4 5 6 
#
# 1 0.046334 -0.006830 -0.008100 0.000000 -0.007038 0.000000
# 2 -0.006830 0.017522 -0.001396 0.000000 -0.000661 0.000000
# 3 -0.008100 -0.001396 0.008844 0.000000 -0.000412 0.000000
# 4 0.000000 0.000000 0.000000 0.056957 0.000000 0.010057
# 5 -0.007038 -0.000661 -0.000412 0.000000 0.021396 0.000000
# 6 0.000000 0.000000 0.000000 0.010057 0.000000 0.136262
#
#
# Mechanical properties :
#
#
# Convention : Reuss Voigt Hill
#
# Bulk Modulus (GPa) = 24.97088 42.60579 33.78834
# Shear Modulus (GPa) = 15.00074 26.67837 20.83956
#
# Velocity S-wave (km/s) = 2.74806 3.66479 3.23902
# Velocity P-wave (km/s) = 4.75817 6.27349 5.56762
#
# Compressibility (1/GPa) = 0.04004664
#
# Stress axis : x y z
#
# Youngs Moduli (GPa) = 21.58246 57.07078 113.07501
#
# Poissons Ratio (x) = 0.38981 0.91596
# Poissons Ratio (y) = 0.14741 0.15784
# Poissons Ratio (z) = 0.17483 0.07966
#
# Static dielectric constant tensor:
#      x y z
#    x 1.695350 0.000000 -0.003860 
#    y 0.000000 1.672310 0.000000 
#    z -0.003860 0.000000 1.700790 
# 
# From -- ./inp_files/95981.got.cif
#   From: 2010.05.17/outbox.ucp.g08.bks.cvg/sg10_48_cif.got.tgz:95981.got - 2010.06.11 11:31:16.
