data_PCOD9155408
_publ_section_title
;
Structure prediction by ZEFSAII (Michael W. Deem and Ramdas Pophale) SiO2 
 PCOD9155408
Probable space group: P 2/M
;
_chemical_formula_sum "Si O2"
_cell_formula_units_Z 28
_cell_length_a 21.000000
_cell_length_b 12.000000
_cell_length_c 18.000000
_cell_angle_alpha 90.000000
_cell_angle_beta 20.000000
_cell_angle_gamma 90.000000
_cell_volume 1551.403370
_symmetry_space_group_name_H-M "P 2/M"
_symmetry_group_IT_number 10
_symmetry_cell_setting 'monoclinic'
loop_
_space_group_symop_operation_xyz
x,y,z
-x,y,-z
-x,-y,-z
x,-y,z
loop_
_atom_site_type_symbol
_atom_site_label
_atom_site_fract_x
_atom_site_fract_y
_atom_site_fract_z
Si Si1 0.802829 0.500000 0.323671
Si Si2 0.958840 0.134795 0.432291
Si Si3 0.358941 0.866330 0.314573
Si Si4 0.765392 0.500000 0.186796
Si Si5 0.353389 0.735298 0.463894
Si Si6 0.367729 0.257652 0.710804
Si Si7 0.707036 0.865616 0.845357
Si Si8 0.995805 0.127794 0.094022
O O1 0.757420 0.500000 0.285182
O O2 0.720388 0.609333 0.452373
O O3 0.026129 0.500000 0.074630
O O4 0.853577 0.162583 0.472802
O O5 0.825482 0.175344 0.645549
O O6 0.167838 0.168137 0.220743
O O7 0.956777 0.000000 0.437702
O O8 0.413659 0.787458 0.320732
O O9 0.374434 0.000000 0.312646
O O10 0.494899 0.841002 0.096116
O O11 0.674210 0.386150 0.260769
O O12 0.522089 0.747536 0.334717
O O13 0.184737 0.809852 0.679377
O O14 0.500000 0.213088 0.500000
O O15 0.178554 0.190077 0.920780
O O16 0.710869 0.000000 0.834111
O O17 0.993564 0.000000 0.120370
O O18 0.000000 0.132910 0.000000
#
# Coordination Sequence:
#
# PCOD9155408 Si02
#       8
#     2   4   4   2   4   4   4   4
#     4  11  21  38  65  79 101 128 177 244 294 329
#     4   8  14  27  50  75 104 141 181 217 249 294
#     4  10  20  32  48  75 116 149 172 205 260 326
#     4  11  20  39  66  85  93 121 181 256 301 314
#     4  12  24  38  55  81 109 142 179 226 284 330
#     4  12  22  37  60  82 100 131 181 235 282 325
#     4   8  14  27  49  77 103 138 183 218 248 296
#     4  11  23  38  54  75 106 142 180 217 260 328
#
# _framework density 18.048175000000001
#
# number of rings (size 3 to 8) (size 9 to 14) (size 15 to 20)
#    0.000    1.714    4.286    2.357    0.000    4.286 
#    0.000    1.429    0.000    0.000    0.000    2.000 
#    0.000    2.286    0.000    0.000    0.000    0.000 
#
# Total GULP energy -155974.890380 kJ/mol
# GULP energy per Si atom -5570.531799 kJ/mol
# Density = 1.800710 g / cm^3
# Si number density = 18.048175 Si / 1000 Ang^3
#
#
#
# Elastic Constant Matrix: (Units=GPa)
#
#
# Indices 1 2 3 4 5 6 
#
# 1 49.0196 19.8006 21.6810 0.0000 -14.8709 0.0000
# 2 19.8006 80.4057 33.5939 0.0000 -8.0781 0.0000
# 3 21.6810 33.5939 56.8281 0.0000 -28.8854 0.0000
# 4 0.0000 0.0000 0.0000 21.6718 0.0000 -15.6064
# 5 -14.8709 -8.0781 -28.8854 0.0000 26.5322 0.0000
# 6 0.0000 0.0000 0.0000 -15.6064 0.0000 25.1364
#
#
#
# Elastic Compliance Matrix: (Units=1/GPa)
#
#
# Indices 1 2 3 4 5 6 
#
# 1 0.026547 -0.004896 -0.000959 0.000000 0.012344 0.000000
# 2 -0.004896 0.019520 -0.018013 0.000000 -0.016412 0.000000
# 3 -0.000959 -0.018013 0.057208 0.000000 0.056260 0.000000
# 4 0.000000 0.000000 0.000000 0.083456 0.000000 0.051815
# 5 0.012344 -0.016412 0.056260 0.000000 0.100862 0.000000
# 6 0.000000 0.000000 0.000000 0.051815 0.000000 0.071953
#
#
# Mechanical properties :
#
#
# Convention : Reuss Voigt Hill
#
# Bulk Modulus (GPa) = 18.00601 37.37825 27.69213
# Shear Modulus (GPa) = 11.74272 22.07996 16.91134
#
# Velocity S-wave (km/s) = 2.55352 3.50149 3.06438
# Velocity P-wave (km/s) = 4.32345 6.09118 5.28180
#
# Compressibility (1/GPa) = 0.05553702
#
# Stress axis : x y z
#
# Youngs Moduli (GPa) = 37.66925 51.22988 17.48010
#
# Poissons Ratio (x) = 0.25085 0.01676
# Poissons Ratio (y) = 0.18445 0.31487
# Poissons Ratio (z) = 0.03613 0.92282
#
# Static dielectric constant tensor:
#      x y z
#    x 1.695880 0.000000 -0.012430 
#    y 0.000000 1.568620 0.000000 
#    z -0.012430 0.000000 1.625470 
# 
# From -- ./inp_files/79554.got.cif
#   From: 2010.05.17/outbox.ucp.g08.bks.cvg/sg10_40_cif.got.tgz:79554.got - 2010.06.11 11:31:16.
