data_PCOD9155423
_publ_section_title
;
Structure prediction by ZEFSAII (Michael W. Deem and Ramdas Pophale) SiO2 
 PCOD9155423
Probable space group: P 2/M
;
_chemical_formula_sum "Si O2"
_cell_formula_units_Z 28
_cell_length_a 15.000000
_cell_length_b 9.000000
_cell_length_c 18.000000
_cell_angle_alpha 90.000000
_cell_angle_beta 40.000000
_cell_angle_gamma 90.000000
_cell_volume 1561.973892
_symmetry_space_group_name_H-M "P 2/M"
_symmetry_group_IT_number 10
_symmetry_cell_setting 'monoclinic'
loop_
_space_group_symop_operation_xyz
x,y,z
-x,y,-z
-x,-y,-z
x,-y,z
loop_
_atom_site_type_symbol
_atom_site_label
_atom_site_fract_x
_atom_site_fract_y
_atom_site_fract_z
Si Si1 0.100735 0.678523 0.188358
Si Si2 0.270477 0.177701 0.772046
Si Si3 0.567377 0.320575 0.756001
Si Si4 0.183300 0.822445 0.664077
Si Si5 0.645108 0.681344 0.868099
Si Si6 0.245261 0.677507 0.940048
Si Si7 0.424733 0.320674 0.415457
O O1 0.083267 0.500000 0.207198
O O2 0.220089 0.726468 0.170520
O O3 0.953745 0.758723 0.287489
O O4 0.155777 0.708143 0.069888
O O5 0.186781 0.212153 0.750217
O O6 0.205603 0.238631 0.889957
O O7 0.421624 0.255194 0.670278
O O8 0.287695 0.000000 0.765613
O O9 0.573486 0.500000 0.754900
O O10 0.639697 0.267724 0.785574
O O11 0.404129 0.281405 0.859539
O O12 0.620240 0.278118 0.640411
O O13 0.317372 0.747190 0.541745
O O14 0.190734 0.000000 0.651319
O O15 0.645781 0.500000 0.868318
O O16 0.500000 0.725513 0.000000
O O17 0.243395 0.500000 0.927041
O O18 0.429742 0.500000 0.417311
#
# Coordination Sequence:
#
# PCOD9155423 Si02
#       7
#     4   4   4   4   4   4   4
#     4  10  20  33  54  82 109 139 177 218 261 307
#     4  10  21  36  55  77 102 139 181 216 260 317
#     4   8  14  27  50  82 110 130 161 211 265 310
#     4  11  24  39  52  70 105 148 182 215 260 317
#     4   9  14  26  53  84 110 134 164 210 263 311
#     4   9  17  31  52  81 110 135 170 219 265 306
#     4  10  20  35  58  83 105 131 173 225 266 305
#
# _framework density 17.926036
#
# number of rings (size 3 to 8) (size 9 to 14) (size 15 to 20)
#    0.000    2.429    1.429    2.571    0.000    5.143 
#    0.000    3.571    0.000    9.000    0.000    0.000 
#    0.000    0.000    0.000    0.000    0.000    0.000 
#
# Total GULP energy -156148.820916 kJ/mol
# GULP energy per Si atom -5576.743604 kJ/mol
# Density = 1.788524 g / cm^3
# Si number density = 17.926036 Si / 1000 Ang^3
#
#
#
# Elastic Constant Matrix: (Units=GPa)
#
#
# Indices 1 2 3 4 5 6 
#
# 1 110.8523 19.2180 9.1983 0.0000 9.2028 0.0000
# 2 19.2180 25.5942 10.0809 0.0000 2.8538 0.0000
# 3 9.1983 10.0809 14.6403 0.0000 6.8446 0.0000
# 4 0.0000 0.0000 0.0000 3.9161 0.0000 -7.4387
# 5 9.2028 2.8538 6.8446 0.0000 24.9168 0.0000
# 6 0.0000 0.0000 0.0000 -7.4387 0.0000 4.7038
#
#
#
# Elastic Compliance Matrix: (Units=1/GPa)
#
#
# Indices 1 2 3 4 5 6 
#
# 1 0.010594 -0.007621 0.000015 0.000000 -0.003044 0.000000
# 2 -0.007621 0.059555 -0.039408 0.000000 0.006819 0.000000
# 3 0.000015 -0.039408 0.107074 0.000000 -0.024905 0.000000
# 4 0.000000 0.000000 0.000000 -0.127425 0.000000 -0.201514
# 5 -0.003044 0.006819 -0.024905 0.000000 0.047318 0.000000
# 6 0.000000 0.000000 0.000000 -0.201514 0.000000 -0.106085
#
#
# Mechanical properties :
#
#
# Convention : Reuss Voigt Hill
#
# Bulk Modulus (GPa) = 12.02002 25.34236 18.68119
# Shear Modulus (GPa) = 44.33018 14.21331 29.27175
#
# Velocity S-wave (km/s) = 4.97827 2.81888 4.04532
# Velocity P-wave (km/s) = 6.30588 4.97621 5.68009
#
# Compressibility (1/GPa) = 0.08319455
#
# Stress axis : x y z
#
# Youngs Moduli (GPa) = 94.39569 16.79111 9.33935
#
# Poissons Ratio (x) = 0.12796 -0.00014
# Poissons Ratio (y) = 0.71939 0.36804
# Poissons Ratio (z) = -0.00140 0.66170
#
# Static dielectric constant tensor:
#      x y z
#    x 1.618630 0.000000 0.021370 
#    y 0.000000 1.596030 0.000000 
#    z 0.021370 0.000000 1.618300 
# 
# From -- ./inp_files/68688.got.cif
#   From: 2010.05.17/outbox.ucp.g08.bks.cvg/sg10_35_cif.got.tgz:68688.got - 2010.06.11 11:31:16.
