data_PCOD9155662
_publ_section_title
;
Structure prediction by ZEFSAII (Michael W. Deem and Ramdas Pophale) SiO2 
 PCOD9155662
Probable space group: P 2/M
;
_chemical_formula_sum "Si O2"
_cell_formula_units_Z 28
_cell_length_a 21.000000
_cell_length_b 9.000000
_cell_length_c 15.000000
_cell_angle_alpha 90.000000
_cell_angle_beta 150.000000
_cell_angle_gamma 90.000000
_cell_volume 1417.500000
_symmetry_space_group_name_H-M "P 2/M"
_symmetry_group_IT_number 10
_symmetry_cell_setting 'monoclinic'
loop_
_space_group_symop_operation_xyz
x,y,z
-x,y,-z
-x,-y,-z
x,-y,z
loop_
_atom_site_type_symbol
_atom_site_label
_atom_site_fract_x
_atom_site_fract_y
_atom_site_fract_z
Si Si1 0.820804 0.331661 0.366788
Si Si2 0.639027 0.679810 0.433702
Si Si3 0.936404 0.321501 0.826509
Si Si4 0.877140 0.668807 0.234618
Si Si5 0.159955 0.172962 0.985394
Si Si6 0.396355 0.824389 0.799813
Si Si7 0.426022 0.329740 0.317877
O O1 0.779503 0.500000 0.340975
O O2 0.808049 0.312740 0.245256
O O3 0.740166 0.214305 0.323116
O O4 0.971092 0.322774 0.567011
O O5 0.639991 0.500000 0.435818
O O6 0.786845 0.725202 0.636012
O O7 0.600036 0.739694 0.289520
O O8 0.528486 0.728015 0.369228
O O9 0.938301 0.500000 0.816816
O O10 0.034650 0.250313 0.875227
O O11 0.000000 0.288626 0.000000
O O12 0.850877 0.500000 0.170596
O O13 0.841027 0.792123 0.120714
O O14 0.155605 0.000000 0.000666
O O15 0.295154 0.242969 0.176665
O O16 0.411530 0.000000 0.803403
O O17 0.500000 0.776814 0.000000
O O18 0.500000 0.333389 0.500000
O O19 0.393365 0.500000 0.252987
#
# Coordination Sequence:
#
# PCOD9155662 Si02
#       7
#     4   4   4   4   4   4   4
#     4   9  19  37  61  85 111 147 199 255 297 340
#     4  10  22  40  66  95 120 158 210 261 311 362
#     4  10  21  41  68  94 121 156 204 260 312 367
#     4   9  19  37  60  86 114 148 194 250 300 345
#     4  12  25  37  57  91 128 162 197 239 300 372
#     4  11  25  40  55  81 123 167 203 245 302 368
#     4  10  22  43  68  92 120 158 207 259 310 364
#
# _framework density 19.753086
#
# number of rings (size 3 to 8) (size 9 to 14) (size 15 to 20)
#    0.000    1.857    0.000    4.286    2.000    9.714 
#    0.000    2.857    0.000    0.000    0.000    0.000 
#    0.000    0.000    0.000    0.000    0.000    0.000 
#
# Total GULP energy -156294.410718 kJ/mol
# GULP energy per Si atom -5581.943240 kJ/mol
# Density = 1.970813 g / cm^3
# Si number density = 19.753086 Si / 1000 Ang^3
#
#
#
# Elastic Constant Matrix: (Units=GPa)
#
#
# Indices 1 2 3 4 5 6 
#
# 1 70.5118 4.1039 0.8242 0.0000 2.2484 0.0000
# 2 4.1039 17.3690 -0.3603 0.0000 -2.5256 0.0000
# 3 0.8242 -0.3603 42.4787 0.0000 -12.5629 0.0000
# 4 0.0000 0.0000 0.0000 25.9911 0.0000 -8.0258
# 5 2.2484 -2.5256 -12.5629 0.0000 25.6659 0.0000
# 6 0.0000 0.0000 0.0000 -8.0258 0.0000 -8.9655
#
#
#
# Elastic Compliance Matrix: (Units=1/GPa)
#
#
# Indices 1 2 3 4 5 6 
#
# 1 0.014478 -0.003744 -0.000932 0.000000 -0.002093 0.000000
# 2 -0.003744 0.059618 0.002818 0.000000 0.007574 0.000000
# 3 -0.000932 0.002818 0.027699 0.000000 0.013917 0.000000
# 4 0.000000 0.000000 0.000000 0.030142 0.000000 -0.026983
# 5 -0.002093 0.007574 0.013917 0.000000 0.046703 0.000000
# 6 0.000000 0.000000 0.000000 -0.026983 0.000000 -0.087384
#
#
# Mechanical properties :
#
#
# Convention : Reuss Voigt Hill
#
# Bulk Modulus (GPa) = 10.19578 15.49945 12.84762
# Shear Modulus (GPa) = 39.16493 16.92441 28.04467
#
# Velocity S-wave (km/s) = 4.45761 2.93029 3.77206
# Velocity P-wave (km/s) = 5.62730 4.39459 5.04871
#
# Compressibility (1/GPa) = 0.09807975
#
# Stress axis : x y z
#
# Youngs Moduli (GPa) = 69.07238 16.77336 36.10231
#
# Poissons Ratio (x) = 0.06281 0.03363
# Poissons Ratio (y) = 0.25863 -0.10175
# Poissons Ratio (z) = 0.06434 -0.04727
#
# Static dielectric constant tensor:
#      x y z
#    x 1.691180 0.000000 -0.016150 
#    y 0.000000 1.684490 0.000000 
#    z -0.016150 0.000000 1.746920 
# 
# From -- ./inp_files/70318.got.cif
#   From: 2010.05.17/outbox.ucp.g08.bks.cvg/sg10_36_cif.got.tgz:70318.got - 2010.06.11 11:31:16.
