data_PCOD9155661
_publ_section_title
;
Structure prediction by ZEFSAII (Michael W. Deem and Ramdas Pophale) SiO2 
 PCOD9155661
Probable space group: P 2/M
;
_chemical_formula_sum "Si O2"
_cell_formula_units_Z 32
_cell_length_a 12.000000
_cell_length_b 9.000000
_cell_length_c 30.000000
_cell_angle_alpha 90.000000
_cell_angle_beta 30.000000
_cell_angle_gamma 90.000000
_cell_volume 1620.000000
_symmetry_space_group_name_H-M "P 2/M"
_symmetry_group_IT_number 10
_symmetry_cell_setting 'monoclinic'
loop_
_space_group_symop_operation_xyz
x,y,z
-x,y,-z
-x,-y,-z
x,-y,z
loop_
_atom_site_type_symbol
_atom_site_label
_atom_site_fract_x
_atom_site_fract_y
_atom_site_fract_z
Si Si1 0.211958 0.675652 0.649278
Si Si2 0.941757 0.177316 0.384834
Si Si3 0.574701 0.320200 0.776357
Si Si4 0.195753 0.823275 0.156675
Si Si5 0.346297 0.323633 0.443165
Si Si6 0.075007 0.321084 0.107605
Si Si7 0.441670 0.320253 0.721815
Si Si8 0.633743 0.823203 0.066471
O O1 0.179538 0.500000 0.652405
O O2 0.211293 0.759465 0.602255
O O3 0.430896 0.691639 0.603861
O O4 0.006741 0.743549 0.747836
O O5 0.839578 0.229922 0.467078
O O6 0.182537 0.253725 0.296844
O O7 0.959416 0.000000 0.375365
O O8 0.576988 0.500000 0.778318
O O9 0.510245 0.275363 0.748001
O O10 0.412054 0.252237 0.870055
O O11 0.203038 0.751731 0.105070
O O12 0.415264 0.802618 0.110689
O O13 0.156699 0.000000 0.166286
O O14 0.287319 0.500000 0.463215
O O15 0.402296 0.273338 0.373474
O O16 0.095392 0.500000 0.102212
O O17 0.813576 0.280066 0.200773
O O18 0.171455 0.256815 0.028361
O O19 0.449026 0.500000 0.718848
O O20 0.671014 0.000000 0.058268
#
# Coordination Sequence:
#
# PCOD9155661 Si02
#       8
#     4   4   4   4   4   4   4   4
#     4  11  21  37  65  93 121 159 205 248 296 362
#     4  12  25  40  59  91 130 161 197 249 307 367
#     4  11  23  42  67  88 114 160 212 256 302 358
#     4  11  22  37  60  90 129 164 195 245 308 363
#     4  10  21  41  65  91 122 158 202 252 301 359
#     4  11  22  40  65  93 123 159 206 253 299 362
#     4   9  21  42  65  90 118 154 207 264 304 345
#     4  11  24  41  60  90 129 163 198 249 308 364
#
# _framework density 19.753086
#
# number of rings (size 3 to 8) (size 9 to 14) (size 15 to 20)
#    0.000    1.250    2.500    3.750    0.000    6.500 
#    0.000    8.750    0.000    0.000    0.000    0.000 
#    0.000    0.000    0.000    0.000    0.000    0.000 
#
# Total GULP energy -178949.794381 kJ/mol
# GULP energy per Si atom -5592.181074 kJ/mol
# Density = 1.970813 g / cm^3
# Si number density = 19.753086 Si / 1000 Ang^3
#
#
#
# Elastic Constant Matrix: (Units=GPa)
#
#
# Indices 1 2 3 4 5 6 
#
# 1 91.2216 24.6746 9.3403 0.0000 38.6617 0.0000
# 2 24.6746 89.1110 20.9174 0.0000 14.0091 0.0000
# 3 9.3403 20.9174 84.9485 0.0000 40.5139 0.0000
# 4 0.0000 0.0000 0.0000 -13.7327 0.0000 6.0319
# 5 38.6617 14.0091 40.5139 0.0000 39.7448 0.0000
# 6 0.0000 0.0000 0.0000 6.0319 0.0000 12.7294
#
#
#
# Elastic Compliance Matrix: (Units=1/GPa)
#
#
# Indices 1 2 3 4 5 6 
#
# 1 0.033371 -0.006268 0.023941 0.000000 -0.054657 0.000000
# 2 -0.006268 0.013202 -0.006325 0.000000 0.007891 0.000000
# 3 0.023941 -0.006325 0.040363 0.000000 -0.062204 0.000000
# 4 0.000000 0.000000 0.000000 -0.060274 0.000000 0.028561
# 5 -0.054657 0.007891 -0.062204 0.000000 0.138955 0.000000
# 6 0.000000 0.000000 0.000000 0.028561 0.000000 0.065025
#
#
# Mechanical properties :
#
#
# Convention : Reuss Voigt Hill
#
# Bulk Modulus (GPa) = 9.12123 41.68285 25.40204
# Shear Modulus (GPa) = 20.45083 21.77156 21.11120
#
# Velocity S-wave (km/s) = 3.22113 3.32352 3.27273
# Velocity P-wave (km/s) = 4.29673 5.98961 5.21236
#
# Compressibility (1/GPa) = 0.10963430
#
# Stress axis : x y z
#
# Youngs Moduli (GPa) = 29.96587 75.74838 24.77487
#
# Poissons Ratio (x) = 0.47476 -0.59315
# Poissons Ratio (y) = 0.18781 0.15670
# Poissons Ratio (z) = -0.71743 0.47910
#
# Static dielectric constant tensor:
#      x y z
#    x 1.689920 0.000000 0.008630 
#    y 0.000000 1.651750 0.000000 
#    z 0.008630 0.000000 1.718760 
# 
# From -- ./inp_files/63811.got.cif
#   From: 2010.05.17/outbox.ucp.g08.bks.cvg/sg10_32_cif.got.tgz:63811.got - 2010.06.11 11:31:16.
