data_PCOD9155883
_publ_section_title
;
Structure prediction by ZEFSAII (Michael W. Deem and Ramdas Pophale) SiO2 
 PCOD9155883
Probable space group: P 21/M
;
_chemical_formula_sum "Si O2"
_cell_formula_units_Z 28
_cell_length_a 25.905121
_cell_length_b 9.209887
_cell_length_c 18.136541
_cell_angle_alpha 90.000000
_cell_angle_beta 25.047566
_cell_angle_gamma 90.000000
_cell_volume 1831.955839
_symmetry_space_group_name_H-M "P 21/M"
_symmetry_group_IT_number 11
_symmetry_cell_setting 'monoclinic'
loop_
_space_group_symop_operation_xyz
x,y,z
-x,1/2+y,-z
-x,-y,-z
x,1/2-y,z
loop_
_atom_site_type_symbol
_atom_site_label
_atom_site_fract_x
_atom_site_fract_y
_atom_site_fract_z
Si Si1 0.942258 0.923664 0.838915
Si Si2 0.182549 0.921230 0.306168
Si Si3 0.169827 0.417029 0.730109
Si Si4 0.630085 0.923347 0.828252
Si Si5 0.200538 0.423773 0.529310
Si Si6 0.880778 0.082981 0.062422
Si Si7 0.905409 0.921020 0.720584
O O1 0.950440 0.750000 0.835965
O O2 0.886993 0.956900 0.830169
O O3 0.078150 0.991176 0.665807
O O4 0.870882 0.991819 0.000278
O O5 0.210153 0.750000 0.270767
O O6 0.049311 0.941218 0.516184
O O7 0.281368 0.009546 0.224553
O O8 0.168031 0.982820 0.242468
O O9 0.200519 0.250000 0.707239
O O10 0.233067 0.462652 0.571729
O O11 0.025276 0.421128 0.896591
O O12 0.186995 0.514553 0.779681
O O13 0.619186 0.750000 0.851638
O O14 0.695336 0.950966 0.665057
O O15 0.500000 0.000000 0.000000
O O16 0.173477 0.250000 0.564367
O O17 0.847537 0.250000 0.093808
O O18 0.879036 0.750000 0.742941
#
# Coordination Sequence:
#
# PCOD9155883 Si02
#       7
#     4   4   4   4   4   4   4
#     4  10  17  26  42  63  89 118 149 183 219 265
#     4  10  19  32  48  67  89 117 153 190 230 272
#     4   8  14  25  38  54  78 110 146 180 217 260
#     4  11  22  35  50  67  91 120 154 195 234 272
#     4   9  18  30  44  61  83 114 151 188 225 266
#     4   9  16  24  35  56  84 114 146 177 215 261
#     4   9  18  30  45  67  92 119 151 187 226 272
#
# _framework density 15.284211000000001
#
# number of rings (size 3 to 8) (size 9 to 14) (size 15 to 20)
#    0.000    2.571    1.429    2.571    0.000    5.714 
#    0.000    0.000    0.000    0.000    0.000    0.000 
#    0.000    1.143    0.000    3.429    0.000    4.857 
#
# Total GULP energy -156007.273185 kJ/mol
# GULP energy per Si atom -5571.688328 kJ/mol
# Density = 1.524942 g / cm^3
# Si number density = 15.284211 Si / 1000 Ang^3
#
#
#
# Elastic Constant Matrix: (Units=GPa)
#
#
# Indices 1 2 3 4 5 6 
#
# 1 134.2182 75.5816 51.6218 0.0000 32.1123 0.0000
# 2 75.5816 82.7526 43.3926 0.0000 15.2265 0.0000
# 3 51.6218 43.3926 49.9020 0.0000 8.8566 0.0000
# 4 0.0000 0.0000 0.0000 16.9379 0.0000 1.8698
# 5 32.1123 15.2265 8.8566 0.0000 18.0254 0.0000
# 6 0.0000 0.0000 0.0000 1.8698 0.0000 28.3866
#
#
#
# Elastic Compliance Matrix: (Units=1/GPa)
#
#
# Indices 1 2 3 4 5 6 
#
# 1 0.025645 -0.012457 -0.010359 0.000000 -0.030074 0.000000
# 2 -0.012457 0.030102 -0.013929 0.000000 0.003608 0.000000
# 3 -0.010359 -0.013929 0.041087 0.000000 0.010034 0.000000
# 4 0.000000 0.000000 0.000000 0.059472 0.000000 -0.003917
# 5 -0.030074 0.003608 0.010034 0.000000 0.101076 0.000000
# 6 0.000000 0.000000 0.000000 -0.003917 0.000000 0.035486
#
#
# Mechanical properties :
#
#
# Convention : Reuss Voigt Hill
#
# Bulk Modulus (GPa) = 42.83986 67.56275 55.20130
# Shear Modulus (GPa) = 13.36400 19.08844 16.22622
#
# Velocity S-wave (km/s) = 2.96018 3.53781 3.26181
# Velocity P-wave (km/s) = 6.30660 7.80951 7.09794
#
# Compressibility (1/GPa) = 0.02334275
#
# Stress axis : x y z
#
# Youngs Moduli (GPa) = 38.99386 33.22046 24.33859
#
# Poissons Ratio (x) = 0.41383 0.25213
# Poissons Ratio (y) = 0.48575 0.33902
# Poissons Ratio (z) = 0.40395 0.46274
#
# Static dielectric constant tensor:
#      x y z
#    x 1.517280 0.000000 0.031430 
#    y 0.000000 1.509730 0.000000 
#    z 0.031430 0.000000 1.482310 
# 
# From -- ./inp_files/42294.got.cif
#   From: 2010.05.17/outbox.cif.g08.bks.cpg/sg11_22_cif.got.tgz:42294.got - 2010.06.03 12:22:45.
