data_PCOD9155606
_publ_section_title
;
Structure prediction by ZEFSAII (Michael W. Deem and Ramdas Pophale) SiO2 
 PCOD9155606
Probable space group: P 2/M
;
_chemical_formula_sum "Si O2"
_cell_formula_units_Z 28
_cell_length_a 9.000000
_cell_length_b 9.000000
_cell_length_c 27.000000
_cell_angle_alpha 90.000000
_cell_angle_beta 40.000000
_cell_angle_gamma 90.000000
_cell_volume 1405.776502
_symmetry_space_group_name_H-M "P 2/M"
_symmetry_group_IT_number 10
_symmetry_cell_setting 'monoclinic'
loop_
_space_group_symop_operation_xyz
x,y,z
-x,y,-z
-x,-y,-z
x,-y,z
loop_
_atom_site_type_symbol
_atom_site_label
_atom_site_fract_x
_atom_site_fract_y
_atom_site_fract_z
Si Si1 0.992526 0.673608 0.860712
Si Si2 0.484895 0.319126 0.287145
Si Si3 0.694804 0.825212 0.854673
Si Si4 0.732979 0.333144 0.556599
Si Si5 0.849466 0.177931 0.708501
Si Si6 0.236887 0.332424 0.555240
Si Si7 0.159133 0.166470 0.007058
O O1 0.991795 0.500000 0.851713
O O2 0.811473 0.747953 0.870808
O O3 0.923489 0.712444 0.933640
O O4 0.251838 0.728212 0.785820
O O5 0.467619 0.500000 0.289306
O O6 0.394266 0.269472 0.363885
O O7 0.328630 0.248525 0.284788
O O8 0.792330 0.768905 0.778022
O O9 0.744071 0.000000 0.845254
O O10 0.421265 0.806606 0.925152
O O11 0.631146 0.500000 0.573774
O O12 0.747930 0.250513 0.501201
O O13 0.000000 0.351861 0.500000
O O14 0.097690 0.237931 0.629610
O O15 0.834183 0.000000 0.710512
O O16 0.500000 0.351916 0.500000
O O17 0.128976 0.500000 0.578310
O O18 0.145476 0.000000 0.033400
O O19 0.000000 0.167291 0.000000
#
# Coordination Sequence:
#
# PCOD9155606 Si02
#       7
#     4   4   4   4   4   4   4
#     4  11  24  38  60  93 123 150 188 246 300 340
#     4  10  21  38  59  84 116 152 194 240 290 351
#     4  10  23  41  60  84 118 160 196 233 286 353
#     4   9  16  32  57  81 107 145 193 238 277 337
#     4  11  23  39  59  85 118 153 196 247 294 340
#     4  10  21  36  59  84 112 155 200 239 289 352
#     4  10  21  41  67  88 114 158 203 234 278 353
#
# _framework density 19.917818
#
# number of rings (size 3 to 8) (size 9 to 14) (size 15 to 20)
#    0.000    1.857    1.429    2.143    2.000    6.286 
#    0.000    1.429    0.000    0.000    0.000    0.000 
#    0.000    0.000    0.000    0.000    0.000    0.000 
#
# Total GULP energy -156044.336588 kJ/mol
# GULP energy per Si atom -5573.012021 kJ/mol
# Density = 1.987248 g / cm^3
# Si number density = 19.917818 Si / 1000 Ang^3
#
#
#
# Elastic Constant Matrix: (Units=GPa)
#
#
# Indices 1 2 3 4 5 6 
#
# 1 88.0720 20.8841 16.1535 0.0000 -2.1369 0.0000
# 2 20.8841 4.6858 34.7794 0.0000 -8.9908 0.0000
# 3 16.1535 34.7794 -0.0411 0.0000 10.4521 0.0000
# 4 0.0000 0.0000 0.0000 23.8654 0.0000 2.0846
# 5 -2.1369 -8.9908 10.4521 0.0000 26.3397 0.0000
# 6 0.0000 0.0000 0.0000 2.0846 0.0000 12.8735
#
#
#
# Elastic Compliance Matrix: (Units=1/GPa)
#
#
# Indices 1 2 3 4 5 6 
#
# 1 0.014435 -0.007196 -0.007284 0.000000 0.001605 0.000000
# 2 -0.007196 0.006422 0.029589 0.000000 -0.010133 0.000000
# 3 -0.007284 0.029589 0.002581 0.000000 0.008485 0.000000
# 4 0.000000 0.000000 0.000000 0.042503 0.000000 -0.006882
# 5 0.001605 -0.010133 0.008485 0.000000 0.031270 0.000000
# 6 0.000000 0.000000 0.000000 -0.006882 0.000000 0.078793
#
#
# Mechanical properties :
#
#
# Convention : Reuss Voigt Hill
#
# Bulk Modulus (GPa) = 18.63690 26.26121 22.44905
# Shear Modulus (GPa) = 30.54904 14.00904 22.27904
#
# Velocity S-wave (km/s) = 3.92057 2.65494 3.34810
# Velocity P-wave (km/s) = 5.46550 4.75517 5.12266
#
# Compressibility (1/GPa) = 0.05365700
#
# Stress axis : x y z
#
# Youngs Moduli (GPa) = 69.27381 155.70856 387.51077
#
# Poissons Ratio (x) = 1.12043 2.82249
# Poissons Ratio (y) = 0.49847 -11.46592
# Poissons Ratio (z) = 0.50457 -4.60721
#
# Static dielectric constant tensor:
#      x y z
#    x 1.668740 0.000000 0.009030 
#    y 0.000000 1.714280 0.000000 
#    z 0.009030 0.000000 1.692320 
# 
# From -- ./inp_files/91995.got.cif
#   From: 2010.05.17/outbox.ucp.g08.bks.cvg/sg10_46_cif.got.tgz:91995.got - 2010.06.11 11:31:16.
