data_PCOD9155941
_publ_section_title
;
Structure prediction by ZEFSAII (Michael W. Deem and Ramdas Pophale) SiO2 
 PCOD9155941
Probable space group: P 21/M
;
_chemical_formula_sum "Si O2"
_cell_formula_units_Z 32
_cell_length_a 20.351676
_cell_length_b 8.560105
_cell_length_c 28.610265
_cell_angle_alpha 90.000000
_cell_angle_beta 21.498558
_cell_angle_gamma 90.000000
_cell_volume 1826.622639
_symmetry_space_group_name_H-M "P 21/M"
_symmetry_group_IT_number 11
_symmetry_cell_setting 'monoclinic'
loop_
_space_group_symop_operation_xyz
x,y,z
-x,1/2+y,-z
-x,-y,-z
x,1/2-y,z
loop_
_atom_site_type_symbol
_atom_site_label
_atom_site_fract_x
_atom_site_fract_y
_atom_site_fract_z
Si Si1 0.433775 0.936824 0.387566
Si Si2 0.791128 0.440513 0.922040
Si Si3 0.812137 0.936038 0.106605
Si Si4 0.092715 0.437559 0.650937
Si Si5 0.291835 0.064868 0.382829
Si Si6 0.330213 0.560858 0.897739
Si Si7 0.053265 0.436712 0.351625
Si Si8 0.457693 0.061238 0.079698
O O1 0.416456 0.750000 0.392794
O O2 0.643762 0.975759 0.252047
O O3 0.292707 0.992697 0.519452
O O4 0.366894 0.021740 0.384651
O O5 0.791279 0.250000 0.921994
O O6 0.965992 0.489140 0.777357
O O7 0.772772 0.491013 0.987681
O O8 0.614237 0.491149 0.010838
O O9 0.822137 0.750000 0.097615
O O10 0.758148 0.998356 0.091137
O O11 0.000000 0.000000 0.000000
O O12 0.102424 0.250000 0.643763
O O13 0.001265 0.492510 0.662789
O O14 0.269111 0.250000 0.393451
O O15 0.458390 0.014544 0.240108
O O16 0.096425 0.987691 0.511749
O O17 0.328149 0.750000 0.896842
O O18 0.046724 0.250000 0.351712
O O19 0.256837 0.485680 0.227403
O O20 0.461689 0.250000 0.075814
O O21 0.500000 0.000000 0.000000
#
# Coordination Sequence:
#
# PCOD9155941 Si02
#       8
#     4   4   4   4   4   4   4   4
#     4   9  17  29  46  71 101 125 152 194 239 280
#     4   9  18  32  49  69  96 131 167 204 247 293
#     4  10  20  34  55  81 105 128 154 192 238 284
#     4  10  17  27  47  70  94 127 166 204 239 283
#     4   9  16  27  46  67  89 122 162 202 240 286
#     4   9  18  34  53  72  97 130 165 198 239 292
#     4  10  18  27  43  66  93 124 160 208 257 290
#     4  10  19  31  46  66  94 128 167 210 252 293
#
# _framework density 17.518671000000001
#
# number of rings (size 3 to 8) (size 9 to 14) (size 15 to 20)
#    0.000    2.500    1.250    3.375    0.000    2.500 
#    0.000    2.500    0.000    0.750    0.000    0.000 
#    0.000    0.000    0.000    0.000    0.000    0.000 
#
# Total GULP energy -178288.314476 kJ/mol
# GULP energy per Si atom -5571.509827 kJ/mol
# Density = 1.747880 g / cm^3
# Si number density = 17.518671 Si / 1000 Ang^3
#
#
#
# Elastic Constant Matrix: (Units=GPa)
#
#
# Indices 1 2 3 4 5 6 
#
# 1 54.9149 13.0611 60.8648 0.0000 3.8443 0.0000
# 2 13.0611 20.3204 28.4120 0.0000 -0.5904 0.0000
# 3 60.8648 28.4120 180.9615 0.0000 -0.1134 0.0000
# 4 0.0000 0.0000 0.0000 25.1284 0.0000 -5.3082
# 5 3.8443 -0.5904 -0.1134 0.0000 25.8160 0.0000
# 6 0.0000 0.0000 0.0000 -5.3082 0.0000 10.2331
#
#
#
# Elastic Compliance Matrix: (Units=1/GPa)
#
#
# Indices 1 2 3 4 5 6 
#
# 1 0.030261 -0.006858 -0.009104 0.000000 -0.004703 0.000000
# 2 -0.006858 0.064658 -0.007844 0.000000 0.002465 0.000000
# 3 -0.009104 -0.007844 0.009820 0.000000 0.001219 0.000000
# 4 0.000000 0.000000 0.000000 0.044693 0.000000 0.023184
# 5 -0.004703 0.002465 0.001219 0.000000 0.039498 0.000000
# 6 0.000000 0.000000 0.000000 0.023184 0.000000 0.109748
#
#
# Mechanical properties :
#
#
# Convention : Reuss Voigt Hill
#
# Bulk Modulus (GPa) = 17.50443 51.20810 34.35626
# Shear Modulus (GPa) = 13.68619 22.49276 18.08948
#
# Velocity S-wave (km/s) = 2.79809 3.58709 3.21687
# Velocity P-wave (km/s) = 4.52246 6.81544 5.78372
#
# Compressibility (1/GPa) = 0.05712841
#
# Stress axis : x y z
#
# Youngs Moduli (GPa) = 33.04586 15.46599 101.82832
#
# Poissons Ratio (x) = 0.10606 0.92707
# Poissons Ratio (y) = 0.22661 0.79871
# Poissons Ratio (z) = 0.30086 0.12131
#
# Static dielectric constant tensor:
#      x y z
#    x 1.561520 0.000000 0.008470 
#    y 0.000000 1.597270 0.000000 
#    z 0.008470 0.000000 1.657700 
# 
# From -- ./inp_files/73616.got.cif
#   From: 2010.05.17/outbox.cif.g08.bks.cpg/sg11_37_cif.got.tgz:73616.got - 2010.06.03 12:22:45.
