data_PCOD9155117
_publ_section_title
;
Structure prediction by ZEFSAII (Michael W. Deem and Ramdas Pophale) SiO2 
 PCOD9155117
Probable space group: P 2/M
;
_chemical_formula_sum "Si O2"
_cell_formula_units_Z 32
_cell_length_a 24.000000
_cell_length_b 9.000000
_cell_length_c 18.000000
_cell_angle_alpha 90.000000
_cell_angle_beta 30.000000
_cell_angle_gamma 90.000000
_cell_volume 1944.000000
_symmetry_space_group_name_H-M "P 2/M"
_symmetry_group_IT_number 10
_symmetry_cell_setting 'monoclinic'
loop_
_space_group_symop_operation_xyz
x,y,z
-x,y,-z
-x,-y,-z
x,-y,z
loop_
_atom_site_type_symbol
_atom_site_label
_atom_site_fract_x
_atom_site_fract_y
_atom_site_fract_z
Si Si1 0.963659 0.174270 0.455878
Si Si2 0.610052 0.174618 0.706383
Si Si3 0.643827 0.174947 0.946605
Si Si4 0.569053 0.823237 0.588188
Si Si5 0.631053 0.328812 0.372056
Si Si6 0.725675 0.323948 0.707648
Si Si7 0.330532 0.321341 0.832264
Si Si8 0.180550 0.677869 0.144211
O O1 0.850194 0.263304 0.575118
O O2 0.000000 0.186914 0.500000
O O3 0.063312 0.243388 0.292952
O O4 0.947225 0.000000 0.458442
O O5 0.621693 0.215234 0.606679
O O6 0.680985 0.274470 0.679416
O O7 0.638631 0.000000 0.683571
O O8 0.479594 0.190244 0.877900
O O9 0.651357 0.243396 0.856111
O O10 0.732547 0.259728 0.895446
O O11 0.672542 0.000000 0.911009
O O12 0.638593 0.766205 0.437513
O O13 0.446060 0.751755 0.724885
O O14 0.556223 0.000000 0.599865
O O15 0.500000 0.325850 0.500000
O O16 0.660192 0.500000 0.353915
O O17 0.692180 0.275801 0.226728
O O18 0.721141 0.500000 0.722654
O O19 0.347550 0.500000 0.811343
O O20 0.234319 0.288422 0.001992
O O21 0.170253 0.500000 0.164306
#
# Coordination Sequence:
#
# PCOD9155117 Si02
#       8
#     4   4   4   4   4   4   4   4
#     4  11  23  39  58  75  99 136 171 210 264 315
#     4  10  22  37  52  73 106 142 174 210 255 310
#     4  11  21  36  54  74 104 141 173 207 258 310
#     4  10  18  29  47  73 102 136 174 209 246 296
#     4   8  15  28  44  66 100 139 169 199 249 305
#     4  12  25  38  55  77 100 131 176 223 257 299
#     4   9  18  31  47  71 105 138 167 206 256 304
#     4  11  21  33  54  80 104 133 174 219 255 298
#
# _framework density 16.460905
#
# number of rings (size 3 to 8) (size 9 to 14) (size 15 to 20)
#    0.000    1.750    2.500    3.750    0.000    6.750 
#    0.000    0.000    0.000    0.000    0.000    0.875 
#    0.000    7.000    0.000    0.000    0.000    0.000 
#
# Total GULP energy -178617.908136 kJ/mol
# GULP energy per Si atom -5581.809629 kJ/mol
# Density = 1.642344 g / cm^3
# Si number density = 16.460905 Si / 1000 Ang^3
#
#
#
# Elastic Constant Matrix: (Units=GPa)
#
#
# Indices 1 2 3 4 5 6 
#
# 1 75.0614 33.9911 33.1847 0.0000 28.6939 0.0000
# 2 33.9911 54.8042 27.8023 0.0000 16.0404 0.0000
# 3 33.1847 27.8023 49.6986 0.0000 26.6776 0.0000
# 4 0.0000 0.0000 0.0000 23.9178 0.0000 1.2962
# 5 28.6939 16.0404 26.6776 0.0000 29.2917 0.0000
# 6 0.0000 0.0000 0.0000 1.2962 0.0000 29.0362
#
#
#
# Elastic Compliance Matrix: (Units=1/GPa)
#
#
# Indices 1 2 3 4 5 6 
#
# 1 0.025290 -0.009437 -0.002119 0.000000 -0.017676 0.000000
# 2 -0.009437 0.029053 -0.012470 0.000000 0.004692 0.000000
# 3 -0.002119 -0.012470 0.046432 0.000000 -0.033384 0.000000
# 4 0.000000 0.000000 0.000000 0.041911 0.000000 -0.001871
# 5 -0.017676 0.004692 -0.033384 0.000000 0.079290 0.000000
# 6 0.000000 0.000000 0.000000 -0.001871 0.000000 0.034523
#
#
# Mechanical properties :
#
#
# Convention : Reuss Voigt Hill
#
# Bulk Modulus (GPa) = 18.96707 41.05782 30.01245
# Shear Modulus (GPa) = 15.52193 22.08822 18.80508
#
# Velocity S-wave (km/s) = 3.07409 3.66711 3.38362
# Velocity P-wave (km/s) = 4.91402 6.55188 5.79114
#
# Compressibility (1/GPa) = 0.05272296
#
# Stress axis : x y z
#
# Youngs Moduli (GPa) = 39.54168 34.42040 21.53678
#
# Poissons Ratio (x) = 0.32482 0.04564
# Poissons Ratio (y) = 0.37315 0.26856
# Poissons Ratio (z) = 0.08379 0.42922
#
# Static dielectric constant tensor:
#      x y z
#    x 1.550030 0.000000 0.032210 
#    y 0.000000 1.547320 0.000000 
#    z 0.032210 0.000000 1.552260 
# 
# From -- ./inp_files/52738.got.cif
#   From: 2010.05.17/outbox.ucp.g08.bks.cvg/sg10_27_cif.got.tgz:52738.got - 2010.06.11 11:31:16.
