data_PCOD9155356
_publ_section_title
;
Structure prediction by ZEFSAII (Michael W. Deem and Ramdas Pophale) SiO2 
 PCOD9155356
Probable space group: P 2/M
;
_chemical_formula_sum "Si O2"
_cell_formula_units_Z 32
_cell_length_a 30.000000
_cell_length_b 9.000000
_cell_length_c 12.000000
_cell_angle_alpha 90.000000
_cell_angle_beta 30.000000
_cell_angle_gamma 90.000000
_cell_volume 1620.000000
_symmetry_space_group_name_H-M "P 2/M"
_symmetry_group_IT_number 10
_symmetry_cell_setting 'monoclinic'
loop_
_space_group_symop_operation_xyz
x,y,z
-x,y,-z
-x,-y,-z
x,-y,z
loop_
_atom_site_type_symbol
_atom_site_label
_atom_site_fract_x
_atom_site_fract_y
_atom_site_fract_z
Si Si1 0.154333 0.322902 0.489244
Si Si2 0.583645 0.318411 0.246693
Si Si3 0.457109 0.681020 0.913113
Si Si4 0.625868 0.680424 0.670218
Si Si5 0.226632 0.318967 0.093358
Si Si6 0.033144 0.175264 0.109652
Si Si7 0.918369 0.674429 0.764129
Si Si8 0.808037 0.322896 0.353341
O O1 0.141835 0.500000 0.507554
O O2 0.188327 0.271084 0.296051
O O3 0.215192 0.298572 0.466055
O O4 0.061078 0.247286 0.713217
O O5 0.500000 0.271333 0.500000
O O6 0.584297 0.500000 0.241011
O O7 0.578810 0.267950 0.128422
O O8 0.671636 0.272791 0.121869
O O9 0.451669 0.500000 0.923115
O O10 0.560021 0.724249 0.713857
O O11 0.410091 0.727951 0.130104
O O12 0.624289 0.500000 0.675703
O O13 0.728056 0.724923 0.446039
O O14 0.222252 0.500000 0.101031
O O15 0.167633 0.270584 0.117464
O O16 0.060786 0.233496 0.171811
O O17 0.027447 0.000000 0.119591
O O18 0.105325 0.235138 0.867546
O O19 0.907477 0.500000 0.818843
O O20 0.000000 0.681295 0.500000
O O21 0.822964 0.500000 0.308222
#
# Coordination Sequence:
#
# PCOD9155356 Si02
#       8
#     4   4   4   4   4   4   4   4
#     4  10  19  35  56  76 100 135 180 221 258 305
#     4   9  16  24  37  65 104 139 163 194 250 312
#     4   8  13  23  40  65 102 136 164 202 253 306
#     4   8  14  25  43  69  98 132 168 207 253 302
#     4   9  17  30  51  75 101 136 176 215 257 305
#     4  12  25  37  51  74 107 140 171 216 270 320
#     4  10  19  36  59  78 100 133 177 223 259 303
#     4  10  20  33  53  78 105 138 178 217 258 313
#
# _framework density 19.753086
#
# number of rings (size 3 to 8) (size 9 to 14) (size 15 to 20)
#    0.000    2.500    1.250    3.000    0.000    6.250 
#    0.000    3.750    0.000    0.000    0.000    1.750 
#    0.000   13.000    0.000    0.000    0.000    0.000 
#
# Total GULP energy -178335.649035 kJ/mol
# GULP energy per Si atom -5572.989032 kJ/mol
# Density = 1.970813 g / cm^3
# Si number density = 19.753086 Si / 1000 Ang^3
#
#
#
# Elastic Constant Matrix: (Units=GPa)
#
#
# Indices 1 2 3 4 5 6 
#
# 1 89.4883 -9.5612 5.7255 0.0000 -19.0314 0.0000
# 2 -9.5612 -46.2803 -16.6736 0.0000 -0.5181 0.0000
# 3 5.7255 -16.6736 40.1704 0.0000 -18.4263 0.0000
# 4 0.0000 0.0000 0.0000 -31.9812 0.0000 -8.9079
# 5 -19.0314 -0.5181 -18.4263 0.0000 32.2012 0.0000
# 6 0.0000 0.0000 0.0000 -8.9079 0.0000 -13.0307
#
#
#
# Elastic Compliance Matrix: (Units=1/GPa)
#
#
# Indices 1 2 3 4 5 6 
#
# 1 0.012457 -0.002853 0.000538 0.000000 0.007624 0.000000
# 2 -0.002853 -0.017201 -0.010350 0.000000 -0.007885 0.000000
# 3 0.000538 -0.010350 0.027919 0.000000 0.016127 0.000000
# 4 0.000000 0.000000 0.000000 -0.038622 0.000000 0.026403
# 5 0.007624 -0.007885 0.016127 0.000000 0.044662 0.000000
# 6 0.000000 0.000000 0.000000 0.026403 0.000000 -0.094791
#
#
# Mechanical properties :
#
#
# Convention : Reuss Voigt Hill
#
# Bulk Modulus (GPa) = -463.98005 4.70666 -229.63670
# Shear Modulus (GPa) = -122.05564 4.36370 -58.84597
#
# Velocity S-wave (km/s) = -7.86923 1.48792 -5.46401
# Velocity P-wave (km/s) = 17.83161 2.31080 12.50253
#
# Compressibility (1/GPa) = -0.00215527
#
# Stress axis : x y z
#
# Youngs Moduli (GPa) = 80.27708 -58.13604 35.81808
#
# Poissons Ratio (x) = -0.16584 -0.01926
# Poissons Ratio (y) = 0.22899 0.37072
# Poissons Ratio (z) = -0.04316 -0.60171
#
# Static dielectric constant tensor:
#      x y z
#    x 1.682440 0.000000 -0.015970 
#    y 0.000000 1.652450 0.000000 
#    z -0.015970 0.000000 1.722790 
# 
# From -- ./inp_files/58161.got.cif
#   From: 2010.05.17/outbox.ucp.g08.bks.cvg/sg10_30_cif.got.tgz:58161.got - 2010.06.11 11:31:16.
