data_PCOD9155318
_publ_section_title
;
Structure prediction by ZEFSAII (Michael W. Deem and Ramdas Pophale) SiO2 
 PCOD9155318
Probable space group: P 2/M
;
_chemical_formula_sum "Si O2"
_cell_formula_units_Z 32
_cell_length_a 30.000000
_cell_length_b 9.000000
_cell_length_c 12.000000
_cell_angle_alpha 90.000000
_cell_angle_beta 150.000000
_cell_angle_gamma 90.000000
_cell_volume 1620.000000
_symmetry_space_group_name_H-M "P 2/M"
_symmetry_group_IT_number 10
_symmetry_cell_setting 'monoclinic'
loop_
_space_group_symop_operation_xyz
x,y,z
-x,y,-z
-x,-y,-z
x,-y,z
loop_
_atom_site_type_symbol
_atom_site_label
_atom_site_fract_x
_atom_site_fract_y
_atom_site_fract_z
Si Si1 0.507085 0.820385 0.646149
Si Si2 0.068835 0.334757 0.550070
Si Si3 0.983580 0.177073 0.157275
Si Si4 0.660444 0.173676 0.573176
Si Si5 0.687212 0.326936 0.046702
Si Si6 0.175728 0.824513 0.501618
Si Si7 0.215289 0.180977 0.344521
Si Si8 0.760607 0.831433 0.010109
O O1 0.500000 0.775130 0.500000
O O2 0.425607 0.766721 0.547730
O O3 0.505320 0.000000 0.641854
O O4 0.599959 0.761737 0.895508
O O5 0.108142 0.500000 0.613454
O O6 0.140747 0.215244 0.745528
O O7 0.000000 0.349382 0.500000
O O8 0.015673 0.271973 0.330874
O O9 0.068904 0.195422 0.260005
O O10 0.979872 0.000000 0.174314
O O11 0.884857 0.224333 0.908333
O O12 0.704621 0.239830 0.558379
O O13 0.639622 0.000000 0.504985
O O14 0.740110 0.176551 0.835944
O O15 0.676053 0.500000 0.039043
O O16 0.776728 0.267251 0.299108
O O17 0.699407 0.282440 0.944332
O O18 0.223101 0.780607 0.490203
O O19 0.189195 0.000000 0.552619
O O20 0.216374 0.000000 0.339825
O O21 0.739491 0.000000 0.000893
#
# Coordination Sequence:
#
# PCOD9155318 Si02
#       8
#     4   4   4   4   4   4   4   4
#     4  10  19  36  60  85 113 146 186 233 283 339
#     4  11  23  35  48  76 119 159 190 227 278 335
#     4  10  19  33  56  83 111 147 191 237 279 327
#     4   9  18  33  57  86 114 142 180 236 290 335
#     4  12  24  37  56  84 116 148 186 233 285 339
#     4  10  20  36  59  84 113 150 190 234 280 330
#     4   9  18  34  57  87 114 141 188 240 283 330
#     4  11  20  35  58  83 112 148 189 232 283 337
#
# _framework density 19.753086
#
# number of rings (size 3 to 8) (size 9 to 14) (size 15 to 20)
#    0.000    1.750    2.500    3.000    0.000    3.750 
#    0.000    1.250    0.000    8.250    0.000    0.000 
#    0.000    0.000    0.000    0.000    0.000    0.000 
#
# Total GULP energy -178344.998297 kJ/mol
# GULP energy per Si atom -5573.281197 kJ/mol
# Density = 1.970813 g / cm^3
# Si number density = 19.753086 Si / 1000 Ang^3
#
#
#
# Elastic Constant Matrix: (Units=GPa)
#
#
# Indices 1 2 3 4 5 6 
#
# 1 116.3943 16.4000 6.6186 0.0000 13.5840 0.0000
# 2 16.4000 20.9047 5.4690 0.0000 3.0790 0.0000
# 3 6.6186 5.4690 32.8731 0.0000 14.6353 0.0000
# 4 0.0000 0.0000 0.0000 -17.0319 0.0000 -0.8010
# 5 13.5840 3.0790 14.6353 0.0000 11.4975 0.0000
# 6 0.0000 0.0000 0.0000 -0.8010 0.0000 10.4343
#
#
#
# Elastic Compliance Matrix: (Units=1/GPa)
#
#
# Indices 1 2 3 4 5 6 
#
# 1 0.012105 -0.008464 0.009991 0.000000 -0.024753 0.000000
# 2 -0.008464 0.056141 -0.012451 0.000000 0.010815 0.000000
# 3 0.009991 -0.012451 0.079048 0.000000 -0.109091 0.000000
# 4 0.000000 0.000000 0.000000 -0.058502 0.000000 -0.004491
# 5 -0.024753 0.010815 -0.109091 0.000000 0.252187 0.000000
# 6 0.000000 0.000000 0.000000 -0.004491 0.000000 0.095493
#
#
# Mechanical properties :
#
#
# Convention : Reuss Voigt Hill
#
# Bulk Modulus (GPa) = 7.97162 25.23859 16.60510
# Shear Modulus (GPa) = 9.99730 10.42562 10.21146
#
# Velocity S-wave (km/s) = 2.25214 2.29988 2.27613
# Velocity P-wave (km/s) = 3.28743 4.45616 3.91565
#
# Compressibility (1/GPa) = 0.12544506
#
# Stress axis : x y z
#
# Youngs Moduli (GPa) = 82.61180 17.81232 12.65059
#
# Poissons Ratio (x) = 0.15077 -0.12639
# Poissons Ratio (y) = 0.69927 0.15751
# Poissons Ratio (z) = -0.82538 0.22178
#
# Static dielectric constant tensor:
#      x y z
#    x 1.769550 0.000000 0.028930 
#    y 0.000000 1.665410 0.000000 
#    z 0.028930 0.000000 1.688360 
# 
# From -- ./inp_files/58341.got.cif
#   From: 2010.05.17/outbox.ucp.g08.bks.cvg/sg10_30_cif.got.tgz:58341.got - 2010.06.11 11:31:16.
