data_PCOD9155068
_publ_section_title
;
Structure prediction by ZEFSAII (Michael W. Deem and Ramdas Pophale) SiO2 
 PCOD9155068
Probable space group: P 2/M
;
_chemical_formula_sum "Si O2"
_cell_formula_units_Z 28
_cell_length_a 29.975742
_cell_length_b 9.335091
_cell_length_c 18.661987
_cell_angle_alpha 90.000000
_cell_angle_beta 20.955841
_cell_angle_gamma 90.000000
_cell_volume 1867.680407
_symmetry_space_group_name_H-M "P 2/M"
_symmetry_group_IT_number 10
_symmetry_cell_setting 'monoclinic'
loop_
_space_group_symop_operation_xyz
x,y,z
-x,y,-z
-x,-y,-z
x,-y,z
loop_
_atom_site_type_symbol
_atom_site_label
_atom_site_fract_x
_atom_site_fract_y
_atom_site_fract_z
Si Si1 0.499998 0.825563 0.917709
Si Si2 0.248604 0.171539 0.540688
Si Si3 0.133462 0.664774 0.841149
Si Si4 0.866537 0.335225 0.741539
Si Si5 0.248604 0.171538 0.213500
Si Si6 0.988521 0.170899 0.850656
Si Si7 0.011478 0.829101 0.316220
O O1 0.625208 0.782938 0.688323
O O2 0.499997 0.000000 0.919648
O O3 0.500000 0.775999 0.000000
O O4 0.374790 0.782933 0.063949
O O5 0.225682 0.251630 0.649794
O O6 0.128478 0.199456 0.670225
O O7 0.252722 0.000000 0.546517
O O8 0.169984 0.500000 0.796619
O O9 0.106643 0.744880 0.955737
O O10 0.000000 0.666702 0.000000
O O11 0.830018 0.500000 0.806567
O O12 0.774317 0.251630 0.826842
O O13 0.893356 0.255116 0.775667
O O14 0.000000 0.333296 0.500000
O O15 0.128478 0.199459 0.444339
O O16 0.252723 0.000000 0.195314
O O17 0.979357 0.209072 0.780965
O O18 0.968316 0.000000 0.888306
O O19 0.031684 0.000000 0.293254
#
# Coordination Sequence:
#
# PCOD9155068 Si02
#       7
#     4   4   4   4   4   4   4
#     4   9  16  26  43  67  90 113 144 177 205 238
#     4   9  16  27  43  62  86 115 144 173 205 244
#     4   9  17  28  41  58  82 112 144 176 210 249
#     4   9  17  28  41  58  82 112 144 176 210 249
#     4   9  16  27  43  62  86 115 144 173 205 244
#     4   9  16  26  42  64  87 110 138 174 214 252
#     4   9  16  26  42  64  87 110 138 174 214 252
#
# _framework density 14.991858000000001
#
# number of rings (size 3 to 8) (size 9 to 14) (size 15 to 20)
#    0.000    3.000    0.000    1.714    0.000    7.429 
#    0.000    0.714    0.000    3.429    0.000    1.000 
#    0.000    8.000    0.000    0.000    0.000    0.000 
#
# Total GULP energy -155949.249429 kJ/mol
# GULP energy per Si atom -5569.616051 kJ/mol
# Density = 1.495774 g / cm^3
# Si number density = 14.991858 Si / 1000 Ang^3
#
#
#
# Elastic Constant Matrix: (Units=GPa)
#
#
# Indices 1 2 3 4 5 6 
#
# 1 148.7529 65.8941 70.3436 0.0000 16.5896 0.0000
# 2 65.8941 48.2998 43.3126 0.0000 11.9471 0.0000
# 3 70.3436 43.3126 90.1783 0.0000 14.3964 0.0000
# 4 0.0000 0.0000 0.0000 9.2100 0.0000 -0.7537
# 5 16.5896 11.9471 14.3964 0.0000 24.6846 0.0000
# 6 0.0000 0.0000 0.0000 -0.7537 0.0000 7.7872
#
#
#
# Elastic Compliance Matrix: (Units=1/GPa)
#
#
# Indices 1 2 3 4 5 6 
#
# 1 0.017738 -0.020791 -0.003919 0.000000 0.000427 0.000000
# 2 -0.020791 0.062297 -0.012262 0.000000 -0.009027 0.000000
# 3 -0.003919 -0.012262 0.020584 0.000000 -0.003436 0.000000
# 4 0.000000 0.000000 0.000000 0.109444 0.000000 0.010593
# 5 0.000427 -0.009027 -0.003436 0.000000 0.046597 0.000000
# 6 0.000000 0.000000 0.000000 0.010593 0.000000 0.129442
#
#
# Mechanical properties :
#
#
# Convention : Reuss Voigt Hill
#
# Bulk Modulus (GPa) = 37.48764 71.81464 54.65114
# Shear Modulus (GPa) = 10.66236 15.51507 13.08871
#
# Velocity S-wave (km/s) = 2.66975 3.22048 2.95796
# Velocity P-wave (km/s) = 5.87903 7.86353 6.94255
#
# Compressibility (1/GPa) = 0.02667546
#
# Stress axis : x y z
#
# Youngs Moduli (GPa) = 56.37629 16.05202 48.58064
#
# Poissons Ratio (x) = 0.33373 0.19038
# Poissons Ratio (y) = 1.17211 0.59572
# Poissons Ratio (z) = 0.22093 0.19684
#
# Static dielectric constant tensor:
#      x y z
#    x 1.482680 0.000000 0.001650 
#    y 0.000000 1.497220 0.000000 
#    z 0.001650 0.000000 1.479540 
# 
# From -- ./inp_files/65731.got.cif
#   From: 2010.05.17/outbox.cif.g08.bks.cpg/sg10_33_cif.got.tgz:65731.got - 2010.06.03 11:33:40.
