data_PCOD9155002
_publ_section_title
;
Structure prediction by ZEFSAII (Michael W. Deem and Ramdas Pophale) SiO2 
 PCOD9155002
Probable space group: P 2/M
;
_chemical_formula_sum "Si O2"
_cell_formula_units_Z 32
_cell_length_a 22.312575
_cell_length_b 7.441698
_cell_length_c 22.312567
_cell_angle_alpha 90.000000
_cell_angle_beta 155.873355
_cell_angle_gamma 90.000000
_cell_volume 1514.377920
_symmetry_space_group_name_H-M "P 2/M"
_symmetry_group_IT_number 10
_symmetry_cell_setting 'monoclinic'
loop_
_space_group_symop_operation_xyz
x,y,z
-x,y,-z
-x,-y,-z
x,-y,z
loop_
_atom_site_type_symbol
_atom_site_label
_atom_site_fract_x
_atom_site_fract_y
_atom_site_fract_z
Si Si1 0.005662 0.780062 0.823708
Si Si2 0.676291 0.219937 0.494337
Si Si3 0.300300 0.715762 0.866122
Si Si4 0.884760 0.780588 0.945385
Si Si5 0.563347 0.787234 0.263389
Si Si6 0.763392 0.787233 0.063351
Si Si7 0.633877 0.284238 0.199700
Si Si8 0.554616 0.780588 0.615240
O O1 0.113341 0.717911 0.869010
O O2 0.839240 0.722726 0.660759
O O3 0.005251 0.000000 0.823033
O O4 0.065252 0.724361 0.942905
O O5 0.630987 0.282089 0.386657
O O6 0.557094 0.275639 0.434747
O O7 0.676966 0.000000 0.494748
O O8 0.302270 0.500000 0.866579
O O9 0.205900 0.764803 0.837851
O O10 0.271741 0.777283 0.771740
O O11 0.466423 0.777048 0.033576
O O12 0.720102 0.722871 0.779899
O O13 0.884524 0.000000 0.944984
O O14 0.000000 0.723343 0.000000
O O15 0.662146 0.764808 0.294098
O O16 0.546240 0.000000 0.256044
O O17 0.399626 0.713414 0.100370
O O18 0.756048 0.000000 0.046247
O O19 0.633421 0.500000 0.197732
O O20 0.500000 0.723344 0.500000
O O21 0.555017 0.000000 0.615476
#
# Coordination Sequence:
#
# PCOD9155002 Si02
#       8
#     4   4   4   4   4   4   4   4
#     4   9  16  25  36  51  75 107 139 170 207 249
#     4   9  16  25  36  51  75 107 139 170 207 249
#     4   8  14  25  41  61  84 108 134 167 208 251
#     4   9  15  22  33  50  74 105 140 174 207 245
#     4   9  16  25  39  60  83 106 135 172 210 246
#     4   9  16  25  39  60  83 106 135 172 210 246
#     4   8  14  25  41  61  84 108 134 167 208 251
#     4   9  15  22  33  50  74 105 140 174 207 245
#
# _framework density 21.130787999999999
#
# number of rings (size 3 to 8) (size 9 to 14) (size 15 to 20)
#    0.000    3.250    0.000    2.250    0.000    6.500 
#    0.000    2.500    0.000    1.500    0.000    5.250 
#    0.000    1.000    0.000    2.750    0.000    5.000 
#
# Total GULP energy -178425.742489 kJ/mol
# GULP energy per Si atom -5575.804453 kJ/mol
# Density = 2.108269 g / cm^3
# Si number density = 21.130788 Si / 1000 Ang^3
#
#
#
# Elastic Constant Matrix: (Units=GPa)
#
#
# Indices 1 2 3 4 5 6 
#
# 1 256.3194 2.5001 125.0270 0.0000 -22.3507 0.0000
# 2 2.5001 62.1840 4.8254 0.0000 0.6708 0.0000
# 3 125.0270 4.8254 142.4691 0.0000 -10.5136 0.0000
# 4 0.0000 0.0000 0.0000 -1.8970 0.0000 -15.3445
# 5 -22.3507 0.6708 -10.5136 0.0000 30.3492 0.0000
# 6 0.0000 0.0000 0.0000 -15.3445 0.0000 51.2585
#
#
#
# Elastic Compliance Matrix: (Units=1/GPa)
#
#
# Indices 1 2 3 4 5 6 
#
# 1 0.007105 0.000147 -0.006008 0.000000 0.003148 0.000000
# 2 0.000147 0.016136 -0.000712 0.000000 -0.000495 0.000000
# 3 -0.006008 -0.000712 0.012305 0.000000 -0.000146 0.000000
# 4 0.000000 0.000000 0.000000 -0.154071 0.000000 -0.046122
# 5 0.003148 -0.000495 -0.000146 0.000000 0.035228 0.000000
# 6 0.000000 0.000000 0.000000 -0.046122 0.000000 0.005702
#
#
# Mechanical properties :
#
#
# Convention : Reuss Voigt Hill
#
# Bulk Modulus (GPa) = 44.64326 80.63081 62.63704
# Shear Modulus (GPa) = -87.74556 37.85013 -24.94771
#
# Velocity S-wave (km/s) = -6.45098 4.23689 -3.43976
# Velocity P-wave (km/s) = 5.85780 7.88516 3.73242
#
# Compressibility (1/GPa) = 0.02239980
#
# Stress axis : x y z
#
# Youngs Moduli (GPa) = 140.74841 61.97332 81.27049
#
# Poissons Ratio (x) = -0.00908 0.48825
# Poissons Ratio (y) = -0.02063 0.05784
# Poissons Ratio (z) = 0.84557 0.04411
#
# Static dielectric constant tensor:
#      x y z
#    x 1.769860 0.000000 -0.013470 
#    y 0.000000 1.806380 0.000000 
#    z -0.013470 0.000000 1.723210 
# 
# From -- ./inp_files/33933.got.cif
#   From: 2010.05.17/outbox.cif.g08.bks.cpg/sg10_17_cif.got.tgz:33933.got - 2010.06.03 11:33:40.
