data_PCOD9155012
_publ_section_title
;
Structure prediction by ZEFSAII (Michael W. Deem and Ramdas Pophale) SiO2 
 PCOD9155012
Probable space group: P 2/M
;
_chemical_formula_sum "Si O2"
_cell_formula_units_Z 32
_cell_length_a 14.903620
_cell_length_b 9.736808
_cell_length_c 18.644243
_cell_angle_alpha 90.000000
_cell_angle_beta 34.118595
_cell_angle_gamma 90.000000
_cell_volume 1517.555339
_symmetry_space_group_name_H-M "P 2/M"
_symmetry_group_IT_number 10
_symmetry_cell_setting 'monoclinic'
loop_
_space_group_symop_operation_xyz
x,y,z
-x,y,-z
-x,-y,-z
x,-y,z
loop_
_atom_site_type_symbol
_atom_site_label
_atom_site_fract_x
_atom_site_fract_y
_atom_site_fract_z
Si Si1 0.260886 0.843007 0.324008
Si Si2 0.782605 0.334907 0.016601
Si Si3 0.964158 0.842862 0.406733
Si Si4 0.873420 0.347821 0.800475
Si Si5 0.848069 0.662362 0.225253
Si Si6 0.360565 0.839448 0.531647
Si Si7 0.593076 0.653724 0.875212
Si Si8 0.425087 0.664161 0.714296
O O1 0.181626 0.789488 0.449003
O O2 0.388393 0.739940 0.207633
O O3 0.116693 0.845975 0.360311
O O4 0.314960 0.000000 0.296713
O O5 0.770075 0.500000 0.029871
O O6 0.778037 0.300577 0.934502
O O7 0.967417 0.300782 0.914550
O O8 0.646814 0.285315 0.161608
O O9 0.998592 0.757824 0.313534
O O10 0.932905 0.000000 0.409730
O O11 0.937104 0.500000 0.774066
O O12 0.760220 0.362882 0.806031
O O13 0.842890 0.500000 0.247268
O O14 0.779286 0.755454 0.335060
O O15 0.728195 0.676621 0.237572
O O16 0.500000 0.840942 0.500000
O O17 0.435515 0.755428 0.414602
O O18 0.324298 0.000000 0.539491
O O19 0.526498 0.500000 0.906495
O O20 0.500000 0.729811 0.000000
O O21 0.467880 0.500000 0.688952
#
# Coordination Sequence:
#
# PCOD9155012 Si02
#       8
#     4   4   4   4   4   4   4   4
#     4   8  14  25  43  65  84 106 137 176 216 252
#     4   9  17  29  47  70  94 119 152 194 235 275
#     4   8  14  26  43  63  86 108 137 175 214 257
#     4   9  17  29  45  64  88 117 145 177 222 271
#     4   9  16  28  48  71  92 116 154 197 232 271
#     4   9  17  29  45  67  95 123 152 189 231 274
#     4   9  17  28  43  64  89 115 145 180 217 260
#     4   9  16  28  48  71  92 120 156 193 231 271
#
# _framework density 21.086545999999998
#
# number of rings (size 3 to 8) (size 9 to 14) (size 15 to 20)
#    0.000    3.250    0.000    1.500    0.000    3.750 
#    0.000    4.375    2.750    3.000    0.000    0.000 
#    0.000    0.000    0.000    0.000    0.000    0.000 
#
# Total GULP energy -178235.283701 kJ/mol
# GULP energy per Si atom -5569.852616 kJ/mol
# Density = 2.103855 g / cm^3
# Si number density = 21.086546 Si / 1000 Ang^3
#
#
#
# Elastic Constant Matrix: (Units=GPa)
#
#
# Indices 1 2 3 4 5 6 
#
# 1 70.8452 3.1984 2.5829 0.0000 11.8674 0.0000
# 2 3.1984 71.6168 80.7296 0.0000 24.6421 0.0000
# 3 2.5829 80.7296 181.9330 0.0000 42.9676 0.0000
# 4 0.0000 0.0000 0.0000 41.0628 0.0000 2.5052
# 5 11.8674 24.6421 42.9676 0.0000 18.3780 0.0000
# 6 0.0000 0.0000 0.0000 2.5052 0.0000 7.6402
#
#
#
# Elastic Compliance Matrix: (Units=1/GPa)
#
#
# Indices 1 2 3 4 5 6 
#
# 1 0.018369 0.003198 0.004766 0.000000 -0.027292 0.000000
# 2 0.003198 0.031790 -0.008032 0.000000 -0.025913 0.000000
# 3 0.004766 -0.008032 0.016024 0.000000 -0.029773 0.000000
# 4 0.000000 0.000000 0.000000 0.024850 0.000000 -0.008148
# 5 -0.027292 -0.025913 -0.029773 0.000000 0.176390 0.000000
# 6 0.000000 0.000000 0.000000 -0.008148 0.000000 0.133559
#
#
# Mechanical properties :
#
#
# Convention : Reuss Voigt Hill
#
# Bulk Modulus (GPa) = 15.14059 55.26854 35.20457
# Shear Modulus (GPa) = 11.81657 29.27512 20.54585
#
# Velocity S-wave (km/s) = 2.36981 3.73007 3.12486
# Velocity P-wave (km/s) = 3.83195 6.69466 5.45446
#
# Compressibility (1/GPa) = 0.06604761
#
# Stress axis : x y z
#
# Youngs Moduli (GPa) = 54.43994 31.45598 62.40467
#
# Poissons Ratio (x) = -0.10060 -0.29740
# Poissons Ratio (y) = -0.17411 0.50123
# Poissons Ratio (z) = -0.25944 0.25265
#
# Static dielectric constant tensor:
#      x y z
#    x 1.858860 0.000000 -0.029370 
#    y 0.000000 1.746890 0.000000 
#    z -0.029370 0.000000 1.773030 
# 
# From -- ./inp_files/86097.got.cif
#   From: 2010.05.17/outbox.cif.g08.bks.cpg/sg10_44_cif.got.tgz:86097.got - 2010.06.03 11:33:40.
