data_PCOD9155377
_publ_section_title
;
Structure prediction by ZEFSAII (Michael W. Deem and Ramdas Pophale) SiO2 
 PCOD9155377
Probable space group: P 2/M
;
_chemical_formula_sum "Si O2"
_cell_formula_units_Z 28
_cell_length_a 15.000000
_cell_length_b 9.000000
_cell_length_c 21.000000
_cell_angle_alpha 90.000000
_cell_angle_beta 30.000000
_cell_angle_gamma 90.000000
_cell_volume 1417.500000
_symmetry_space_group_name_H-M "P 2/M"
_symmetry_group_IT_number 10
_symmetry_cell_setting 'monoclinic'
loop_
_space_group_symop_operation_xyz
x,y,z
-x,y,-z
-x,-y,-z
x,-y,z
loop_
_atom_site_type_symbol
_atom_site_label
_atom_site_fract_x
_atom_site_fract_y
_atom_site_fract_z
Si Si1 0.357002 0.331895 0.530418
Si Si2 0.285995 0.500000 0.131839
Si Si3 0.103236 0.823856 0.782521
Si Si4 0.629242 0.820605 0.271555
Si Si5 0.118216 0.830113 0.491030
Si Si6 0.529565 0.172147 0.195869
Si Si7 0.007362 0.500000 0.416473
Si Si8 0.751525 0.666612 0.967509
O O1 0.500000 0.338025 0.500000
O O2 0.307834 0.500000 0.543322
O O3 0.196517 0.245936 0.662677
O O4 0.453862 0.248161 0.413079
O O5 0.187647 0.500000 0.260755
O O6 0.500000 0.500000 0.000000
O O7 0.237844 0.640616 0.115211
O O8 0.207785 0.776941 0.782462
O O9 0.118122 0.000000 0.770264
O O10 0.902256 0.770886 0.902988
O O11 0.637803 0.776886 0.192260
O O12 0.614836 0.000000 0.281617
O O13 0.324245 0.821863 0.343267
O O14 0.074526 0.666370 0.549132
O O15 0.000000 0.834012 0.500000
O O16 0.093856 0.000000 0.536090
O O17 0.570036 0.269271 0.108793
O O18 0.574687 0.000000 0.155036
O O19 0.000000 0.500000 0.500000
O O20 0.778143 0.500000 0.976483
#
# Coordination Sequence:
#
# PCOD9155377 Si02
#       8
#     4   2   4   4   4   4   2   4
#     4   9  17  30  51  78 115 158 205 264 319 365
#     4  10  26  46  68  96 130 164 213 262 317 411
#     4  10  19  36  58  82 121 169 214 258 314 377
#     4   9  19  34  56  86 119 165 217 262 311 374
#     4   9  20  37  64  98 130 161 213 275 331 392
#     4  10  21  39  60  91 128 168 215 266 319 382
#     4  10  22  40  76 101 126 173 211 265 339 395
#     4  10  24  39  62  84 124 163 207 250 318 381
#
# _framework density 19.753086
#
# number of rings (size 3 to 8) (size 9 to 14) (size 15 to 20)
#    0.429    2.000    0.000    1.286    5.000    4.571 
#    0.000    5.714    0.000    2.143    0.000    0.000 
#    0.000    0.000    0.000    0.000    0.000    0.000 
#
# Total GULP energy -155872.984748 kJ/mol
# GULP energy per Si atom -5566.892312 kJ/mol
# Density = 1.970813 g / cm^3
# Si number density = 19.753086 Si / 1000 Ang^3
#
#
#
# Elastic Constant Matrix: (Units=GPa)
#
#
# Indices 1 2 3 4 5 6 
#
# 1 55.1443 1.7337 23.7333 0.0000 2.8321 0.0000
# 2 1.7337 74.5717 27.4671 0.0000 1.8786 0.0000
# 3 23.7333 27.4671 82.6499 0.0000 9.7770 0.0000
# 4 0.0000 0.0000 0.0000 36.6167 0.0000 2.2799
# 5 2.8321 1.8786 9.7770 0.0000 31.8543 0.0000
# 6 0.0000 0.0000 0.0000 2.2799 0.0000 18.0592
#
#
#
# Elastic Compliance Matrix: (Units=1/GPa)
#
#
# Indices 1 2 3 4 5 6 
#
# 1 0.020942 0.001971 -0.006677 0.000000 0.000071 0.000000
# 2 0.001971 0.015480 -0.005792 0.000000 0.000690 0.000000
# 3 -0.006677 -0.005792 0.016427 0.000000 -0.004107 0.000000
# 4 0.000000 0.000000 0.000000 0.027526 0.000000 -0.003475
# 5 0.000071 0.000690 -0.004107 0.000000 0.032606 0.000000
# 6 0.000000 0.000000 0.000000 -0.003475 0.000000 0.055812
#
#
# Mechanical properties :
#
#
# Convention : Reuss Voigt Hill
#
# Bulk Modulus (GPa) = 31.39420 35.35932 33.37676
# Shear Modulus (GPa) = 24.94902 27.93485 26.44193
#
# Velocity S-wave (km/s) = 3.55779 3.76467 3.66269
# Velocity P-wave (km/s) = 5.72756 6.06931 5.90091
#
# Compressibility (1/GPa) = 0.03185302
#
# Stress axis : x y z
#
# Youngs Moduli (GPa) = 47.75021 64.59908 60.87460
#
# Poissons Ratio (x) = -0.12730 0.40646
# Poissons Ratio (y) = -0.09410 0.35258
# Poissons Ratio (z) = 0.31883 0.37416
#
# Static dielectric constant tensor:
#      x y z
#    x 1.676370 0.000000 0.012520 
#    y 0.000000 1.710490 0.000000 
#    z 0.012520 0.000000 1.689590 
# 
# From -- ./inp_files/84925.got.cif
#   From: 2010.05.17/outbox.ucp.g08.bks.cvg/sg10_43_cif.got.tgz:84925.got - 2010.06.11 11:31:16.
