data_PCOD9155360
_publ_section_title
;
Structure prediction by ZEFSAII (Michael W. Deem and Ramdas Pophale) SiO2 
 PCOD9155360
Probable space group: P 2/M
;
_chemical_formula_sum "Si O2"
_cell_formula_units_Z 32
_cell_length_a 24.000000
_cell_length_b 9.000000
_cell_length_c 15.000000
_cell_angle_alpha 90.000000
_cell_angle_beta 150.000000
_cell_angle_gamma 90.000000
_cell_volume 1620.000000
_symmetry_space_group_name_H-M "P 2/M"
_symmetry_group_IT_number 10
_symmetry_cell_setting 'monoclinic'
loop_
_space_group_symop_operation_xyz
x,y,z
-x,y,-z
-x,-y,-z
x,-y,z
loop_
_atom_site_type_symbol
_atom_site_label
_atom_site_fract_x
_atom_site_fract_y
_atom_site_fract_z
Si Si1 0.788170 0.176504 0.501865
Si Si2 0.874217 0.331497 0.789698
Si Si3 0.401584 0.319488 0.299021
Si Si4 0.461639 0.172630 0.845107
Si Si5 0.823457 0.326246 0.912535
Si Si6 0.636978 0.320453 0.957103
Si Si7 0.890064 0.320967 0.293948
Si Si8 0.012815 0.176809 0.742445
O O1 0.838457 0.214255 0.667524
O O2 0.663494 0.237806 0.327912
O O3 0.884066 0.229605 0.566391
O O4 0.779693 0.000000 0.476011
O O5 0.863130 0.500000 0.737648
O O6 0.799940 0.317536 0.775208
O O7 0.000000 0.318142 0.000000
O O8 0.500000 0.265510 0.500000
O O9 0.407931 0.500000 0.306523
O O10 0.284257 0.281615 0.181312
O O11 0.399498 0.272059 0.193212
O O12 0.550198 0.256928 0.907238
O O13 0.457157 0.000000 0.808845
O O14 0.500000 0.174177 0.000000
O O15 0.850948 0.500000 0.969573
O O16 0.926840 0.224674 0.083003
O O17 0.634868 0.500000 0.956740
O O18 0.766220 0.273832 0.152716
O O19 0.889713 0.500000 0.291967
O O20 0.000000 0.271172 0.500000
O O21 0.914362 0.258745 0.230163
O O22 0.015472 0.000000 0.734296
#
# Coordination Sequence:
#
# PCOD9155360 Si02
#       8
#     4   4   4   4   4   4   4   4
#     4  10  23  40  57  82 118 159 200 244 297 349
#     4  10  20  33  55  86 114 150 197 239 285 347
#     4   9  18  33  56  83 114 152 187 229 288 348
#     4  10  24  45  64  81 114 163 205 246 298 351
#     4  10  19  35  56  80 117 155 190 234 290 348
#     4  10  21  39  63  91 119 148 193 245 292 348
#     4  10  22  40  62  88 118 150 184 236 303 354
#     4  11  22  36  58  87 117 151 196 241 289 348
#
# _framework density 19.753086
#
# number of rings (size 3 to 8) (size 9 to 14) (size 15 to 20)
#    0.000    2.000    2.500    0.375    3.500    2.750 
#    0.000    0.000    0.000    0.750    0.000    0.000 
#    0.000    0.000    0.000    0.000    0.000    0.000 
#
# Total GULP energy -178411.039853 kJ/mol
# GULP energy per Si atom -5575.344995 kJ/mol
# Density = 1.970813 g / cm^3
# Si number density = 19.753086 Si / 1000 Ang^3
#
#
#
# Elastic Constant Matrix: (Units=GPa)
#
#
# Indices 1 2 3 4 5 6 
#
# 1 79.4436 -6.9886 27.2015 0.0000 31.5576 0.0000
# 2 -6.9886 -22.5887 5.0490 0.0000 8.5611 0.0000
# 3 27.2015 5.0490 108.2518 0.0000 29.2088 0.0000
# 4 0.0000 0.0000 0.0000 18.1687 0.0000 4.4099
# 5 31.5576 8.5611 29.2088 0.0000 29.6455 0.0000
# 6 0.0000 0.0000 0.0000 4.4099 0.0000 12.6101
#
#
#
# Elastic Compliance Matrix: (Units=1/GPa)
#
#
# Indices 1 2 3 4 5 6 
#
# 1 0.017807 -0.011492 0.000382 0.000000 -0.016013 0.000000
# 2 -0.011492 -0.032257 -0.001937 0.000000 0.023457 0.000000
# 3 0.000382 -0.001937 0.012519 0.000000 -0.012182 0.000000
# 4 0.000000 0.000000 0.000000 0.060145 0.000000 -0.021033
# 5 -0.016013 0.023457 -0.012182 0.000000 0.056006 0.000000
# 6 0.000000 0.000000 0.000000 -0.021033 0.000000 0.086657
#
#
# Mechanical properties :
#
#
# Convention : Reuss Voigt Hill
#
# Bulk Modulus (GPa) = -35.68114 23.95895 -5.86109
# Shear Modulus (GPa) = 22.97486 21.40786 22.19136
#
# Velocity S-wave (km/s) = 3.41413 3.29564 3.35541
# Velocity P-wave (km/s) = 1.60034 5.16113 3.46959
#
# Compressibility (1/GPa) = -0.02802601
#
# Stress axis : x y z
#
# Youngs Moduli (GPa) = 56.15926 -31.00102 79.87835
#
# Poissons Ratio (x) = -0.35628 -0.03053
# Poissons Ratio (y) = 0.64541 0.15473
# Poissons Ratio (z) = -0.02147 -0.06005
#
# Static dielectric constant tensor:
#      x y z
#    x 1.748230 0.000000 0.002780 
#    y 0.000000 1.669220 0.000000 
#    z 0.002780 0.000000 1.754600 
# 
# From -- ./inp_files/71572.got.cif
#   From: 2010.05.17/outbox.ucp.g08.bks.cvg/sg10_36_cif.got.tgz:71572.got - 2010.06.11 11:31:16.
