data_PCOD9155984
_publ_section_title
;
Structure prediction by ZEFSAII (Michael W. Deem and Ramdas Pophale) SiO2 
 PCOD9155984
Probable space group: P 21/M
;
_chemical_formula_sum "Si O2"
_cell_formula_units_Z 28
_cell_length_a 19.180480
_cell_length_b 7.602975
_cell_length_c 14.241319
_cell_angle_alpha 90.000000
_cell_angle_beta 31.304328
_cell_angle_gamma 90.000000
_cell_volume 1079.067789
_symmetry_space_group_name_H-M "P 21/M"
_symmetry_group_IT_number 11
_symmetry_cell_setting 'monoclinic'
loop_
_space_group_symop_operation_xyz
x,y,z
-x,1/2+y,-z
-x,-y,-z
x,1/2-y,z
loop_
_atom_site_type_symbol
_atom_site_label
_atom_site_fract_x
_atom_site_fract_y
_atom_site_fract_z
Si Si1 0.647088 0.551273 0.797647
Si Si2 0.663903 0.464463 0.426424
Si Si3 0.930090 0.956563 0.458856
Si Si4 0.775133 0.042183 0.111492
Si Si5 0.927337 0.461380 0.241253
Si Si6 0.783893 0.038787 0.889491
Si Si7 0.511185 0.459104 0.774791
O O1 0.662943 0.750000 0.809950
O O2 0.789485 0.459838 0.654563
O O3 0.623108 0.539956 0.713240
O O4 0.500000 0.500000 0.000000
O O5 0.661562 0.250000 0.424815
O O6 0.678211 0.530508 0.303750
O O7 0.799369 0.514893 0.326952
O O8 0.540491 0.519760 0.634686
O O9 0.930690 0.750000 0.481719
O O10 0.925754 0.968247 0.349852
O O11 0.077285 0.031094 0.314290
O O12 0.748963 0.250000 0.132774
O O13 0.771267 0.966882 0.010894
O O14 0.929820 0.019443 0.965461
O O15 0.925000 0.250000 0.249908
O O16 0.797590 0.250000 0.877318
O O17 0.637609 0.001148 0.017551
O O18 0.528783 0.250000 0.758908
#
# Coordination Sequence:
#
# PCOD9155984 Si02
#       7
#     4   4   4   4   4   4   4
#     4  11  23  41  66  93 116 142 179 227 283 343
#     4   9  18  31  49  75 111 151 190 238 286 326
#     4   9  19  37  60  83 112 150 187 225 278 339
#     4   9  18  33  50  72 109 155 197 238 281 325
#     4  10  17  28  49  78 111 145 188 238 283 329
#     4   9  19  36  56  80 113 154 195 232 272 329
#     4  11  22  38  58  84 117 152 188 233 285 337
#
# _framework density 25.948324
#
# number of rings (size 3 to 8) (size 9 to 14) (size 15 to 20)
#    0.000    2.286    1.429    2.571    0.000    3.429 
#    0.000    2.857    0.000    0.000    0.000    0.000 
#    0.000    0.000    0.000    0.000    0.000    0.000 
#
# Total GULP energy -156500.861003 kJ/mol
# GULP energy per Si atom -5589.316464 kJ/mol
# Density = 2.588926 g / cm^3
# Si number density = 25.948324 Si / 1000 Ang^3
#
#
#
# Elastic Constant Matrix: (Units=GPa)
#
#
# Indices 1 2 3 4 5 6 
#
# 1 95.8993 -2.7348 46.2266 0.0000 -15.5796 0.0000
# 2 -2.7348 68.5235 2.3446 0.0000 7.1808 0.0000
# 3 46.2266 2.3446 195.3495 0.0000 -16.9028 0.0000
# 4 0.0000 0.0000 0.0000 11.2142 0.0000 2.3315
# 5 -15.5796 7.1808 -16.9028 0.0000 41.5033 0.0000
# 6 0.0000 0.0000 0.0000 2.3315 0.0000 17.9551
#
#
#
# Elastic Compliance Matrix: (Units=1/GPa)
#
#
# Indices 1 2 3 4 5 6 
#
# 1 0.012256 0.000211 -0.002599 0.000000 0.003506 0.000000
# 2 0.000211 0.014899 -0.000461 0.000000 -0.002687 0.000000
# 3 -0.002599 -0.000461 0.005869 0.000000 0.001494 0.000000
# 4 0.000000 0.000000 0.000000 0.091646 0.000000 -0.011900
# 5 0.003506 -0.002687 0.001494 0.000000 0.026484 0.000000
# 6 0.000000 0.000000 0.000000 -0.011900 0.000000 0.057240
#
#
# Mechanical properties :
#
#
# Convention : Reuss Voigt Hill
#
# Bulk Modulus (GPa) = 36.59699 50.16057 43.37878
# Shear Modulus (GPa) = 22.40122 35.06359 28.73240
#
# Velocity S-wave (km/s) = 2.94139 3.67997 3.33121
# Velocity P-wave (km/s) = 5.06657 6.11794 5.61691
#
# Compressibility (1/GPa) = 0.02732465
#
# Stress axis : x y z
#
# Youngs Moduli (GPa) = 81.59174 67.11748 170.38754
#
# Poissons Ratio (x) = -0.01414 0.44291
# Poissons Ratio (y) = -0.01719 0.07857
# Poissons Ratio (z) = 0.21209 0.03095
#
# Static dielectric constant tensor:
#      x y z
#    x 2.090520 0.000000 0.004430 
#    y 0.000000 1.976520 0.000000 
#    z 0.004430 0.000000 2.137410 
# 
# From -- ./inp_files/51974.got.cif
#   From: 2010.05.17/outbox.cif.g08.bks.cpg/sg11_26_cif.got.tgz:51974.got - 2010.06.03 12:22:45.
