data_PCOD9155548
_publ_section_title
;
Structure prediction by ZEFSAII (Michael W. Deem and Ramdas Pophale) SiO2 
 PCOD9155548
Probable space group: P 2/M
;
_chemical_formula_sum "Si O2"
_cell_formula_units_Z 32
_cell_length_a 24.000000
_cell_length_b 9.000000
_cell_length_c 15.000000
_cell_angle_alpha 90.000000
_cell_angle_beta 150.000000
_cell_angle_gamma 90.000000
_cell_volume 1620.000000
_symmetry_space_group_name_H-M "P 2/M"
_symmetry_group_IT_number 10
_symmetry_cell_setting 'monoclinic'
loop_
_space_group_symop_operation_xyz
x,y,z
-x,y,-z
-x,-y,-z
x,-y,z
loop_
_atom_site_type_symbol
_atom_site_label
_atom_site_fract_x
_atom_site_fract_y
_atom_site_fract_z
Si Si1 0.487051 0.325566 0.085899
Si Si2 0.491289 0.822179 0.593647
Si Si3 0.879382 0.174365 0.374552
Si Si4 0.333789 0.177664 0.015862
Si Si5 0.966174 0.675430 0.054437
Si Si6 0.262898 0.325566 0.335181
Si Si7 0.698718 0.833130 0.441692
Si Si8 0.094729 0.830264 0.393700
O O1 0.460390 0.500000 0.056203
O O2 0.603462 0.285780 0.293005
O O3 0.500000 0.286777 0.000000
O O4 0.400273 0.226998 0.019785
O O5 0.500000 0.801020 0.500000
O O6 0.383619 0.730926 0.474467
O O7 0.474671 0.000000 0.585803
O O8 0.596829 0.772586 0.800584
O O9 0.789959 0.233720 0.179265
O O10 0.891718 0.242080 0.490301
O O11 0.000000 0.178642 0.500000
O O12 0.847958 0.000000 0.346048
O O13 0.330279 0.000000 0.019735
O O14 0.993056 0.500000 0.096073
O O15 0.022142 0.752691 0.216554
O O16 0.832561 0.695581 0.870536
O O17 0.000000 0.723163 0.000000
O O18 0.262865 0.500000 0.358526
O O19 0.234267 0.223829 0.380259
O O20 0.781190 0.836960 0.473556
O O21 0.653484 0.000000 0.393492
O O22 0.051815 0.000000 0.344284
#
# Coordination Sequence:
#
# PCOD9155548 Si02
#       8
#     4   4   4   4   4   4   4   4
#     4  11  23  36  54  84 118 154 195 239 291 352
#     4  10  22  39  60  89 121 155 198 245 293 346
#     4   9  19  37  60  86 116 152 196 241 291 346
#     4  10  20  37  61  86 116 155 194 239 292 346
#     4  10  21  37  56  81 117 160 196 233 294 359
#     4  11  22  37  58  83 115 156 197 238 290 350
#     4  11  21  34  55  84 118 151 189 240 296 351
#     4  10  21  35  57  88 116 149 197 248 293 345
#
# _framework density 19.753086
#
# number of rings (size 3 to 8) (size 9 to 14) (size 15 to 20)
#    0.000    1.750    2.500    1.875    0.000    5.000 
#    0.000    3.125    0.000    1.500    0.000    0.000 
#    0.000    0.000    0.000    0.000    0.000    0.000 
#
# Total GULP energy -178316.583048 kJ/mol
# GULP energy per Si atom -5572.393220 kJ/mol
# Density = 1.970813 g / cm^3
# Si number density = 19.753086 Si / 1000 Ang^3
#
#
#
# Elastic Constant Matrix: (Units=GPa)
#
#
# Indices 1 2 3 4 5 6 
#
# 1 62.5538 5.2583 41.0379 0.0000 -21.7753 0.0000
# 2 5.2583 7.5859 11.0147 0.0000 -2.6344 0.0000
# 3 41.0379 11.0147 143.7173 0.0000 -3.1415 0.0000
# 4 0.0000 0.0000 0.0000 -199.1899 0.0000 -141.5355
# 5 -21.7753 -2.6344 -3.1415 0.0000 11.3243 0.0000
# 6 0.0000 0.0000 0.0000 -141.5355 0.0000 -69.1956
#
#
#
# Elastic Compliance Matrix: (Units=1/GPa)
#
#
# Indices 1 2 3 4 5 6 
#
# 1 0.088971 0.033216 -0.024189 0.000000 0.172096 0.000000
# 2 0.033216 0.172845 -0.020581 0.000000 0.098370 0.000000
# 3 -0.024189 -0.020581 0.014409 0.000000 -0.047303 0.000000
# 4 0.000000 0.000000 0.000000 0.011073 0.000000 -0.022648
# 5 0.172096 0.098370 -0.047303 0.000000 0.428986 0.000000
# 6 0.000000 0.000000 0.000000 -0.022648 0.000000 0.031874
#
#
# Mechanical properties :
#
#
# Convention : Reuss Voigt Hill
#
# Bulk Modulus (GPa) = 3.95078 36.49765 20.22422
# Shear Modulus (GPa) = 5.84359 -40.97582 -17.56612
#
# Velocity S-wave (km/s) = 1.72184 -4.55950 -2.98532
# Velocity P-wave (km/s) = 2.44078 3.03343 1.27363
#
# Compressibility (1/GPa) = 0.25311454
#
# Stress axis : x y z
#
# Youngs Moduli (GPa) = 11.23965 5.78553 69.40304
#
# Poissons Ratio (x) = -0.19217 1.67880
# Poissons Ratio (y) = -0.37333 1.42841
# Poissons Ratio (z) = 0.27188 0.11907
#
# Static dielectric constant tensor:
#      x y z
#    x 1.843870 0.000000 -0.007160 
#    y 0.000000 1.673820 0.000000 
#    z -0.007160 0.000000 1.747880 
# 
# From -- ./inp_files/66585.got.cif
#   From: 2010.05.17/outbox.ucp.g08.bks.cvg/sg10_34_cif.got.tgz:66585.got - 2010.06.11 11:31:16.
