data_PCOD9155021
_publ_section_title
;
Structure prediction by ZEFSAII (Michael W. Deem and Ramdas Pophale) SiO2 
 PCOD9155021
Probable space group: P 2/M
;
_chemical_formula_sum "Si O2"
_cell_formula_units_Z 18
_cell_length_a 5.307821
_cell_length_b 25.825016
_cell_length_c 5.311550
_cell_angle_alpha 90.000000
_cell_angle_beta 95.975633
_cell_angle_gamma 90.000000
_cell_volume 724.122202
_symmetry_space_group_name_H-M "P 2/M"
_symmetry_group_IT_number 10
_symmetry_cell_setting 'monoclinic'
loop_
_space_group_symop_operation_xyz
x,y,z
-x,y,-z
-x,-y,-z
x,-y,z
loop_
_atom_site_type_symbol
_atom_site_label
_atom_site_fract_x
_atom_site_fract_y
_atom_site_fract_z
Si Si1 0.329147 0.222611 0.730071
Si Si2 0.329393 0.667289 0.729929
Si Si3 0.766665 0.000000 0.176380
Si Si4 0.229931 0.555037 0.829255
Si Si5 0.229691 0.110355 0.829734
O O1 0.500000 0.224656 0.500000
O O2 0.182027 0.277683 0.730933
O O3 0.200684 0.166603 0.703905
O O4 0.500000 0.221883 0.000000
O O5 0.500000 0.669761 0.500000
O O6 0.202400 0.611148 0.702022
O O7 0.500000 0.666371 0.000000
O O8 0.770966 0.944552 0.318001
O O9 0.500000 0.000000 0.000000
O O10 0.000000 0.000000 0.000000
O O11 0.231082 0.500000 0.681977
O O12 0.500000 0.555891 0.000000
O O13 0.000000 0.552706 0.000000
O O14 0.500000 0.111437 0.000000
O O15 0.000000 0.107262 0.000000
#
# Coordination Sequence:
#
# PCOD9155021 Si02
#       5
#     4   4   2   4   4
#     4   9  18  34  55  81 111 145 185 229 277 330
#     4   9  18  34  56  81 111 146 185 229 277 330
#     4   8  14  26  47  74 104 138 178 222 270 324
#     4   9  18  34  56  82 112 146 185 229 277 330
#     4   9  17  31  52  78 108 143 182 226 275 328
#
# _framework density 24.857683999999999
#
# number of rings (size 3 to 8) (size 9 to 14) (size 15 to 20)
#    0.000    3.111    0.000    0.000    0.000    1.333 
#    0.000    9.444    0.000   36.000    0.000   23.333 
#    0.000    0.000    0.000    0.000    0.000    0.000 
#
# Total GULP energy -100304.643950 kJ/mol
# GULP energy per Si atom -5572.480219 kJ/mol
# Density = 2.480111 g / cm^3
# Si number density = 24.857684 Si / 1000 Ang^3
#
#
#
# Elastic Constant Matrix: (Units=GPa)
#
#
# Indices 1 2 3 4 5 6 
#
# 1 137.6142 11.9700 40.0603 0.0000 19.6729 0.0000
# 2 11.9700 407.6962 15.3454 0.0000 -8.3848 0.0000
# 3 40.0603 15.3454 114.3699 0.0000 19.6237 0.0000
# 4 0.0000 0.0000 0.0000 -113.9312 0.0000 78.0277
# 5 19.6729 -8.3848 19.6237 0.0000 53.7018 0.0000
# 6 0.0000 0.0000 0.0000 78.0277 0.0000 -230.3416
#
#
#
# Elastic Compliance Matrix: (Units=1/GPa)
#
#
# Indices 1 2 3 4 5 6 
#
# 1 0.008326 -0.000194 -0.002520 0.000000 -0.002160 0.000000
# 2 -0.000194 0.002485 -0.000367 0.000000 0.000593 0.000000
# 3 -0.002520 -0.000367 0.010164 0.000000 -0.002848 0.000000
# 4 0.000000 0.000000 0.000000 -0.011429 0.000000 -0.003871
# 5 -0.002160 0.000593 -0.002848 0.000000 0.020546 0.000000
# 6 0.000000 0.000000 0.000000 -0.003871 0.000000 -0.005653
#
#
# Mechanical properties :
#
#
# Convention : Reuss Voigt Hill
#
# Bulk Modulus (GPa) = 67.50978 88.27019 77.88999
# Shear Modulus (GPa) = 140.69322 -18.62723 61.03300
#
# Velocity S-wave (km/s) = 7.53142 -2.74040 4.96047
# Velocity P-wave (km/s) = 10.14137 5.05710 8.01316
#
# Compressibility (1/GPa) = 0.01481267
#
# Stress axis : x y z
#
# Youngs Moduli (GPa) = 120.10864 402.49177 98.38518
#
# Poissons Ratio (x) = 0.07809 0.24790
# Poissons Ratio (y) = 0.02330 0.03612
# Poissons Ratio (z) = 0.30264 0.14778
#
# Static dielectric constant tensor:
#      x y z
#    x 1.900240 0.000000 -0.000140 
#    y 0.000000 2.168220 0.000000 
#    z -0.000140 0.000000 1.837710 
# 
# From -- ./inp_files/2030.got.cif
#   From: 2010.05.17/outbox.cif.g08.bks.cpg/sg10_2_cif.got.tgz:2030.got - 2010.06.03 11:33:40.
