data_PCOD9155672
_publ_section_title
;
Structure prediction by ZEFSAII (Michael W. Deem and Ramdas Pophale) SiO2 
 PCOD9155672
Probable space group: P 2/M
;
_chemical_formula_sum "Si O2"
_cell_formula_units_Z 28
_cell_length_a 9.000000
_cell_length_b 9.000000
_cell_length_c 27.000000
_cell_angle_alpha 90.000000
_cell_angle_beta 40.000000
_cell_angle_gamma 90.000000
_cell_volume 1405.776502
_symmetry_space_group_name_H-M "P 2/M"
_symmetry_group_IT_number 10
_symmetry_cell_setting 'monoclinic'
loop_
_space_group_symop_operation_xyz
x,y,z
-x,y,-z
-x,-y,-z
x,-y,z
loop_
_atom_site_type_symbol
_atom_site_label
_atom_site_fract_x
_atom_site_fract_y
_atom_site_fract_z
Si Si1 0.001200 0.320839 0.684138
Si Si2 0.345036 0.823328 0.392515
Si Si3 0.122514 0.823730 0.551608
Si Si4 0.816515 0.677225 0.253947
Si Si5 0.616726 0.177660 0.023659
Si Si6 0.908871 0.678641 0.119122
Si Si7 0.479482 0.821683 0.170272
O O1 0.001471 0.500000 0.682650
O O2 0.743286 0.255102 0.748848
O O3 0.130535 0.260055 0.601953
O O4 0.094103 0.270225 0.714821
O O5 0.296101 0.781431 0.462526
O O6 0.552627 0.727671 0.319113
O O7 0.123134 0.802205 0.413869
O O8 0.396484 0.000000 0.378787
O O9 0.149356 0.000000 0.554105
O O10 0.840551 0.500000 0.248728
O O11 0.920971 0.726845 0.174349
O O12 0.484451 0.209018 0.109343
O O13 0.662770 0.000000 0.011681
O O14 0.500000 0.212728 0.000000
O O15 0.852236 0.269605 0.965826
O O16 0.880952 0.500000 0.124511
O O17 0.702362 0.756556 0.141678
O O18 0.470976 0.000000 0.178723
#
# Coordination Sequence:
#
# PCOD9155672 Si02
#       7
#     4   4   4   4   4   4   4
#     4  11  23  38  56  81 113 148 186 229 278 331
#     4   9  19  36  59  83 109 144 186 230 275 329
#     4   9  19  37  58  83 112 143 184 231 278 329
#     4  10  23  39  54  79 115 149 184 228 278 331
#     4  10  22  40  61  86 116 149 186 229 278 330
#     4  11  23  39  60  85 114 150 189 229 276 330
#     4  11  23  39  60  85 113 146 186 232 278 327
#
# _framework density 19.917818
#
# number of rings (size 3 to 8) (size 9 to 14) (size 15 to 20)
#    0.000    1.857    0.000    4.286    0.000    9.429 
#    0.000    4.286    0.000    0.000    0.000    0.000 
#    0.000    0.000    0.000    0.000    0.000    0.000 
#
# Total GULP energy -156311.281229 kJ/mol
# GULP energy per Si atom -5582.545758 kJ/mol
# Density = 1.987248 g / cm^3
# Si number density = 19.917818 Si / 1000 Ang^3
#
#
#
# Elastic Constant Matrix: (Units=GPa)
#
#
# Indices 1 2 3 4 5 6 
#
# 1 48.8633 6.4361 -14.5718 0.0000 23.4409 0.0000
# 2 6.4361 18.3686 3.9651 0.0000 12.4375 0.0000
# 3 -14.5718 3.9651 58.3514 0.0000 23.4259 0.0000
# 4 0.0000 0.0000 0.0000 33.3572 0.0000 7.8484
# 5 23.4409 12.4375 23.4259 0.0000 38.7170 0.0000
# 6 0.0000 0.0000 0.0000 7.8484 0.0000 36.2278
#
#
#
# Elastic Compliance Matrix: (Units=1/GPa)
#
#
# Indices 1 2 3 4 5 6 
#
# 1 0.066099 0.016008 0.044314 0.000000 -0.071974 0.000000
# 2 0.016008 0.074868 0.016453 0.000000 -0.043697 0.000000
# 3 0.044314 0.016453 0.052805 0.000000 -0.064065 0.000000
# 4 0.000000 0.000000 0.000000 0.031589 0.000000 -0.006843
# 5 -0.071974 -0.043697 -0.064065 0.000000 0.122204 0.000000
# 6 0.000000 0.000000 0.000000 -0.006843 0.000000 0.029086
#
#
# Mechanical properties :
#
#
# Convention : Reuss Voigt Hill
#
# Bulk Modulus (GPa) = 2.87917 13.02690 7.95303
# Shear Modulus (GPa) = 14.75466 30.31067 22.53266
#
# Velocity S-wave (km/s) = 2.72467 3.90524 3.36710
# Velocity P-wave (km/s) = 3.36855 5.18547 4.37242
#
# Compressibility (1/GPa) = 0.34732210
#
# Stress axis : x y z
#
# Youngs Moduli (GPa) = 15.12873 13.35686 18.93747
#
# Poissons Ratio (x) = -0.21382 -0.83919
# Poissons Ratio (y) = -0.24218 -0.31158
# Poissons Ratio (z) = -0.67041 -0.21976
#
# Static dielectric constant tensor:
#      x y z
#    x 1.711870 0.000000 0.002090 
#    y 0.000000 1.661900 0.000000 
#    z 0.002090 0.000000 1.715340 
# 
# From -- ./inp_files/36996.got.cif
#   From: 2010.05.17/outbox.ucp.g08.bks.cvg/sg10_19_cif.got.tgz:36996.got - 2010.06.11 11:31:16.
