data_PCOD9155670
_publ_section_title
;
Structure prediction by ZEFSAII (Michael W. Deem and Ramdas Pophale) SiO2 
 PCOD9155670
Probable space group: P 2/M
;
_chemical_formula_sum "Si O2"
_cell_formula_units_Z 21
_cell_length_a 21.000000
_cell_length_b 9.000000
_cell_length_c 9.000000
_cell_angle_alpha 90.000000
_cell_angle_beta 40.000000
_cell_angle_gamma 90.000000
_cell_volume 1093.381724
_symmetry_space_group_name_H-M "P 2/M"
_symmetry_group_IT_number 10
_symmetry_cell_setting 'monoclinic'
loop_
_space_group_symop_operation_xyz
x,y,z
-x,y,-z
-x,-y,-z
x,-y,z
loop_
_atom_site_type_symbol
_atom_site_label
_atom_site_fract_x
_atom_site_fract_y
_atom_site_fract_z
Si Si1 0.111406 0.673384 0.822222
Si Si2 0.342408 0.824745 0.923873
Si Si3 0.478841 0.675175 0.212880
Si Si4 0.171164 0.341436 0.373207
Si Si5 0.000000 0.500000 0.500000
Si Si6 0.713222 0.178155 0.314213
O O1 0.102866 0.500000 0.886397
O O2 0.153853 0.675357 0.579340
O O3 0.183954 0.754426 0.807593
O O4 0.000000 0.733435 0.000000
O O5 0.433649 0.742230 0.840912
O O6 0.317381 0.778533 0.799322
O O7 0.364493 0.000000 0.884532
O O8 0.241075 0.787641 0.191138
O O9 0.468071 0.500000 0.264046
O O10 0.376345 0.758779 0.428061
O O11 0.500000 0.692367 0.000000
O O12 0.227430 0.500000 0.250548
O O13 0.069119 0.372272 0.464805
O O14 0.718506 0.000000 0.311944
#
# Coordination Sequence:
#
# PCOD9155670 Si02
#       6
#     4   4   4   4   1   4
#     4  10  22  38  62  90 119 157 205 250 296 352
#     4  11  24  40  61  90 123 159 198 244 299 358
#     4  11  24  42  65  92 119 152 198 246 299 360
#     4   9  20  37  61  88 118 153 202 245 297 349
#     4   8  20  36  64  88 120 156 204 256 292 346
#     4  11  25  41  59  88 125 159 199 246 296 356
#
# _framework density 19.206467
#
# number of rings (size 3 to 8) (size 9 to 14) (size 15 to 20)
#    0.571    1.143    0.000    3.429    2.667   12.571 
#    0.000    0.476    0.000    0.000    0.000    0.000 
#    0.000    0.000    0.000    0.000    0.000    0.000 
#
# Total GULP energy -116917.391316 kJ/mol
# GULP energy per Si atom -5567.494825 kJ/mol
# Density = 1.916275 g / cm^3
# Si number density = 19.206467 Si / 1000 Ang^3
#
#
#
# Elastic Constant Matrix: (Units=GPa)
#
#
# Indices 1 2 3 4 5 6 
#
# 1 168.6739 59.6105 29.8888 0.0000 -23.3606 0.0000
# 2 59.6105 54.5950 21.4079 0.0000 -3.7553 0.0000
# 3 29.8888 21.4079 47.1559 0.0000 -9.7928 0.0000
# 4 0.0000 0.0000 0.0000 30.5017 0.0000 10.3521
# 5 -23.3606 -3.7553 -9.7928 0.0000 27.5225 0.0000
# 6 0.0000 0.0000 0.0000 10.3521 0.0000 47.6945
#
#
#
# Elastic Compliance Matrix: (Units=1/GPa)
#
#
# Indices 1 2 3 4 5 6 
#
# 1 0.011115 -0.011523 -0.000195 0.000000 0.007792 0.000000
# 2 -0.011523 0.034240 -0.010043 0.000000 -0.008683 0.000000
# 3 -0.000195 -0.010043 0.027611 0.000000 0.008288 0.000000
# 4 0.000000 0.000000 0.000000 0.035392 0.000000 -0.007682
# 5 0.007792 -0.008683 0.008288 0.000000 0.044712 0.000000
# 6 0.000000 0.000000 0.000000 -0.007682 0.000000 0.022634
#
#
# Mechanical properties :
#
#
# Convention : Reuss Voigt Hill
#
# Bulk Modulus (GPa) = 33.96616 54.69326 44.32971
# Shear Modulus (GPa) = 21.83007 31.77824 26.80416
#
# Velocity S-wave (km/s) = 3.37501 4.07204 3.73980
# Velocity P-wave (km/s) = 5.73679 7.11667 6.46366
#
# Compressibility (1/GPa) = 0.02944107
#
# Stress axis : x y z
#
# Youngs Moduli (GPa) = 89.96978 29.20585 36.21775
#
# Poissons Ratio (x) = 0.33655 0.00707
# Poissons Ratio (y) = 1.03675 0.36375
# Poissons Ratio (z) = 0.01757 0.29333
#
# Static dielectric constant tensor:
#      x y z
#    x 1.650980 0.000000 0.025520 
#    y 0.000000 1.666370 0.000000 
#    z 0.025520 0.000000 1.711550 
# 
# From -- ./inp_files/33669.got.cif
#   From: 2010.05.17/outbox.ucp.g08.bks.cvg/sg10_17_cif.got.tgz:33669.got - 2010.06.11 11:31:16.
