data_PCOD9155534
_publ_section_title
;
Structure prediction by ZEFSAII (Michael W. Deem and Ramdas Pophale) SiO2 
 PCOD9155534
Probable space group: P 2/M
;
_chemical_formula_sum "Si O2"
_cell_formula_units_Z 32
_cell_length_a 15.000000
_cell_length_b 9.000000
_cell_length_c 24.000000
_cell_angle_alpha 90.000000
_cell_angle_beta 30.000000
_cell_angle_gamma 90.000000
_cell_volume 1620.000000
_symmetry_space_group_name_H-M "P 2/M"
_symmetry_group_IT_number 10
_symmetry_cell_setting 'monoclinic'
loop_
_space_group_symop_operation_xyz
x,y,z
-x,y,-z
-x,-y,-z
x,-y,z
loop_
_atom_site_type_symbol
_atom_site_label
_atom_site_fract_x
_atom_site_fract_y
_atom_site_fract_z
Si Si1 0.462222 0.830655 0.779895
Si Si2 0.428230 0.322330 0.383912
Si Si3 0.644483 0.330463 0.373632
Si Si4 0.596944 0.826763 0.007069
Si Si5 0.002163 0.820683 0.180740
Si Si6 0.948222 0.679006 0.464534
Si Si7 0.941095 0.827928 0.973060
Si Si8 0.335386 0.324369 0.234020
O O1 0.450760 0.724137 0.733460
O O2 0.609767 0.765633 0.740828
O O3 0.501218 0.000000 0.742063
O O4 0.272421 0.830480 0.912949
O O5 0.412550 0.500000 0.399423
O O6 0.534739 0.264864 0.380285
O O7 0.230486 0.266980 0.470647
O O8 0.500000 0.336621 0.500000
O O9 0.699399 0.500000 0.329857
O O10 0.817946 0.245064 0.302290
O O11 0.476681 0.725958 0.111829
O O12 0.590284 0.000000 0.030052
O O13 0.500000 0.821150 0.000000
O O14 0.806219 0.781878 0.895608
O O15 0.999457 0.764593 0.117881
O O16 0.994304 0.000000 0.185518
O O17 0.924843 0.500000 0.482058
O O18 0.000000 0.729129 0.500000
O O19 0.129043 0.708201 0.331950
O O20 0.006767 0.000000 0.938603
O O21 0.000000 0.759686 0.000000
O O22 0.349102 0.500000 0.237831
#
# Coordination Sequence:
#
# PCOD9155534 Si02
#       8
#     4   4   4   4   4   4   4   4
#     4  11  20  33  55  83 118 152 187 235 290 344
#     4  10  20  37  58  81 113 153 197 241 288 344
#     4  10  23  41  60  84 115 151 192 244 295 336
#     4  10  22  41  62  85 117 155 192 237 291 340
#     4  10  20  38  61  84 113 151 191 231 284 347
#     4   9  17  32  54  79 111 153 192 229 284 348
#     4   9  17  30  51  79 110 145 183 223 276 339
#     4  11  21  35  58  85 115 153 195 236 283 342
#
# _framework density 19.753086
#
# number of rings (size 3 to 8) (size 9 to 14) (size 15 to 20)
#    0.000    2.000    2.500    1.500    0.000    3.500 
#    0.000    3.125    0.000    2.625    0.000    0.000 
#    0.000    0.000    0.000    0.000    0.000    0.000 
#
# Total GULP energy -178244.977731 kJ/mol
# GULP energy per Si atom -5570.155554 kJ/mol
# Density = 1.970813 g / cm^3
# Si number density = 19.753086 Si / 1000 Ang^3
#
#
#
# Elastic Constant Matrix: (Units=GPa)
#
#
# Indices 1 2 3 4 5 6 
#
# 1 69.8456 13.2849 22.8771 0.0000 -18.1506 0.0000
# 2 13.2849 1.2305 15.6494 0.0000 -18.8079 0.0000
# 3 22.8771 15.6494 86.9715 0.0000 -26.6854 0.0000
# 4 0.0000 0.0000 0.0000 384.4176 0.0000 324.8981
# 5 -18.1506 -18.8079 -26.6854 0.0000 23.1800 0.0000
# 6 0.0000 0.0000 0.0000 324.8981 0.0000 318.0649
#
#
#
# Elastic Compliance Matrix: (Units=1/GPa)
#
#
# Indices 1 2 3 4 5 6 
#
# 1 0.017964 -0.001507 -0.000794 0.000000 0.011930 0.000000
# 2 -0.001507 -0.068038 -0.007207 0.000000 -0.064682 0.000000
# 3 -0.000794 -0.007207 0.017036 0.000000 0.013143 0.000000
# 4 0.000000 0.000000 0.000000 0.019033 0.000000 -0.019442
# 5 0.011930 -0.064682 0.013143 0.000000 0.015131 0.000000
# 6 0.000000 0.000000 0.000000 -0.019442 0.000000 0.023004
#
#
# Mechanical properties :
#
#
# Convention : Reuss Voigt Hill
#
# Bulk Modulus (GPa) = -19.21096 29.07448 4.93176
# Shear Modulus (GPa) = 193.82879 152.21491 173.02185
#
# Velocity S-wave (km/s) = 9.91659 8.78784 9.36923
# Velocity P-wave (km/s) = 11.01689 10.84984 10.93368
#
# Compressibility (1/GPa) = -0.05205362
#
# Stress axis : x y z
#
# Youngs Moduli (GPa) = 55.66655 -14.69771 58.69781
#
# Poissons Ratio (x) = -0.02215 0.04659
# Poissons Ratio (y) = 0.08389 0.42306
# Poissons Ratio (z) = 0.04418 -0.10593
#
# Static dielectric constant tensor:
#      x y z
#    x 1.749350 0.000000 0.026850 
#    y 0.000000 1.680880 0.000000 
#    z 0.026850 0.000000 1.737260 
# 
# From -- ./inp_files/66626.got.cif
#   From: 2010.05.17/outbox.ucp.g08.bks.cvg/sg10_34_cif.got.tgz:66626.got - 2010.06.11 11:31:16.
