data_PCOD9155288
_publ_section_title
;
Structure prediction by ZEFSAII (Michael W. Deem and Ramdas Pophale) SiO2 
 PCOD9155288
Probable space group: P 2/M
;
_chemical_formula_sum "Si O2"
_cell_formula_units_Z 32
_cell_length_a 27.000000
_cell_length_b 9.000000
_cell_length_c 21.000000
_cell_angle_alpha 90.000000
_cell_angle_beta 20.000000
_cell_angle_gamma 90.000000
_cell_volume 1745.328791
_symmetry_space_group_name_H-M "P 2/M"
_symmetry_group_IT_number 10
_symmetry_cell_setting 'monoclinic'
loop_
_space_group_symop_operation_xyz
x,y,z
-x,y,-z
-x,-y,-z
x,-y,z
loop_
_atom_site_type_symbol
_atom_site_label
_atom_site_fract_x
_atom_site_fract_y
_atom_site_fract_z
Si Si1 0.069400 0.677022 0.578926
Si Si2 0.725462 0.819492 0.186682
Si Si3 0.667060 0.180910 0.526899
Si Si4 0.364971 0.174531 0.210504
Si Si5 0.417511 0.818803 0.508770
Si Si6 0.447906 0.819589 0.896498
Si Si7 0.884516 0.820057 0.694866
Si Si8 0.960468 0.180707 0.245984
O O1 0.061903 0.500000 0.589474
O O2 0.224289 0.731507 0.364180
O O3 0.056354 0.746917 0.664676
O O4 0.945079 0.746542 0.685381
O O5 0.586257 0.774519 0.312368
O O6 0.677234 0.772563 0.315849
O O7 0.728614 0.000000 0.182490
O O8 0.884903 0.773342 0.971341
O O9 0.651142 0.232190 0.473989
O O10 0.523126 0.226608 0.739810
O O11 0.818814 0.223695 0.376024
O O12 0.666684 0.000000 0.527683
O O13 0.434033 0.224193 0.193588
O O14 0.321824 0.000000 0.265994
O O15 0.500000 0.184812 0.000000
O O16 0.417587 0.000000 0.509197
O O17 0.443458 0.000000 0.903545
O O18 0.283597 0.772859 0.110464
O O19 0.000000 0.780486 0.500000
O O20 0.886377 0.000000 0.697673
O O21 0.959845 0.000000 0.252650
#
# Coordination Sequence:
#
# PCOD9155288 Si02
#       8
#     4   4   4   4   4   4   4   4
#     4  12  25  38  53  79 116 151 181 222 273 324
#     4   8  15  26  44  72 106 141 172 213 269 327
#     4   9  16  26  45  74 106 134 167 220 273 322
#     4  10  19  36  62  84 105 137 181 228 269 321
#     4   8  14  25  41  72 111 136 165 214 278 331
#     4   9  17  30  51  80 106 132 172 223 274 318
#     4  10  21  38  60  83 106 137 182 230 274 325
#     4  10  19  33  53  76 104 141 184 223 263 317
#
# _framework density 18.334654
#
# number of rings (size 3 to 8) (size 9 to 14) (size 15 to 20)
#    0.000    2.500    1.250    2.625    1.750    3.000 
#    0.000    3.125    0.000    0.000    0.000    3.500 
#    0.000    0.000    0.000    0.000    0.000    0.000 
#
# Total GULP energy -178343.322279 kJ/mol
# GULP energy per Si atom -5573.228821 kJ/mol
# Density = 1.829292 g / cm^3
# Si number density = 18.334654 Si / 1000 Ang^3
#
#
#
# Elastic Constant Matrix: (Units=GPa)
#
#
# Indices 1 2 3 4 5 6 
#
# 1 77.7051 5.5078 12.5716 0.0000 2.5987 0.0000
# 2 5.5078 7.5533 8.8114 0.0000 1.0768 0.0000
# 3 12.5716 8.8114 104.9151 0.0000 -7.1992 0.0000
# 4 0.0000 0.0000 0.0000 6.5395 0.0000 -0.1763
# 5 2.5987 1.0768 -7.1992 0.0000 20.2822 0.0000
# 6 0.0000 0.0000 0.0000 -0.1763 0.0000 -0.6918
#
#
#
# Elastic Compliance Matrix: (Units=1/GPa)
#
#
# Indices 1 2 3 4 5 6 
#
# 1 0.013698 -0.008539 -0.001039 0.000000 -0.001671 0.000000
# 2 -0.008539 0.155239 -0.012817 0.000000 -0.011698 0.000000
# 3 -0.001039 -0.012817 0.011058 0.000000 0.004739 0.000000
# 4 0.000000 0.000000 0.000000 0.151873 0.000000 -0.038699
# 5 -0.001671 -0.011698 0.004739 0.000000 0.051821 0.000000
# 6 0.000000 0.000000 0.000000 -0.038699 0.000000 -1.435690
#
#
# Mechanical properties :
#
#
# Convention : Reuss Voigt Hill
#
# Bulk Modulus (GPa) = 7.39617 27.10613 17.25115
# Shear Modulus (GPa) = -5.19674 16.11151 5.45738
#
# Velocity S-wave (km/s) = -1.68539 2.96758 1.72714
# Velocity P-wave (km/s) = 0.50534 5.15347 3.66153
#
# Compressibility (1/GPa) = 0.13520504
#
# Stress axis : x y z
#
# Youngs Moduli (GPa) = 73.00147 6.44167 90.43516
#
# Poissons Ratio (x) = 0.05500 0.09396
# Poissons Ratio (y) = 0.62334 1.15915
# Poissons Ratio (z) = 0.07584 0.08257
#
# Static dielectric constant tensor:
#      x y z
#    x 1.668550 0.000000 0.024540 
#    y 0.000000 1.601420 0.000000 
#    z 0.024540 0.000000 1.630240 
# 
# From -- ./inp_files/86778.got.cif
#   From: 2010.05.17/outbox.ucp.g08.bks.cvg/sg10_44_cif.got.tgz:86778.got - 2010.06.11 11:31:16.
