data_PCOD9155817
_publ_section_title
;
Structure prediction by ZEFSAII (Michael W. Deem and Ramdas Pophale) SiO2 
 PCOD9155817
Probable space group: P 21/M
;
_chemical_formula_sum "Si O2"
_cell_formula_units_Z 26
_cell_length_a 13.650064
_cell_length_b 16.679296
_cell_length_c 11.418460
_cell_angle_alpha 90.000000
_cell_angle_beta 146.165885
_cell_angle_gamma 90.000000
_cell_volume 1447.476761
_symmetry_space_group_name_H-M "P 21/M"
_symmetry_group_IT_number 11
_symmetry_cell_setting 'monoclinic'
loop_
_space_group_symop_operation_xyz
x,y,z
-x,1/2+y,-z
-x,-y,-z
x,1/2-y,z
loop_
_atom_site_type_symbol
_atom_site_label
_atom_site_fract_x
_atom_site_fract_y
_atom_site_fract_z
Si Si1 0.649371 0.578455 0.889149
Si Si2 0.898244 0.158589 0.109654
Si Si3 0.197401 0.750000 0.346307
Si Si4 0.746619 0.425414 0.523773
Si Si5 0.612291 0.750000 0.757386
Si Si6 0.951719 0.013467 0.318222
Si Si7 0.894175 0.750000 0.844303
Si Si8 0.799635 0.474128 0.834698
O O1 0.446402 0.565840 0.722135
O O2 0.664486 0.672892 0.884434
O O3 0.704901 0.541367 0.817902
O O4 0.781295 0.537756 0.111161
O O5 0.831805 0.250000 0.062015
O O6 0.078688 0.175072 0.215877
O O7 0.793957 0.103205 0.914556
O O8 0.920622 0.105427 0.247161
O O9 0.180628 0.833817 0.399599
O O10 0.405211 0.750000 0.521026
O O11 0.058399 0.750000 0.100686
O O12 0.889787 0.480350 0.604308
O O13 0.719254 0.451150 0.631219
O O14 0.720873 0.750000 0.746056
O O15 0.000000 0.000000 0.500000
O O16 0.000000 0.500000 0.000000
#
# Coordination Sequence:
#
# PCOD9155817 Si02
#       8
#     4   4   2   4   2   4   2   4
#     4  10  22  35  57  86 114 148 182 229 284 336
#     4   9  19  34  58  80 111 145 184 232 281 340
#     4  10  20  32  53  89 117 147 170 217 286 352
#     4  11  20  36  58  83 118 146 182 231 280 337
#     4  10  20  32  53  89 119 139 180 213 282 360
#     4  11  24  42  57  79 107 153 204 240 276 321
#     4  10  16  32  54  76 116 148 166 224 280 338
#     4  11  17  33  55  87 119 142 179 220 284 353
#
# _framework density 17.962292000000001
#
# number of rings (size 3 to 8) (size 9 to 14) (size 15 to 20)
#    0.462    1.231    4.615    2.308    0.000    0.615 
#    2.769    0.000    0.000    0.000    0.000    0.000 
#    0.000    0.000    0.000    0.000    0.000    0.000 
#
# Total GULP energy -144828.811834 kJ/mol
# GULP energy per Si atom -5570.338917 kJ/mol
# Density = 1.792141 g / cm^3
# Si number density = 17.962292 Si / 1000 Ang^3
#
#
#
# Elastic Constant Matrix: (Units=GPa)
#
#
# Indices 1 2 3 4 5 6 
#
# 1 28.3365 25.3724 33.1561 0.0000 -18.0835 0.0000
# 2 25.3724 135.5095 41.1919 0.0000 -4.0920 0.0000
# 3 33.1561 41.1919 70.6900 0.0000 -13.4884 0.0000
# 4 0.0000 0.0000 0.0000 13.5100 0.0000 -3.4074
# 5 -18.0835 -4.0920 -13.4884 0.0000 29.7558 0.0000
# 6 0.0000 0.0000 0.0000 -3.4074 0.0000 10.7059
#
#
#
# Elastic Compliance Matrix: (Units=1/GPa)
#
#
# Indices 1 2 3 4 5 6 
#
# 1 0.139504 -0.009656 -0.048037 0.000000 0.061678 0.000000
# 2 -0.009656 0.009679 -0.002164 0.000000 -0.005518 0.000000
# 3 -0.048037 -0.002164 0.035370 0.000000 -0.013458 0.000000
# 4 0.000000 0.000000 0.000000 0.080479 0.000000 0.025614
# 5 0.061678 -0.005518 -0.013458 0.000000 0.064231 0.000000
# 6 0.000000 0.000000 0.000000 0.025614 0.000000 0.101558
#
#
# Mechanical properties :
#
#
# Convention : Reuss Voigt Hill
#
# Bulk Modulus (GPa) = 15.42264 48.21965 31.82115
# Shear Modulus (GPa) = 8.73900 19.78206 14.26053
#
# Velocity S-wave (km/s) = 2.20811 3.32220 2.82071
# Velocity P-wave (km/s) = 3.88661 6.45130 5.32565
#
# Compressibility (1/GPa) = 0.06483973
#
# Stress axis : x y z
#
# Youngs Moduli (GPa) = 7.16826 103.32084 28.27221
#
# Poissons Ratio (x) = 0.99763 1.35812
# Poissons Ratio (y) = 0.06921 0.06118
# Poissons Ratio (z) = 0.34434 0.22357
#
# Static dielectric constant tensor:
#      x y z
#    x 1.590980 0.000000 0.009010 
#    y 0.000000 1.685190 0.000000 
#    z 0.009010 0.000000 1.629830 
# 
# From -- ./inp_files/39871.got.cif
#   From: 2010.05.17/outbox.cif.g08.bks.cpg/sg11_20_cif.got.tgz:39871.got - 2010.06.03 12:22:45.
