data_PCOD9155972
_publ_section_title
;
Structure prediction by ZEFSAII (Michael W. Deem and Ramdas Pophale) SiO2 
 PCOD9155972
Probable space group: P 21/M
;
_chemical_formula_sum "Si O2"
_cell_formula_units_Z 28
_cell_length_a 5.615205
_cell_length_b 31.201321
_cell_length_c 7.683216
_cell_angle_alpha 90.000000
_cell_angle_beta 121.324053
_cell_angle_gamma 90.000000
_cell_volume 1149.904779
_symmetry_space_group_name_H-M "P 21/M"
_symmetry_group_IT_number 11
_symmetry_cell_setting 'monoclinic'
loop_
_space_group_symop_operation_xyz
x,y,z
-x,1/2+y,-z
-x,-y,-z
x,1/2-y,z
loop_
_atom_site_type_symbol
_atom_site_label
_atom_site_fract_x
_atom_site_fract_y
_atom_site_fract_z
Si Si1 0.178968 0.341265 0.548232
Si Si2 0.875690 0.111902 0.112695
Si Si3 0.725296 0.463713 0.545920
Si Si4 0.635792 0.750000 0.901980
Si Si5 0.342818 0.153811 0.071332
Si Si6 0.035209 0.250000 0.343601
Si Si7 0.205493 0.517999 0.832909
Si Si8 0.321146 0.864456 0.443811
O O1 0.509061 0.345750 0.653003
O O2 0.046460 0.372520 0.349462
O O3 0.112990 0.292822 0.474072
O O4 0.003810 0.354466 0.650150
O O5 0.560738 0.128192 0.031819
O O6 0.874626 0.060758 0.095244
O O7 0.058799 0.131425 0.026991
O O8 0.500000 0.500000 0.500000
O O9 0.787739 0.466443 0.364750
O O10 0.638541 0.415485 0.549511
O O11 0.990003 0.479137 0.755575
O O12 0.708369 0.703050 0.004587
O O13 0.299806 0.750000 0.791591
O O14 0.794472 0.750000 0.774214
O O15 0.524527 0.154929 0.324658
O O16 0.500000 0.500000 0.000000
#
# Coordination Sequence:
#
# PCOD9155972 Si02
#       8
#     4   4   4   2   4   2   4   4
#     4  10  17  28  46  75 109 152 186 240 294 358
#     4  10  18  33  49  72 110 154 184 243 304 343
#     4  11  23  40  63  85 119 166 204 258 311 366
#     4  12  16  24  40  74 110 146 187 235 290 360
#     4  10  17  28  47  74 111 150 188 239 297 355
#     4  12  16  24  40  72 114 144 187 235 294 354
#     4  11  25  41  61  90 121 161 214 260 311 370
#     4  10  18  30  50  72 106 151 191 233 302 348
#
# _framework density 24.349841000000001
#
# number of rings (size 3 to 8) (size 9 to 14) (size 15 to 20)
#    0.000    1.429    8.571    1.714    2.000    0.571 
#    0.000    0.000    0.000    0.000    0.000    0.000 
#    0.000   12.571    0.000    0.000    0.000    0.000 
#
# Total GULP energy -156657.800334 kJ/mol
# GULP energy per Si atom -5594.921441 kJ/mol
# Density = 2.429442 g / cm^3
# Si number density = 24.349841 Si / 1000 Ang^3
#
#
#
# Elastic Constant Matrix: (Units=GPa)
#
#
# Indices 1 2 3 4 5 6 
#
# 1 197.1840 25.6879 37.5957 0.0000 6.2738 0.0000
# 2 25.6879 166.4081 24.3656 0.0000 8.3131 0.0000
# 3 37.5957 24.3656 68.9092 0.0000 1.8736 0.0000
# 4 0.0000 0.0000 0.0000 -3.0242 0.0000 5.9600
# 5 6.2738 8.3131 1.8736 0.0000 45.1517 0.0000
# 6 0.0000 0.0000 0.0000 5.9600 0.0000 54.9264
#
#
#
# Elastic Compliance Matrix: (Units=1/GPa)
#
#
# Indices 1 2 3 4 5 6 
#
# 1 0.005707 -0.000420 -0.002949 0.000000 -0.000593 0.000000
# 2 -0.000420 0.006421 -0.002013 0.000000 -0.001040 0.000000
# 3 -0.002949 -0.002013 0.016831 0.000000 0.000082 0.000000
# 4 0.000000 0.000000 0.000000 -0.272410 0.000000 0.029559
# 5 -0.000593 -0.001040 0.000082 0.000000 0.022418 0.000000
# 6 0.000000 0.000000 0.000000 0.029559 0.000000 0.014999
#
#
# Mechanical properties :
#
#
# Convention : Reuss Voigt Hill
#
# Bulk Modulus (GPa) = 54.96127 67.53330 61.24728
# Shear Modulus (GPa) = -26.42634 42.40090 7.98728
#
# Velocity S-wave (km/s) = -3.29793 4.17744 1.81310
# Velocity P-wave (km/s) = 2.84934 7.14583 5.43974
#
# Compressibility (1/GPa) = 0.01819463
#
# Stress axis : x y z
#
# Youngs Moduli (GPa) = 175.21528 155.74324 59.41576
#
# Poissons Ratio (x) = 0.06534 0.17524
# Poissons Ratio (y) = 0.07351 0.11961
# Poissons Ratio (z) = 0.51676 0.31354
#
# Static dielectric constant tensor:
#      x y z
#    x 1.955960 0.000000 0.003080 
#    y 0.000000 1.850780 0.000000 
#    z 0.003080 0.000000 2.036690 
# 
# From -- ./inp_files/10815.got.cif
#   From: 2010.05.17/outbox.cif.g08.bks.cpg/sg11_6_cif.got.tgz:10815.got - 2010.06.03 12:22:45.
