data_PCOD9155142
_publ_section_title
;
Structure prediction by ZEFSAII (Michael W. Deem and Ramdas Pophale) SiO2 
 PCOD9155142
Probable space group: P 2/M
;
_chemical_formula_sum "Si O2"
_cell_formula_units_Z 28
_cell_length_a 21.000000
_cell_length_b 9.000000
_cell_length_c 15.000000
_cell_angle_alpha 90.000000
_cell_angle_beta 150.000000
_cell_angle_gamma 90.000000
_cell_volume 1417.500000
_symmetry_space_group_name_H-M "P 2/M"
_symmetry_group_IT_number 10
_symmetry_cell_setting 'monoclinic'
loop_
_space_group_symop_operation_xyz
x,y,z
-x,y,-z
-x,-y,-z
x,-y,z
loop_
_atom_site_type_symbol
_atom_site_label
_atom_site_fract_x
_atom_site_fract_y
_atom_site_fract_z
Si Si1 0.457491 0.324179 0.750880
Si Si2 0.798015 0.326829 0.482485
Si Si3 0.290861 0.822442 0.007066
Si Si4 0.249159 0.178056 0.154522
Si Si5 0.971667 0.674531 0.369324
Si Si6 0.953719 0.174972 0.822032
Si Si7 0.726473 0.323969 0.640154
O O1 0.484811 0.500000 0.784997
O O2 0.352891 0.293587 0.702250
O O3 0.591637 0.240675 0.908024
O O4 0.372164 0.289518 0.559140
O O5 0.805845 0.500000 0.526390
O O6 0.868611 0.213192 0.633175
O O7 0.891021 0.321045 0.511786
O O8 0.310636 0.781244 0.134972
O O9 0.288026 0.000000 0.996042
O O10 0.150318 0.759137 0.816680
O O11 0.316051 0.252897 0.319110
O O12 0.252294 0.000000 0.167065
O O13 0.098405 0.222310 0.975669
O O14 0.935539 0.500000 0.329838
O O15 0.000000 0.737170 0.500000
O O16 0.867532 0.257610 0.790934
O O17 0.954893 0.000000 0.843005
O O18 0.736585 0.500000 0.659540
#
# Coordination Sequence:
#
# PCOD9155142 Si02
#       7
#     4   4   4   4   4   4   4
#     4   9  20  38  56  79 113 152 192 232 275 329
#     4   9  18  35  59  85 113 146 187 231 277 335
#     4  11  23  39  58  84 115 151 190 231 282 338
#     4  10  21  34  49  75 112 149 189 234 283 332
#     4  10  21  39  65  93 116 142 180 229 286 342
#     4  10  18  31  51  76 111 149 187 232 282 332
#     4  10  21  34  51  78 110 148 196 240 278 324
#
# _framework density 19.753086
#
# number of rings (size 3 to 8) (size 9 to 14) (size 15 to 20)
#    0.000    2.143    1.429    2.571    0.000    7.714 
#    0.000    3.571    0.000    4.286    0.000    0.000 
#    0.000    0.000    0.000    0.000    0.000    0.000 
#
# Total GULP energy -155994.652871 kJ/mol
# GULP energy per Si atom -5571.237603 kJ/mol
# Density = 1.970813 g / cm^3
# Si number density = 19.753086 Si / 1000 Ang^3
#
#
#
# Elastic Constant Matrix: (Units=GPa)
#
#
# Indices 1 2 3 4 5 6 
#
# 1 55.8411 29.5097 55.8866 0.0000 25.8196 0.0000
# 2 29.5097 25.0633 14.2591 0.0000 6.3559 0.0000
# 3 55.8866 14.2591 15.7601 0.0000 11.4279 0.0000
# 4 0.0000 0.0000 0.0000 269.2842 0.0000 96.8077
# 5 25.8196 6.3559 11.4279 0.0000 26.3052 0.0000
# 6 0.0000 0.0000 0.0000 96.8077 0.0000 45.2393
#
#
#
# Elastic Compliance Matrix: (Units=1/GPa)
#
#
# Indices 1 2 3 4 5 6 
#
# 1 -0.004838 -0.010423 0.031120 0.000000 -0.006252 0.000000
# 2 -0.010423 0.066185 -0.027364 0.000000 0.006126 0.000000
# 3 0.031120 -0.027364 -0.006991 0.000000 -0.020896 0.000000
# 4 0.000000 0.000000 0.000000 0.016097 0.000000 -0.034445
# 5 -0.006252 0.006126 -0.020896 0.000000 0.051750 0.000000
# 6 0.000000 0.000000 0.000000 -0.034445 0.000000 0.095813
#
#
# Mechanical properties :
#
#
# Convention : Reuss Voigt Hill
#
# Bulk Modulus (GPa) = 24.37724 32.88615 28.63169
# Shear Modulus (GPa) = 20.40615 67.96634 44.18624
#
# Velocity S-wave (km/s) = 3.21761 5.87219 4.73475
# Velocity P-wave (km/s) = 5.11584 7.91591 6.66459
#
# Compressibility (1/GPa) = 0.04102188
#
# Stress axis : x y z
#
# Youngs Moduli (GPa) = -206.70144 15.10908 -143.03208
#
# Poissons Ratio (x) = 0.15748 4.45109
# Poissons Ratio (y) = -2.15443 -3.91389
# Poissons Ratio (z) = 6.43246 0.41344
#
# Static dielectric constant tensor:
#      x y z
#    x 1.805180 0.000000 -0.000120 
#    y 0.000000 1.665570 0.000000 
#    z -0.000120 0.000000 1.752380 
# 
# From -- ./inp_files/63375.got.cif
#   From: 2010.05.17/outbox.ucp.g08.bks.cvg/sg10_32_cif.got.tgz:63375.got - 2010.06.11 11:31:16.
