data_PCOD9155703
_publ_section_title
;
Structure prediction by ZEFSAII (Michael W. Deem and Ramdas Pophale) SiO2 
 PCOD9155703
Probable space group: P 2/M
;
_chemical_formula_sum "Si O2"
_cell_formula_units_Z 30
_cell_length_a 12.000000
_cell_length_b 15.000000
_cell_length_c 12.000000
_cell_angle_alpha 90.000000
_cell_angle_beta 50.000000
_cell_angle_gamma 90.000000
_cell_volume 1654.655997
_symmetry_space_group_name_H-M "P 2/M"
_symmetry_group_IT_number 10
_symmetry_cell_setting 'monoclinic'
loop_
_space_group_symop_operation_xyz
x,y,z
-x,y,-z
-x,-y,-z
x,-y,z
loop_
_atom_site_type_symbol
_atom_site_label
_atom_site_fract_x
_atom_site_fract_y
_atom_site_fract_z
Si Si1 0.000000 0.796709 0.000000
Si Si2 0.406802 0.894525 0.390275
Si Si3 0.869276 0.648519 0.929177
Si Si4 0.814473 0.399835 0.354723
Si Si5 0.341329 0.707169 0.366688
Si Si6 0.275267 0.104383 0.720036
Si Si7 0.376966 0.600159 0.739457
Si Si8 0.330414 0.394369 0.143817
O O1 0.080840 0.737864 0.041301
O O2 0.868463 0.847021 0.145939
O O3 0.351439 0.813973 0.348918
O O4 0.579035 0.879525 0.301055
O O5 0.325426 0.878296 0.560823
O O6 0.386510 0.000000 0.373771
O O7 0.774274 0.651544 0.878805
O O8 0.023816 0.603823 0.800476
O O9 0.757566 0.603252 0.087711
O O10 0.792244 0.500000 0.414109
O O11 0.781328 0.325690 0.467872
O O12 0.696897 0.384583 0.332395
O O13 0.496720 0.669579 0.312723
O O14 0.314228 0.655620 0.270163
O O15 0.244908 0.000000 0.746935
O O16 0.439667 0.500000 0.702702
O O17 0.294658 0.500000 0.172822
O O18 0.500000 0.388211 0.000000
#
# Coordination Sequence:
#
# PCOD9155703 Si02
#       8
#     2   4   4   4   4   4   4   4
#     4  12  21  34  59  92 118 154 198 242 294 350
#     4   9  20  37  60  87 118 152 189 240 303 357
#     4  12  23  37  58  85 120 161 196 240 290 351
#     4  11  23  36  54  87 122 154 196 248 297 336
#     4  12  23  37  63  86 115 154 205 246 290 345
#     4   9  19  35  57  87 122 152 186 243 304 356
#     4  11  21  36  56  84 119 159 198 237 286 344
#     4  11  24  42  60  81 115 162 209 244 283 347
#
# _framework density 18.130656999999999
#
# number of rings (size 3 to 8) (size 9 to 14) (size 15 to 20)
#    0.000    1.200    2.667    5.400    3.733    2.667 
#    0.000    1.333    0.000    2.000    0.000    2.800 
#    0.000    0.000    0.000    0.000    0.000    0.000 
#
# Total GULP energy -167465.858208 kJ/mol
# GULP energy per Si atom -5582.195274 kJ/mol
# Density = 1.808939 g / cm^3
# Si number density = 18.130657 Si / 1000 Ang^3
#
#
#
# Elastic Constant Matrix: (Units=GPa)
#
#
# Indices 1 2 3 4 5 6 
#
# 1 74.2405 38.5359 16.0752 0.0000 -0.5422 0.0000
# 2 38.5359 71.8494 34.8735 0.0000 2.2924 0.0000
# 3 16.0752 34.8735 78.5040 0.0000 -12.4691 0.0000
# 4 0.0000 0.0000 0.0000 30.0774 0.0000 -7.0499
# 5 -0.5422 2.2924 -12.4691 0.0000 29.8120 0.0000
# 6 0.0000 0.0000 0.0000 -7.0499 0.0000 5.4412
#
#
#
# Elastic Compliance Matrix: (Units=1/GPa)
#
#
# Indices 1 2 3 4 5 6 
#
# 1 0.018778 -0.010690 0.001166 0.000000 0.001651 0.000000
# 2 -0.010690 0.024552 -0.009692 0.000000 -0.006136 0.000000
# 3 0.001166 -0.009692 0.018131 0.000000 0.008350 0.000000
# 4 0.000000 0.000000 0.000000 0.047748 0.000000 0.061866
# 5 0.001651 -0.006136 0.008350 0.000000 0.037538 0.000000
# 6 0.000000 0.000000 0.000000 0.061866 0.000000 0.263940
#
#
# Mechanical properties :
#
#
# Convention : Reuss Voigt Hill
#
# Bulk Modulus (GPa) = 43.42463 44.84034 44.13249
# Shear Modulus (GPa) = 10.94580 22.07339 16.50959
#
# Velocity S-wave (km/s) = 2.45973 3.49300 3.02087
# Velocity P-wave (km/s) = 5.66304 6.40730 6.04663
#
# Compressibility (1/GPa) = 0.02302841
#
# Stress axis : x y z
#
# Youngs Moduli (GPa) = 53.25301 40.73056 55.15368
#
# Poissons Ratio (x) = 0.43542 -0.06430
# Poissons Ratio (y) = 0.56928 0.53455
# Poissons Ratio (z) = -0.06209 0.39476
#
# Static dielectric constant tensor:
#      x y z
#    x 1.627630 0.000000 0.019780 
#    y 0.000000 1.644330 0.000000 
#    z 0.019780 0.000000 1.678670 
# 
# From -- ./inp_files/47638.got.cif
#   From: 2010.05.17/outbox.ucp.g08.bks.cvg/sg10_24_cif.got.tgz:47638.got - 2010.06.11 11:31:16.
