data_PCOD9155821
_publ_section_title
;
Structure prediction by ZEFSAII (Michael W. Deem and Ramdas Pophale) SiO2 
 PCOD9155821
Probable space group: P 21/M
;
_chemical_formula_sum "Si O2"
_cell_formula_units_Z 24
_cell_length_a 9.018308
_cell_length_b 14.793366
_cell_length_c 13.736277
_cell_angle_alpha 90.000000
_cell_angle_beta 45.166195
_cell_angle_gamma 90.000000
_cell_volume 1299.577541
_symmetry_space_group_name_H-M "P 21/M"
_symmetry_group_IT_number 11
_symmetry_cell_setting 'monoclinic'
loop_
_space_group_symop_operation_xyz
x,y,z
-x,1/2+y,-z
-x,-y,-z
x,1/2-y,z
loop_
_atom_site_type_symbol
_atom_site_label
_atom_site_fract_x
_atom_site_fract_y
_atom_site_fract_z
Si Si1 0.094667 0.852331 0.780196
Si Si2 0.110433 0.978748 0.052186
Si Si3 0.581225 0.086350 0.523294
Si Si4 0.856425 0.852088 0.315980
Si Si5 0.202433 0.455969 0.453148
Si Si6 0.425012 0.855154 0.808048
O O1 0.017766 0.750000 0.818317
O O2 0.218273 0.873331 0.623673
O O3 0.275977 0.860792 0.780055
O O4 0.913512 0.925392 0.882258
O O5 0.979522 0.908908 0.178385
O O6 0.325282 0.927613 0.928337
O O7 0.000000 0.000000 0.000000
O O8 0.383428 0.150592 0.610240
O O9 0.500000 0.000000 0.500000
O O10 0.646053 0.041241 0.593828
O O11 0.934534 0.750000 0.291080
O O12 0.857328 0.905399 0.418193
O O13 0.341884 0.385681 0.327833
O O14 0.000000 0.500000 0.500000
O O15 0.417032 0.750000 0.843276
#
# Coordination Sequence:
#
# PCOD9155821 Si02
#       6
#     4   4   4   4   4   4
#     4  10  17  30  55  84 115 149 187 237 293 345
#     4  10  19  33  55  89 120 147 189 246 297 352
#     4  10  16  32  56  85 111 146 193 245 295 339
#     4  11  20  36  63  88 115 155 202 245 294 358
#     4  11  22  37  58  84 119 159 195 247 299 350
#     4  10  19  34  56  84 117 152 189 233 296 360
#
# _framework density 18.46754
#
# number of rings (size 3 to 8) (size 9 to 14) (size 15 to 20)
#    0.000    1.667    6.667    2.500    0.000    0.667 
#    0.000    4.167    0.000    2.000    0.000    0.000 
#    0.000    0.000    0.000    0.000    0.000    0.000 
#
# Total GULP energy -133694.111640 kJ/mol
# GULP energy per Si atom -5570.587985 kJ/mol
# Density = 1.842551 g / cm^3
# Si number density = 18.467540 Si / 1000 Ang^3
#
#
#
# Elastic Constant Matrix: (Units=GPa)
#
#
# Indices 1 2 3 4 5 6 
#
# 1 39.5824 27.7425 12.4341 0.0000 -12.1377 0.0000
# 2 27.7425 144.9871 52.4005 0.0000 -0.6170 0.0000
# 3 12.4341 52.4005 107.4672 0.0000 7.8345 0.0000
# 4 0.0000 0.0000 0.0000 15.9154 0.0000 -4.4398
# 5 -12.1377 -0.6170 7.8345 0.0000 14.3815 0.0000
# 6 0.0000 0.0000 0.0000 -4.4398 0.0000 14.9302
#
#
#
# Elastic Compliance Matrix: (Units=1/GPa)
#
#
# Indices 1 2 3 4 5 6 
#
# 1 0.043045 -0.006379 -0.004684 0.000000 0.038607 0.000000
# 2 -0.006379 0.009419 -0.003636 0.000000 -0.002999 0.000000
# 3 -0.004684 -0.003636 0.012413 0.000000 -0.010872 0.000000
# 4 0.000000 0.000000 0.000000 0.068516 0.000000 0.020375
# 5 0.038607 -0.002999 -0.010872 0.000000 0.107911 0.000000
# 6 0.000000 0.000000 0.000000 0.020375 0.000000 0.073037
#
#
# Mechanical properties :
#
#
# Convention : Reuss Voigt Hill
#
# Bulk Modulus (GPa) = 28.18680 53.02121 40.60401
# Shear Modulus (GPa) = 14.06207 22.34273 18.20240
#
# Velocity S-wave (km/s) = 2.76243 3.48205 3.14290
# Velocity P-wave (km/s) = 5.04685 6.70366 5.93337
#
# Compressibility (1/GPa) = 0.03547760
#
# Stress axis : x y z
#
# Youngs Moduli (GPa) = 23.23149 106.16705 80.56320
#
# Poissons Ratio (x) = 0.67725 0.37740
# Poissons Ratio (y) = 0.14820 0.29293
# Poissons Ratio (z) = 0.10883 0.38603
#
# Static dielectric constant tensor:
#      x y z
#    x 1.642600 0.000000 0.012410 
#    y 0.000000 1.751190 0.000000 
#    z 0.012410 0.000000 1.656980 
# 
# From -- ./inp_files/12624.got.cif
#   From: 2010.05.17/outbox.cif.g08.bks.cpg/sg11_7_cif.got.tgz:12624.got - 2010.06.03 12:22:45.
