data_PCOD9155293
_publ_section_title
;
Structure prediction by ZEFSAII (Michael W. Deem and Ramdas Pophale) SiO2 
 PCOD9155293
Probable space group: P 2/M
;
_chemical_formula_sum "Si O2"
_cell_formula_units_Z 32
_cell_length_a 21.000000
_cell_length_b 9.000000
_cell_length_c 12.000000
_cell_angle_alpha 90.000000
_cell_angle_beta 130.000000
_cell_angle_gamma 90.000000
_cell_volume 1737.388797
_symmetry_space_group_name_H-M "P 2/M"
_symmetry_group_IT_number 10
_symmetry_cell_setting 'monoclinic'
loop_
_space_group_symop_operation_xyz
x,y,z
-x,y,-z
-x,-y,-z
x,-y,z
loop_
_atom_site_type_symbol
_atom_site_label
_atom_site_fract_x
_atom_site_fract_y
_atom_site_fract_z
Si Si1 0.801999 0.172952 0.231549
Si Si2 0.392549 0.824402 0.949345
Si Si3 0.956676 0.330073 0.803815
Si Si4 0.454841 0.677038 0.790261
Si Si5 0.871763 0.324735 0.094669
Si Si6 0.687642 0.824777 0.485703
Si Si7 0.810440 0.674934 0.788214
Si Si8 0.811193 0.667805 0.461963
O O1 0.838613 0.231102 0.158669
O O2 0.835043 0.272864 0.369025
O O3 0.820301 0.000000 0.270750
O O4 0.702504 0.192944 0.123579
O O5 0.454989 0.752361 0.108172
O O6 0.409157 0.000000 0.953323
O O7 0.412973 0.739460 0.857215
O O8 0.980085 0.500000 0.858988
O O9 0.900603 0.272342 0.842433
O O10 0.891173 0.333667 0.629985
O O11 0.040575 0.262107 0.851797
O O12 0.459632 0.500000 0.799374
O O13 0.397219 0.735743 0.626628
O O14 0.881175 0.500000 0.136177
O O15 0.811024 0.317658 0.920665
O O16 0.739200 0.768240 0.649503
O O17 0.745929 0.777496 0.446982
O O18 0.674153 0.000000 0.470524
O O19 0.803268 0.500000 0.746117
O O20 0.776355 0.500000 0.418363
#
# Coordination Sequence:
#
# PCOD9155293 Si02
#       8
#     4   4   4   4   4   4   4   4
#     4  11  23  36  51  73 110 148 177 211 259 320
#     4  10  20  34  51  74 108 144 173 210 261 316
#     4   8  16  32  55  81 103 130 173 228 274 309
#     4  11  20  31  53  82 108 134 172 217 257 308
#     4  10  20  35  56  77 102 139 183 224 264 311
#     4  11  20  32  52  79 111 141 169 211 268 320
#     4   9  18  34  56  80 103 134 179 227 267 308
#     4  10  19  33  54  77 104 137 179 221 262 312
#
# _framework density 18.418444999999998
#
# number of rings (size 3 to 8) (size 9 to 14) (size 15 to 20)
#    0.000    2.000    1.250    5.250    0.000    4.000 
#    0.000    5.625    0.000    4.500    0.000    5.250 
#    0.000    0.000    0.000    0.000    0.000    0.000 
#
# Total GULP energy -178442.875097 kJ/mol
# GULP energy per Si atom -5576.339847 kJ/mol
# Density = 1.837652 g / cm^3
# Si number density = 18.418445 Si / 1000 Ang^3
#
#
#
# Elastic Constant Matrix: (Units=GPa)
#
#
# Indices 1 2 3 4 5 6 
#
# 1 30.1448 14.4367 33.7216 0.0000 -8.5309 0.0000
# 2 14.4367 80.3694 18.8483 0.0000 -3.1166 0.0000
# 3 33.7216 18.8483 43.0700 0.0000 -7.3671 0.0000
# 4 0.0000 0.0000 0.0000 7.8234 0.0000 7.3661
# 5 -8.5309 -3.1166 -7.3671 0.0000 15.9763 0.0000
# 6 0.0000 0.0000 0.0000 7.3661 0.0000 22.1939
#
#
#
# Elastic Compliance Matrix: (Units=1/GPa)
#
#
# Indices 1 2 3 4 5 6 
#
# 1 0.310313 0.001292 -0.233561 0.000000 0.058249 0.000000
# 2 0.001292 0.013871 -0.007058 0.000000 0.000141 0.000000
# 3 -0.233561 -0.007058 0.203670 0.000000 -0.032174 0.000000
# 4 0.000000 0.000000 0.000000 0.185922 0.000000 -0.061707
# 5 0.058249 0.000141 -0.032174 0.000000 0.078887 0.000000
# 6 0.000000 0.000000 0.000000 -0.061707 0.000000 0.065538
#
#
# Mechanical properties :
#
#
# Convention : Reuss Voigt Hill
#
# Bulk Modulus (GPa) = 20.32506 31.95528 26.14017
# Shear Modulus (GPa) = 3.69479 14.97056 9.33267
#
# Velocity S-wave (km/s) = 1.41788 2.85406 2.25345
# Velocity P-wave (km/s) = 3.70670 5.31490 4.58191
#
# Compressibility (1/GPa) = 0.04920036
#
# Stress axis : x y z
#
# Youngs Moduli (GPa) = 3.22255 72.09224 4.90991
#
# Poissons Ratio (x) = -0.09318 1.14676
# Poissons Ratio (y) = -0.00416 0.03465
# Poissons Ratio (z) = 0.75266 0.50883
#
# Static dielectric constant tensor:
#      x y z
#    x 1.631530 0.000000 0.013990 
#    y 0.000000 1.621880 0.000000 
#    z 0.013990 0.000000 1.697000 
# 
# From -- ./inp_files/55399.got.cif
#   From: 2010.05.17/outbox.ucp.g08.bks.cvg/sg10_28_cif.got.tgz:55399.got - 2010.06.11 11:31:16.
