data_PCOD9155235
_publ_section_title
;
Structure prediction by ZEFSAII (Michael W. Deem and Ramdas Pophale) SiO2 
 PCOD9155235
Probable space group: P 2/M
;
_chemical_formula_sum "Si O2"
_cell_formula_units_Z 32
_cell_length_a 27.000000
_cell_length_b 9.000000
_cell_length_c 21.000000
_cell_angle_alpha 90.000000
_cell_angle_beta 160.000000
_cell_angle_gamma 90.000000
_cell_volume 1745.328791
_symmetry_space_group_name_H-M "P 2/M"
_symmetry_group_IT_number 10
_symmetry_cell_setting 'monoclinic'
loop_
_space_group_symop_operation_xyz
x,y,z
-x,y,-z
-x,-y,-z
x,-y,z
loop_
_atom_site_type_symbol
_atom_site_label
_atom_site_fract_x
_atom_site_fract_y
_atom_site_fract_z
Si Si1 0.173996 0.832133 0.704765
Si Si2 0.827361 0.679324 0.430608
Si Si3 0.676546 0.166778 0.571535
Si Si4 0.162334 0.322395 0.823158
Si Si5 0.523499 0.677131 0.768081
Si Si6 0.686069 0.820345 0.380383
Si Si7 0.068672 0.167154 0.226092
Si Si8 0.128558 0.668622 0.101739
O O1 0.206770 0.744156 0.808434
O O2 0.000000 0.844042 0.500000
O O3 0.210147 0.742062 0.684763
O O4 0.233977 0.000000 0.775860
O O5 0.819183 0.500000 0.422798
O O6 0.999441 0.724684 0.647469
O O7 0.718273 0.750038 0.350434
O O8 0.563817 0.271186 0.399510
O O9 0.743095 0.230476 0.716467
O O10 0.812867 0.159705 0.687545
O O11 0.619801 0.000000 0.509905
O O12 0.152732 0.500000 0.805783
O O13 0.306806 0.285362 0.037115
O O14 0.510842 0.500000 0.762032
O O15 0.444461 0.755587 0.733641
O O16 0.835150 0.783206 0.598425
O O17 0.672480 0.000000 0.361317
O O18 0.014506 0.000000 0.171544
O O19 0.942772 0.271904 0.048963
O O20 0.176848 0.500000 0.154061
O O21 0.000000 0.671311 0.000000
#
# Coordination Sequence:
#
# PCOD9155235 Si02
#       8
#     4   4   4   4   4   4   4   4
#     4   9  17  30  50  74  97 122 155 196 238 279
#     4  10  19  33  53  74  97 126 159 195 236 282
#     4   9  16  26  40  60  89 123 156 191 234 280
#     4   9  19  34  52  74  98 125 158 196 237 282
#     4  10  19  32  49  70  98 129 160 195 237 284
#     4  10  20  33  48  70 100 130 160 195 238 285
#     4   8  15  26  39  57  86 121 152 188 233 277
#     4   9  15  22  36  59  85 115 154 195 231 273
#
# _framework density 18.334654
#
# number of rings (size 3 to 8) (size 9 to 14) (size 15 to 20)
#    0.000    2.750    0.000    3.000    0.000    8.000 
#    0.000    0.625    0.000    3.750    0.000    0.875 
#    0.000    7.000    0.000    0.000    0.000    0.000 
#
# Total GULP energy -178137.972394 kJ/mol
# GULP energy per Si atom -5566.811637 kJ/mol
# Density = 1.829292 g / cm^3
# Si number density = 18.334654 Si / 1000 Ang^3
#
#
#
# Elastic Constant Matrix: (Units=GPa)
#
#
# Indices 1 2 3 4 5 6 
#
# 1 -2.5345 -7.1143 -18.1247 0.0000 2.4668 0.0000
# 2 -7.1143 15.0433 -1.8116 0.0000 5.9834 0.0000
# 3 -18.1247 -1.8116 33.8131 0.0000 4.1617 0.0000
# 4 0.0000 0.0000 0.0000 7.3461 0.0000 -13.3290
# 5 2.4668 5.9834 4.1617 0.0000 13.8475 0.0000
# 6 0.0000 0.0000 0.0000 -13.3290 0.0000 16.6794
#
#
#
# Elastic Compliance Matrix: (Units=1/GPa)
#
#
# Indices 1 2 3 4 5 6 
#
# 1 -0.044141 -0.037602 -0.029743 0.000000 0.033050 0.000000
# 2 -0.037602 0.050902 -0.016143 0.000000 -0.010444 0.000000
# 3 -0.029743 -0.016143 0.011688 0.000000 0.008761 0.000000
# 4 0.000000 0.000000 0.000000 -0.302524 0.000000 -0.241755
# 5 0.033050 -0.010444 0.008761 0.000000 0.068208 0.000000
# 6 0.000000 0.000000 0.000000 -0.241755 0.000000 -0.133239
#
#
# Mechanical properties :
#
#
# Convention : Reuss Voigt Hill
#
# Bulk Modulus (GPa) = -6.73277 -0.86439 -3.79858
# Shear Modulus (GPa) = -21.58540 12.46609 -4.55965
#
# Velocity S-wave (km/s) = -3.43490 2.61036 -1.57870
# Velocity P-wave (km/s) = 4.40585 2.93476 2.32365
#
# Compressibility (1/GPa) = -0.14852733
#
# Stress axis : x y z
#
# Youngs Moduli (GPa) = -22.65487 19.64552 85.55755
#
# Poissons Ratio (x) = 0.73872 2.54474
# Poissons Ratio (y) = -0.85187 1.38117
# Poissons Ratio (z) = -0.67383 0.31714
#
# Static dielectric constant tensor:
#      x y z
#    x 1.614150 0.000000 -0.033140 
#    y 0.000000 1.633490 0.000000 
#    z -0.033140 0.000000 1.668500 
# 
# From -- ./inp_files/54807.got.cif
#   From: 2010.05.17/outbox.ucp.g08.bks.cvg/sg10_28_cif.got.tgz:54807.got - 2010.06.11 11:31:16.
