data_PCOD9155784
_publ_section_title
;
Structure prediction by ZEFSAII (Michael W. Deem and Ramdas Pophale) SiO2 
 PCOD9155784
Probable space group: P 21/M
;
_chemical_formula_sum "Si O2"
_cell_formula_units_Z 32
_cell_length_a 11.248296
_cell_length_b 13.947466
_cell_length_c 12.155122
_cell_angle_alpha 90.000000
_cell_angle_beta 67.512437
_cell_angle_gamma 90.000000
_cell_volume 1761.958812
_symmetry_space_group_name_H-M "P 21/M"
_symmetry_group_IT_number 11
_symmetry_cell_setting 'monoclinic'
loop_
_space_group_symop_operation_xyz
x,y,z
-x,1/2+y,-z
-x,-y,-z
x,1/2-y,z
loop_
_atom_site_type_symbol
_atom_site_label
_atom_site_fract_x
_atom_site_fract_y
_atom_site_fract_z
Si Si1 0.702221 0.141384 0.251850
Si Si2 0.584568 0.135948 0.054758
Si Si3 0.014630 0.400847 0.558007
Si Si4 0.776921 0.851637 0.682494
Si Si5 0.419040 0.142086 0.452181
Si Si6 0.264849 0.640300 0.391336
Si Si7 0.773755 0.998128 0.388178
Si Si8 0.649748 0.486047 0.825322
O O1 0.749919 0.250000 0.254967
O O2 0.668930 0.131421 0.135555
O O3 0.566514 0.130980 0.365537
O O4 0.787865 0.057448 0.271833
O O5 0.554315 0.250000 0.048213
O O6 0.461882 0.065809 0.117855
O O7 0.652688 0.086640 0.926118
O O8 0.098340 0.345914 0.437715
O O9 0.107908 0.426848 0.626187
O O10 0.000000 0.500000 0.500000
O O11 0.873248 0.359182 0.623235
O O12 0.758318 0.750000 0.747559
O O13 0.663081 0.864003 0.632371
O O14 0.772415 0.945042 0.759824
O O15 0.401665 0.250000 0.501362
O O16 0.355090 0.065981 0.555884
O O17 0.303635 0.750000 0.399461
O O18 0.240533 0.578539 0.510135
O O19 0.361106 0.580322 0.279555
#
# Coordination Sequence:
#
# PCOD9155784 Si02
#       8
#     4   4   4   4   4   4   4   4
#     4  10  18  30  47  68  97 134 169 202 240 294
#     4  10  21  35  51  73 101 138 175 203 245 295
#     4   9  17  31  46  71 104 129 157 201 254 306
#     4  10  16  28  49  73  99 133 166 200 245 298
#     4   9  16  27  46  70  98 131 165 196 239 297
#     4  11  20  32  49  77 105 128 160 209 262 299
#     4  10  18  30  48  72 102 129 164 204 247 298
#     4  11  19  32  52  74 101 130 169 215 242 288
#
# _framework density 18.161604000000001
#
# number of rings (size 3 to 8) (size 9 to 14) (size 15 to 20)
#    0.000    2.000    5.000    1.875    0.000    0.500 
#    0.000    0.000    0.000    4.500    0.000    0.000 
#    0.000    0.000    0.000    0.000    0.000    0.000 
#
# Total GULP energy -178141.547103 kJ/mol
# GULP energy per Si atom -5566.923347 kJ/mol
# Density = 1.812027 g / cm^3
# Si number density = 18.161604 Si / 1000 Ang^3
#
#
#
# Elastic Constant Matrix: (Units=GPa)
#
#
# Indices 1 2 3 4 5 6 
#
# 1 20.2355 9.5463 12.3563 0.0000 -2.5495 0.0000
# 2 9.5463 139.6255 39.0553 0.0000 4.9339 0.0000
# 3 12.3563 39.0553 51.5385 0.0000 9.5750 0.0000
# 4 0.0000 0.0000 0.0000 24.5330 0.0000 -0.5242
# 5 -2.5495 4.9339 9.5750 0.0000 14.2765 0.0000
# 6 0.0000 0.0000 0.0000 -0.5242 0.0000 -5.3541
#
#
#
# Elastic Compliance Matrix: (Units=1/GPa)
#
#
# Indices 1 2 3 4 5 6 
#
# 1 0.064977 0.000425 -0.020595 0.000000 0.025269 0.000000
# 2 0.000425 0.009127 -0.007364 0.000000 0.001861 0.000000
# 3 -0.020595 -0.007364 0.034420 0.000000 -0.024218 0.000000
# 4 0.000000 0.000000 0.000000 0.040676 0.000000 -0.003982
# 5 0.025269 0.001861 -0.024218 0.000000 0.090157 0.000000
# 6 0.000000 0.000000 0.000000 -0.003982 0.000000 -0.186384
#
#
# Mechanical properties :
#
#
# Convention : Reuss Voigt Hill
#
# Bulk Modulus (GPa) = 18.70672 37.03501 27.87086
# Shear Modulus (GPa) = 39.72676 16.72053 28.22365
#
# Velocity S-wave (km/s) = 4.68204 3.03752 3.94639
# Velocity P-wave (km/s) = 6.28898 5.72173 6.01205
#
# Compressibility (1/GPa) = 0.05345674
#
# Stress axis : x y z
#
# Youngs Moduli (GPa) = 15.39011 109.56493 29.05267
#
# Poissons Ratio (x) = -0.04660 0.59834
# Poissons Ratio (y) = -0.00655 0.21394
# Poissons Ratio (z) = 0.31696 0.80683
#
# Static dielectric constant tensor:
#      x y z
#    x 1.685800 0.000000 -0.009090 
#    y 0.000000 1.635540 0.000000 
#    z -0.009090 0.000000 1.647890 
# 
# From -- ./inp_files/35500.got.cif
#   From: 2010.05.17/outbox.cif.g08.bks.cpg/sg11_18_cif.got.tgz:35500.got - 2010.06.03 12:22:45.
