data_PCOD9155918
_publ_section_title
;
Structure prediction by ZEFSAII (Michael W. Deem and Ramdas Pophale) SiO2 
 PCOD9155918
Probable space group: P 21/M
;
_chemical_formula_sum "Si O2"
_cell_formula_units_Z 28
_cell_length_a 28.534148
_cell_length_b 7.715515
_cell_length_c 14.032841
_cell_angle_alpha 90.000000
_cell_angle_beta 31.096797
_cell_angle_gamma 90.000000
_cell_volume 1595.634927
_symmetry_space_group_name_H-M "P 21/M"
_symmetry_group_IT_number 11
_symmetry_cell_setting 'monoclinic'
loop_
_space_group_symop_operation_xyz
x,y,z
-x,1/2+y,-z
-x,-y,-z
x,1/2-y,z
loop_
_atom_site_type_symbol
_atom_site_label
_atom_site_fract_x
_atom_site_fract_y
_atom_site_fract_z
Si Si1 0.211767 0.958252 0.836386
Si Si2 0.596306 0.451423 0.208506
Si Si3 0.105169 0.960448 0.215092
Si Si4 0.965015 0.041810 0.956485
Si Si5 0.930698 0.541257 0.412339
Si Si6 0.397428 0.046083 0.587921
Si Si7 0.779937 0.457667 0.807244
O O1 0.216754 0.750000 0.822305
O O2 0.314209 0.023895 0.660951
O O3 0.167207 0.003443 0.015991
O O4 0.137385 0.020016 0.889151
O O5 0.587797 0.250000 0.195891
O O6 0.623743 0.461458 0.272565
O O7 0.494246 0.524979 0.382769
O O8 0.678748 0.526657 0.003030
O O9 0.101170 0.750000 0.227806
O O10 0.153515 0.027125 0.225439
O O11 0.004565 0.022058 0.362252
O O12 0.962111 0.250000 0.953027
O O13 0.032165 0.980232 0.754868
O O14 0.000000 0.000000 0.000000
O O15 0.934571 0.750000 0.404835
O O16 0.830767 0.491080 0.619897
O O17 0.408996 0.250000 0.587831
O O18 0.774831 0.250000 0.828772
#
# Coordination Sequence:
#
# PCOD9155918 Si02
#       7
#     4   4   4   4   4   4   4
#     4   9  16  30  48  64  89 124 150 178 226 275
#     4   9  18  30  42  58  90 128 157 186 223 262
#     4   8  14  26  42  58  84 121 152 173 208 258
#     4   9  19  34  52  70  91 117 145 182 231 276
#     4   9  18  30  43  63  89 115 145 184 222 261
#     4  10  18  27  42  66  89 117 158 196 222 252
#     4  10  17  27  43  61  85 124 157 178 211 259
#
# _framework density 17.547875000000001
#
# number of rings (size 3 to 8) (size 9 to 14) (size 15 to 20)
#    0.000    2.857    1.429    2.571    0.000    2.286 
#    0.000    2.143    0.000    0.000    0.000    1.000 
#    0.000    0.000    0.000    0.000    0.000    0.000 
#
# Total GULP energy -155976.410898 kJ/mol
# GULP energy per Si atom -5570.586103 kJ/mol
# Density = 1.750793 g / cm^3
# Si number density = 17.547875 Si / 1000 Ang^3
#
#
#
# Elastic Constant Matrix: (Units=GPa)
#
#
# Indices 1 2 3 4 5 6 
#
# 1 82.8066 -2.5286 53.1429 0.0000 -13.2208 0.0000
# 2 -2.5286 26.0471 2.6538 0.0000 -0.7101 0.0000
# 3 53.1429 2.6538 142.7288 0.0000 -23.1416 0.0000
# 4 0.0000 0.0000 0.0000 14.3187 0.0000 0.7582
# 5 -13.2208 -0.7101 -23.1416 0.0000 17.9421 0.0000
# 6 0.0000 0.0000 0.0000 0.7582 0.0000 16.1357
#
#
#
# Elastic Compliance Matrix: (Units=1/GPa)
#
#
# Indices 1 2 3 4 5 6 
#
# 1 0.016387 0.002274 -0.005274 0.000000 0.005362 0.000000
# 2 0.002274 0.038789 -0.001324 0.000000 0.001503 0.000000
# 3 -0.005274 -0.001324 0.010566 0.000000 0.009689 0.000000
# 4 0.000000 0.000000 0.000000 0.070013 0.000000 -0.003290
# 5 0.005362 0.001503 0.009689 0.000000 0.072242 0.000000
# 6 0.000000 0.000000 0.000000 -0.003290 0.000000 0.062129
#
#
# Mechanical properties :
#
#
# Convention : Reuss Voigt Hill
#
# Bulk Modulus (GPa) = 17.51545 39.79095 28.65320
# Shear Modulus (GPa) = 16.78957 22.90026 19.84492
#
# Velocity S-wave (km/s) = 3.09655 3.61642 3.36654
# Velocity P-wave (km/s) = 4.77368 6.33742 5.61030
#
# Compressibility (1/GPa) = 0.05709245
#
# Stress axis : x y z
#
# Youngs Moduli (GPa) = 61.02490 25.78076 94.64692
#
# Poissons Ratio (x) = -0.05863 0.49919
# Poissons Ratio (y) = -0.13879 0.12534
# Poissons Ratio (z) = 0.32186 0.03414
#
# Static dielectric constant tensor:
#      x y z
#    x 1.584920 0.000000 -0.031470 
#    y 0.000000 1.655980 0.000000 
#    z -0.031470 0.000000 1.649180 
# 
# From -- ./inp_files/51020.got.cif
#   From: 2010.05.17/outbox.cif.g08.bks.cpg/sg11_26_cif.got.tgz:51020.got - 2010.06.03 12:22:45.
