data_PCOD9155222
_publ_section_title
;
Structure prediction by ZEFSAII (Michael W. Deem and Ramdas Pophale) SiO2 
 PCOD9155222
Probable space group: P 2/M
;
_chemical_formula_sum "Si O2"
_cell_formula_units_Z 28
_cell_length_a 21.000000
_cell_length_b 9.000000
_cell_length_c 15.000000
_cell_angle_alpha 90.000000
_cell_angle_beta 150.000000
_cell_angle_gamma 90.000000
_cell_volume 1417.500000
_symmetry_space_group_name_H-M "P 2/M"
_symmetry_group_IT_number 10
_symmetry_cell_setting 'monoclinic'
loop_
_space_group_symop_operation_xyz
x,y,z
-x,y,-z
-x,-y,-z
x,-y,z
loop_
_atom_site_type_symbol
_atom_site_label
_atom_site_fract_x
_atom_site_fract_y
_atom_site_fract_z
Si Si1 0.971767 0.176510 0.366774
Si Si2 0.392377 0.167687 0.947070
Si Si3 0.476197 0.823850 0.254173
Si Si4 0.003201 0.178597 0.109551
Si Si5 0.729717 0.327263 0.519069
Si Si6 0.787382 0.669116 0.392228
Si Si7 0.212500 0.181331 0.009643
O O1 0.000000 0.237485 0.500000
O O2 0.096679 0.217203 0.462614
O O3 0.956487 0.000000 0.356482
O O4 0.855111 0.230092 0.164984
O O5 0.292696 0.287424 0.791348
O O6 0.335151 0.000000 0.876562
O O7 0.500000 0.167288 0.000000
O O8 0.435981 0.194393 0.100999
O O9 0.611987 0.745082 0.428044
O O10 0.360234 0.772746 0.177649
O O11 0.493787 0.000000 0.289209
O O12 0.134722 0.250160 0.301730
O O13 0.010747 0.000000 0.128352
O O14 0.879461 0.226544 0.019055
O O15 0.000000 0.212434 0.000000
O O16 0.740062 0.500000 0.554276
O O17 0.705758 0.316054 0.383303
O O18 0.834263 0.500000 0.445048
O O19 0.213687 0.000000 0.012078
#
# Coordination Sequence:
#
# PCOD9155222 Si02
#       7
#     4   4   4   4   4   4   4
#     4  10  19  33  55  79 109 149 192 235 281 333
#     4  10  19  31  50  76 108 151 200 239 273 323
#     4  10  20  36  58  83 114 153 193 236 285 332
#     4  10  21  40  67  92 111 141 188 241 296 346
#     4  11  23  38  57  84 117 152 189 230 284 347
#     4  11  22  33  49  76 113 153 193 234 279 333
#     4   9  18  34  57  86 115 142 184 241 288 334
#
# _framework density 19.753086
#
# number of rings (size 3 to 8) (size 9 to 14) (size 15 to 20)
#    0.000    1.857    2.857    1.714    0.000    4.857 
#    0.000    2.143    0.000    4.286    0.000    0.000 
#    0.000    0.000    0.000    0.000    0.000    0.000 
#
# Total GULP energy -156097.375862 kJ/mol
# GULP energy per Si atom -5574.906281 kJ/mol
# Density = 1.970813 g / cm^3
# Si number density = 19.753086 Si / 1000 Ang^3
#
#
#
# Elastic Constant Matrix: (Units=GPa)
#
#
# Indices 1 2 3 4 5 6 
#
# 1 137.7129 29.6856 48.1896 0.0000 25.9517 0.0000
# 2 29.6856 -3.7907 24.3469 0.0000 -4.7625 0.0000
# 3 48.1896 24.3469 46.5338 0.0000 14.8244 0.0000
# 4 0.0000 0.0000 0.0000 -5.5317 0.0000 -12.4950
# 5 25.9517 -4.7625 14.8244 0.0000 33.3332 0.0000
# 6 0.0000 0.0000 0.0000 -12.4950 0.0000 2.7763
#
#
#
# Elastic Compliance Matrix: (Units=1/GPa)
#
#
# Indices 1 2 3 4 5 6 
#
# 1 0.011409 0.004723 -0.013597 0.000000 -0.002160 0.000000
# 2 0.004723 -0.043485 0.024480 0.000000 -0.020777 0.000000
# 3 -0.013597 0.024480 0.021293 0.000000 0.004614 0.000000
# 4 0.000000 0.000000 0.000000 -0.016190 0.000000 -0.072865
# 5 -0.002160 -0.020777 0.004614 0.000000 0.026661 0.000000
# 6 0.000000 0.000000 0.000000 -0.072865 0.000000 0.032258
#
#
# Mechanical properties :
#
#
# Convention : Reuss Voigt Hill
#
# Bulk Modulus (GPa) = 48.95459 42.76668 45.86063
# Shear Modulus (GPa) = 662.75404 11.33117 337.04260
#
# Velocity S-wave (km/s) = 18.33706 2.39768 13.07663
# Velocity P-wave (km/s) = 21.75241 5.41874 15.85134
#
# Compressibility (1/GPa) = 0.02042709
#
# Stress axis : x y z
#
# Youngs Moduli (GPa) = 87.65303 -22.99639 46.96371
#
# Poissons Ratio (x) = 0.10861 0.63859
# Poissons Ratio (y) = -0.41398 -1.14966
# Poissons Ratio (z) = 1.19186 0.56295
#
# Static dielectric constant tensor:
#      x y z
#    x 1.729270 0.000000 0.008090 
#    y 0.000000 1.673520 0.000000 
#    z 0.008090 0.000000 1.740600 
# 
# From -- ./inp_files/70300.got.cif
#   From: 2010.05.17/outbox.ucp.g08.bks.cvg/sg10_36_cif.got.tgz:70300.got - 2010.06.11 11:31:16.
