data_PCOD9155607
_publ_section_title
;
Structure prediction by ZEFSAII (Michael W. Deem and Ramdas Pophale) SiO2 
 PCOD9155607
Probable space group: P 2/M
;
_chemical_formula_sum "Si O2"
_cell_formula_units_Z 32
_cell_length_a 21.000000
_cell_length_b 9.000000
_cell_length_c 27.000000
_cell_angle_alpha 90.000000
_cell_angle_beta 160.000000
_cell_angle_gamma 90.000000
_cell_volume 1745.328791
_symmetry_space_group_name_H-M "P 2/M"
_symmetry_group_IT_number 10
_symmetry_cell_setting 'monoclinic'
loop_
_space_group_symop_operation_xyz
x,y,z
-x,y,-z
-x,-y,-z
x,-y,z
loop_
_atom_site_type_symbol
_atom_site_label
_atom_site_fract_x
_atom_site_fract_y
_atom_site_fract_z
Si Si1 0.008416 0.823046 0.678302
Si Si2 0.333383 0.177375 0.840440
Si Si3 0.690003 0.329065 0.840417
Si Si4 0.188321 0.326632 0.171288
Si Si5 0.442714 0.320938 0.817073
Si Si6 0.018952 0.824593 0.137622
Si Si7 0.881101 0.321031 0.136336
Si Si8 0.702455 0.329436 0.393410
O O1 0.816675 0.773284 0.513727
O O2 0.153423 0.781179 0.740752
O O3 0.051527 0.741407 0.761458
O O4 0.021496 0.000000 0.695939
O O5 0.364682 0.256991 0.811225
O O6 0.331560 0.000000 0.830272
O O7 0.500000 0.211321 0.000000
O O8 0.767246 0.500000 0.897765
O O9 0.661881 0.289241 0.761949
O O10 0.503485 0.334410 0.734865
O O11 0.830320 0.219951 0.970527
O O12 0.206405 0.500000 0.197324
O O13 0.172240 0.235621 0.210209
O O14 0.000000 0.306841 0.000000
O O15 0.438157 0.500000 0.815160
O O16 0.321582 0.275283 0.680676
O O17 0.661226 0.279110 0.970447
O O18 0.997435 0.745343 0.175169
O O19 0.036417 0.000000 0.156900
O O20 0.893427 0.500000 0.144314
O O21 0.776085 0.500000 0.447155
#
# Coordination Sequence:
#
# PCOD9155607 Si02
#       8
#     4   4   4   4   4   4   4   4
#     4  11  24  40  57  83 113 146 185 226 280 341
#     4  10  21  38  58  80 113 148 180 224 279 336
#     4   9  17  33  54  76 109 150 190 227 271 327
#     4   8  15  28  48  74 107 147 185 226 272 323
#     4  10  21  36  60  86 108 140 189 235 271 321
#     4  11  20  29  49  82 116 145 180 231 280 327
#     4  11  21  37  59  82 109 145 188 234 276 324
#     4  10  21  39  58  82 114 148 187 231 276 327
#
# _framework density 18.334654
#
# number of rings (size 3 to 8) (size 9 to 14) (size 15 to 20)
#    0.000    2.000    2.500    2.625    0.000    5.500 
#    0.000    2.500    0.000    0.750    0.000    5.250 
#    0.000    0.000    0.000    0.000    0.000    0.000 
#
# Total GULP energy -178366.073843 kJ/mol
# GULP energy per Si atom -5573.939808 kJ/mol
# Density = 1.829292 g / cm^3
# Si number density = 18.334654 Si / 1000 Ang^3
#
#
#
# Elastic Constant Matrix: (Units=GPa)
#
#
# Indices 1 2 3 4 5 6 
#
# 1 273.8994 -90.0607 -80.4005 0.0000 16.9168 0.0000
# 2 -90.0607 222.4743 119.8618 0.0000 -57.1819 0.0000
# 3 -80.4005 119.8618 99.7222 0.0000 -47.4208 0.0000
# 4 0.0000 0.0000 0.0000 -17.8488 0.0000 -7.6082
# 5 16.9168 -57.1819 -47.4208 0.0000 32.5437 0.0000
# 6 0.0000 0.0000 0.0000 -7.6082 0.0000 29.9617
#
#
#
# Elastic Compliance Matrix: (Units=1/GPa)
#
#
# Indices 1 2 3 4 5 6 
#
# 1 0.006130 -0.000484 0.011737 0.000000 0.013067 0.000000
# 2 -0.000484 0.012793 -0.016145 0.000000 -0.000796 0.000000
# 3 0.011737 -0.016145 0.073287 0.000000 0.072321 0.000000
# 4 0.000000 0.000000 0.000000 -0.050554 0.000000 -0.012837
# 5 0.013067 -0.000796 0.072321 0.000000 0.127919 0.000000
# 6 0.000000 0.000000 0.000000 -0.012837 0.000000 0.030116
#
#
# Mechanical properties :
#
#
# Convention : Reuss Voigt Hill
#
# Bulk Modulus (GPa) = 12.13175 54.98856 33.56016
# Shear Modulus (GPa) = 21.10157 52.04433 36.57295
#
# Velocity S-wave (km/s) = 3.39619 5.33361 4.47110
# Velocity P-wave (km/s) = 4.69148 8.24540 6.70808
#
# Compressibility (1/GPa) = 0.08242831
#
# Stress axis : x y z
#
# Youngs Moduli (GPa) = 163.12317 78.16825 13.64499
#
# Poissons Ratio (x) = 0.03780 -0.16016
# Poissons Ratio (y) = 0.07888 0.22030
# Poissons Ratio (z) = -1.91464 1.26201
#
# Static dielectric constant tensor:
#      x y z
#    x 1.630760 0.000000 -0.024760 
#    y 0.000000 1.624020 0.000000 
#    z -0.024760 0.000000 1.469900 
# 
# From -- ./inp_files/93766.got.cif
#   From: 2010.05.17/outbox.ucp.g08.bks.cvg/sg10_47_cif.got.tgz:93766.got - 2010.06.11 11:31:16.
