data_PCOD9155281
_publ_section_title
;
Structure prediction by ZEFSAII (Michael W. Deem and Ramdas Pophale) SiO2 
 PCOD9155281
Probable space group: P 2/M
;
_chemical_formula_sum "Si O2"
_cell_formula_units_Z 32
_cell_length_a 27.000000
_cell_length_b 9.000000
_cell_length_c 21.000000
_cell_angle_alpha 90.000000
_cell_angle_beta 20.000000
_cell_angle_gamma 90.000000
_cell_volume 1745.328791
_symmetry_space_group_name_H-M "P 2/M"
_symmetry_group_IT_number 10
_symmetry_cell_setting 'monoclinic'
loop_
_space_group_symop_operation_xyz
x,y,z
-x,y,-z
-x,-y,-z
x,-y,z
loop_
_atom_site_type_symbol
_atom_site_label
_atom_site_fract_x
_atom_site_fract_y
_atom_site_fract_z
Si Si1 0.123143 0.826366 0.527566
Si Si2 0.724011 0.818604 0.192735
Si Si3 0.663416 0.182128 0.531476
Si Si4 0.424906 0.332336 0.158824
Si Si5 0.430920 0.819217 0.490710
Si Si6 0.412553 0.822347 0.927843
Si Si7 0.910063 0.822833 0.667698
Si Si8 0.965559 0.179626 0.224497
O O1 0.261599 0.724172 0.351217
O O2 0.045098 0.791842 0.687945
O O3 0.010237 0.809852 0.607689
O O4 0.170719 0.000000 0.472755
O O5 0.598710 0.774591 0.294494
O O6 0.660196 0.772961 0.337847
O O7 0.729239 0.000000 0.185731
O O8 0.884299 0.763134 0.985195
O O9 0.642404 0.230380 0.484953
O O10 0.524294 0.232485 0.739534
O O11 0.815992 0.234104 0.374897
O O12 0.664828 0.000000 0.532203
O O13 0.430044 0.500000 0.179005
O O14 0.511721 0.219581 0.098051
O O15 0.500000 0.333353 0.000000
O O16 0.430860 0.000000 0.491186
O O17 0.404263 0.000000 0.929748
O O18 0.249692 0.761642 0.126269
O O19 0.000000 0.758479 0.500000
O O20 0.889830 0.000000 0.678816
O O21 0.966661 0.000000 0.214762
#
# Coordination Sequence:
#
# PCOD9155281 Si02
#       8
#     4   4   4   4   4   4   4   4
#     4  10  19  33  52  75 101 129 164 207 250 296
#     4   8  14  23  35  55  88 129 163 190 230 286
#     4   9  16  25  39  62  90 122 160 196 235 284
#     4  11  23  37  53  73  98 131 168 204 247 299
#     4   8  14  23  35  55  88 129 163 190 230 286
#     4  10  19  33  52  75 101 129 164 207 250 296
#     4   9  18  30  47  73  98 122 158 203 251 297
#     4   9  16  25  39  62  90 122 160 196 235 284
#
# _framework density 18.334654
#
# number of rings (size 3 to 8) (size 9 to 14) (size 15 to 20)
#    0.000    2.750    1.250    1.875    1.750    2.500 
#    0.000    3.125    0.000    2.250    0.000    0.000 
#    0.000    2.000    0.000    2.750    0.000    2.500 
#
# Total GULP energy -178164.372671 kJ/mol
# GULP energy per Si atom -5567.636646 kJ/mol
# Density = 1.829292 g / cm^3
# Si number density = 18.334654 Si / 1000 Ang^3
#
#
#
# Elastic Constant Matrix: (Units=GPa)
#
#
# Indices 1 2 3 4 5 6 
#
# 1 40.9484 -4.5377 34.0072 0.0000 25.1580 0.0000
# 2 -4.5377 -11.7297 9.6578 0.0000 3.1310 0.0000
# 3 34.0072 9.6578 157.2410 0.0000 -0.7596 0.0000
# 4 0.0000 0.0000 0.0000 -7.3054 0.0000 -0.5808
# 5 25.1580 3.1310 -0.7596 0.0000 1.2193 0.0000
# 6 0.0000 0.0000 0.0000 -0.5808 0.0000 -4.0015
#
#
#
# Elastic Compliance Matrix: (Units=1/GPa)
#
#
# Indices 1 2 3 4 5 6 
#
# 1 -0.004222 0.014904 0.000234 0.000000 0.048992 0.000000
# 2 0.014904 -0.101084 0.002762 0.000000 -0.046224 0.000000
# 3 0.000234 0.002762 0.006100 0.000000 -0.008129 0.000000
# 4 0.000000 0.000000 0.000000 -0.138484 0.000000 0.020102
# 5 0.048992 -0.046224 -0.008129 0.000000 -0.077091 0.000000
# 6 0.000000 0.000000 0.000000 0.020102 0.000000 -0.252824
#
#
# Mechanical properties :
#
#
# Convention : Reuss Voigt Hill
#
# Bulk Modulus (GPa) = -15.77146 29.41270 6.82062
# Shear Modulus (GPa) = -8.00588 7.80465 -0.10061
#
# Velocity S-wave (km/s) = -2.09189 2.06543 -0.23451
# Velocity P-wave (km/s) = 3.80202 4.66530 1.91176
#
# Compressibility (1/GPa) = -0.06340569
#
# Stress axis : x y z
#
# Youngs Moduli (GPa) = -236.84218 -9.89276 163.93293
#
# Poissons Ratio (x) = 0.14744 -0.03843
# Poissons Ratio (y) = 3.52986 -0.45278
# Poissons Ratio (z) = 0.05552 0.02732
#
# Static dielectric constant tensor:
#      x y z
#    x 1.621880 0.000000 0.004770 
#    y 0.000000 1.611230 0.000000 
#    z 0.004770 0.000000 1.638550 
# 
# From -- ./inp_files/86779.got.cif
#   From: 2010.05.17/outbox.ucp.g08.bks.cvg/sg10_44_cif.got.tgz:86779.got - 2010.06.11 11:31:16.
