data_PCOD9155550
_publ_section_title
;
Structure prediction by ZEFSAII (Michael W. Deem and Ramdas Pophale) SiO2 
 PCOD9155550
Probable space group: P 2/M
;
_chemical_formula_sum "Si O2"
_cell_formula_units_Z 24
_cell_length_a 12.000000
_cell_length_b 9.000000
_cell_length_c 12.000000
_cell_angle_alpha 90.000000
_cell_angle_beta 110.000000
_cell_angle_gamma 90.000000
_cell_volume 1217.841637
_symmetry_space_group_name_H-M "P 2/M"
_symmetry_group_IT_number 10
_symmetry_cell_setting 'monoclinic'
loop_
_space_group_symop_operation_xyz
x,y,z
-x,y,-z
-x,-y,-z
x,-y,z
loop_
_atom_site_type_symbol
_atom_site_label
_atom_site_fract_x
_atom_site_fract_y
_atom_site_fract_z
Si Si1 0.996689 0.163751 0.131209
Si Si2 0.735045 0.831257 0.699379
Si Si3 0.376923 0.821505 0.103929
Si Si4 0.367898 0.825343 0.751552
Si Si5 0.784677 0.671562 0.137084
Si Si6 0.379203 0.333042 0.528659
O O1 0.129069 0.162885 0.219779
O O2 0.919674 0.290339 0.159371
O O3 0.942106 0.000000 0.135010
O O4 0.000000 0.182502 0.000000
O O5 0.664260 0.782379 0.785255
O O6 0.717492 0.721887 0.591647
O O7 0.695210 0.000000 0.657135
O O8 0.514061 0.778586 0.140903
O O9 0.368325 0.000000 0.091112
O O10 0.291104 0.749317 0.985931
O O11 0.256097 0.742257 0.761923
O O12 0.387111 0.780751 0.631678
O O13 0.354812 0.000000 0.760119
O O14 0.759646 0.500000 0.127074
O O15 0.500000 0.331021 0.500000
O O16 0.358903 0.500000 0.563383
#
# Coordination Sequence:
#
# PCOD9155550 Si02
#       6
#     4   4   4   4   4   4
#     4  10  20  39  64  87 116 155 202 248 287 343
#     4  10  20  37  63  91 117 152 202 248 286 341
#     4  10  20  37  61  89 119 155 199 245 291 347
#     4  11  23  40  63  86 117 160 206 246 287 349
#     4  12  25  38  57  88 127 160 193 242 304 361
#     4  11  23  38  59  89 126 158 190 240 300 356
#
# _framework density 19.706996
#
# number of rings (size 3 to 8) (size 9 to 14) (size 15 to 20)
#    0.000    1.333    3.333    3.000    0.000    5.667 
#    0.000    0.833    0.000    5.000    0.000    0.000 
#    0.000    0.000    0.000    0.000    0.000    0.000 
#
# Total GULP energy -133984.964748 kJ/mol
# GULP energy per Si atom -5582.706864 kJ/mol
# Density = 1.966214 g / cm^3
# Si number density = 19.706996 Si / 1000 Ang^3
#
#
#
# Elastic Constant Matrix: (Units=GPa)
#
#
# Indices 1 2 3 4 5 6 
#
# 1 44.4656 20.5799 25.3447 0.0000 2.5381 0.0000
# 2 20.5799 0.7279 9.0846 0.0000 0.5185 0.0000
# 3 25.3447 9.0846 47.6516 0.0000 5.0281 0.0000
# 4 0.0000 0.0000 0.0000 28.6074 0.0000 5.9629
# 5 2.5381 0.5185 5.0281 0.0000 18.1534 0.0000
# 6 0.0000 0.0000 0.0000 5.9629 0.0000 22.9567
#
#
#
# Elastic Compliance Matrix: (Units=1/GPa)
#
#
# Indices 1 2 3 4 5 6 
#
# 1 0.003634 0.056363 -0.012829 0.000000 0.001435 0.000000
# 2 0.056363 -0.110917 -0.008586 0.000000 -0.002334 0.000000
# 3 -0.012829 -0.008586 0.030111 0.000000 -0.006301 0.000000
# 4 0.000000 0.000000 0.000000 0.036957 0.000000 -0.009599
# 5 0.001435 -0.002334 -0.006301 0.000000 0.056697 0.000000
# 6 0.000000 0.000000 0.000000 -0.009599 0.000000 0.046054
#
#
# Mechanical properties :
#
#
# Convention : Reuss Voigt Hill
#
# Bulk Modulus (GPa) = -137.40723 22.54038 -57.43343
# Shear Modulus (GPa) = -510.97353 16.46587 -247.25383
#
# Velocity S-wave (km/s) = -16.11981 2.89370 -11.21327
# Velocity P-wave (km/s) = 20.40443 4.75681 14.03057
#
# Compressibility (1/GPa) = -0.00727764
#
# Stress axis : x y z
#
# Youngs Moduli (GPa) = 275.19942 -9.01573 33.21042
#
# Poissons Ratio (x) = 0.50815 0.42607
# Poissons Ratio (y) = -15.51096 0.28514
# Poissons Ratio (z) = 3.53065 -0.07741
#
# Static dielectric constant tensor:
#      x y z
#    x 1.705720 0.000000 -0.010870 
#    y 0.000000 1.685910 0.000000 
#    z -0.010870 0.000000 1.675270 
# 
# From -- ./inp_files/45031.got.cif
#   From: 2010.05.17/outbox.ucp.g08.bks.cvg/sg10_23_cif.got.tgz:45031.got - 2010.06.11 11:31:16.
