data_PCOD9155749
_publ_section_title
;
Structure prediction by ZEFSAII (Michael W. Deem and Ramdas Pophale) SiO2 
 PCOD9155749
Probable space group: P 21/M
;
_chemical_formula_sum "Si O2"
_cell_formula_units_Z 32
_cell_length_a 19.437316
_cell_length_b 8.702463
_cell_length_c 12.526721
_cell_angle_alpha 90.000000
_cell_angle_beta 99.713724
_cell_angle_gamma 90.000000
_cell_volume 2088.547592
_symmetry_space_group_name_H-M "P 21/M"
_symmetry_group_IT_number 11
_symmetry_cell_setting 'monoclinic'
loop_
_space_group_symop_operation_xyz
x,y,z
-x,1/2+y,-z
-x,-y,-z
x,1/2-y,z
loop_
_atom_site_type_symbol
_atom_site_label
_atom_site_fract_x
_atom_site_fract_y
_atom_site_fract_z
Si Si1 0.041370 0.934263 0.910691
Si Si2 0.523642 0.433057 0.890390
Si Si3 0.761036 0.435717 0.308799
Si Si4 0.109662 0.565217 0.524859
Si Si5 0.808195 0.933255 0.091859
Si Si6 0.387424 0.566637 0.790058
Si Si7 0.342125 0.066191 0.008063
Si Si8 0.008599 0.434764 0.334515
O O1 0.039678 0.750000 0.912615
O O2 0.006459 0.986298 0.789590
O O3 0.121318 0.989317 0.929449
O O4 0.000000 0.000000 0.000000
O O5 0.525737 0.250000 0.896667
O O6 0.462437 0.487628 0.794944
O O7 0.601149 0.500578 0.894562
O O8 0.500000 0.500000 0.000000
O O9 0.764898 0.250000 0.298220
O O10 0.813202 0.481302 0.417251
O O11 0.789730 0.506780 0.205953
O O12 0.679243 0.475309 0.300303
O O13 0.107685 0.750000 0.517041
O O14 0.078144 0.496948 0.408687
O O15 0.056141 0.518488 0.605912
O O16 0.817177 0.750000 0.098631
O O17 0.740031 0.965504 0.000693
O O18 0.396737 0.750000 0.791650
O O19 0.361398 0.513178 0.900385
O O20 0.351502 0.250000 0.000609
O O21 0.010650 0.250000 0.335615
#
# Coordination Sequence:
#
# PCOD9155749 Si02
#       8
#     4   4   4   4   4   4   4   4
#     4  11  22  36  50  64  86 112 143 180 219 262
#     4  10  16  22  32  47  70 100 135 169 203 241
#     4   9  16  27  41  59  83 112 141 175 214 249
#     4   9  16  28  45  64  86 110 140 176 214 255
#     4  10  19  29  43  62  81 105 140 178 215 256
#     4   9  15  22  34  50  73 104 136 167 204 244
#     4   9  16  25  36  51  72  98 133 172 205 242
#     4   9  18  31  45  63  85 109 137 175 217 256
#
# _framework density 15.321652
#
# number of rings (size 3 to 8) (size 9 to 14) (size 15 to 20)
#    0.000    2.500    1.250    4.125    0.000    3.500 
#    0.000    0.000    0.000    0.000    0.000    0.000 
#    0.000    0.000    0.000    1.125    0.000   13.625 
#
# Total GULP energy -178147.567880 kJ/mol
# GULP energy per Si atom -5567.111496 kJ/mol
# Density = 1.528678 g / cm^3
# Si number density = 15.321652 Si / 1000 Ang^3
#
#
#
# Elastic Constant Matrix: (Units=GPa)
#
#
# Indices 1 2 3 4 5 6 
#
# 1 124.6964 38.1416 56.9139 0.0000 39.9193 0.0000
# 2 38.1416 47.5531 22.3945 0.0000 10.5820 0.0000
# 3 56.9139 22.3945 57.3030 0.0000 16.2937 0.0000
# 4 0.0000 0.0000 0.0000 16.0349 0.0000 4.8254
# 5 39.9193 10.5820 16.2937 0.0000 25.3544 0.0000
# 6 0.0000 0.0000 0.0000 4.8254 0.0000 23.8366
#
#
#
# Elastic Compliance Matrix: (Units=1/GPa)
#
#
# Indices 1 2 3 4 5 6 
#
# 1 0.026491 -0.007730 -0.015109 0.000000 -0.028773 0.000000
# 2 -0.007730 0.028610 -0.004367 0.000000 0.003036 0.000000
# 3 -0.015109 -0.004367 0.032892 0.000000 0.004473 0.000000
# 4 0.000000 0.000000 0.000000 0.066410 0.000000 -0.013444
# 5 -0.028773 0.003036 0.004473 0.000000 0.080601 0.000000
# 6 0.000000 0.000000 0.000000 -0.013444 0.000000 0.044674
#
#
# Mechanical properties :
#
#
# Convention : Reuss Voigt Hill
#
# Bulk Modulus (GPa) = 29.77782 51.60585 40.69183
# Shear Modulus (GPa) = 14.48090 20.51870 17.49980
#
# Velocity S-wave (km/s) = 3.07763 3.66347 3.38325
# Velocity P-wave (km/s) = 5.66625 7.18676 6.47132
#
# Compressibility (1/GPa) = 0.03358204
#
# Stress axis : x y z
#
# Youngs Moduli (GPa) = 37.74875 34.95272 30.40254
#
# Poissons Ratio (x) = 0.27018 0.45934
# Poissons Ratio (y) = 0.29179 0.13277
# Poissons Ratio (z) = 0.57034 0.15264
#
# Static dielectric constant tensor:
#      x y z
#    x 1.563560 0.000000 0.054130 
#    y 0.000000 1.513200 0.000000 
#    z 0.054130 0.000000 1.484050 
# 
# From -- ./inp_files/40672.got.cif
#   From: 2010.05.17/outbox.cif.g08.bks.cpg/sg11_21_cif.got.tgz:40672.got - 2010.06.03 12:22:45.
