data_PCOD9155973
_publ_section_title
;
Structure prediction by ZEFSAII (Michael W. Deem and Ramdas Pophale) SiO2 
 PCOD9155973
Probable space group: P 21/M
;
_chemical_formula_sum "Si O2"
_cell_formula_units_Z 32
_cell_length_a 13.041739
_cell_length_b 7.514548
_cell_length_c 24.852931
_cell_angle_alpha 90.000000
_cell_angle_beta 133.885155
_cell_angle_gamma 90.000000
_cell_volume 1755.452285
_symmetry_space_group_name_H-M "P 21/M"
_symmetry_group_IT_number 11
_symmetry_cell_setting 'monoclinic'
loop_
_space_group_symop_operation_xyz
x,y,z
-x,1/2+y,-z
-x,-y,-z
x,1/2-y,z
loop_
_atom_site_type_symbol
_atom_site_label
_atom_site_fract_x
_atom_site_fract_y
_atom_site_fract_z
Si Si1 0.946886 0.463613 0.420294
Si Si2 0.629776 0.032104 0.317717
Si Si3 0.179622 0.461390 0.421054
Si Si4 0.093035 0.468212 0.160080
Si Si5 0.875654 0.460369 0.998120
Si Si6 0.770992 0.532008 0.680508
Si Si7 0.549161 0.463969 0.409086
Si Si8 0.663201 0.958543 0.833770
O O1 0.943680 0.250000 0.413428
O O2 0.785195 0.529605 0.356149
O O3 0.000000 0.500000 0.500000
O O4 0.059182 0.534165 0.417476
O O5 0.634576 0.250000 0.319009
O O6 0.598665 0.976300 0.367916
O O7 0.495144 0.971748 0.233347
O O8 0.155901 0.250000 0.408420
O O9 0.181495 0.530770 0.360924
O O10 0.332986 0.486704 0.504367
O O11 0.092644 0.250000 0.158503
O O12 0.128794 0.522277 0.233518
O O13 0.222365 0.529680 0.168089
O O14 0.944769 0.527242 0.078894
O O15 0.140409 0.750000 0.003183
O O16 0.732113 0.526233 0.917826
O O17 0.000000 0.500000 0.000000
O O18 0.769526 0.750000 0.679520
O O19 0.609214 0.474216 0.634059
O O20 0.543186 0.250000 0.404730
O O21 0.654709 0.750000 0.818095
#
# Coordination Sequence:
#
# PCOD9155973 Si02
#       8
#     4   4   4   4   4   4   4   4
#     4  10  19  31  45  62  84 111 145 183 222 256
#     4   9  16  27  45  63  79 111 151 176 203 256
#     4  10  20  30  42  63  89 110 138 187 226 243
#     4   8  13  23  40  59  80 107 137 163 197 248
#     4   9  16  25  40  62  87 113 138 167 205 253
#     4   9  16  27  43  63  85 113 147 175 205 252
#     4  10  17  28  47  62  80 116 152 173 202 259
#     4   9  15  26  43  61  81 107 142 178 208 245
#
# _framework density 18.228922000000001
#
# number of rings (size 3 to 8) (size 9 to 14) (size 15 to 20)
#    0.000    2.750    2.500    1.500    0.000    0.000 
#    0.000    1.250    0.000    3.750    0.000    0.875 
#    0.000    0.000    0.000    0.000    0.000    0.000 
#
# Total GULP energy -178375.250524 kJ/mol
# GULP energy per Si atom -5574.226579 kJ/mol
# Density = 1.818743 g / cm^3
# Si number density = 18.228922 Si / 1000 Ang^3
#
#
#
# Elastic Constant Matrix: (Units=GPa)
#
#
# Indices 1 2 3 4 5 6 
#
# 1 86.2404 0.1314 68.6641 0.0000 -15.4181 0.0000
# 2 0.1314 42.8746 -7.0415 0.0000 -0.3014 0.0000
# 3 68.6641 -7.0415 186.7972 0.0000 -4.9825 0.0000
# 4 0.0000 0.0000 0.0000 18.4478 0.0000 0.1418
# 5 -15.4181 -0.3014 -4.9825 0.0000 19.3232 0.0000
# 6 0.0000 0.0000 0.0000 0.1418 0.0000 0.8960
#
#
#
# Elastic Compliance Matrix: (Units=1/GPa)
#
#
# Indices 1 2 3 4 5 6 
#
# 1 0.019513 -0.001087 -0.006846 0.000000 0.013787 0.000000
# 2 -0.001087 0.023537 0.001282 0.000000 -0.000170 0.000000
# 3 -0.006846 0.001282 0.007827 0.000000 -0.003424 0.000000
# 4 0.000000 0.000000 0.000000 0.054273 0.000000 -0.008588
# 5 0.013787 -0.000170 -0.003424 0.000000 0.061867 0.000000
# 6 0.000000 0.000000 0.000000 -0.008588 0.000000 1.117415
#
#
# Mechanical properties :
#
#
# Convention : Reuss Voigt Hill
#
# Bulk Modulus (GPa) = 26.61366 48.82448 37.71907
# Shear Modulus (GPa) = 3.81605 24.67727 14.24666
#
# Velocity S-wave (km/s) = 1.44843 3.68332 2.79864
# Velocity P-wave (km/s) = 4.17476 6.70308 5.58390
#
# Compressibility (1/GPa) = 0.03757469
#
# Stress axis : x y z
#
# Youngs Moduli (GPa) = 51.24886 42.48705 127.76559
#
# Poissons Ratio (x) = 0.04619 0.87466
# Poissons Ratio (y) = 0.05572 -0.16384
# Poissons Ratio (z) = 0.35084 -0.05448
#
# Static dielectric constant tensor:
#      x y z
#    x 1.605590 0.000000 0.004090 
#    y 0.000000 1.703280 0.000000 
#    z 0.004090 0.000000 1.648100 
# 
# From -- ./inp_files/41116.got.cif
#   From: 2010.05.17/outbox.cif.g08.bks.cpg/sg11_21_cif.got.tgz:41116.got - 2010.06.03 12:22:45.
