data_PCOD9155122
_publ_section_title
;
Structure prediction by ZEFSAII (Michael W. Deem and Ramdas Pophale) SiO2 
 PCOD9155122
Probable space group: P 2/M
;
_chemical_formula_sum "Si O2"
_cell_formula_units_Z 32
_cell_length_a 15.000000
_cell_length_b 9.000000
_cell_length_c 24.000000
_cell_angle_alpha 90.000000
_cell_angle_beta 30.000000
_cell_angle_gamma 90.000000
_cell_volume 1620.000000
_symmetry_space_group_name_H-M "P 2/M"
_symmetry_group_IT_number 10
_symmetry_cell_setting 'monoclinic'
loop_
_space_group_symop_operation_xyz
x,y,z
-x,y,-z
-x,-y,-z
x,-y,z
loop_
_atom_site_type_symbol
_atom_site_label
_atom_site_fract_x
_atom_site_fract_y
_atom_site_fract_z
Si Si1 0.420080 0.171749 0.329916
Si Si2 0.934629 0.677604 0.318613
Si Si3 0.559232 0.820847 0.560552
Si Si4 0.006047 0.837736 0.562535
Si Si5 0.793851 0.323000 0.275139
Si Si6 0.951236 0.680865 0.963168
Si Si7 0.451090 0.679629 0.851862
Si Si8 0.748975 0.326499 0.774623
O O1 0.505153 0.224156 0.341664
O O2 0.214271 0.174085 0.460116
O O3 0.452651 0.264135 0.256701
O O4 0.468236 0.000000 0.292113
O O5 0.923248 0.500000 0.336387
O O6 0.752351 0.752126 0.440696
O O7 0.921043 0.699179 0.259785
O O8 0.124339 0.730696 0.242699
O O9 0.392748 0.761320 0.615006
O O10 0.572129 0.000000 0.551457
O O11 0.000000 0.840154 0.500000
O O12 0.890253 0.705358 0.648938
O O13 0.940018 0.000000 0.619318
O O14 0.756408 0.500000 0.291542
O O15 0.900791 0.274746 0.162142
O O16 0.948904 0.500000 0.965875
O O17 0.755088 0.726144 0.046370
O O18 0.000000 0.730462 0.000000
O O19 0.455614 0.500000 0.850669
O O20 0.563282 0.730645 0.846466
O O21 0.718286 0.500000 0.802665
#
# Coordination Sequence:
#
# PCOD9155122 Si02
#       8
#     4   4   4   4   4   4   4   4
#     4  10  20  32  48  75 109 142 174 210 260 317
#     4  10  21  36  53  76 108 144 177 212 261 318
#     4  11  22  35  54  81 110 140 176 219 265 313
#     4  10  18  30  47  68 102 144 179 208 250 312
#     4  10  21  38  58  77 102 139 180 219 263 318
#     4   9  18  35  58  81 103 132 173 220 268 315
#     4  10  20  33  53  80 107 138 180 224 262 305
#     4  10  20  32  48  75 109 139 174 219 260 302
#
# _framework density 19.753086
#
# number of rings (size 3 to 8) (size 9 to 14) (size 15 to 20)
#    0.000    2.000    2.500    1.500    0.000    4.750 
#    0.000    1.250    0.000    6.000    0.000    0.000 
#    0.000    4.000    0.000    0.000    0.000    0.000 
#
# Total GULP energy -178145.191571 kJ/mol
# GULP energy per Si atom -5567.037237 kJ/mol
# Density = 1.970813 g / cm^3
# Si number density = 19.753086 Si / 1000 Ang^3
#
#
#
# Elastic Constant Matrix: (Units=GPa)
#
#
# Indices 1 2 3 4 5 6 
#
# 1 156.3889 17.8100 50.2731 0.0000 -18.3421 0.0000
# 2 17.8100 11.9680 8.1797 0.0000 1.5798 0.0000
# 3 50.2731 8.1797 69.5698 0.0000 -8.7433 0.0000
# 4 0.0000 0.0000 0.0000 2.6236 0.0000 -4.2834
# 5 -18.3421 1.5798 -8.7433 0.0000 34.8929 0.0000
# 6 0.0000 0.0000 0.0000 -4.2834 0.0000 -12.9004
#
#
#
# Elastic Compliance Matrix: (Units=1/GPa)
#
#
# Indices 1 2 3 4 5 6 
#
# 1 0.009945 -0.011806 -0.005239 0.000000 0.004449 0.000000
# 2 -0.011806 0.106564 -0.005560 0.000000 -0.012424 0.000000
# 3 -0.005239 -0.005560 0.019101 0.000000 0.002284 0.000000
# 4 0.000000 0.000000 0.000000 0.247165 0.000000 -0.082068
# 5 0.004449 -0.012424 0.002284 0.000000 0.032133 0.000000
# 6 0.000000 0.000000 0.000000 -0.082068 0.000000 -0.050267
#
#
# Mechanical properties :
#
#
# Convention : Reuss Voigt Hill
#
# Bulk Modulus (GPa) = 11.06186 43.38360 27.22273
# Shear Modulus (GPa) = 11.36409 15.70084 13.53247
#
# Velocity S-wave (km/s) = 2.40116 2.82238 2.62024
# Velocity P-wave (km/s) = 3.64687 5.71242 4.79225
#
# Compressibility (1/GPa) = 0.09040072
#
# Stress axis : x y z
#
# Youngs Moduli (GPa) = 100.55486 9.38401 52.35413
#
# Poissons Ratio (x) = 0.11079 0.27429
# Poissons Ratio (y) = 1.18713 0.29107
# Poissons Ratio (z) = 0.52682 0.05217
#
# Static dielectric constant tensor:
#      x y z
#    x 1.917760 0.000000 -0.017340 
#    y 0.000000 1.684710 0.000000 
#    z -0.017340 0.000000 1.669700 
# 
# From -- ./inp_files/72189.got.cif
#   From: 2010.05.17/outbox.ucp.g08.bks.cvg/sg10_37_cif.got.tgz:72189.got - 2010.06.11 11:31:16.
