data_PCOD9155101
_publ_section_title
;
Structure prediction by ZEFSAII (Michael W. Deem and Ramdas Pophale) SiO2 
 PCOD9155101
Probable space group: P 2/M
;
_chemical_formula_sum "Si O2"
_cell_formula_units_Z 32
_cell_length_a 21.000000
_cell_length_b 12.000000
_cell_length_c 21.000000
_cell_angle_alpha 90.000000
_cell_angle_beta 20.000000
_cell_angle_gamma 90.000000
_cell_volume 1809.970598
_symmetry_space_group_name_H-M "P 2/M"
_symmetry_group_IT_number 10
_symmetry_cell_setting 'monoclinic'
loop_
_space_group_symop_operation_xyz
x,y,z
-x,y,-z
-x,-y,-z
x,-y,z
loop_
_atom_site_type_symbol
_atom_site_label
_atom_site_fract_x
_atom_site_fract_y
_atom_site_fract_z
Si Si1 0.949081 0.120986 0.943160
Si Si2 0.296476 0.635918 0.384700
Si Si3 0.306414 0.634331 0.033566
Si Si4 0.039986 0.364185 0.390745
Si Si5 0.859781 0.324579 0.949081
Si Si6 0.615157 0.624084 0.299632
Si Si7 0.278324 0.628446 0.545369
Si Si8 0.288002 0.176697 0.713225
O O1 0.876177 0.198300 0.955986
O O2 0.141803 0.159360 0.794347
O O3 0.979756 0.000000 0.888319
O O4 0.801317 0.120243 0.140018
O O5 0.292815 0.500000 0.391485
O O6 0.484746 0.672089 0.174169
O O7 0.291336 0.677240 0.462142
O O8 0.124977 0.667579 0.502153
O O9 0.305622 0.500000 0.037102
O O10 0.220231 0.673145 0.181323
O O11 0.198633 0.660812 0.069049
O O12 0.046156 0.500000 0.388360
O O13 0.000000 0.325020 0.500000
O O14 0.065568 0.371922 0.764469
O O15 0.724948 0.375642 0.129174
O O16 0.595437 0.500000 0.341860
O O17 0.418430 0.679110 0.464815
O O18 0.709680 0.695879 0.265118
O O19 0.342044 0.500000 0.480660
O O20 0.500000 0.141855 0.500000
#
# Coordination Sequence:
#
# PCOD9155101 Si02
#       8
#     4   4   4   4   4   4   4   4
#     4  10  23  39  53  71  91 114 156 205 241 285
#     4   9  16  25  40  61  88 125 160 188 218 256
#     4  10  17  27  44  65  93 127 159 190 227 271
#     4   9  17  27  39  60  93 133 170 193 211 247
#     4  11  19  31  50  69  90 123 160 193 240 284
#     4  10  20  31  46  72 100 121 152 193 229 277
#     4  10  17  27  45  69  96 124 154 187 227 278
#     4  10  20  37  56  71  91 124 156 185 235 290
#
# _framework density 17.679845
#
# number of rings (size 3 to 8) (size 9 to 14) (size 15 to 20)
#    0.000    2.125    2.500    2.625    0.000    1.750 
#    0.000    8.750    0.000    0.000    0.000    0.000 
#    0.000    0.500    0.000    1.250    0.000    0.250 
#
# Total GULP energy -178136.575320 kJ/mol
# GULP energy per Si atom -5566.767979 kJ/mol
# Density = 1.763961 g / cm^3
# Si number density = 17.679845 Si / 1000 Ang^3
#
#
#
# Elastic Constant Matrix: (Units=GPa)
#
#
# Indices 1 2 3 4 5 6 
#
# 1 3.3874 24.2485 6.8600 0.0000 11.4162 0.0000
# 2 24.2485 44.8173 8.8047 0.0000 1.2398 0.0000
# 3 6.8600 8.8047 104.0954 0.0000 8.5560 0.0000
# 4 0.0000 0.0000 0.0000 17.8626 0.0000 -7.6255
# 5 11.4162 1.2398 8.5560 0.0000 20.6834 0.0000
# 6 0.0000 0.0000 0.0000 -7.6255 0.0000 19.2028
#
#
#
# Elastic Compliance Matrix: (Units=1/GPa)
#
#
# Indices 1 2 3 4 5 6 
#
# 1 -0.065044 0.034527 -0.001464 0.000000 0.034437 0.000000
# 2 0.034527 0.004369 -0.001094 0.000000 -0.018867 0.000000
# 3 -0.001464 -0.001094 0.010066 0.000000 -0.003290 0.000000
# 4 0.000000 0.000000 0.000000 0.067411 0.000000 0.026769
# 5 0.034437 -0.018867 -0.003290 0.000000 0.031832 0.000000
# 6 0.000000 0.000000 0.000000 0.026769 0.000000 0.062706
#
#
# Mechanical properties :
#
#
# Convention : Reuss Voigt Hill
#
# Bulk Modulus (GPa) = 75.03115 25.79180 50.41148
# Shear Modulus (GPa) = 96.44134 19.04222 57.74178
#
# Velocity S-wave (km/s) = 7.39372 3.28542 5.72106
# Velocity P-wave (km/s) = 10.74339 5.38627 8.49801
#
# Compressibility (1/GPa) = 0.01332780
#
# Stress axis : x y z
#
# Youngs Moduli (GPa) = -15.37419 228.90037 99.34375
#
# Poissons Ratio (x) = -7.90329 0.14549
# Poissons Ratio (y) = 0.53083 0.10870
# Poissons Ratio (z) = -0.02252 0.25045
#
# Static dielectric constant tensor:
#      x y z
#    x 1.605280 0.000000 -0.006730 
#    y 0.000000 1.634000 0.000000 
#    z -0.006730 0.000000 1.668500 
# 
# From -- ./inp_files/86278.got.cif
#   From: 2010.05.17/outbox.ucp.g08.bks.cvg/sg10_44_cif.got.tgz:86278.got - 2010.06.11 11:31:16.
