data_PCOD9155256
_publ_section_title
;
Structure prediction by ZEFSAII (Michael W. Deem and Ramdas Pophale) SiO2 
 PCOD9155256
Probable space group: P 2/M
;
_chemical_formula_sum "Si O2"
_cell_formula_units_Z 32
_cell_length_a 15.000000
_cell_length_b 9.000000
_cell_length_c 24.000000
_cell_angle_alpha 90.000000
_cell_angle_beta 150.000000
_cell_angle_gamma 90.000000
_cell_volume 1620.000000
_symmetry_space_group_name_H-M "P 2/M"
_symmetry_group_IT_number 10
_symmetry_cell_setting 'monoclinic'
loop_
_space_group_symop_operation_xyz
x,y,z
-x,y,-z
-x,-y,-z
x,-y,z
loop_
_atom_site_type_symbol
_atom_site_label
_atom_site_fract_x
_atom_site_fract_y
_atom_site_fract_z
Si Si1 0.950955 0.822226 0.216135
Si Si2 0.816359 0.819124 0.430480
Si Si3 0.567632 0.819123 0.976091
Si Si4 0.451964 0.330195 0.539195
Si Si5 0.160942 0.327551 0.239514
Si Si6 0.130650 0.823865 0.417494
Si Si7 0.513213 0.819742 0.822877
Si Si8 0.114251 0.676952 0.008585
O O1 0.113685 0.771011 0.266686
O O2 0.973714 0.767735 0.291889
O O3 0.944319 0.000000 0.214671
O O4 0.773656 0.772007 0.089107
O O5 0.837103 0.760405 0.504192
O O6 0.646518 0.768239 0.303369
O O7 0.000000 0.783546 0.500000
O O8 0.801796 0.000000 0.424821
O O9 0.486011 0.772075 0.872862
O O10 0.555056 0.000000 0.969826
O O11 0.500000 0.768899 0.000000
O O12 0.500000 0.322191 0.500000
O O13 0.389600 0.500000 0.516208
O O14 0.638005 0.303774 0.671558
O O15 0.308890 0.211770 0.480277
O O16 0.150719 0.500000 0.251488
O O17 0.017133 0.300595 0.114433
O O18 0.101952 0.000000 0.408308
O O19 0.701236 0.759993 0.902339
O O20 0.517668 0.000000 0.825147
O O21 0.149177 0.500000 0.033368
O O22 0.000000 0.726836 0.000000
#
# Coordination Sequence:
#
# PCOD9155256 Si02
#       8
#     4   4   4   4   4   4   4   4
#     4  10  19  32  52  79 108 135 171 221 268 310
#     4   9  20  37  56  80 111 146 182 223 271 321
#     4   9  18  31  52  81 106 132 170 217 267 314
#     4  10  20  34  52  75 104 140 178 213 258 319
#     4  10  20  35  53  74 105 142 177 214 264 322
#     4  10  21  34  52  79 108 140 179 220 266 312
#     4  10  20  36  58  83 110 141 182 227 268 316
#     4  10  22  38  56  78 108 147 183 219 271 328
#
# _framework density 19.753086
#
# number of rings (size 3 to 8) (size 9 to 14) (size 15 to 20)
#    0.000    2.250    2.500    0.000    3.500    1.000 
#    0.000    0.000    0.000    3.000    0.000    0.000 
#    0.000    0.000    0.000    0.000    0.000    0.000 
#
# Total GULP energy -178243.566681 kJ/mol
# GULP energy per Si atom -5570.111459 kJ/mol
# Density = 1.970813 g / cm^3
# Si number density = 19.753086 Si / 1000 Ang^3
#
#
#
# Elastic Constant Matrix: (Units=GPa)
#
#
# Indices 1 2 3 4 5 6 
#
# 1 64.0530 4.4629 -16.3395 0.0000 -22.6953 0.0000
# 2 4.4629 -14.5576 15.8498 0.0000 -12.2830 0.0000
# 3 -16.3395 15.8498 21.1235 0.0000 -12.7437 0.0000
# 4 0.0000 0.0000 0.0000 -113.8826 0.0000 96.2088
# 5 -22.6953 -12.2830 -12.7437 0.0000 18.5888 0.0000
# 6 0.0000 0.0000 0.0000 96.2088 0.0000 -45.6260
#
#
#
# Elastic Compliance Matrix: (Units=1/GPa)
#
#
# Indices 1 2 3 4 5 6 
#
# 1 -0.023215 -0.007357 -0.055371 0.000000 -0.071165 0.000000
# 2 -0.007357 -0.039192 0.004560 0.000000 -0.031753 0.000000
# 3 -0.055371 0.004560 -0.064593 0.000000 -0.108872 0.000000
# 4 0.000000 0.000000 0.000000 0.011238 0.000000 0.023696
# 5 -0.071165 -0.031753 -0.108872 0.000000 -0.128711 0.000000
# 6 0.000000 0.000000 0.000000 0.023696 0.000000 0.028049
#
#
# Mechanical properties :
#
#
# Convention : Reuss Voigt Hill
#
# Bulk Modulus (GPa) = -4.10955 8.72949 2.30997
# Shear Modulus (GPa) = -27.59384 -23.74092 -25.66738
#
# Velocity S-wave (km/s) = -3.74162 -3.47058 -3.60865
# Velocity P-wave (km/s) = 4.55535 3.41043 4.02382
#
# Compressibility (1/GPa) = -0.24333560
#
# Stress axis : x y z
#
# Youngs Moduli (GPa) = -43.07521 -25.51560 -15.48157
#
# Poissons Ratio (x) = -0.18772 -0.85722
# Poissons Ratio (y) = -0.31690 0.07059
# Poissons Ratio (z) = -2.38510 0.11634
#
# Static dielectric constant tensor:
#      x y z
#    x 1.711320 0.000000 -0.017820 
#    y 0.000000 1.664960 0.000000 
#    z -0.017820 0.000000 1.760360 
# 
# From -- ./inp_files/89593.got.cif
#   From: 2010.05.17/outbox.ucp.g08.bks.cvg/sg10_45_cif.got.tgz:89593.got - 2010.06.11 11:31:16.
