data_PCOD9155287
_publ_section_title
;
Structure prediction by ZEFSAII (Michael W. Deem and Ramdas Pophale) SiO2 
 PCOD9155287
Probable space group: P 2/M
;
_chemical_formula_sum "Si O2"
_cell_formula_units_Z 32
_cell_length_a 27.000000
_cell_length_b 9.000000
_cell_length_c 21.000000
_cell_angle_alpha 90.000000
_cell_angle_beta 20.000000
_cell_angle_gamma 90.000000
_cell_volume 1745.328791
_symmetry_space_group_name_H-M "P 2/M"
_symmetry_group_IT_number 10
_symmetry_cell_setting 'monoclinic'
loop_
_space_group_symop_operation_xyz
x,y,z
-x,y,-z
-x,-y,-z
x,-y,z
loop_
_atom_site_type_symbol
_atom_site_label
_atom_site_fract_x
_atom_site_fract_y
_atom_site_fract_z
Si Si1 0.862019 0.321282 0.026281
Si Si2 0.500778 0.667753 0.247191
Si Si3 0.735063 0.176757 0.303671
Si Si4 0.565266 0.328812 0.319520
Si Si5 0.179700 0.323291 0.665966
Si Si6 0.725218 0.172354 0.895924
Si Si7 0.655740 0.679517 0.844773
Si Si8 0.016303 0.329452 0.557889
O O1 0.857266 0.500000 0.034838
O O2 0.826430 0.251661 0.137471
O O3 0.726723 0.278036 0.144292
O O4 0.030761 0.281829 0.810099
O O5 0.533385 0.500000 0.183191
O O6 0.541715 0.668110 0.272146
O O7 0.329537 0.695747 0.446755
O O8 0.596462 0.792025 0.099359
O O9 0.568813 0.230480 0.494540
O O10 0.795103 0.235671 0.298704
O O11 0.743357 0.000000 0.291354
O O12 0.545879 0.500000 0.365474
O O13 0.172665 0.500000 0.690095
O O14 0.673634 0.255518 0.893938
O O15 0.875312 0.233474 0.744963
O O16 0.744378 0.000000 0.858335
O O17 0.653784 0.500000 0.849489
O O18 0.819783 0.717712 0.619827
O O19 0.500000 0.724008 0.000000
O O20 0.996278 0.500000 0.603113
O O21 0.000000 0.328622 0.500000
#
# Coordination Sequence:
#
# PCOD9155287 Si02
#       8
#     4   4   4   4   4   4   4   4
#     4  10  19  33  53  75  97 122 160 209 259 305
#     4   9  18  35  54  70  94 130 173 212 245 288
#     4  11  21  31  47  73 103 133 163 197 246 308
#     4   9  19  35  54  73  94 125 165 211 254 292
#     4   9  19  35  54  73  95 128 168 211 253 295
#     4  11  21  32  51  77 105 138 170 200 241 294
#     4   9  18  34  56  81 107 134 166 206 248 285
#     4   8  15  30  52  76 101 130 166 204 238 276
#
# _framework density 18.334654
#
# number of rings (size 3 to 8) (size 9 to 14) (size 15 to 20)
#    0.000    2.500    0.000    4.500    0.000    8.500 
#    0.000    1.250    0.000    4.500    0.000    0.000 
#    0.000    0.000    0.000    0.000    0.000    0.000 
#
# Total GULP energy -178166.335111 kJ/mol
# GULP energy per Si atom -5567.697972 kJ/mol
# Density = 1.829292 g / cm^3
# Si number density = 18.334654 Si / 1000 Ang^3
#
#
#
# Elastic Constant Matrix: (Units=GPa)
#
#
# Indices 1 2 3 4 5 6 
#
# 1 32.7049 6.8828 39.3795 0.0000 -28.7231 0.0000
# 2 6.8828 -1.5033 24.0748 0.0000 -10.6101 0.0000
# 3 39.3795 24.0748 117.6965 0.0000 -45.4767 0.0000
# 4 0.0000 0.0000 0.0000 269.2535 0.0000 6.7188
# 5 -28.7231 -10.6101 -45.4767 0.0000 38.8809 0.0000
# 6 0.0000 0.0000 0.0000 6.7188 0.0000 9.8223
#
#
#
# Elastic Compliance Matrix: (Units=1/GPa)
#
#
# Indices 1 2 3 4 5 6 
#
# 1 0.086336 -0.026549 -0.002940 0.000000 0.053096 0.000000
# 2 -0.026549 -0.145492 0.028691 0.000000 -0.025758 0.000000
# 3 -0.002940 0.028691 0.010578 0.000000 0.018030 0.000000
# 4 0.000000 0.000000 0.000000 0.003778 0.000000 -0.002585
# 5 0.053096 -0.025758 0.018030 0.000000 0.079003 0.000000
# 6 0.000000 0.000000 0.000000 -0.002585 0.000000 0.103577
#
#
# Mechanical properties :
#
#
# Convention : Reuss Voigt Hill
#
# Bulk Modulus (GPa) = -19.93007 32.17470 6.12232
# Shear Modulus (GPa) = 40.76558 68.82873 54.79715
#
# Velocity S-wave (km/s) = 4.72043 6.13366 5.47285
# Velocity P-wave (km/s) = 4.33776 8.23098 6.57895
#
# Compressibility (1/GPa) = -0.05017545
#
# Stress axis : x y z
#
# Youngs Moduli (GPa) = 11.58267 -6.87321 94.53583
#
# Poissons Ratio (x) = -0.18248 0.27797
# Poissons Ratio (y) = 0.30751 -2.71230
# Poissons Ratio (z) = 0.03406 0.19720
#
# Static dielectric constant tensor:
#      x y z
#    x 1.620210 0.000000 0.011590 
#    y 0.000000 1.623920 0.000000 
#    z 0.011590 0.000000 1.707970 
# 
# From -- ./inp_files/86907.got.cif
#   From: 2010.05.17/outbox.ucp.g08.bks.cvg/sg10_44_cif.got.tgz:86907.got - 2010.06.11 11:31:16.
