data_PCOD9155453
_publ_section_title
;
Structure prediction by ZEFSAII (Michael W. Deem and Ramdas Pophale) SiO2 
 PCOD9155453
Probable space group: P 2/M
;
_chemical_formula_sum "Si O2"
_cell_formula_units_Z 32
_cell_length_a 15.000000
_cell_length_b 9.000000
_cell_length_c 24.000000
_cell_angle_alpha 90.000000
_cell_angle_beta 150.000000
_cell_angle_gamma 90.000000
_cell_volume 1620.000000
_symmetry_space_group_name_H-M "P 2/M"
_symmetry_group_IT_number 10
_symmetry_cell_setting 'monoclinic'
loop_
_space_group_symop_operation_xyz
x,y,z
-x,y,-z
-x,-y,-z
x,-y,z
loop_
_atom_site_type_symbol
_atom_site_label
_atom_site_fract_x
_atom_site_fract_y
_atom_site_fract_z
Si Si1 0.295957 0.180565 0.647058
Si Si2 0.675927 0.678798 0.059917
Si Si3 0.236241 0.322646 0.234377
Si Si4 0.839681 0.321724 0.035279
Si Si5 0.429888 0.169352 0.524994
Si Si6 0.297913 0.178813 0.151370
Si Si7 0.016477 0.820769 0.301248
Si Si8 0.953471 0.179512 0.392864
O O1 0.494185 0.227300 0.740142
O O2 0.141462 0.229193 0.520856
O O3 0.215730 0.230301 0.662954
O O4 0.300275 0.000000 0.648827
O O5 0.681771 0.500000 0.068353
O O6 0.692474 0.714581 0.002953
O O7 0.863500 0.745521 0.182232
O O8 0.500000 0.729379 0.000000
O O9 0.252317 0.500000 0.240781
O O10 0.417432 0.256863 0.358988
O O11 0.219302 0.254054 0.163716
O O12 0.047770 0.287315 0.163272
O O13 0.832973 0.500000 0.022259
O O14 0.794271 0.235142 0.954561
O O15 0.500000 0.163283 0.500000
O O16 0.225222 0.225996 0.411512
O O17 0.421163 0.000000 0.543501
O O18 0.287185 0.000000 0.149856
O O19 0.951194 0.783463 0.327870
O O20 0.014952 0.000000 0.291512
O O21 0.955469 0.000000 0.398452
#
# Coordination Sequence:
#
# PCOD9155453 Si02
#       8
#     4   4   4   4   4   4   4   4
#     4   8  15  28  47  75 109 143 177 219 275 336
#     4  10  23  42  61  82 113 155 197 241 293 345
#     4  11  23  39  60  85 117 159 201 238 283 348
#     4  10  23  42  59  79 113 155 199 242 289 350
#     4  10  21  37  59  89 123 153 187 240 299 344
#     4  11  22  35  58  88 116 149 194 244 297 345
#     4  10  20  34  57  86 114 146 187 235 288 344
#     4   8  14  27  48  74 108 143 176 219 273 333
#
# _framework density 19.753086
#
# number of rings (size 3 to 8) (size 9 to 14) (size 15 to 20)
#    0.000    2.250    0.000    3.375    1.750    6.000 
#    0.000    0.000    0.000    0.000    0.000    3.500 
#    0.000    0.000    0.000    0.000    0.000    0.000 
#
# Total GULP energy -178411.196286 kJ/mol
# GULP energy per Si atom -5575.349884 kJ/mol
# Density = 1.970813 g / cm^3
# Si number density = 19.753086 Si / 1000 Ang^3
#
#
#
# Elastic Constant Matrix: (Units=GPa)
#
#
# Indices 1 2 3 4 5 6 
#
# 1 110.4391 27.6374 52.8969 0.0000 11.4541 0.0000
# 2 27.6374 25.6711 28.9781 0.0000 1.7133 0.0000
# 3 52.8969 28.9781 73.6901 0.0000 7.7438 0.0000
# 4 0.0000 0.0000 0.0000 18.6778 0.0000 -2.7953
# 5 11.4541 1.7133 7.7438 0.0000 33.0336 0.0000
# 6 0.0000 0.0000 0.0000 -2.7953 0.0000 15.9856
#
#
#
# Elastic Compliance Matrix: (Units=1/GPa)
#
#
# Indices 1 2 3 4 5 6 
#
# 1 0.014735 -0.007336 -0.007377 0.000000 -0.002999 0.000000
# 2 -0.007336 0.073972 -0.024286 0.000000 0.004400 0.000000
# 3 -0.007377 -0.024286 0.028722 0.000000 -0.002916 0.000000
# 4 0.000000 0.000000 0.000000 0.054978 0.000000 0.009614
# 5 -0.002999 0.004400 -0.002916 0.000000 0.031768 0.000000
# 6 0.000000 0.000000 0.000000 0.009614 0.000000 0.064237
#
#
# Mechanical properties :
#
#
# Convention : Reuss Voigt Hill
#
# Bulk Modulus (GPa) = 25.35981 47.64723 36.50352
# Shear Modulus (GPa) = 13.90608 20.22527 17.06567
#
# Velocity S-wave (km/s) = 2.65617 3.20332 2.94249
# Velocity P-wave (km/s) = 4.71946 6.15268 5.48310
#
# Compressibility (1/GPa) = 0.03943247
#
# Stress axis : x y z
#
# Youngs Moduli (GPa) = 67.86485 13.51855 34.81592
#
# Poissons Ratio (x) = 0.09917 0.25685
# Poissons Ratio (y) = 0.49785 0.84552
# Poissons Ratio (z) = 0.50066 0.32831
#
# Static dielectric constant tensor:
#      x y z
#    x 1.738100 0.000000 -0.017580 
#    y 0.000000 1.669890 0.000000 
#    z -0.017580 0.000000 1.716870 
# 
# From -- ./inp_files/89599.got.cif
#   From: 2010.05.17/outbox.ucp.g08.bks.cvg/sg10_45_cif.got.tgz:89599.got - 2010.06.11 11:31:16.
