data_PCOD9155140
_publ_section_title
;
Structure prediction by ZEFSAII (Michael W. Deem and Ramdas Pophale) SiO2 
 PCOD9155140
Probable space group: P 2/M
;
_chemical_formula_sum "Si O2"
_cell_formula_units_Z 32
_cell_length_a 12.000000
_cell_length_b 9.000000
_cell_length_c 21.000000
_cell_angle_alpha 90.000000
_cell_angle_beta 60.000000
_cell_angle_gamma 90.000000
_cell_volume 1964.145616
_symmetry_space_group_name_H-M "P 2/M"
_symmetry_group_IT_number 10
_symmetry_cell_setting 'monoclinic'
loop_
_space_group_symop_operation_xyz
x,y,z
-x,y,-z
-x,-y,-z
x,-y,z
loop_
_atom_site_type_symbol
_atom_site_label
_atom_site_fract_x
_atom_site_fract_y
_atom_site_fract_z
Si Si1 0.806914 0.680429 0.456102
Si Si2 0.945782 0.321584 0.785049
Si Si3 0.083181 0.179570 0.344030
Si Si4 0.924816 0.181861 0.929415
Si Si5 0.248144 0.676635 0.669024
Si Si6 0.300050 0.320143 0.372243
Si Si7 0.405472 0.319502 0.745641
Si Si8 0.188224 0.318063 0.911989
O O1 0.824423 0.500000 0.448961
O O2 0.738751 0.726520 0.408452
O O3 0.731592 0.713810 0.543659
O O4 0.947509 0.756570 0.410497
O O5 0.919161 0.500000 0.794363
O O6 0.100510 0.303580 0.733349
O O7 0.896127 0.247405 0.733275
O O8 0.902080 0.243294 0.863755
O O9 0.194967 0.238361 0.358642
O O10 0.079110 0.000000 0.342448
O O11 0.064596 0.248901 0.910231
O O12 0.925129 0.000000 0.931024
O O13 0.828026 0.248195 0.011897
O O14 0.273239 0.500000 0.659815
O O15 0.336177 0.737423 0.700730
O O16 0.286763 0.500000 0.369851
O O17 0.443633 0.279666 0.305821
O O18 0.401743 0.500000 0.746181
O O19 0.316935 0.280264 0.833182
O O20 0.177474 0.500000 0.918042
#
# Coordination Sequence:
#
# PCOD9155140 Si02
#       8
#     4   4   4   4   4   4   4   4
#     4   9  18  32  53  77 102 132 172 220 265 305
#     4  10  18  33  56  79 103 132 168 213 261 309
#     4  11  22  35  52  75 102 134 173 218 264 308
#     4  11  20  30  48  79 111 137 168 209 256 307
#     4   8  14  27  48  76 102 128 163 209 257 300
#     4  10  20  34  52  75 101 136 179 220 258 303
#     4   9  17  30  51  76 104 136 176 217 253 302
#     4  10  18  31  50  74 105 144 178 211 251 299
#
# _framework density 16.292071
#
# number of rings (size 3 to 8) (size 9 to 14) (size 15 to 20)
#    0.000    2.250    1.250    4.875    0.000    2.500 
#    0.000    3.750    0.000    0.750    0.000    7.875 
#    0.000    0.000    0.000    0.000    0.000    0.000 
#
# Total GULP energy -178231.609254 kJ/mol
# GULP energy per Si atom -5569.737789 kJ/mol
# Density = 1.625499 g / cm^3
# Si number density = 16.292071 Si / 1000 Ang^3
#
#
#
# Elastic Constant Matrix: (Units=GPa)
#
#
# Indices 1 2 3 4 5 6 
#
# 1 63.2102 23.5526 54.9941 0.0000 0.8656 0.0000
# 2 23.5526 83.2302 47.0532 0.0000 5.0089 0.0000
# 3 54.9941 47.0532 178.0815 0.0000 7.8716 0.0000
# 4 0.0000 0.0000 0.0000 23.4792 0.0000 5.3617
# 5 0.8656 5.0089 7.8716 0.0000 28.2106 0.0000
# 6 0.0000 0.0000 0.0000 5.3617 0.0000 15.2789
#
#
#
# Elastic Compliance Matrix: (Units=1/GPa)
#
#
# Indices 1 2 3 4 5 6 
#
# 1 0.022251 -0.002900 -0.006174 0.000000 0.001555 0.000000
# 2 -0.002900 0.014564 -0.002878 0.000000 -0.001694 0.000000
# 3 -0.006174 -0.002878 0.008354 0.000000 -0.001631 0.000000
# 4 0.000000 0.000000 0.000000 0.046301 0.000000 -0.016248
# 5 0.001555 -0.001694 -0.001631 0.000000 0.036156 0.000000
# 6 0.000000 0.000000 0.000000 -0.016248 0.000000 0.071152
#
#
# Mechanical properties :
#
#
# Convention : Reuss Voigt Hill
#
# Bulk Modulus (GPa) = 47.02223 63.96908 55.49565
# Shear Modulus (GPa) = 21.76084 26.65520 24.20802
#
# Velocity S-wave (km/s) = 3.65865 4.04924 3.85889
# Velocity P-wave (km/s) = 6.83903 7.82374 7.34790
#
# Compressibility (1/GPa) = 0.02126654
#
# Stress axis : x y z
#
# Youngs Moduli (GPa) = 44.94212 68.66067 119.69626
#
# Poissons Ratio (x) = 0.19910 0.73899
# Poissons Ratio (y) = 0.13032 0.34447
# Poissons Ratio (z) = 0.27747 0.19760
#
# Static dielectric constant tensor:
#      x y z
#    x 1.557030 0.000000 0.017450 
#    y 0.000000 1.542950 0.000000 
#    z 0.017450 0.000000 1.561840 
# 
# From -- ./inp_files/54920.got.cif
#   From: 2010.05.17/outbox.ucp.g08.bks.cvg/sg10_28_cif.got.tgz:54920.got - 2010.06.11 11:31:16.
