data_PCOD9155213
_publ_section_title
;
Structure prediction by ZEFSAII (Michael W. Deem and Ramdas Pophale) SiO2 
 PCOD9155213
Probable space group: P 2/M
;
_chemical_formula_sum "Si O2"
_cell_formula_units_Z 28
_cell_length_a 9.000000
_cell_length_b 9.000000
_cell_length_c 30.000000
_cell_angle_alpha 90.000000
_cell_angle_beta 40.000000
_cell_angle_gamma 90.000000
_cell_volume 1561.973892
_symmetry_space_group_name_H-M "P 2/M"
_symmetry_group_IT_number 10
_symmetry_cell_setting 'monoclinic'
loop_
_space_group_symop_operation_xyz
x,y,z
-x,y,-z
-x,-y,-z
x,-y,z
loop_
_atom_site_type_symbol
_atom_site_label
_atom_site_fract_x
_atom_site_fract_y
_atom_site_fract_z
Si Si1 0.952807 0.321350 0.287787
Si Si2 0.384445 0.179402 0.707437
Si Si3 0.032489 0.172292 0.858838
Si Si4 0.675413 0.827199 0.856815
Si Si5 0.319594 0.672143 0.999708
Si Si6 0.079138 0.821581 0.432125
Si Si7 0.764466 0.320839 0.428999
O O1 0.964148 0.500000 0.283013
O O2 0.761395 0.260230 0.297334
O O3 0.868370 0.276858 0.356762
O O4 0.195165 0.254603 0.213718
O O5 0.652870 0.213117 0.639146
O O6 0.273701 0.221784 0.780892
O O7 0.351815 0.000000 0.710721
O O8 0.855620 0.180637 0.857236
O O9 0.916385 0.260819 0.925945
O O10 0.050111 0.000000 0.867885
O O11 0.640897 0.000000 0.854044
O O12 0.441825 0.755929 0.930475
O O13 0.290719 0.500000 0.995205
O O14 0.500000 0.682106 0.000000
O O15 0.000000 0.776913 0.500000
O O16 0.922453 0.744254 0.431429
O O17 0.052328 0.000000 0.435164
O O18 0.500000 0.273588 0.500000
O O19 0.768236 0.500000 0.429368
#
# Coordination Sequence:
#
# PCOD9155213 Si02
#       7
#     4   4   4   4   4   4   4
#     4  10  19  31  49  73 100 131 169 209 247 293
#     4   9  18  32  49  72 102 133 166 206 252 299
#     4   8  14  24  38  58  89 127 161 196 242 293
#     4   9  16  26  41  62  92 129 164 200 247 296
#     4   9  15  22  35  59  91 124 161 203 242 285
#     4  10  21  36  55  79 103 129 166 209 249 293
#     4  10  22  38  54  75 103 134 167 203 247 299
#
# _framework density 17.926036
#
# number of rings (size 3 to 8) (size 9 to 14) (size 15 to 20)
#    0.000    2.714    0.000    3.000    0.000    7.429 
#    0.000    0.000    0.000    0.000    0.000    1.000 
#    0.000    8.000    0.000    0.000    0.000    0.000 
#
# Total GULP energy -156067.693378 kJ/mol
# GULP energy per Si atom -5573.846192 kJ/mol
# Density = 1.788524 g / cm^3
# Si number density = 17.926036 Si / 1000 Ang^3
#
#
#
# Elastic Constant Matrix: (Units=GPa)
#
#
# Indices 1 2 3 4 5 6 
#
# 1 48.5604 30.2827 60.9149 0.0000 7.4473 0.0000
# 2 30.2827 62.3291 80.3621 0.0000 6.4382 0.0000
# 3 60.9149 80.3621 233.0248 0.0000 9.2666 0.0000
# 4 0.0000 0.0000 0.0000 28.4256 0.0000 4.2011
# 5 7.4473 6.4382 9.2666 0.0000 18.8049 0.0000
# 6 0.0000 0.0000 0.0000 4.2011 0.0000 17.4162
#
#
#
# Elastic Compliance Matrix: (Units=1/GPa)
#
#
# Indices 1 2 3 4 5 6 
#
# 1 0.034248 -0.008442 -0.005729 0.000000 -0.007850 0.000000
# 2 -0.008442 0.031454 -0.008512 0.000000 -0.003231 0.000000
# 3 -0.005729 -0.008512 0.008689 0.000000 0.000902 0.000000
# 4 0.000000 0.000000 0.000000 0.036480 0.000000 -0.008800
# 5 -0.007850 -0.003231 0.000902 0.000000 0.056948 0.000000
# 6 0.000000 0.000000 0.000000 -0.008800 0.000000 0.059541
#
#
# Mechanical properties :
#
#
# Convention : Reuss Voigt Hill
#
# Bulk Modulus (GPa) = 34.45373 76.33709 55.39541
# Shear Modulus (GPa) = 17.70531 24.41961 21.06246
#
# Velocity S-wave (km/s) = 3.14616 3.69486 3.43149
# Velocity P-wave (km/s) = 5.69732 7.80254 6.83151
#
# Compressibility (1/GPa) = 0.02902443
#
# Stress axis : x y z
#
# Youngs Moduli (GPa) = 29.19867 31.79258 115.09088
#
# Poissons Ratio (x) = 0.26838 0.65940
# Poissons Ratio (y) = 0.24649 0.97967
# Poissons Ratio (z) = 0.16729 0.27062
#
# Static dielectric constant tensor:
#      x y z
#    x 1.590850 0.000000 -0.012270 
#    y 0.000000 1.604620 0.000000 
#    z -0.012270 0.000000 1.637160 
# 
# From -- ./inp_files/37934.got.cif
#   From: 2010.05.17/outbox.ucp.g08.bks.cvg/sg10_19_cif.got.tgz:37934.got - 2010.06.11 11:31:16.
