data_PCOD9155371
_publ_section_title
;
Structure prediction by ZEFSAII (Michael W. Deem and Ramdas Pophale) SiO2 
 PCOD9155371
Probable space group: P 2/M
;
_chemical_formula_sum "Si O2"
_cell_formula_units_Z 32
_cell_length_a 12.000000
_cell_length_b 9.000000
_cell_length_c 30.000000
_cell_angle_alpha 90.000000
_cell_angle_beta 30.000000
_cell_angle_gamma 90.000000
_cell_volume 1620.000000
_symmetry_space_group_name_H-M "P 2/M"
_symmetry_group_IT_number 10
_symmetry_cell_setting 'monoclinic'
loop_
_space_group_symop_operation_xyz
x,y,z
-x,y,-z
-x,-y,-z
x,-y,z
loop_
_atom_site_type_symbol
_atom_site_label
_atom_site_fract_x
_atom_site_fract_y
_atom_site_fract_z
Si Si1 0.672042 0.681320 0.478187
Si Si2 0.107613 0.327103 0.917646
Si Si3 0.255412 0.329054 0.035130
Si Si4 0.993950 0.173139 0.203642
Si Si5 0.481460 0.320833 0.638467
Si Si6 0.649731 0.173381 0.847134
Si Si7 0.176133 0.678123 0.297933
Si Si8 0.546526 0.319679 0.715504
O O1 0.500000 0.731735 0.500000
O O2 0.666442 0.500000 0.480614
O O3 0.607586 0.731502 0.550326
O O4 0.921939 0.724461 0.379394
O O5 0.163474 0.500000 0.909666
O O6 0.329336 0.263007 0.817797
O O7 0.925086 0.326576 0.942070
O O8 0.000000 0.260929 0.000000
O O9 0.283584 0.500000 0.039580
O O10 0.163540 0.231420 0.107343
O O11 0.476529 0.262487 0.937275
O O12 0.114056 0.187119 0.209582
O O13 0.773596 0.270835 0.277255
O O14 0.942714 0.000000 0.213553
O O15 0.493773 0.500000 0.634187
O O16 0.562851 0.267386 0.658947
O O17 0.668527 0.242607 0.791806
O O18 0.588503 0.000000 0.866827
O O19 0.195828 0.500000 0.284785
O O20 0.247729 0.711812 0.323618
O O21 0.523359 0.500000 0.720830
#
# Coordination Sequence:
#
# PCOD9155371 Si02
#       8
#     4   4   4   4   4   4   4   4
#     4   9  18  32  54  87 118 143 183 239 286 327
#     4   9  16  28  49  77 109 141 178 227 273 317
#     4  11  21  35  58  84 110 147 191 233 282 339
#     4  11  23  38  55  79 115 152 188 234 283 336
#     4  10  19  35  59  83 113 149 187 236 285 338
#     4  11  24  39  54  78 115 153 188 234 286 334
#     4  10  20  36  59  84 111 147 189 232 283 339
#     4   9  17  31  53  83 113 143 186 234 282 332
#
# _framework density 19.753086
#
# number of rings (size 3 to 8) (size 9 to 14) (size 15 to 20)
#    0.000    2.000    1.250    3.000    0.000    7.000 
#    0.000    3.750    0.000    3.750    0.000    1.750 
#    0.000    0.000    0.000    0.000    0.000    0.000 
#
# Total GULP energy -178572.391526 kJ/mol
# GULP energy per Si atom -5580.387235 kJ/mol
# Density = 1.970813 g / cm^3
# Si number density = 19.753086 Si / 1000 Ang^3
#
#
#
# Elastic Constant Matrix: (Units=GPa)
#
#
# Indices 1 2 3 4 5 6 
#
# 1 32.9839 -0.6716 -17.9801 0.0000 16.4314 0.0000
# 2 -0.6716 -0.1402 -19.2445 0.0000 6.4319 0.0000
# 3 -17.9801 -19.2445 28.4407 0.0000 20.6009 0.0000
# 4 0.0000 0.0000 0.0000 -25.5425 0.0000 -24.4474
# 5 16.4314 6.4319 20.6009 0.0000 36.7422 0.0000
# 6 0.0000 0.0000 0.0000 -24.4474 0.0000 -16.6932
#
#
#
# Elastic Compliance Matrix: (Units=1/GPa)
#
#
# Indices 1 2 3 4 5 6 
#
# 1 0.030848 -0.038667 -0.002647 0.000000 -0.005542 0.000000
# 2 -0.038667 0.017393 -0.038722 0.000000 0.035958 0.000000
# 3 -0.002647 -0.038722 0.002557 0.000000 0.006529 0.000000
# 4 0.000000 0.000000 0.000000 0.097456 0.000000 -0.142725
# 5 -0.005542 0.035958 0.006529 0.000000 0.019740 0.000000
# 6 0.000000 0.000000 0.000000 -0.142725 0.000000 0.149119
#
#
# Mechanical properties :
#
#
# Convention : Reuss Voigt Hill
#
# Bulk Modulus (GPa) = -9.15127 -1.61201 -5.38164
# Shear Modulus (GPa) = 11.34404 5.51337 8.42870
#
# Velocity S-wave (km/s) = 2.39904 1.67248 2.06792
# Velocity P-wave (km/s) = 1.74096 1.70638 1.72376
#
# Compressibility (1/GPa) = -0.10927441
#
# Stress axis : x y z
#
# Youngs Moduli (GPa) = 32.41668 57.49310 391.15263
#
# Poissons Ratio (x) = 2.22308 1.03552
# Poissons Ratio (y) = 1.25345 15.14623
# Poissons Ratio (z) = 0.08582 2.22625
#
# Static dielectric constant tensor:
#      x y z
#    x 1.713440 0.000000 -0.010190 
#    y 0.000000 1.680440 0.000000 
#    z -0.010190 0.000000 1.692990 
# 
# From -- ./inp_files/63774.got.cif
#   From: 2010.05.17/outbox.ucp.g08.bks.cvg/sg10_32_cif.got.tgz:63774.got - 2010.06.11 11:31:16.
