data_PCOD9155004
_publ_section_title
;
Structure prediction by ZEFSAII (Michael W. Deem and Ramdas Pophale) SiO2 
 PCOD9155004
Probable space group: P 2/M
;
_chemical_formula_sum "Si O2"
_cell_formula_units_Z 32
_cell_length_a 21.933109
_cell_length_b 7.401291
_cell_length_c 21.933115
_cell_angle_alpha 90.000000
_cell_angle_beta 25.535495
_cell_angle_gamma 90.000000
_cell_volume 1534.814746
_symmetry_space_group_name_H-M "P 2/M"
_symmetry_group_IT_number 10
_symmetry_cell_setting 'monoclinic'
loop_
_space_group_symop_operation_xyz
x,y,z
-x,y,-z
-x,-y,-z
x,-y,z
loop_
_atom_site_type_symbol
_atom_site_label
_atom_site_fract_x
_atom_site_fract_y
_atom_site_fract_z
Si Si1 0.561095 0.279218 0.379199
Si Si2 0.064744 0.216613 0.251274
Si Si3 0.694176 0.220315 0.875216
Si Si4 0.120800 0.720782 0.938905
Si Si5 0.248726 0.216613 0.435256
Si Si6 0.624784 0.220315 0.805824
Si Si7 0.320148 0.284903 0.504841
Si Si8 0.004842 0.284903 0.820147
O O1 0.500000 0.225056 0.500000
O O2 0.563640 0.500000 0.376401
O O3 0.450750 0.217950 0.427007
O O4 0.721857 0.220358 0.221857
O O5 0.186339 0.284377 0.186293
O O6 0.910121 0.285630 0.410122
O O7 0.080063 0.254380 0.165778
O O8 0.062410 0.000000 0.259518
O O9 0.708038 0.275227 0.791962
O O10 0.696528 0.000000 0.873552
O O11 0.538071 0.274178 0.038071
O O12 0.123600 0.500000 0.936360
O O13 0.072993 0.782050 0.049251
O O14 0.000000 0.774944 0.000000
O O15 0.313707 0.284378 0.313661
O O16 0.334222 0.254378 0.419936
O O17 0.240482 0.000000 0.437589
O O18 0.626448 0.000000 0.803472
O O19 0.315451 0.500000 0.518500
O O20 0.165278 0.213718 0.665277
O O21 0.018502 0.500000 0.815450
#
# Coordination Sequence:
#
# PCOD9155004 Si02
#       8
#     4   4   4   4   4   4   4   4
#     4   9  16  26  42  64  87 110 139 175 211 245
#     4   9  17  28  43  64  87 110 138 173 210 246
#     4   8  14  25  41  61  84 109 138 173 211 248
#     4   9  16  26  42  64  87 110 139 175 211 245
#     4   9  17  28  43  64  87 110 138 173 210 246
#     4   8  14  25  41  61  84 109 138 173 211 248
#     4   9  17  29  44  62  86 114 140 168 206 250
#     4   9  17  29  44  62  86 114 140 168 206 250
#
# _framework density 20.849423000000002
#
# number of rings (size 3 to 8) (size 9 to 14) (size 15 to 20)
#    0.000    3.250    0.000    1.500    0.000    4.500 
#    0.000    2.500    0.000    1.500    0.000    5.250 
#    0.000    0.000    0.000    0.000    0.000    0.000 
#
# Total GULP energy -178535.074657 kJ/mol
# GULP energy per Si atom -5579.221083 kJ/mol
# Density = 2.080197 g / cm^3
# Si number density = 20.849423 Si / 1000 Ang^3
#
#
#
# Elastic Constant Matrix: (Units=GPa)
#
#
# Indices 1 2 3 4 5 6 
#
# 1 247.1103 0.4688 140.5603 0.0000 7.7548 0.0000
# 2 0.4688 69.9325 4.7987 0.0000 -1.2495 0.0000
# 3 140.5603 4.7987 145.2462 0.0000 21.6527 0.0000
# 4 0.0000 0.0000 0.0000 -3.8995 0.0000 5.5767
# 5 7.7548 -1.2495 21.6527 0.0000 35.8337 0.0000
# 6 0.0000 0.0000 0.0000 5.5767 0.0000 15.4188
#
#
#
# Elastic Compliance Matrix: (Units=1/GPa)
#
#
# Indices 1 2 3 4 5 6 
#
# 1 0.009489 0.000677 -0.009784 0.000000 0.003882 0.000000
# 2 0.000677 0.014405 -0.001301 0.000000 0.001142 0.000000
# 3 -0.009784 -0.001301 0.017680 0.000000 -0.008611 0.000000
# 4 0.000000 0.000000 0.000000 -0.169019 0.000000 0.061132
# 5 0.003882 0.001142 -0.008611 0.000000 0.032310 0.000000
# 6 0.000000 0.000000 0.000000 0.061132 0.000000 0.042745
#
#
# Mechanical properties :
#
#
# Convention : Reuss Voigt Hill
#
# Bulk Modulus (GPa) = 48.17652 83.77163 65.97407
# Shear Modulus (GPa) = -202.79180 30.56803 -86.11189
#
# Velocity S-wave (km/s) = -9.87300 3.83317 -6.43362
# Velocity P-wave (km/s) = 10.33495 7.73676 4.84529
#
# Compressibility (1/GPa) = 0.02075700
#
# Stress axis : x y z
#
# Youngs Moduli (GPa) = 105.38675 69.42189 56.56190
#
# Poissons Ratio (x) = -0.04701 0.55339
# Poissons Ratio (y) = -0.07136 0.07361
# Poissons Ratio (z) = 1.03109 0.09035
#
# Static dielectric constant tensor:
#      x y z
#    x 1.721800 0.000000 0.001970 
#    y 0.000000 1.821070 0.000000 
#    z 0.001970 0.000000 1.714990 
# 
# From -- ./inp_files/78931.got.cif
#   From: 2010.05.17/outbox.cif.g08.bks.cpg/sg10_40_cif.got.tgz:78931.got - 2010.06.03 11:33:40.
