data_PCOD9155971
_publ_section_title
;
Structure prediction by ZEFSAII (Michael W. Deem and Ramdas Pophale) SiO2 
 PCOD9155971
Probable space group: P 21/M
;
_chemical_formula_sum "Si O2"
_cell_formula_units_Z 20
_cell_length_a 10.486848
_cell_length_b 8.773634
_cell_length_c 16.035913
_cell_angle_alpha 90.000000
_cell_angle_beta 118.380585
_cell_angle_gamma 90.000000
_cell_volume 1298.096321
_symmetry_space_group_name_H-M "P 21/M"
_symmetry_group_IT_number 11
_symmetry_cell_setting 'monoclinic'
loop_
_space_group_symop_operation_xyz
x,y,z
-x,1/2+y,-z
-x,-y,-z
x,1/2-y,z
loop_
_atom_site_type_symbol
_atom_site_label
_atom_site_fract_x
_atom_site_fract_y
_atom_site_fract_z
Si Si1 0.080443 0.568222 0.604526
Si Si2 0.093549 0.567866 0.954004
Si Si3 0.415800 0.432104 0.053605
Si Si4 0.058443 0.425887 0.768862
Si Si5 0.347240 0.073961 0.764973
O O1 0.081188 0.750000 0.603052
O O2 0.007345 0.508072 0.668090
O O3 0.245237 0.503952 0.663658
O O4 0.000000 0.500000 0.500000
O O5 0.095933 0.750000 0.957840
O O6 0.029962 0.512044 0.845422
O O7 0.256521 0.503070 0.010260
O O8 0.000000 0.500000 0.000000
O O9 0.408204 0.250000 0.044836
O O10 0.512906 0.482207 0.163166
O O11 0.500000 0.500000 0.000000
O O12 0.233117 0.425419 0.807306
O O13 0.011557 0.250000 0.757402
O O14 0.379649 0.250000 0.755379
#
# Coordination Sequence:
#
# PCOD9155971 Si02
#       5
#     4   4   4   4   4
#     4  10  17  28  46  72 102 132 164 208 260 305
#     4  12  24  37  52  73 103 140 176 213 255 306
#     4  12  21  32  50  73 100 134 171 211 255 303
#     4   9  18  32  48  70 100 130 166 208 250 299
#     4   9  18  30  46  70  98 127 163 204 249 297
#
# _framework density 15.407177000000001
#
# number of rings (size 3 to 8) (size 9 to 14) (size 15 to 20)
#    1.200    0.400    2.000    6.000    0.000    0.000 
#    0.000    0.000    0.000    0.000    0.000    1.400 
#    0.000    0.000    0.000    0.000    0.000    0.000 
#
# Total GULP energy -111367.284746 kJ/mol
# GULP energy per Si atom -5568.364237 kJ/mol
# Density = 1.537211 g / cm^3
# Si number density = 15.407177 Si / 1000 Ang^3
#
#
#
# Elastic Constant Matrix: (Units=GPa)
#
#
# Indices 1 2 3 4 5 6 
#
# 1 71.6671 46.6482 44.9721 0.0000 -6.3252 0.0000
# 2 46.6482 189.4772 76.0536 0.0000 -5.9906 0.0000
# 3 44.9721 76.0536 145.2913 0.0000 -4.8566 0.0000
# 4 0.0000 0.0000 0.0000 31.4372 0.0000 0.2089
# 5 -6.3252 -5.9906 -4.8566 0.0000 16.7523 0.0000
# 6 0.0000 0.0000 0.0000 0.2089 0.0000 21.2090
#
#
#
# Elastic Compliance Matrix: (Units=1/GPa)
#
#
# Indices 1 2 3 4 5 6 
#
# 1 0.018845 -0.002797 -0.004205 0.000000 0.004896 0.000000
# 2 -0.002797 0.007129 -0.002844 0.000000 0.000669 0.000000
# 3 -0.004205 -0.002844 0.009680 0.000000 0.000201 0.000000
# 4 0.000000 0.000000 0.000000 0.031812 0.000000 -0.000313
# 5 0.004896 0.000669 0.000201 0.000000 0.061840 0.000000
# 6 0.000000 0.000000 0.000000 -0.000313 0.000000 0.047153
#
#
# Mechanical properties :
#
#
# Convention : Reuss Voigt Hill
#
# Bulk Modulus (GPa) = 62.64941 82.42038 72.53489
# Shear Modulus (GPa) = 24.81768 29.79714 27.30741
#
# Velocity S-wave (km/s) = 4.01781 4.40247 4.21453
# Velocity P-wave (km/s) = 7.89142 8.91366 8.41807
#
# Compressibility (1/GPa) = 0.01596184
#
# Stress axis : x y z
#
# Youngs Moduli (GPa) = 53.06478 140.27761 103.30948
#
# Poissons Ratio (x) = 0.39231 0.43447
# Poissons Ratio (y) = 0.14841 0.29377
# Poissons Ratio (z) = 0.22316 0.39889
#
# Static dielectric constant tensor:
#      x y z
#    x 1.490810 0.000000 0.001940 
#    y 0.000000 1.508840 0.000000 
#    z 0.001940 0.000000 1.528260 
# 
# From -- ./inp_files/48844.got.cif
#   From: 2010.05.17/outbox.cif.g08.bks.cpg/sg11_25_cif.got.tgz:48844.got - 2010.06.03 12:22:45.
