data_PCOD9155574
_publ_section_title
;
Structure prediction by ZEFSAII (Michael W. Deem and Ramdas Pophale) SiO2 
 PCOD9155574
Probable space group: P 2/M
;
_chemical_formula_sum "Si O2"
_cell_formula_units_Z 32
_cell_length_a 15.000000
_cell_length_b 9.000000
_cell_length_c 15.000000
_cell_angle_alpha 90.000000
_cell_angle_beta 60.000000
_cell_angle_gamma 90.000000
_cell_volume 1753.701443
_symmetry_space_group_name_H-M "P 2/M"
_symmetry_group_IT_number 10
_symmetry_cell_setting 'monoclinic'
loop_
_space_group_symop_operation_xyz
x,y,z
-x,y,-z
-x,-y,-z
x,-y,z
loop_
_atom_site_type_symbol
_atom_site_label
_atom_site_fract_x
_atom_site_fract_y
_atom_site_fract_z
Si Si1 0.213160 0.678755 0.733584
Si Si2 0.011845 0.319633 0.214998
Si Si3 0.676085 0.177283 0.159869
Si Si4 0.615092 0.820899 0.478524
Si Si5 0.560757 0.177849 0.701486
Si Si6 0.240442 0.321204 0.055253
Si Si7 0.704238 0.322257 0.769000
Si Si8 0.931933 0.681267 0.615479
O O1 0.216475 0.500000 0.730291
O O2 0.096585 0.728591 0.770619
O O3 0.247582 0.740145 0.811568
O O4 0.295564 0.742525 0.621843
O O5 0.011586 0.500000 0.214750
O O6 0.119316 0.277716 0.114594
O O7 0.022276 0.271976 0.312551
O O8 0.559361 0.216743 0.244778
O O9 0.687528 0.000000 0.161740
O O10 0.698675 0.233506 0.049763
O O11 0.500000 0.786104 0.500000
O O12 0.616439 0.777388 0.581856
O O13 0.626822 0.000000 0.464670
O O14 0.612382 0.247909 0.762023
O O15 0.566816 0.000000 0.704515
O O16 0.247015 0.500000 0.038277
O O17 0.284326 0.289381 0.131915
O O18 0.695681 0.500000 0.765221
O O19 0.812853 0.274430 0.671085
O O20 0.932760 0.500000 0.614592
O O21 0.000000 0.734819 0.500000
#
# Coordination Sequence:
#
# PCOD9155574 Si02
#       8
#     4   4   4   4   4   4   4   4
#     4  11  22  35  57  88 113 140 183 233 274 321
#     4   8  17  33  52  79 114 145 174 217 279 332
#     4  11  23  40  58  78 107 149 191 226 274 333
#     4  10  20  39  58  74 110 156 186 219 273 331
#     4  10  22  38  56  77 109 151 186 220 272 332
#     4   9  19  39  60  81 111 145 180 227 282 326
#     4   9  19  34  56  84 111 139 178 230 276 317
#     4   8  14  27  49  77 109 142 174 213 265 324
#
# _framework density 18.247119999999999
#
# number of rings (size 3 to 8) (size 9 to 14) (size 15 to 20)
#    0.000    2.500    1.250    2.250    1.750    3.250 
#    0.000    6.250    0.000    1.875    0.000    0.000 
#    0.000    0.000    0.000    0.000    0.000    0.000 
#
# Total GULP energy -178472.008417 kJ/mol
# GULP energy per Si atom -5577.250263 kJ/mol
# Density = 1.820559 g / cm^3
# Si number density = 18.247120 Si / 1000 Ang^3
#
#
#
# Elastic Constant Matrix: (Units=GPa)
#
#
# Indices 1 2 3 4 5 6 
#
# 1 72.2473 14.3783 -17.1688 0.0000 16.8200 0.0000
# 2 14.3783 14.0271 10.0308 0.0000 4.5766 0.0000
# 3 -17.1688 10.0308 48.8965 0.0000 11.2699 0.0000
# 4 0.0000 0.0000 0.0000 37.0135 0.0000 -48.5306
# 5 16.8200 4.5766 11.2699 0.0000 3.0381 0.0000
# 6 0.0000 0.0000 0.0000 -48.5306 0.0000 189.2706
#
#
#
# Elastic Compliance Matrix: (Units=1/GPa)
#
#
# Indices 1 2 3 4 5 6 
#
# 1 -0.000040 -0.010837 -0.011065 0.000000 0.057594 0.000000
# 2 -0.010837 0.111374 -0.012498 0.000000 -0.061414 0.000000
# 3 -0.011065 -0.012498 0.004625 0.000000 0.062933 0.000000
# 4 0.000000 0.000000 0.000000 0.040700 0.000000 0.010436
# 5 0.057594 -0.061414 0.062933 0.000000 -0.130646 0.000000
# 6 0.000000 0.000000 0.000000 0.010436 0.000000 0.007959
#
#
# Mechanical properties :
#
#
# Convention : Reuss Voigt Hill
#
# Bulk Modulus (GPa) = 21.20525 16.62795 18.91660
# Shear Modulus (GPa) = 42.19673 54.39314 48.29493
#
# Velocity S-wave (km/s) = 4.81408 5.46570 5.15021
# Velocity P-wave (km/s) = 6.52279 6.99745 6.76429
#
# Compressibility (1/GPa) = 0.04715813
#
# Stress axis : x y z
#
# Youngs Moduli (GPa) = -25046.92435 8.97877 216.22736
#
# Poissons Ratio (x) = 0.09730 2.39262
# Poissons Ratio (y) = -271.43607 2.70238
# Poissons Ratio (z) = -277.15198 0.11222
#
# Static dielectric constant tensor:
#      x y z
#    x 1.619990 0.000000 0.004120 
#    y 0.000000 1.607640 0.000000 
#    z 0.004120 0.000000 1.626400 
# 
# From -- ./inp_files/66556.got.cif
#   From: 2010.05.17/outbox.ucp.g08.bks.cvg/sg10_34_cif.got.tgz:66556.got - 2010.06.11 11:31:16.
