data_PCOD9155099
_publ_section_title
;
Structure prediction by ZEFSAII (Michael W. Deem and Ramdas Pophale) SiO2 
 PCOD9155099
Probable space group: P 2/M
;
_chemical_formula_sum "Si O2"
_cell_formula_units_Z 32
_cell_length_a 27.000000
_cell_length_b 9.000000
_cell_length_c 21.000000
_cell_angle_alpha 90.000000
_cell_angle_beta 160.000000
_cell_angle_gamma 90.000000
_cell_volume 1745.328791
_symmetry_space_group_name_H-M "P 2/M"
_symmetry_group_IT_number 10
_symmetry_cell_setting 'monoclinic'
loop_
_space_group_symop_operation_xyz
x,y,z
-x,y,-z
-x,-y,-z
x,-y,z
loop_
_atom_site_type_symbol
_atom_site_label
_atom_site_fract_x
_atom_site_fract_y
_atom_site_fract_z
Si Si1 0.360678 0.178844 0.901685
Si Si2 0.042555 0.178157 0.883876
Si Si3 0.858376 0.679182 0.868060
Si Si4 0.734320 0.179379 0.464692
Si Si5 0.319299 0.678061 0.728317
Si Si6 0.715977 0.179036 0.919548
Si Si7 0.466750 0.323353 0.534668
Si Si8 0.595300 0.179710 0.905670
O O1 0.269326 0.255905 0.735670
O O2 0.364644 0.000000 0.898074
O O3 0.522301 0.246841 0.090256
O O4 0.325766 0.215265 0.932546
O O5 0.872099 0.213926 0.674910
O O6 0.054910 0.000000 0.906633
O O7 0.119838 0.259118 0.035138
O O8 0.130852 0.220594 0.926864
O O9 0.858029 0.500000 0.868960
O O10 0.698939 0.724723 0.651252
O O11 0.000000 0.728779 0.000000
O O12 0.763375 0.261105 0.432925
O O13 0.574979 0.225845 0.297517
O O14 0.730392 0.000000 0.449852
O O15 0.328953 0.500000 0.741452
O O16 0.585739 0.236451 0.718274
O O17 0.680735 0.235213 0.947677
O O18 0.712261 0.000000 0.916348
O O19 0.500000 0.301879 0.500000
O O20 0.478917 0.500000 0.562273
O O21 0.589994 0.000000 0.896456
#
# Coordination Sequence:
#
# PCOD9155099 Si02
#       8
#     4   4   4   4   4   4   4   4
#     4   9  15  27  47  69  99 136 166 198 246 300
#     4  10  21  35  53  76 102 130 167 208 251 299
#     4  10  22  38  54  73 101 133 166 205 251 300
#     4   9  18  33  49  69  99 134 166 200 247 303
#     4  10  17  26  44  73 102 128 163 209 249 288
#     4  10  20  34  53  77 101 129 165 210 251 291
#     4  10  20  36  54  72  97 132 169 203 243 300
#     4   8  16  30  49  72  98 128 163 201 245 291
#
# _framework density 18.334654
#
# number of rings (size 3 to 8) (size 9 to 14) (size 15 to 20)
#    0.000    2.500    1.250    3.000    1.750    1.500 
#    0.000    3.125    0.000    0.750    0.000    5.250 
#    0.000    0.000    0.000    0.000    0.000    0.000 
#
# Total GULP energy -178235.328573 kJ/mol
# GULP energy per Si atom -5569.854018 kJ/mol
# Density = 1.829292 g / cm^3
# Si number density = 18.334654 Si / 1000 Ang^3
#
#
#
# Elastic Constant Matrix: (Units=GPa)
#
#
# Indices 1 2 3 4 5 6 
#
# 1 84.9791 3.1197 -7.2462 0.0000 8.0852 0.0000
# 2 3.1197 24.6269 -4.2475 0.0000 -0.4824 0.0000
# 3 -7.2462 -4.2475 9.8768 0.0000 11.1195 0.0000
# 4 0.0000 0.0000 0.0000 6.6436 0.0000 10.0171
# 5 8.0852 -0.4824 11.1195 0.0000 24.7403 0.0000
# 6 0.0000 0.0000 0.0000 10.0171 0.0000 -13.6502
#
#
#
# Elastic Compliance Matrix: (Units=1/GPa)
#
#
# Indices 1 2 3 4 5 6 
#
# 1 0.017685 0.004744 0.043356 0.000000 -0.025173 0.000000
# 2 0.004744 0.048248 0.050437 0.000000 -0.023279 0.000000
# 3 0.043356 0.050437 0.343295 0.000000 -0.167479 0.000000
# 4 0.000000 0.000000 0.000000 0.071456 0.000000 0.052438
# 5 -0.025173 -0.023279 -0.167479 0.000000 0.123466 0.000000
# 6 0.000000 0.000000 0.000000 0.052438 0.000000 -0.034778
#
#
# Mechanical properties :
#
#
# Convention : Reuss Voigt Hill
#
# Bulk Modulus (GPa) = 1.64934 11.41498 6.53216
# Shear Modulus (GPa) = 8.70474 12.07053 10.38763
#
# Velocity S-wave (km/s) = 2.18129 2.56861 2.38283
# Velocity P-wave (km/s) = 2.69175 3.87768 3.33781
#
# Compressibility (1/GPa) = 0.60630259
#
# Stress axis : x y z
#
# Youngs Moduli (GPa) = 56.54381 20.72618 2.91294
#
# Poissons Ratio (x) = -0.09833 -0.12629
# Poissons Ratio (y) = -0.26826 -0.14692
# Poissons Ratio (z) = -2.45149 -1.04537
#
# Static dielectric constant tensor:
#      x y z
#    x 1.699870 0.000000 -0.017880 
#    y 0.000000 1.601860 0.000000 
#    z -0.017880 0.000000 1.622470 
# 
# From -- ./inp_files/86938.got.cif
#   From: 2010.05.17/outbox.ucp.g08.bks.cvg/sg10_44_cif.got.tgz:86938.got - 2010.06.11 11:31:16.
