data_PCOD9155837
_publ_section_title
;
Structure prediction by ZEFSAII (Michael W. Deem and Ramdas Pophale) SiO2 
 PCOD9155837
Probable space group: P 21/M
;
_chemical_formula_sum "Si O2"
_cell_formula_units_Z 24
_cell_length_a 9.637327
_cell_length_b 14.800333
_cell_length_c 14.808241
_cell_angle_alpha 90.000000
_cell_angle_beta 139.159121
_cell_angle_gamma 90.000000
_cell_volume 1381.284362
_symmetry_space_group_name_H-M "P 21/M"
_symmetry_group_IT_number 11
_symmetry_cell_setting 'monoclinic'
loop_
_space_group_symop_operation_xyz
x,y,z
-x,1/2+y,-z
-x,-y,-z
x,1/2-y,z
loop_
_atom_site_type_symbol
_atom_site_label
_atom_site_fract_x
_atom_site_fract_y
_atom_site_fract_z
Si Si1 0.701768 0.437507 0.611193
Si Si2 0.187006 0.049369 0.818680
Si Si3 0.676965 0.250000 0.504602
Si Si4 0.968024 0.250000 0.936675
Si Si5 0.527578 0.549543 0.869741
Si Si6 0.453414 0.250000 0.200617
Si Si7 0.794725 0.056890 0.867981
Si Si8 0.119465 0.250000 0.796223
O O1 0.500000 0.500000 0.500000
O O2 0.629394 0.340260 0.537651
O O3 0.758542 0.442215 0.743878
O O4 0.933332 0.460657 0.682410
O O5 0.238309 0.156649 0.838585
O O6 0.317621 0.988980 0.813466
O O7 0.280665 0.030384 0.964647
O O8 0.576884 0.250000 0.356294
O O9 0.931751 0.250000 0.630791
O O10 0.018486 0.250000 0.850495
O O11 0.845552 0.161756 0.909742
O O12 0.201726 0.250000 0.093834
O O13 0.507649 0.655597 0.833958
O O14 0.594894 0.490224 0.816972
O O15 0.000000 0.000000 0.000000
#
# Coordination Sequence:
#
# PCOD9155837 Si02
#       8
#     4   4   2   2   4   2   4   2
#     4  11  21  38  61  86 120 159 200 245 295 363
#     4  10  20  38  61  87 119 159 198 240 315 353
#     4  10  22  36  57  85 116 163 197 232 310 364
#     4  12  20  35  64  82 124 151 206 255 284 356
#     4  11  22  35  63  90 121 151 203 259 290 355
#     4  12  20  38  57  91 116 166 199 242 305 357
#     4  12  20  37  59  92 114 153 206 248 289 344
#     4  10  16  41  58  80 112 166 186 235 305 369
#
# _framework density 17.375132000000001
#
# number of rings (size 3 to 8) (size 9 to 14) (size 15 to 20)
#    0.000    1.000    8.333    1.000    0.000    0.667 
#    0.000    9.167    0.000    0.000    0.000    0.000 
#    0.000    0.000    0.000    0.000    0.000    0.000 
#
# Total GULP energy -133630.664298 kJ/mol
# GULP energy per Si atom -5567.944346 kJ/mol
# Density = 1.733559 g / cm^3
# Si number density = 17.375132 Si / 1000 Ang^3
#
#
#
# Elastic Constant Matrix: (Units=GPa)
#
#
# Indices 1 2 3 4 5 6 
#
# 1 88.7778 68.0038 25.8868 0.0000 3.6117 0.0000
# 2 68.0038 154.1483 23.5673 0.0000 13.4653 0.0000
# 3 25.8868 23.5673 81.7790 0.0000 3.5855 0.0000
# 4 0.0000 0.0000 0.0000 28.1563 0.0000 1.7612
# 5 3.6117 13.4653 3.5855 0.0000 23.7696 0.0000
# 6 0.0000 0.0000 0.0000 1.7612 0.0000 21.5787
#
#
#
# Elastic Compliance Matrix: (Units=1/GPa)
#
#
# Indices 1 2 3 4 5 6 
#
# 1 0.018050 -0.007594 -0.003618 0.000000 0.002105 0.000000
# 2 -0.007594 0.010296 -0.000361 0.000000 -0.004625 0.000000
# 3 -0.003618 -0.000361 0.013534 0.000000 -0.001287 0.000000
# 4 0.000000 0.000000 0.000000 0.035698 0.000000 -0.002914
# 5 0.002105 -0.004625 -0.001287 0.000000 0.044565 0.000000
# 6 0.000000 0.000000 0.000000 -0.002914 0.000000 0.046580
#
#
# Mechanical properties :
#
#
# Convention : Reuss Voigt Hill
#
# Bulk Modulus (GPa) = 53.37306 62.18010 57.77658
# Shear Modulus (GPa) = 25.23819 28.51740 26.87779
#
# Velocity S-wave (km/s) = 3.81536 4.05566 3.93735
# Velocity P-wave (km/s) = 7.08478 7.60235 7.34812
#
# Compressibility (1/GPa) = 0.01873604
#
# Stress axis : x y z
#
# Youngs Moduli (GPa) = 55.40136 97.12110 73.89007
#
# Poissons Ratio (x) = 0.73751 0.26730
# Poissons Ratio (y) = 0.42070 0.02665
# Poissons Ratio (z) = 0.20042 0.03503
#
# Static dielectric constant tensor:
#      x y z
#    x 1.635430 0.000000 -0.044820 
#    y 0.000000 1.646200 0.000000 
#    z -0.044820 0.000000 1.820290 
# 
# From -- ./inp_files/47736.got.cif
#   From: 2010.05.17/outbox.cif.g08.bks.cpg/sg11_24_cif.got.tgz:47736.got - 2010.06.03 12:22:45.
