data_PCOD9155419
_publ_section_title
;
Structure prediction by ZEFSAII (Michael W. Deem and Ramdas Pophale) SiO2 
 PCOD9155419
Probable space group: P 2/M
;
_chemical_formula_sum "Si O2"
_cell_formula_units_Z 32
_cell_length_a 12.000000
_cell_length_b 9.000000
_cell_length_c 21.000000
_cell_angle_alpha 90.000000
_cell_angle_beta 130.000000
_cell_angle_gamma 90.000000
_cell_volume 1737.388797
_symmetry_space_group_name_H-M "P 2/M"
_symmetry_group_IT_number 10
_symmetry_cell_setting 'monoclinic'
loop_
_space_group_symop_operation_xyz
x,y,z
-x,y,-z
-x,-y,-z
x,-y,z
loop_
_atom_site_type_symbol
_atom_site_label
_atom_site_fract_x
_atom_site_fract_y
_atom_site_fract_z
Si Si1 0.805776 0.825704 0.371417
Si Si2 0.471800 0.826667 0.216442
Si Si3 0.644184 0.678100 0.699025
Si Si4 0.949383 0.822700 0.764262
Si Si5 0.250246 0.674564 0.894557
Si Si6 0.485577 0.325607 0.093946
Si Si7 0.042996 0.325380 0.368868
Si Si8 0.319973 0.673899 0.550802
O O1 0.647289 0.808598 0.280943
O O2 0.765026 0.766245 0.426485
O O3 0.931635 0.735062 0.381684
O O4 0.844669 0.000000 0.387217
O O5 0.397335 0.731984 0.244997
O O6 0.429167 0.768919 0.131962
O O7 0.440129 0.000000 0.215661
O O8 0.662405 0.500000 0.702238
O O9 0.490382 0.717034 0.606037
O O10 0.795412 0.752918 0.731855
O O11 0.099927 0.761263 0.850499
O O12 0.972519 0.770733 0.700012
O O13 0.941692 0.000000 0.767267
O O14 0.214887 0.500000 0.872103
O O15 0.355301 0.723079 0.874302
O O16 0.363899 0.684131 0.994499
O O17 0.500251 0.500000 0.116755
O O18 0.011773 0.500000 0.346331
O O19 0.212408 0.314451 0.451716
O O20 0.321675 0.500000 0.571389
#
# Coordination Sequence:
#
# PCOD9155419 Si02
#       8
#     4   4   4   4   4   4   4   4
#     4  10  20  33  52  82 117 147 176 218 273 325
#     4  10  20  34  54  82 114 145 179 220 268 321
#     4  10  21  40  61  77 101 141 186 229 271 317
#     4  12  25  39  55  79 110 142 180 224 273 324
#     4   9  19  37  59  84 114 146 179 217 263 315
#     4   9  18  34  59  88 114 142 179 219 260 314
#     4  11  22  36  55  79 108 143 184 226 269 322
#     4   9  20  37  57  80 105 140 185 228 270 319
#
# _framework density 18.418444999999998
#
# number of rings (size 3 to 8) (size 9 to 14) (size 15 to 20)
#    0.000    2.000    0.000    4.500    0.000    8.000 
#    0.000    4.375    0.000    3.750    0.000    0.000 
#    0.000    0.000    0.000    0.000    0.000    0.000 
#
# Total GULP energy -178455.107183 kJ/mol
# GULP energy per Si atom -5576.722099 kJ/mol
# Density = 1.837652 g / cm^3
# Si number density = 18.418445 Si / 1000 Ang^3
#
#
#
# Elastic Constant Matrix: (Units=GPa)
#
#
# Indices 1 2 3 4 5 6 
#
# 1 94.2666 42.7168 27.8081 0.0000 42.1967 0.0000
# 2 42.7168 85.6769 30.1456 0.0000 18.8887 0.0000
# 3 27.8081 30.1456 50.7041 0.0000 13.0183 0.0000
# 4 0.0000 0.0000 0.0000 47.5680 0.0000 -13.4125
# 5 42.1967 18.8887 13.0183 0.0000 25.2716 0.0000
# 6 0.0000 0.0000 0.0000 -13.4125 0.0000 44.6724
#
#
#
# Elastic Compliance Matrix: (Units=1/GPa)
#
#
# Indices 1 2 3 4 5 6 
#
# 1 0.045775 -0.006164 -0.003456 0.000000 -0.070045 0.000000
# 2 -0.006164 0.016937 -0.007008 0.000000 0.001244 0.000000
# 3 -0.003456 -0.007008 0.026457 0.000000 -0.002620 0.000000
# 4 0.000000 0.000000 0.000000 0.022967 0.000000 0.006896
# 5 -0.070045 0.001244 -0.002620 0.000000 0.156946 0.000000
# 6 0.000000 0.000000 0.000000 0.006896 0.000000 0.024456
#
#
# Mechanical properties :
#
#
# Convention : Reuss Voigt Hill
#
# Bulk Modulus (GPa) = 17.88517 47.99872 32.94195
# Shear Modulus (GPa) = 14.47462 32.16752 23.32107
#
# Velocity S-wave (km/s) = 2.80639 4.18363 3.56220
# Velocity P-wave (km/s) = 4.49807 7.03233 5.90281
#
# Compressibility (1/GPa) = 0.05591223
#
# Stress axis : x y z
#
# Youngs Moduli (GPa) = 21.84583 59.04310 37.79703
#
# Poissons Ratio (x) = 0.36396 0.13063
# Poissons Ratio (y) = 0.13466 0.26489
# Poissons Ratio (z) = 0.07550 0.41379
#
# Static dielectric constant tensor:
#      x y z
#    x 1.595280 0.000000 -0.009220 
#    y 0.000000 1.622920 0.000000 
#    z -0.009220 0.000000 1.708430 
# 
# From -- ./inp_files/83649.got.cif
#   From: 2010.05.17/outbox.ucp.g08.bks.cvg/sg10_42_cif.got.tgz:83649.got - 2010.06.11 11:31:16.
