data_PCOD9155315
_publ_section_title
;
Structure prediction by ZEFSAII (Michael W. Deem and Ramdas Pophale) SiO2 
 PCOD9155315
Probable space group: P 2/M
;
_chemical_formula_sum "Si O2"
_cell_formula_units_Z 32
_cell_length_a 21.000000
_cell_length_b 9.000000
_cell_length_c 12.000000
_cell_angle_alpha 90.000000
_cell_angle_beta 50.000000
_cell_angle_gamma 90.000000
_cell_volume 1737.388797
_symmetry_space_group_name_H-M "P 2/M"
_symmetry_group_IT_number 10
_symmetry_cell_setting 'monoclinic'
loop_
_space_group_symop_operation_xyz
x,y,z
-x,y,-z
-x,-y,-z
x,-y,z
loop_
_atom_site_type_symbol
_atom_site_label
_atom_site_fract_x
_atom_site_fract_y
_atom_site_fract_z
Si Si1 0.624809 0.674863 0.297775
Si Si2 0.770200 0.675089 0.548207
Si Si3 0.456636 0.822837 0.824790
Si Si4 0.094355 0.825867 0.013837
Si Si5 0.386140 0.675356 0.431498
Si Si6 0.699681 0.178491 0.854455
Si Si7 0.784570 0.672364 0.968503
Si Si8 0.104971 0.173790 0.752257
O O1 0.600898 0.500000 0.319533
O O2 0.574802 0.765113 0.260658
O O3 0.614606 0.724327 0.437482
O O4 0.717685 0.686288 0.144440
O O5 0.780628 0.500000 0.558757
O O6 0.702860 0.694011 0.525169
O O7 0.733826 0.750950 0.701404
O O8 0.852693 0.742651 0.398398
O O9 0.548654 0.757461 0.721884
O O10 0.458180 0.000000 0.823823
O O11 0.392826 0.775902 0.995214
O O12 0.132181 0.731528 0.070486
O O13 0.994952 0.818340 0.135017
O O14 0.118146 0.000000 0.997192
O O15 0.125122 0.773882 0.856363
O O16 0.406329 0.500000 0.409467
O O17 0.756435 0.231683 0.894293
O O18 0.700512 0.000000 0.843213
O O19 0.787425 0.500000 0.932541
O O20 0.128802 0.000000 0.718073
#
# Coordination Sequence:
#
# PCOD9155315 Si02
#       8
#     4   4   4   4   4   4   4   4
#     4   9  18  33  52  76 109 143 171 207 263 323
#     4  11  23  38  56  79 106 138 181 226 267 314
#     4  10  21  35  53  78 104 134 177 224 264 308
#     4   9  18  34  57  85 115 145 176 209 255 318
#     4  10  21  35  52  76 107 141 173 212 267 324
#     4  10  22  40  57  74 103 142 181 223 271 319
#     4  10  19  33  56  83 109 140 180 223 265 311
#     4   9  19  36  57  82 114 148 176 209 259 315
#
# _framework density 18.418444999999998
#
# number of rings (size 3 to 8) (size 9 to 14) (size 15 to 20)
#    0.000    2.250    0.000    3.375    0.000    7.500 
#    0.000    4.375    0.000    3.750    0.000    0.000 
#    0.000    0.000    0.000    0.000    0.000    0.000 
#
# Total GULP energy -178396.355742 kJ/mol
# GULP energy per Si atom -5574.886117 kJ/mol
# Density = 1.837652 g / cm^3
# Si number density = 18.418445 Si / 1000 Ang^3
#
#
#
# Elastic Constant Matrix: (Units=GPa)
#
#
# Indices 1 2 3 4 5 6 
#
# 1 20.7794 11.0761 17.3546 0.0000 -3.9744 0.0000
# 2 11.0761 46.6083 46.4224 0.0000 -0.3784 0.0000
# 3 17.3546 46.4224 143.4851 0.0000 20.3921 0.0000
# 4 0.0000 0.0000 0.0000 82.1229 0.0000 53.2517
# 5 -3.9744 -0.3784 20.3921 0.0000 15.3512 0.0000
# 6 0.0000 0.0000 0.0000 53.2517 0.0000 83.7185
#
#
#
# Elastic Compliance Matrix: (Units=1/GPa)
#
#
# Indices 1 2 3 4 5 6 
#
# 1 0.065682 -0.004397 -0.010999 0.000000 0.031508 0.000000
# 2 -0.004397 0.036420 -0.013827 0.000000 0.018127 0.000000
# 3 -0.010999 -0.013827 0.016305 0.000000 -0.024847 0.000000
# 4 0.000000 0.000000 0.000000 0.020725 0.000000 -0.013183
# 5 0.031508 0.018127 -0.024847 0.000000 0.106751 0.000000
# 6 0.000000 0.000000 0.000000 -0.013183 0.000000 0.020330
#
#
# Mechanical properties :
#
#
# Convention : Reuss Voigt Hill
#
# Bulk Modulus (GPa) = 16.67847 40.06434 28.37141
# Shear Modulus (GPa) = 14.50760 45.30650 29.90705
#
# Velocity S-wave (km/s) = 2.80959 4.96506 4.03396
# Velocity P-wave (km/s) = 4.42719 7.39382 6.09379
#
# Compressibility (1/GPa) = 0.05995752
#
# Stress axis : x y z
#
# Youngs Moduli (GPa) = 15.22498 27.45761 61.33226
#
# Poissons Ratio (x) = 0.12074 0.67461
# Poissons Ratio (y) = 0.06695 0.84806
# Poissons Ratio (z) = 0.16746 0.37967
#
# Static dielectric constant tensor:
#      x y z
#    x 1.671720 0.000000 -0.040400 
#    y 0.000000 1.631750 0.000000 
#    z -0.040400 0.000000 1.623000 
# 
# From -- ./inp_files/55286.got.cif
#   From: 2010.05.17/outbox.ucp.g08.bks.cvg/sg10_28_cif.got.tgz:55286.got - 2010.06.11 11:31:16.
