data_PCOD9155268
_publ_section_title
;
Structure prediction by ZEFSAII (Michael W. Deem and Ramdas Pophale) SiO2 
 PCOD9155268
Probable space group: P 2/M
;
_chemical_formula_sum "Si O2"
_cell_formula_units_Z 28
_cell_length_a 15.000000
_cell_length_b 9.000000
_cell_length_c 12.000000
_cell_angle_alpha 90.000000
_cell_angle_beta 60.000000
_cell_angle_gamma 90.000000
_cell_volume 1402.961154
_symmetry_space_group_name_H-M "P 2/M"
_symmetry_group_IT_number 10
_symmetry_cell_setting 'monoclinic'
loop_
_space_group_symop_operation_xyz
x,y,z
-x,y,-z
-x,-y,-z
x,-y,z
loop_
_atom_site_type_symbol
_atom_site_label
_atom_site_fract_x
_atom_site_fract_y
_atom_site_fract_z
Si Si1 0.846902 0.177821 0.418501
Si Si2 0.405568 0.669542 0.706687
Si Si3 0.804305 0.823283 0.688370
Si Si4 0.378590 0.321571 0.082275
Si Si5 0.053103 0.178439 0.185868
Si Si6 0.370970 0.669011 0.464588
Si Si7 0.746140 0.821884 0.044963
O O1 0.865286 0.212013 0.537319
O O2 0.732021 0.237291 0.476657
O O3 0.938023 0.236922 0.281362
O O4 0.845748 0.000000 0.406746
O O5 0.396706 0.500000 0.756563
O O6 0.394603 0.661316 0.581252
O O7 0.522327 0.723478 0.658364
O O8 0.314475 0.770407 0.808838
O O9 0.695059 0.739608 0.772269
O O10 0.879729 0.793642 0.744706
O O11 0.782165 0.000000 0.702550
O O12 0.373448 0.500000 0.085187
O O13 0.500000 0.280089 0.000000
O O14 0.320925 0.252504 0.011302
O O15 0.042588 0.000000 0.179386
O O16 0.133961 0.227289 0.039853
O O17 0.353028 0.500000 0.435831
O O18 0.743688 0.000000 0.034074
#
# Coordination Sequence:
#
# PCOD9155268 Si02
#       7
#     4   4   4   4   4   4   4
#     4  10  19  32  54  80 105 135 174 217 260 302
#     4   9  19  38  58  74 101 139 172 208 261 319
#     4   9  18  32  51  75 103 138 176 214 254 297
#     4  10  21  34  48  71 105 143 175 206 250 308
#     4   8  16  33  52  74 106 141 172 206 254 310
#     4   9  20  37  55  76 103 136 172 211 260 314
#     4  10  20  34  56  79 101 134 173 215 259 302
#
# _framework density 19.957787
#
# number of rings (size 3 to 8) (size 9 to 14) (size 15 to 20)
#    0.000    2.714    0.000    3.000    2.000    4.571 
#    0.000    5.714    0.000    8.571    0.000    0.000 
#    0.000    0.000    0.000    0.000    0.000    0.000 
#
# Total GULP energy -155917.958348 kJ/mol
# GULP energy per Si atom -5568.498512 kJ/mol
# Density = 1.991236 g / cm^3
# Si number density = 19.957787 Si / 1000 Ang^3
#
#
#
# Elastic Constant Matrix: (Units=GPa)
#
#
# Indices 1 2 3 4 5 6 
#
# 1 -3.1298 -7.1626 13.8286 0.0000 -18.3072 0.0000
# 2 -7.1626 18.3213 26.2175 0.0000 -10.4049 0.0000
# 3 13.8286 26.2175 93.1452 0.0000 -40.9976 0.0000
# 4 0.0000 0.0000 0.0000 22.7011 0.0000 -0.9679
# 5 -18.3072 -10.4049 -40.9976 0.0000 34.3423 0.0000
# 6 0.0000 0.0000 0.0000 -0.9679 0.0000 19.2046
#
#
#
# Elastic Compliance Matrix: (Units=1/GPa)
#
#
# Indices 1 2 3 4 5 6 
#
# 1 -0.041786 -0.039251 0.004663 0.000000 -0.028600 0.000000
# 2 -0.039251 0.055186 -0.024352 0.000000 -0.033275 0.000000
# 3 0.004663 -0.024352 0.031070 0.000000 0.032199 0.000000
# 4 0.000000 0.000000 0.000000 0.044146 0.000000 0.002225
# 5 -0.028600 -0.033275 0.032199 0.000000 0.042230 0.000000
# 6 0.000000 0.000000 0.000000 0.002225 0.000000 0.052183
#
#
# Mechanical properties :
#
#
# Convention : Reuss Voigt Hill
#
# Bulk Modulus (GPa) = -13.62236 19.34486 2.86125
# Shear Modulus (GPa) = 18.08717 20.27981 19.18349
#
# Velocity S-wave (km/s) = 3.01370 3.19115 3.10369
# Velocity P-wave (km/s) = 2.29553 4.82616 3.77897
#
# Compressibility (1/GPa) = -0.07340871
#
# Stress axis : x y z
#
# Youngs Moduli (GPa) = -23.93170 18.12062 32.18504
#
# Poissons Ratio (x) = 0.71126 -0.15009
# Poissons Ratio (y) = -0.93935 0.78376
# Poissons Ratio (z) = 0.11160 0.44127
#
# Static dielectric constant tensor:
#      x y z
#    x 1.732230 0.000000 0.019150 
#    y 0.000000 1.683680 0.000000 
#    z 0.019150 0.000000 1.805780 
# 
# From -- ./inp_files/48969.got.cif
#   From: 2010.05.17/outbox.ucp.g08.bks.cvg/sg10_25_cif.got.tgz:48969.got - 2010.06.11 11:31:16.
