data_PCOD9155893
_publ_section_title
;
Structure prediction by ZEFSAII (Michael W. Deem and Ramdas Pophale) SiO2 
 PCOD9155893
Probable space group: P 21/M
;
_chemical_formula_sum "Si O2"
_cell_formula_units_Z 24
_cell_length_a 12.175096
_cell_length_b 7.486515
_cell_length_c 21.789893
_cell_angle_alpha 90.000000
_cell_angle_beta 141.535215
_cell_angle_gamma 90.000000
_cell_volume 1235.438057
_symmetry_space_group_name_H-M "P 21/M"
_symmetry_group_IT_number 11
_symmetry_cell_setting 'monoclinic'
loop_
_space_group_symop_operation_xyz
x,y,z
-x,1/2+y,-z
-x,-y,-z
x,1/2-y,z
loop_
_atom_site_type_symbol
_atom_site_label
_atom_site_fract_x
_atom_site_fract_y
_atom_site_fract_z
Si Si1 0.016220 0.041955 0.916091
Si Si2 0.038563 0.533530 0.785878
Si Si3 0.601634 0.463838 0.108131
Si Si4 0.640102 0.964089 0.614022
Si Si5 0.620214 0.969948 0.871847
Si Si6 0.614796 0.951951 0.737473
O O1 0.985207 0.250000 0.915876
O O2 0.828512 0.946376 0.836771
O O3 0.079279 0.025143 0.873182
O O4 0.177015 0.974143 0.027547
O O5 0.039326 0.750000 0.785422
O O6 0.197391 0.470963 0.812211
O O7 0.838508 0.472593 0.684993
O O8 0.608412 0.250000 0.117683
O O9 0.497519 0.530289 0.122289
O O10 0.500000 0.500000 0.000000
O O11 0.653631 0.750000 0.627105
O O12 0.584647 0.035290 0.657208
O O13 0.500000 0.000000 0.500000
O O14 0.622666 0.750000 0.872571
O O15 0.555998 0.031141 0.776795
O O16 0.544185 0.750000 0.704571
#
# Coordination Sequence:
#
# PCOD9155893 Si02
#       6
#     4   4   4   4   4   4
#     4  10  17  26  43  68  95 122 155 190 222 261
#     4   9  18  31  47  68  95 125 156 186 226 276
#     4  10  18  30  47  68  96 129 159 186 216 262
#     4   9  18  32  50  69  86 113 152 196 242 279
#     4   9  17  28  44  66  94 126 156 184 217 267
#     4   9  18  32  46  64  92 122 153 187 230 283
#
# _framework density 19.426309
#
# number of rings (size 3 to 8) (size 9 to 14) (size 15 to 20)
#    0.000    2.667    1.667    2.000    0.000    2.667 
#    0.000    1.667    0.000    1.000    0.000    0.000 
#    0.000    0.000    0.000    0.000    0.000    0.667 
#
# Total GULP energy -133824.698816 kJ/mol
# GULP energy per Si atom -5576.029117 kJ/mol
# Density = 1.938209 g / cm^3
# Si number density = 19.426309 Si / 1000 Ang^3
#
#
#
# Elastic Constant Matrix: (Units=GPa)
#
#
# Indices 1 2 3 4 5 6 
#
# 1 125.5527 -0.0379 58.8494 0.0000 -28.3942 0.0000
# 2 -0.0379 59.7026 -1.6197 0.0000 1.2726 0.0000
# 3 58.8494 -1.6197 126.8671 0.0000 -23.5294 0.0000
# 4 0.0000 0.0000 0.0000 14.9499 0.0000 -1.2998
# 5 -28.3942 1.2726 -23.5294 0.0000 23.7970 0.0000
# 6 0.0000 0.0000 0.0000 -1.2998 0.0000 10.1321
#
#
#
# Elastic Compliance Matrix: (Units=1/GPa)
#
#
# Indices 1 2 3 4 5 6 
#
# 1 0.012123 -0.000323 -0.003602 0.000000 0.010920 0.000000
# 2 -0.000323 0.016778 0.000154 0.000000 -0.001130 0.000000
# 3 -0.003602 0.000154 0.010723 0.000000 0.006296 0.000000
# 4 0.000000 0.000000 0.000000 0.067645 0.000000 0.008678
# 5 0.010920 -0.001130 0.006296 0.000000 0.061338 0.000000
# 6 0.000000 0.000000 0.000000 0.008678 0.000000 0.099810
#
#
# Mechanical properties :
#
#
# Convention : Reuss Voigt Hill
#
# Bulk Modulus (GPa) = 31.16980 47.38956 39.27968
# Shear Modulus (GPa) = 17.44285 26.77117 22.10701
#
# Velocity S-wave (km/s) = 2.99975 3.71629 3.37708
# Velocity P-wave (km/s) = 5.29886 6.54690 5.95566
#
# Compressibility (1/GPa) = 0.03208234
#
# Stress axis : x y z
#
# Youngs Moduli (GPa) = 82.48951 59.60270 93.25895
#
# Poissons Ratio (x) = 0.01924 0.33593
# Poissons Ratio (y) = 0.02663 -0.01440
# Poissons Ratio (z) = 0.29714 -0.00920
#
# Static dielectric constant tensor:
#      x y z
#    x 1.730130 0.000000 -0.019830 
#    y 0.000000 1.730060 0.000000 
#    z -0.019830 0.000000 1.654230 
# 
# From -- ./inp_files/36884.got.cif
#   From: 2010.05.17/outbox.cif.g08.bks.cpg/sg11_19_cif.got.tgz:36884.got - 2010.06.03 12:22:45.
