data_PCOD9155854
_publ_section_title
;
Structure prediction by ZEFSAII (Michael W. Deem and Ramdas Pophale) SiO2 
 PCOD9155854
Probable space group: P 21/M
;
_chemical_formula_sum "Si O2"
_cell_formula_units_Z 28
_cell_length_a 23.571136
_cell_length_b 8.823607
_cell_length_c 20.391557
_cell_angle_alpha 90.000000
_cell_angle_beta 163.083165
_cell_angle_gamma 90.000000
_cell_volume 1234.085216
_symmetry_space_group_name_H-M "P 21/M"
_symmetry_group_IT_number 11
_symmetry_cell_setting 'monoclinic'
loop_
_space_group_symop_operation_xyz
x,y,z
-x,1/2+y,-z
-x,-y,-z
x,1/2-y,z
loop_
_atom_site_type_symbol
_atom_site_label
_atom_site_fract_x
_atom_site_fract_y
_atom_site_fract_z
Si Si1 0.822050 0.070469 0.113246
Si Si2 0.219436 0.073121 0.065707
Si Si3 0.718555 0.066450 0.732516
Si Si4 0.088187 0.079169 0.660198
Si Si5 0.394675 0.563904 0.673350
Si Si6 0.466834 0.579177 0.893096
Si Si7 0.309762 0.571747 0.439670
O O1 0.817403 0.250000 0.103256
O O2 0.945908 0.015741 0.312179
O O3 0.878581 0.997650 0.106704
O O4 0.606376 0.005939 0.890883
O O5 0.174916 0.250000 0.020900
O O6 0.454706 0.059425 0.312666
O O7 0.172518 0.993453 0.082566
O O8 0.712280 0.250000 0.726189
O O9 0.780793 0.011026 0.728512
O O10 0.500000 0.000000 0.500000
O O11 0.018493 0.250000 0.591429
O O12 0.316618 0.086463 0.897208
O O13 0.000000 0.000000 0.500000
O O14 0.404627 0.750000 0.684152
O O15 0.274308 0.516307 0.474804
O O16 0.349904 0.517728 0.699356
O O17 0.399250 0.750000 0.831638
O O18 0.500000 0.500000 0.000000
O O19 0.262898 0.750000 0.389137
#
# Coordination Sequence:
#
# PCOD9155854 Si02
#       7
#     4   4   4   4   4   4   4
#     4  10  17  25  39  58  77 102 136 174 212 257
#     4   9  15  23  32  44  67  99 131 167 205 246
#     4   9  14  19  28  44  64  91 127 166 206 250
#     4  10  20  34  49  67  89 116 148 185 225 267
#     4   8  14  26  39  53  75 105 138 174 213 255
#     4   9  18  30  46  66  90 117 148 183 222 265
#     4   7  11  19  31  44  63  92 127 165 205 244
#
# _framework density 22.688870999999999
#
# number of rings (size 3 to 8) (size 9 to 14) (size 15 to 20)
#    0.000    3.143    0.000    5.143    0.000    2.857 
#    0.000    0.714    0.000    0.000    0.000    0.000 
#    0.000    0.000    0.000    1.286    0.000   16.286 
#
# Total GULP energy -156040.048194 kJ/mol
# GULP energy per Si atom -5572.858864 kJ/mol
# Density = 2.263723 g / cm^3
# Si number density = 22.688871 Si / 1000 Ang^3
#
#
#
# Elastic Constant Matrix: (Units=GPa)
#
#
# Indices 1 2 3 4 5 6 
#
# 1 176.2793 54.8051 83.8422 0.0000 -59.4559 0.0000
# 2 54.8051 72.6223 30.7993 0.0000 -36.5868 0.0000
# 3 83.8422 30.7993 98.7075 0.0000 -63.6476 0.0000
# 4 0.0000 0.0000 0.0000 18.5858 0.0000 -23.9835
# 5 -59.4559 -36.5868 -63.6476 0.0000 88.1048 0.0000
# 6 0.0000 0.0000 0.0000 -23.9835 0.0000 21.2568
#
#
#
# Elastic Compliance Matrix: (Units=1/GPa)
#
#
# Indices 1 2 3 4 5 6 
#
# 1 0.010878 -0.005095 -0.008014 0.000000 -0.000564 0.000000
# 2 -0.005095 0.019909 0.002301 0.000000 0.006492 0.000000
# 3 -0.008014 0.002301 0.024989 0.000000 0.013600 0.000000
# 4 0.000000 0.000000 0.000000 -0.118006 0.000000 -0.133143
# 5 -0.000564 0.006492 0.013600 0.000000 0.023490 0.000000
# 6 0.000000 0.000000 0.000000 -0.133143 0.000000 -0.103178
#
#
# Mechanical properties :
#
#
# Convention : Reuss Voigt Hill
#
# Bulk Modulus (GPa) = 29.27196 76.27803 52.77499
# Shear Modulus (GPa) = -45.90767 37.46697 -4.22035
#
# Velocity S-wave (km/s) = -4.50305 4.06807 -1.36533
# Velocity P-wave (km/s) = 3.75595 7.46711 4.56347
#
# Compressibility (1/GPa) = 0.03416239
#
# Stress axis : x y z
#
# Youngs Moduli (GPa) = 91.92799 50.22774 40.01700
#
# Poissons Ratio (x) = 0.25590 0.32069
# Poissons Ratio (y) = 0.46835 -0.09210
# Poissons Ratio (z) = 0.73670 -0.11559
#
# Static dielectric constant tensor:
#      x y z
#    x 1.906350 0.000000 0.032370 
#    y 0.000000 1.773410 0.000000 
#    z 0.032370 0.000000 2.029080 
# 
# From -- ./inp_files/42144.got.cif
#   From: 2010.05.17/outbox.cif.g08.bks.cpg/sg11_22_cif.got.tgz:42144.got - 2010.06.03 12:22:45.
