data_PCOD9155384
_publ_section_title
;
Structure prediction by ZEFSAII (Michael W. Deem and Ramdas Pophale) SiO2 
 PCOD9155384
Probable space group: P 2/M
;
_chemical_formula_sum "Si O2"
_cell_formula_units_Z 28
_cell_length_a 9.000000
_cell_length_b 9.000000
_cell_length_c 27.000000
_cell_angle_alpha 90.000000
_cell_angle_beta 40.000000
_cell_angle_gamma 90.000000
_cell_volume 1405.776502
_symmetry_space_group_name_H-M "P 2/M"
_symmetry_group_IT_number 10
_symmetry_cell_setting 'monoclinic'
loop_
_space_group_symop_operation_xyz
x,y,z
-x,y,-z
-x,-y,-z
x,-y,z
loop_
_atom_site_type_symbol
_atom_site_label
_atom_site_fract_x
_atom_site_fract_y
_atom_site_fract_z
Si Si1 0.466410 0.677919 0.307111
Si Si2 0.478672 0.174858 0.865749
Si Si3 0.772284 0.836378 0.434463
Si Si4 0.752066 0.334250 0.538807
Si Si5 0.847863 0.324441 0.707318
Si Si6 0.305429 0.331048 0.007919
Si Si7 0.160971 0.173368 0.850665
O O1 0.463199 0.500000 0.310820
O O2 0.408168 0.730440 0.376990
O O3 0.277765 0.716988 0.312918
O O4 0.705774 0.736104 0.225175
O O5 0.718237 0.234735 0.782770
O O6 0.406239 0.268135 0.931467
O O7 0.293184 0.198388 0.869021
O O8 0.487166 0.000000 0.874744
O O9 0.500000 0.844388 0.500000
O O10 0.799463 0.773223 0.481970
O O11 0.889877 0.724807 0.366157
O O12 0.875844 0.000000 0.401318
O O13 0.671889 0.500000 0.542924
O O14 0.000000 0.354479 0.500000
O O15 0.821872 0.500000 0.721180
O O16 0.221576 0.500000 0.022482
O O17 0.500000 0.330446 0.000000
O O18 0.096971 0.227755 0.077723
O O19 0.175787 0.000000 0.835751
#
# Coordination Sequence:
#
# PCOD9155384 Si02
#       7
#     4   4   4   4   4   4   4
#     4   9  18  34  58  87 116 145 186 240 287 334
#     4  10  21  38  62  91 118 147 187 234 286 342
#     4  11  24  39  54  80 118 157 196 238 286 341
#     4  10  19  36  60  86 113 147 193 241 288 340
#     4  10  19  36  61  86 114 150 192 237 285 336
#     4  11  24  41  60  85 117 153 194 233 278 337
#     4  10  21  37  60  89 118 149 188 233 284 342
#
# _framework density 19.917818
#
# number of rings (size 3 to 8) (size 9 to 14) (size 15 to 20)
#    0.000    1.857    1.429    2.571    0.000    7.143 
#    2.571    0.000    0.000    0.000    0.000    0.000 
#    0.000    0.000    0.000    0.000    0.000    0.000 
#
# Total GULP energy -156206.171666 kJ/mol
# GULP energy per Si atom -5578.791845 kJ/mol
# Density = 1.987248 g / cm^3
# Si number density = 19.917818 Si / 1000 Ang^3
#
#
#
# Elastic Constant Matrix: (Units=GPa)
#
#
# Indices 1 2 3 4 5 6 
#
# 1 -1.0251 0.3092 -2.1921 0.0000 -10.4861 0.0000
# 2 0.3092 -39.8395 -40.7722 0.0000 -6.8306 0.0000
# 3 -2.1921 -40.7722 62.3920 0.0000 -7.0910 0.0000
# 4 0.0000 0.0000 0.0000 -2.8014 0.0000 -31.2180
# 5 -10.4861 -6.8306 -7.0910 0.0000 9.6453 0.0000
# 6 0.0000 0.0000 0.0000 -31.2180 0.0000 -1.9347
#
#
#
# Elastic Compliance Matrix: (Units=1/GPa)
#
#
# Indices 1 2 3 4 5 6 
#
# 1 -0.088052 0.016286 -0.002204 0.000000 -0.085816 0.000000
# 2 0.016286 -0.015304 -0.009437 0.000000 -0.000071 0.000000
# 3 -0.002204 -0.009437 0.009549 0.000000 -0.002059 0.000000
# 4 0.000000 0.000000 0.000000 0.001996 0.000000 -0.032212
# 5 -0.085816 -0.000071 -0.002059 0.000000 0.008818 0.000000
# 6 0.000000 0.000000 0.000000 -0.032212 0.000000 0.002891
#
#
# Mechanical properties :
#
#
# Convention : Reuss Voigt Hill
#
# Bulk Modulus (GPa) = -11.83178 -7.08697 -9.45937
# Shear Modulus (GPa) = -42.52968 5.26066 -18.63451
#
# Velocity S-wave (km/s) = -4.62590 1.62693 -3.06203
# Velocity P-wave (km/s) = 5.87240 0.19133 4.15462
#
# Compressibility (1/GPa) = -0.08451814
#
# Stress axis : x y z
#
# Youngs Moduli (GPa) = -11.35687 -65.34105 104.71948
#
# Poissons Ratio (x) = 1.06414 0.23083
# Poissons Ratio (y) = 0.18496 0.98823
# Poissons Ratio (z) = -0.02503 -0.61662
#
# Static dielectric constant tensor:
#      x y z
#    x 1.706250 0.000000 -0.021780 
#    y 0.000000 1.696190 0.000000 
#    z -0.021780 0.000000 1.737890 
# 
# From -- ./inp_files/37116.got.cif
#   From: 2010.05.17/outbox.ucp.g08.bks.cvg/sg10_19_cif.got.tgz:37116.got - 2010.06.11 11:31:16.
