data_PCOD9155080
_publ_section_title
;
Structure prediction by ZEFSAII (Michael W. Deem and Ramdas Pophale) SiO2 
 PCOD9155080
Probable space group: P 2/M
;
_chemical_formula_sum "Si O2"
_cell_formula_units_Z 24
_cell_length_a 9.394767
_cell_length_b 13.856337
_cell_length_c 21.264671
_cell_angle_alpha 90.000000
_cell_angle_beta 36.280116
_cell_angle_gamma 90.000000
_cell_volume 1638.020154
_symmetry_space_group_name_H-M "P 2/M"
_symmetry_group_IT_number 10
_symmetry_cell_setting 'monoclinic'
loop_
_space_group_symop_operation_xyz
x,y,z
-x,y,-z
-x,-y,-z
x,-y,z
loop_
_atom_site_type_symbol
_atom_site_label
_atom_site_fract_x
_atom_site_fract_y
_atom_site_fract_z
Si Si1 0.394341 0.273498 0.106625
Si Si2 0.845407 0.113734 0.493861
Si Si3 0.060596 0.387232 0.779639
Si Si4 0.060597 0.887233 0.279641
Si Si5 0.154586 0.386266 0.006143
Si Si6 0.605663 0.226499 0.393373
O O1 0.607040 0.322869 0.070092
O O2 0.177502 0.349269 0.171768
O O3 0.278209 0.180449 0.180450
O O4 0.500000 0.249484 0.000000
O O5 0.001017 0.125256 0.374747
O O6 0.607033 0.177131 0.570098
O O7 0.000000 0.139106 0.500000
O O8 0.780421 0.000000 0.521042
O O9 0.101491 0.500000 0.752772
O O10 0.278208 0.319551 0.680447
O O11 0.001029 0.374744 0.874742
O O12 0.822506 0.849271 0.328228
O O13 0.101500 0.000000 0.252772
O O14 0.219570 0.500000 0.978963
O O15 0.000000 0.360892 0.000000
O O16 0.500000 0.250507 0.500000
#
# Coordination Sequence:
#
# PCOD9155080 Si02
#       6
#     4   4   4   4   4   4
#     4   9  17  29  45  64  85 110 140 173 208 246
#     4   9  17  29  45  64  85 110 140 173 208 246
#     4   9  17  29  45  64  85 110 140 173 208 246
#     4   9  17  29  45  64  85 110 140 173 208 246
#     4   9  17  29  45  64  85 110 140 173 208 246
#     4   9  17  29  45  64  85 110 140 173 208 246
#
# _framework density 14.651835
#
# number of rings (size 3 to 8) (size 9 to 14) (size 15 to 20)
#    0.000    3.000    0.000    1.000    0.000    6.000 
#    0.000    0.000    0.000    1.000    0.000    0.000 
#    0.000    0.000    0.000    0.000    0.000    0.000 
#
# Total GULP energy -133688.105808 kJ/mol
# GULP energy per Si atom -5570.337742 kJ/mol
# Density = 1.461849 g / cm^3
# Si number density = 14.651835 Si / 1000 Ang^3
#
#
#
# Elastic Constant Matrix: (Units=GPa)
#
#
# Indices 1 2 3 4 5 6 
#
# 1 125.4784 79.4477 61.4127 0.0000 -8.4137 0.0000
# 2 79.4477 126.8820 80.1555 0.0000 -6.5133 0.0000
# 3 61.4127 80.1555 88.4969 0.0000 -18.8026 0.0000
# 4 0.0000 0.0000 0.0000 26.6297 0.0000 0.1133
# 5 -8.4137 -6.5133 -18.8026 0.0000 11.8438 0.0000
# 6 0.0000 0.0000 0.0000 0.1133 0.0000 18.7942
#
#
#
# Elastic Compliance Matrix: (Units=1/GPa)
#
#
# Indices 1 2 3 4 5 6 
#
# 1 0.013811 -0.006053 -0.004111 0.000000 -0.000044 0.000000
# 2 -0.006053 0.027535 -0.027819 0.000000 -0.033322 0.000000
# 3 -0.004111 -0.027819 0.053537 0.000000 0.066773 0.000000
# 4 0.000000 0.000000 0.000000 0.037553 0.000000 -0.000226
# 5 -0.000044 -0.033322 0.066773 0.000000 0.172081 0.000000
# 6 0.000000 0.000000 0.000000 -0.000226 0.000000 0.053209
#
#
# Mechanical properties :
#
#
# Convention : Reuss Voigt Hill
#
# Bulk Modulus (GPa) = 52.86358 86.98768 69.92563
# Shear Modulus (GPa) = 11.36367 19.44297 15.40332
#
# Velocity S-wave (km/s) = 2.78795 3.64675 3.24588
# Velocity P-wave (km/s) = 6.82068 8.78808 7.86613
#
# Compressibility (1/GPa) = 0.01891662
#
# Stress axis : x y z
#
# Youngs Moduli (GPa) = 72.40496 36.31725 18.67878
#
# Poissons Ratio (x) = 0.21983 0.07679
# Poissons Ratio (y) = 0.43827 0.51962
# Poissons Ratio (z) = 0.29767 1.01031
#
# Static dielectric constant tensor:
#      x y z
#    x 1.467370 0.000000 0.004120 
#    y 0.000000 1.464910 0.000000 
#    z 0.004120 0.000000 1.471790 
# 
# From -- ./inp_files/24028.got.cif
#   From: 2010.05.17/outbox.cif.g08.bks.cpg/sg10_13_cif.got.tgz:24028.got - 2010.06.03 11:33:40.
