data_PCOD9155179
_publ_section_title
;
Structure prediction by ZEFSAII (Michael W. Deem and Ramdas Pophale) SiO2 
 PCOD9155179
Probable space group: P 2/M
;
_chemical_formula_sum "Si O2"
_cell_formula_units_Z 32
_cell_length_a 12.000000
_cell_length_b 15.000000
_cell_length_c 18.000000
_cell_angle_alpha 90.000000
_cell_angle_beta 30.000000
_cell_angle_gamma 90.000000
_cell_volume 1620.000000
_symmetry_space_group_name_H-M "P 2/M"
_symmetry_group_IT_number 10
_symmetry_cell_setting 'monoclinic'
loop_
_space_group_symop_operation_xyz
x,y,z
-x,y,-z
-x,-y,-z
x,-y,z
loop_
_atom_site_type_symbol
_atom_site_label
_atom_site_fract_x
_atom_site_fract_y
_atom_site_fract_z
Si Si1 0.220264 0.393866 0.821839
Si Si2 0.958236 0.600494 0.238728
Si Si3 0.367436 0.780581 0.225668
Si Si4 0.985606 0.769732 0.332471
Si Si5 0.233653 0.893400 0.071582
Si Si6 0.472035 0.402464 0.927837
Si Si7 0.126232 0.098879 0.849243
Si Si8 0.515805 0.772467 0.672154
O O1 0.264532 0.500000 0.805102
O O2 0.177922 0.377056 0.757760
O O3 0.419985 0.328477 0.729960
O O4 0.000000 0.373830 0.000000
O O5 0.892481 0.500000 0.302776
O O6 0.975484 0.674959 0.293381
O O7 0.210595 0.593384 0.064126
O O8 0.438415 0.678887 0.169887
O O9 0.411738 0.800746 0.286379
O O10 0.121952 0.778250 0.331204
O O11 0.533494 0.845642 0.083600
O O12 0.729784 0.786677 0.497628
O O13 0.114075 0.840468 0.206814
O O14 0.061189 0.879743 0.103126
O O15 0.260675 0.000000 0.068197
O O16 0.573060 0.500000 0.854624
O O17 0.500000 0.384737 0.000000
O O18 0.318236 0.169875 0.750580
O O19 0.217436 0.000000 0.779240
O O20 0.000000 0.094830 0.000000
#
# Coordination Sequence:
#
# PCOD9155179 Si02
#       8
#     4   4   4   4   4   4   4   4
#     4  10  22  40  64  95 129 167 217 269 315 370
#     4  10  20  37  62  90 125 165 208 261 315 364
#     4  12  23  42  65  90 127 172 218 255 305 374
#     4  12  26  42  58  96 134 169 209 256 313 380
#     4  11  24  44  72  97 121 158 210 268 318 373
#     4  10  18  33  61  93 120 157 212 268 305 346
#     4  10  21  42  70  96 118 152 207 261 313 375
#     4  12  26  40  64  92 134 172 205 255 321 377
#
# _framework density 19.753086
#
# number of rings (size 3 to 8) (size 9 to 14) (size 15 to 20)
#    0.000    1.125    3.750    2.625    0.000    5.500 
#    0.000    2.500    0.000    4.500    0.000    0.000 
#    0.000    0.000    0.000    0.000    0.000    0.000 
#
# Total GULP energy -178575.980391 kJ/mol
# GULP energy per Si atom -5580.499387 kJ/mol
# Density = 1.970813 g / cm^3
# Si number density = 19.753086 Si / 1000 Ang^3
#
#
#
# Elastic Constant Matrix: (Units=GPa)
#
#
# Indices 1 2 3 4 5 6 
#
# 1 84.5943 26.0293 3.2814 0.0000 -12.5579 0.0000
# 2 26.0293 82.0315 28.7737 0.0000 -10.2399 0.0000
# 3 3.2814 28.7737 62.3401 0.0000 -17.2003 0.0000
# 4 0.0000 0.0000 0.0000 -3.3304 0.0000 9.8160
# 5 -12.5579 -10.2399 -17.2003 0.0000 19.9955 0.0000
# 6 0.0000 0.0000 0.0000 9.8160 0.0000 8.5346
#
#
#
# Elastic Compliance Matrix: (Units=1/GPa)
#
#
# Indices 1 2 3 4 5 6 
#
# 1 0.014717 -0.004896 0.004384 0.000000 0.010507 0.000000
# 2 -0.004896 0.016248 -0.007598 0.000000 -0.001290 0.000000
# 3 0.004384 -0.007598 0.024917 0.000000 0.020297 0.000000
# 4 0.000000 0.000000 0.000000 -0.068398 0.000000 0.078668
# 5 0.010507 -0.001290 0.020297 0.000000 0.073409 0.000000
# 6 0.000000 0.000000 0.000000 0.078668 0.000000 0.026691
#
#
# Mechanical properties :
#
#
# Convention : Reuss Voigt Hill
#
# Bulk Modulus (GPa) = 25.21225 38.34830 31.78028
# Shear Modulus (GPa) = 42.72615 16.43203 29.57909
#
# Velocity S-wave (km/s) = 4.65586 2.88735 3.87388
# Velocity P-wave (km/s) = 6.45710 5.52917 6.01107
#
# Compressibility (1/GPa) = 0.03966325
#
# Stress axis : x y z
#
# Youngs Moduli (GPa) = 67.94709 61.54608 40.13319
#
# Poissons Ratio (x) = 0.30134 -0.17595
# Poissons Ratio (y) = 0.33268 0.30491
# Poissons Ratio (z) = -0.29789 0.46760
#
# Static dielectric constant tensor:
#      x y z
#    x 1.791680 0.000000 0.001100 
#    y 0.000000 1.738500 0.000000 
#    z 0.001100 0.000000 1.671860 
# 
# From -- ./inp_files/76971.got.cif
#   From: 2010.05.17/outbox.ucp.g08.bks.cvg/sg10_39_cif.got.tgz:76971.got - 2010.06.11 11:31:16.
