data_PCOD9155862
_publ_section_title
;
Structure prediction by ZEFSAII (Michael W. Deem and Ramdas Pophale) SiO2 
 PCOD9155862
Probable space group: P 21/M
;
_chemical_formula_sum "Si O2"
_cell_formula_units_Z 32
_cell_length_a 24.694882
_cell_length_b 9.144819
_cell_length_c 12.214288
_cell_angle_alpha 90.000000
_cell_angle_beta 50.668992
_cell_angle_gamma 90.000000
_cell_volume 2133.580514
_symmetry_space_group_name_H-M "P 21/M"
_symmetry_group_IT_number 11
_symmetry_cell_setting 'monoclinic'
loop_
_space_group_symop_operation_xyz
x,y,z
-x,1/2+y,-z
-x,-y,-z
x,1/2-y,z
loop_
_atom_site_type_symbol
_atom_site_label
_atom_site_fract_x
_atom_site_fract_y
_atom_site_fract_z
Si Si1 0.891771 0.077174 0.626468
Si Si2 0.522405 0.425257 0.585574
Si Si3 0.657643 0.580269 0.369602
Si Si4 0.622893 0.919587 0.152824
Si Si5 0.760263 0.424674 0.932196
Si Si6 0.802775 0.574515 0.105080
Si Si7 0.990960 0.922486 0.336403
Si Si8 0.963138 0.924876 0.944724
O O1 0.893914 0.250000 0.596422
O O2 0.814258 0.037205 0.766316
O O3 0.943585 0.056508 0.664236
O O4 0.923859 0.983638 0.487272
O O5 0.500000 0.500000 0.500000
O O6 0.522747 0.250000 0.572482
O O7 0.600233 0.484928 0.506249
O O8 0.458927 0.462049 0.749834
O O9 0.650425 0.750000 0.410663
O O10 0.640253 0.571863 0.261227
O O11 0.738890 0.534553 0.268226
O O12 0.630772 0.750000 0.111166
O O13 0.681635 0.015705 0.019411
O O14 0.759841 0.250000 0.944236
O O15 0.790098 0.494605 0.006032
O O16 0.796854 0.750000 0.094095
O O17 0.879848 0.543183 0.050250
O O18 0.984622 0.750000 0.322413
O O19 0.005733 0.010303 0.207229
O O20 0.971956 0.750000 0.936606
O O21 0.000000 0.000000 0.000000
#
# Coordination Sequence:
#
# PCOD9155862 Si02
#       8
#     4   4   4   4   4   4   4   4
#     4   9  18  30  44  65  90 112 139 179 219 256
#     4   9  15  22  31  46  69  99 133 167 201 238
#     4   8  14  24  36  50  69  96 132 170 204 242
#     4   8  15  24  32  47  75 106 136 166 201 247
#     4  10  17  25  40  61  83 107 139 178 211 245
#     4   9  18  30  42  57  79 107 138 173 215 258
#     4  10  19  32  48  66  86 110 143 178 217 263
#     4  11  22  35  50  65  86 114 144 181 223 264
#
# _framework density 14.998263
#
# number of rings (size 3 to 8) (size 9 to 14) (size 15 to 20)
#    0.000    2.750    1.250    3.000    0.000    7.000 
#    0.000    0.000    0.000    0.000    0.000    0.000 
#    0.000    0.000    0.000    1.125    0.000   14.375 
#
# Total GULP energy -178141.554420 kJ/mol
# GULP energy per Si atom -5566.923576 kJ/mol
# Density = 1.496413 g / cm^3
# Si number density = 14.998263 Si / 1000 Ang^3
#
#
#
# Elastic Constant Matrix: (Units=GPa)
#
#
# Indices 1 2 3 4 5 6 
#
# 1 48.9304 36.5817 56.2725 0.0000 -17.4460 0.0000
# 2 36.5817 58.5145 58.7920 0.0000 -17.8211 0.0000
# 3 56.2725 58.7920 115.3319 0.0000 -41.7933 0.0000
# 4 0.0000 0.0000 0.0000 27.1678 0.0000 -5.6044
# 5 -17.4460 -17.8211 -41.7933 0.0000 26.7059 0.0000
# 6 0.0000 0.0000 0.0000 -5.6044 0.0000 17.1532
#
#
#
# Elastic Compliance Matrix: (Units=1/GPa)
#
#
# Indices 1 2 3 4 5 6 
#
# 1 0.052807 -0.013460 -0.022309 0.000000 -0.009399 0.000000
# 2 -0.013460 0.039802 -0.016825 0.000000 -0.008564 0.000000
# 3 -0.022309 -0.016825 0.043388 0.000000 0.042098 0.000000
# 4 0.000000 0.000000 0.000000 0.039468 0.000000 0.012895
# 5 -0.009399 -0.008564 0.042098 0.000000 0.091472 0.000000
# 6 0.000000 0.000000 0.000000 0.012895 0.000000 0.062511
#
#
# Mechanical properties :
#
#
# Convention : Reuss Voigt Hill
#
# Bulk Modulus (GPa) = 32.46099 58.45213 45.45656
# Shear Modulus (GPa) = 11.23833 18.94743 15.09288
#
# Velocity S-wave (km/s) = 2.74032 3.55816 3.17568
# Velocity P-wave (km/s) = 5.63051 7.47916 6.61969
#
# Compressibility (1/GPa) = 0.03080621
#
# Stress axis : x y z
#
# Youngs Moduli (GPa) = 18.93705 25.12459 23.04794
#
# Poissons Ratio (x) = 0.33819 0.51419
# Poissons Ratio (y) = 0.25490 0.38778
# Poissons Ratio (z) = 0.42248 0.42272
#
# Static dielectric constant tensor:
#      x y z
#    x 1.493710 0.000000 -0.053040 
#    y 0.000000 1.493560 0.000000 
#    z -0.053040 0.000000 1.512810 
# 
# From -- ./inp_files/43761.got.cif
#   From: 2010.05.17/outbox.cif.g08.bks.cpg/sg11_22_cif.got.tgz:43761.got - 2010.06.03 12:22:45.
