data_PCOD9155809
_publ_section_title
;
Structure prediction by ZEFSAII (Michael W. Deem and Ramdas Pophale) SiO2 
 PCOD9155809
Probable space group: P 21/M
;
_chemical_formula_sum "Si O2"
_cell_formula_units_Z 28
_cell_length_a 11.666733
_cell_length_b 20.828156
_cell_length_c 17.593288
_cell_angle_alpha 90.000000
_cell_angle_beta 159.499460
_cell_angle_gamma 90.000000
_cell_volume 1497.212125
_symmetry_space_group_name_H-M "P 21/M"
_symmetry_group_IT_number 11
_symmetry_cell_setting 'monoclinic'
loop_
_space_group_symop_operation_xyz
x,y,z
-x,1/2+y,-z
-x,-y,-z
x,1/2-y,z
loop_
_atom_site_type_symbol
_atom_site_label
_atom_site_fract_x
_atom_site_fract_y
_atom_site_fract_z
Si Si1 0.209836 0.017711 0.962935
Si Si2 0.019922 0.953067 0.334326
Si Si3 0.704106 0.907765 0.693677
Si Si4 0.673145 0.599084 0.258545
Si Si5 0.193840 0.403459 0.489327
Si Si6 0.956836 0.425289 0.946348
Si Si7 0.938680 0.325847 0.192970
O O1 0.239650 0.041092 0.895418
O O2 0.143574 0.073640 0.982305
O O3 0.896361 0.969003 0.775945
O O4 0.510097 0.971572 0.170263
O O5 0.344724 0.928498 0.493945
O O6 0.917657 0.908318 0.340265
O O7 0.078080 0.023750 0.403982
O O8 0.752425 0.850821 0.664577
O O9 0.882601 0.889059 0.883380
O O10 0.821471 0.616671 0.431986
O O11 0.376721 0.644217 0.046022
O O12 0.579867 0.405857 0.706514
O O13 0.990650 0.358058 0.307287
O O14 0.000000 0.500000 0.000000
O O15 0.918207 0.250000 0.184364
#
# Coordination Sequence:
#
# PCOD9155809 Si02
#       7
#     4   4   4   4   4   4   4
#     4  10  17  31  53  83 128 152 177 224 286 360
#     4  12  20  32  60  96 123 149 177 240 310 362
#     4  10  18  36  57  85 119 151 189 241 289 337
#     4  11  23  37  55  91 124 153 185 238 295 356
#     4  12  20  36  60  90 124 150 193 234 297 354
#     4  10  16  30  56  87 120 153 182 233 296 349
#     4  11  25  43  62  80 108 160 214 241 270 335
#
# _framework density 18.701425
#
# number of rings (size 3 to 8) (size 9 to 14) (size 15 to 20)
#    0.000    1.143   10.000    2.143    0.000    0.571 
#    0.000    0.714    0.000    0.000    0.000    0.000 
#    0.000    0.000    0.000    0.000    0.000    0.000 
#
# Total GULP energy -156273.957257 kJ/mol
# GULP energy per Si atom -5581.212759 kJ/mol
# Density = 1.865886 g / cm^3
# Si number density = 18.701425 Si / 1000 Ang^3
#
#
#
# Elastic Constant Matrix: (Units=GPa)
#
#
# Indices 1 2 3 4 5 6 
#
# 1 126.3868 37.7423 36.5584 0.0000 -23.5571 0.0000
# 2 37.7423 68.2538 21.4928 0.0000 -12.5037 0.0000
# 3 36.5584 21.4928 39.6061 0.0000 -23.1000 0.0000
# 4 0.0000 0.0000 0.0000 6.5345 0.0000 0.7988
# 5 -23.5571 -12.5037 -23.1000 0.0000 45.4813 0.0000
# 6 0.0000 0.0000 0.0000 0.7988 0.0000 4.4186
#
#
#
# Elastic Compliance Matrix: (Units=1/GPa)
#
#
# Indices 1 2 3 4 5 6 
#
# 1 0.011518 -0.003644 -0.008183 0.000000 0.000808 0.000000
# 2 -0.003644 0.018824 -0.007010 0.000000 -0.000273 0.000000
# 3 -0.008183 -0.007010 0.046905 0.000000 0.017657 0.000000
# 4 0.000000 0.000000 0.000000 0.156491 0.000000 -0.028291
# 5 0.000808 -0.000273 0.017657 0.000000 0.031298 0.000000
# 6 0.000000 0.000000 0.000000 -0.028291 0.000000 0.231430
#
#
# Mechanical properties :
#
#
# Convention : Reuss Voigt Hill
#
# Bulk Modulus (GPa) = 25.27093 47.31487 36.29290
# Shear Modulus (GPa) = 9.13522 20.51710 14.82616
#
# Velocity S-wave (km/s) = 2.21255 3.31582 2.81869
# Velocity P-wave (km/s) = 4.47988 6.32571 5.48106
#
# Compressibility (1/GPa) = 0.03957116
#
# Stress axis : x y z
#
# Youngs Moduli (GPa) = 86.82008 53.12376 21.31981
#
# Poissons Ratio (x) = 0.19360 0.17446
# Poissons Ratio (y) = 0.31641 0.14946
# Poissons Ratio (z) = 0.71045 0.37242
#
# Static dielectric constant tensor:
#      x y z
#    x 1.714100 0.000000 -0.005750 
#    y 0.000000 1.612930 0.000000 
#    z -0.005750 0.000000 1.726550 
# 
# From -- ./inp_files/41984.got.cif
#   From: 2010.05.17/outbox.cif.g08.bks.cpg/sg11_21_cif.got.tgz:41984.got - 2010.06.03 12:22:45.
