data_PCOD9155320
_publ_section_title
;
Structure prediction by ZEFSAII (Michael W. Deem and Ramdas Pophale) SiO2 
 PCOD9155320
Probable space group: P 2/M
;
_chemical_formula_sum "Si O2"
_cell_formula_units_Z 28
_cell_length_a 21.000000
_cell_length_b 9.000000
_cell_length_c 15.000000
_cell_angle_alpha 90.000000
_cell_angle_beta 150.000000
_cell_angle_gamma 90.000000
_cell_volume 1417.500000
_symmetry_space_group_name_H-M "P 2/M"
_symmetry_group_IT_number 10
_symmetry_cell_setting 'monoclinic'
loop_
_space_group_symop_operation_xyz
x,y,z
-x,y,-z
-x,-y,-z
x,-y,z
loop_
_atom_site_type_symbol
_atom_site_label
_atom_site_fract_x
_atom_site_fract_y
_atom_site_fract_z
Si Si1 0.851254 0.172464 0.298217
Si Si2 0.738134 0.321945 0.634886
Si Si3 0.556841 0.822174 0.269970
Si Si4 0.235844 0.820165 0.616843
Si Si5 0.778507 0.321900 0.885971
Si Si6 0.946527 0.821456 0.767722
Si Si7 0.307823 0.675588 0.027913
O O1 0.784032 0.232254 0.306742
O O2 0.000000 0.172026 0.500000
O O3 0.813401 0.000000 0.235691
O O4 0.820731 0.270140 0.175225
O O5 0.737263 0.500000 0.622942
O O6 0.631163 0.248565 0.443594
O O7 0.723297 0.287910 0.721483
O O8 0.868878 0.254802 0.754080
O O9 0.633145 0.778250 0.273163
O O10 0.415741 0.762006 0.105099
O O11 0.561205 0.000000 0.281340
O O12 0.125463 0.779406 0.411944
O O13 0.231655 0.000000 0.617695
O O14 0.802863 0.500000 0.918024
O O15 0.692784 0.286529 0.867994
O O16 0.910495 0.235784 0.057470
O O17 0.939737 0.000000 0.768062
O O18 0.324974 0.500000 0.040300
#
# Coordination Sequence:
#
# PCOD9155320 Si02
#       7
#     4   4   4   4   4   4   4
#     4  10  20  37  61  86 111 142 179 220 273 334
#     4  10  20  36  57  80 110 148 185 223 275 334
#     4  10  21  39  59  81 109 143 187 232 275 325
#     4   8  17  34  56  81 110 143 177 220 275 330
#     4  10  22  37  53  76 111 153 187 222 277 336
#     4  10  19  33  56  86 115 143 182 230 274 322
#     4  11  24  40  56  79 112 147 186 231 276 325
#
# _framework density 19.753086
#
# number of rings (size 3 to 8) (size 9 to 14) (size 15 to 20)
#    0.000    2.143    0.000    3.857    0.000    6.571 
#    0.000   10.000    0.000    0.000    0.000    0.000 
#    0.000    0.000    0.000    0.000    0.000    0.000 
#
# Total GULP energy -156314.035805 kJ/mol
# GULP energy per Si atom -5582.644136 kJ/mol
# Density = 1.970813 g / cm^3
# Si number density = 19.753086 Si / 1000 Ang^3
#
#
#
# Elastic Constant Matrix: (Units=GPa)
#
#
# Indices 1 2 3 4 5 6 
#
# 1 100.0367 26.4900 16.3004 0.0000 -20.9483 0.0000
# 2 26.4900 36.2607 8.9535 0.0000 -2.4286 0.0000
# 3 16.3004 8.9535 23.6456 0.0000 4.3266 0.0000
# 4 0.0000 0.0000 0.0000 21.5704 0.0000 -7.7402
# 5 -20.9483 -2.4286 4.3266 0.0000 27.2938 0.0000
# 6 0.0000 0.0000 0.0000 -7.7402 0.0000 17.1167
#
#
#
# Elastic Compliance Matrix: (Units=1/GPa)
#
#
# Indices 1 2 3 4 5 6 
#
# 1 0.017065 -0.008809 -0.011001 0.000000 0.014058 0.000000
# 2 -0.008809 0.035558 -0.006935 0.000000 -0.002498 0.000000
# 3 -0.011001 -0.006935 0.055776 0.000000 -0.017902 0.000000
# 4 0.000000 0.000000 0.000000 0.055340 0.000000 0.025025
# 5 0.014058 -0.002498 -0.017902 0.000000 0.050044 0.000000
# 6 0.000000 0.000000 0.000000 0.025025 0.000000 0.069739
#
#
# Mechanical properties :
#
#
# Convention : Reuss Voigt Hill
#
# Bulk Modulus (GPa) = 18.21135 29.27010 23.74073
# Shear Modulus (GPa) = 14.07202 20.40945 17.24073
#
# Velocity S-wave (km/s) = 2.67197 3.21787 2.95754
# Velocity P-wave (km/s) = 4.33114 5.35317 4.86904
#
# Compressibility (1/GPa) = 0.05491080
#
# Stress axis : x y z
#
# Youngs Moduli (GPa) = 58.59834 28.12270 17.92872
#
# Poissons Ratio (x) = 0.24773 0.19723
# Poissons Ratio (y) = 0.51619 0.12433
# Poissons Ratio (z) = 0.64464 0.19502
#
# Static dielectric constant tensor:
#      x y z
#    x 1.710100 0.000000 0.023980 
#    y 0.000000 1.658570 0.000000 
#    z 0.023980 0.000000 1.728910 
# 
# From -- ./inp_files/63641.got.cif
#   From: 2010.05.17/outbox.ucp.g08.bks.cvg/sg10_32_cif.got.tgz:63641.got - 2010.06.11 11:31:16.
