data_PCOD9155206
_publ_section_title
;
Structure prediction by ZEFSAII (Michael W. Deem and Ramdas Pophale) SiO2 
 PCOD9155206
Probable space group: P 2/M
;
_chemical_formula_sum "Si O2"
_cell_formula_units_Z 32
_cell_length_a 18.000000
_cell_length_b 9.000000
_cell_length_c 12.000000
_cell_angle_alpha 90.000000
_cell_angle_beta 90.000000
_cell_angle_gamma 90.000000
_cell_volume 1944.000000
_symmetry_space_group_name_H-M "P 2/M"
_symmetry_group_IT_number 10
_symmetry_cell_setting 'monoclinic'
loop_
_space_group_symop_operation_xyz
x,y,z
-x,y,-z
-x,-y,-z
x,-y,z
loop_
_atom_site_type_symbol
_atom_site_label
_atom_site_fract_x
_atom_site_fract_y
_atom_site_fract_z
Si Si1 0.913232 0.320832 0.003012
Si Si2 0.695113 0.173551 0.066102
Si Si3 0.462520 0.321643 0.383209
Si Si4 0.710013 0.320993 0.635178
Si Si5 0.264414 0.176562 0.600693
Si Si6 0.412047 0.825640 0.749366
Si Si7 0.783840 0.175904 0.850445
Si Si8 0.817638 0.325974 0.209876
O O1 0.907182 0.500000 0.986847
O O2 0.856233 0.244131 0.914842
O O3 0.885655 0.287583 0.128916
O O4 0.000000 0.278927 0.000000
O O5 0.615649 0.196515 0.123574
O O6 0.748507 0.287105 0.129656
O O7 0.715262 0.000000 0.094669
O O8 0.714343 0.191469 0.937062
O O9 0.500000 0.268083 0.500000
O O10 0.461706 0.500000 0.388036
O O11 0.377461 0.273997 0.362701
O O12 0.517528 0.267535 0.287192
O O13 0.713262 0.500000 0.639740
O O14 0.737331 0.261820 0.515675
O O15 0.758354 0.253859 0.736337
O O16 0.341499 0.210119 0.668201
O O17 0.197896 0.230519 0.680635
O O18 0.261938 0.000000 0.583945
O O19 0.428078 0.000000 0.734031
O O20 0.796322 0.000000 0.833169
O O21 0.819397 0.500000 0.237322
#
# Coordination Sequence:
#
# PCOD9155206 Si02
#       8
#     4   4   4   4   4   4   4   4
#     4   9  18  34  57  84 111 137 166 201 243 295
#     4   8  16  31  48  69  97 130 166 208 252 298
#     4  10  20  33  47  68  98 130 169 216 261 303
#     4  11  22  35  51  71 100 136 174 214 259 308
#     4  10  19  31  48  72 101 133 171 212 255 300
#     4   9  17  29  48  71  94 124 167 214 257 299
#     4  10  20  35  54  76 105 136 170 208 251 304
#     4   9  16  27  48  77 104 131 165 204 245 289
#
# _framework density 16.460905
#
# number of rings (size 3 to 8) (size 9 to 14) (size 15 to 20)
#    0.000    2.500    1.250    2.250    0.000    4.500 
#    0.000    0.625    0.000    4.500    0.000    5.250 
#    0.000    0.000    0.000    0.000    0.000    0.000 
#
# Total GULP energy -178183.063964 kJ/mol
# GULP energy per Si atom -5568.220749 kJ/mol
# Density = 1.642344 g / cm^3
# Si number density = 16.460905 Si / 1000 Ang^3
#
#
#
# Elastic Constant Matrix: (Units=GPa)
#
#
# Indices 1 2 3 4 5 6 
#
# 1 92.7405 35.8162 51.1776 0.0000 -10.5810 0.0000
# 2 35.8162 47.2691 43.2988 0.0000 -0.8909 0.0000
# 3 51.1776 43.2988 100.2779 0.0000 -3.3064 0.0000
# 4 0.0000 0.0000 0.0000 25.0716 0.0000 -3.6606
# 5 -10.5810 -0.8909 -3.3064 0.0000 23.5948 0.0000
# 6 0.0000 0.0000 0.0000 -3.6606 0.0000 18.7262
#
#
#
# Elastic Compliance Matrix: (Units=1/GPa)
#
#
# Indices 1 2 3 4 5 6 
#
# 1 0.017709 -0.008632 -0.005083 0.000000 0.006903 0.000000
# 2 -0.008632 0.039220 -0.012667 0.000000 -0.004165 0.000000
# 3 -0.005083 -0.012667 0.018028 0.000000 -0.000231 0.000000
# 4 0.000000 0.000000 0.000000 0.041058 0.000000 0.008026
# 5 0.006903 -0.004165 -0.000231 0.000000 0.045288 0.000000
# 6 0.000000 0.000000 0.000000 0.008026 0.000000 0.054970
#
#
# Mechanical properties :
#
#
# Convention : Reuss Voigt Hill
#
# Bulk Modulus (GPa) = 45.05768 55.65252 50.35510
# Shear Modulus (GPa) = 18.08738 20.81150 19.44944
#
# Velocity S-wave (km/s) = 3.31842 3.55956 3.44110
# Velocity P-wave (km/s) = 6.48957 7.12574 6.81508
#
# Compressibility (1/GPa) = 0.02219377
#
# Stress axis : x y z
#
# Youngs Moduli (GPa) = 56.46798 25.49692 55.46846
#
# Poissons Ratio (x) = 0.22009 0.28195
# Poissons Ratio (y) = 0.48744 0.70261
# Poissons Ratio (z) = 0.28704 0.32296
#
# Static dielectric constant tensor:
#      x y z
#    x 1.552020 0.000000 -0.034280 
#    y 0.000000 1.554040 0.000000 
#    z -0.034280 0.000000 1.568250 
# 
# From -- ./inp_files/52752.got.cif
#   From: 2010.05.17/outbox.ucp.g08.bks.cvg/sg10_27_cif.got.tgz:52752.got - 2010.06.11 11:31:16.
