data_PCOD9155335
_publ_section_title
;
Structure prediction by ZEFSAII (Michael W. Deem and Ramdas Pophale) SiO2 
 PCOD9155335
Probable space group: P 2/M
;
_chemical_formula_sum "Si O2"
_cell_formula_units_Z 32
_cell_length_a 21.000000
_cell_length_b 9.000000
_cell_length_c 12.000000
_cell_angle_alpha 90.000000
_cell_angle_beta 50.000000
_cell_angle_gamma 90.000000
_cell_volume 1737.388797
_symmetry_space_group_name_H-M "P 2/M"
_symmetry_group_IT_number 10
_symmetry_cell_setting 'monoclinic'
loop_
_space_group_symop_operation_xyz
x,y,z
-x,y,-z
-x,-y,-z
x,-y,z
loop_
_atom_site_type_symbol
_atom_site_label
_atom_site_fract_x
_atom_site_fract_y
_atom_site_fract_z
Si Si1 0.699649 0.822961 0.216121
Si Si2 0.053536 0.320372 0.786500
Si Si3 0.797049 0.672197 0.513736
Si Si4 0.875605 0.319818 0.050593
Si Si5 0.371603 0.326413 0.919205
Si Si6 0.655003 0.328289 0.494795
Si Si7 0.538463 0.173380 0.798169
Si Si8 0.318618 0.826976 0.185364
O O1 0.794455 0.765511 0.102952
O O2 0.649684 0.770498 0.164239
O O3 0.663714 0.735483 0.362551
O O4 0.695907 0.000000 0.234731
O O5 0.055692 0.500000 0.787370
O O6 0.111694 0.274300 0.620476
O O7 0.095638 0.276384 0.856468
O O8 0.957464 0.280459 0.887968
O O9 0.797001 0.500000 0.552926
O O10 0.743054 0.671052 0.460348
O O11 0.751528 0.779151 0.649566
O O12 0.861766 0.500000 0.064002
O O13 0.366873 0.500000 0.899428
O O14 0.460806 0.279657 0.867577
O O15 0.311768 0.277044 0.086418
O O16 0.625034 0.500000 0.529581
O O17 0.598071 0.218116 0.629509
O O18 0.594426 0.196287 0.845284
O O19 0.513899 0.000000 0.822533
O O20 0.314678 0.000000 0.159509
#
# Coordination Sequence:
#
# PCOD9155335 Si02
#       8
#     4   4   4   4   4   4   4   4
#     4  12  24  37  53  76 112 149 180 221 275 327
#     4   8  14  27  53  83 111 142 179 220 262 308
#     4   9  16  30  54  83 111 142 179 221 262 310
#     4   9  16  31  53  79 110 146 182 218 260 314
#     4  12  25  40  58  78 101 140 190 228 264 318
#     4  10  19  34  56  81 110 144 184 221 260 316
#     4  10  21  38  59  84 113 139 170 220 278 324
#     4  10  21  37  57  82 111 141 173 220 276 321
#
# _framework density 18.418444999999998
#
# number of rings (size 3 to 8) (size 9 to 14) (size 15 to 20)
#    0.000    2.000    1.250    4.500    0.000    4.000 
#    0.000    4.375    0.000    0.750    0.000    5.250 
#    0.000    0.000    0.000    0.000    0.000    0.000 
#
# Total GULP energy -178452.956358 kJ/mol
# GULP energy per Si atom -5576.654886 kJ/mol
# Density = 1.837652 g / cm^3
# Si number density = 18.418445 Si / 1000 Ang^3
#
#
#
# Elastic Constant Matrix: (Units=GPa)
#
#
# Indices 1 2 3 4 5 6 
#
# 1 -10.1662 -0.8345 14.0763 0.0000 -3.3614 0.0000
# 2 -0.8345 48.2508 0.7499 0.0000 2.8735 0.0000
# 3 14.0763 0.7499 64.6688 0.0000 3.8671 0.0000
# 4 0.0000 0.0000 0.0000 -417.9815 0.0000 125.7745
# 5 -3.3614 2.8735 3.8671 0.0000 12.5267 0.0000
# 6 0.0000 0.0000 0.0000 125.7745 0.0000 -10.8388
#
#
#
# Elastic Compliance Matrix: (Units=1/GPa)
#
#
# Indices 1 2 3 4 5 6 
#
# 1 -0.068180 -0.000044 0.016234 0.000000 -0.023297 0.000000
# 2 -0.000044 0.021012 0.000056 0.000000 -0.004849 0.000000
# 3 0.016234 0.000056 0.011889 0.000000 0.000673 0.000000
# 4 0.000000 0.000000 0.000000 0.000960 0.000000 0.011142
# 5 -0.023297 -0.004849 0.000673 0.000000 0.074482 0.000000
# 6 0.000000 0.000000 0.000000 0.011142 0.000000 0.037026
#
#
# Mechanical properties :
#
#
# Convention : Reuss Voigt Hill
#
# Bulk Modulus (GPa) = -358.84301 14.52632 -172.15834
# Shear Modulus (GPa) = 114.23781 -77.34127 18.44827
#
# Velocity S-wave (km/s) = 7.88405 -6.48709 3.16827
# Velocity P-wave (km/s) = 10.60063 6.94304 8.96045
#
# Compressibility (1/GPa) = -0.00278673
#
# Stress axis : x y z
#
# Youngs Moduli (GPa) = -14.66704 47.59143 84.11268
#
# Poissons Ratio (x) = 0.00210 -1.36551
# Poissons Ratio (y) = -0.00065 -0.00470
# Poissons Ratio (z) = 0.23811 -0.00266
#
# Static dielectric constant tensor:
#      x y z
#    x 1.607980 0.000000 -0.030230 
#    y 0.000000 1.604400 0.000000 
#    z -0.030230 0.000000 1.716640 
# 
# From -- ./inp_files/55209.got.cif
#   From: 2010.05.17/outbox.ucp.g08.bks.cvg/sg10_28_cif.got.tgz:55209.got - 2010.06.11 11:31:16.
