data_PCOD9155855
_publ_section_title
;
Structure prediction by ZEFSAII (Michael W. Deem and Ramdas Pophale) SiO2 
 PCOD9155855
Probable space group: P 21/M
;
_chemical_formula_sum "Si O2"
_cell_formula_units_Z 24
_cell_length_a 20.540959
_cell_length_b 9.251252
_cell_length_c 7.200032
_cell_angle_alpha 90.000000
_cell_angle_beta 127.849539
_cell_angle_gamma 90.000000
_cell_volume 1080.379726
_symmetry_space_group_name_H-M "P 21/M"
_symmetry_group_IT_number 11
_symmetry_cell_setting 'monoclinic'
loop_
_space_group_symop_operation_xyz
x,y,z
-x,1/2+y,-z
-x,-y,-z
x,1/2-y,z
loop_
_atom_site_type_symbol
_atom_site_label
_atom_site_fract_x
_atom_site_fract_y
_atom_site_fract_z
Si Si1 0.916340 0.088270 0.383745
Si Si2 0.559676 0.414217 0.844121
Si Si3 0.403568 0.585361 0.643417
Si Si4 0.259165 0.574712 0.863740
Si Si5 0.916364 0.086166 0.826917
Si Si6 0.755490 0.578037 0.560510
O O1 0.930173 0.250000 0.336891
O O2 0.823596 0.039480 0.164624
O O3 0.906221 0.094814 0.587909
O O4 0.000000 0.000000 0.500000
O O5 0.534968 0.250000 0.754300
O O6 0.485191 0.524716 0.688635
O O7 0.578094 0.414707 0.100554
O O8 0.647483 0.448114 0.902314
O O9 0.384911 0.750000 0.558571
O O10 0.324731 0.484116 0.478731
O O11 0.255255 0.750000 0.816023
O O12 0.254449 0.477708 0.669822
O O13 0.919500 0.250000 0.902429
O O14 0.839804 0.997323 0.771994
O O15 0.000000 0.000000 0.000000
O O16 0.760384 0.750000 0.577747
#
# Coordination Sequence:
#
# PCOD9155855 Si02
#       6
#     4   4   4   4   4   4
#     4   9  18  31  47  67  92 120 151 187 226 268
#     4   8  13  21  33  49  72 104 140 175 213 257
#     4   9  15  22  32  49  76 107 138 174 214 258
#     4   8  15  27  39  54  80 112 144 181 221 260
#     4  10  20  34  49  67  91 119 152 190 229 268
#     4  10  17  25  39  58  80 110 145 178 217 265
#
# _framework density 22.214413
#
# number of rings (size 3 to 8) (size 9 to 14) (size 15 to 20)
#    0.000    3.000    0.000    4.500    0.000    7.333 
#    0.000    0.000    0.000    0.000    0.000    0.000 
#    0.000    1.333    0.000    4.000    0.000   12.500 
#
# Total GULP energy -133894.068619 kJ/mol
# GULP energy per Si atom -5578.919526 kJ/mol
# Density = 2.216385 g / cm^3
# Si number density = 22.214413 Si / 1000 Ang^3
#
#
#
# Elastic Constant Matrix: (Units=GPa)
#
#
# Indices 1 2 3 4 5 6 
#
# 1 151.1900 84.6950 56.0538 0.0000 46.4796 0.0000
# 2 84.6950 167.8402 51.4324 0.0000 50.2210 0.0000
# 3 56.0538 51.4324 60.0223 0.0000 28.7774 0.0000
# 4 0.0000 0.0000 0.0000 21.9337 0.0000 20.1226
# 5 46.4796 50.2210 28.7774 0.0000 71.0582 0.0000
# 6 0.0000 0.0000 0.0000 20.1226 0.0000 33.3882
#
#
#
# Elastic Compliance Matrix: (Units=1/GPa)
#
#
# Indices 1 2 3 4 5 6 
#
# 1 0.011738 -0.002916 -0.007160 0.000000 -0.002717 0.000000
# 2 -0.002916 0.009625 -0.003943 0.000000 -0.003298 0.000000
# 3 -0.007160 -0.003943 0.028721 0.000000 -0.004161 0.000000
# 4 0.000000 0.000000 0.000000 0.101978 0.000000 -0.061461
# 5 -0.002717 -0.003298 -0.004161 0.000000 0.019867 0.000000
# 6 0.000000 0.000000 0.000000 -0.061461 0.000000 0.066992
#
#
# Mechanical properties :
#
#
# Convention : Reuss Voigt Hill
#
# Bulk Modulus (GPa) = 45.36123 84.82386 65.09255
# Shear Modulus (GPa) = 18.22778 37.73410 27.98094
#
# Velocity S-wave (km/s) = 2.86761 4.12592 3.55291
# Velocity P-wave (km/s) = 5.60610 7.80799 6.79680
#
# Compressibility (1/GPa) = 0.02204526
#
# Stress axis : x y z
#
# Youngs Moduli (GPa) = 85.19644 103.90133 34.81764
#
# Poissons Ratio (x) = 0.30296 0.24931
# Poissons Ratio (y) = 0.24842 0.13728
# Poissons Ratio (z) = 0.61004 0.40966
#
# Static dielectric constant tensor:
#      x y z
#    x 1.891090 0.000000 -0.117400 
#    y 0.000000 1.748030 0.000000 
#    z -0.117400 0.000000 2.161540 
# 
# From -- ./inp_files/25734.got.cif
#   From: 2010.05.17/outbox.cif.g08.bks.cpg/sg11_13_cif.got.tgz:25734.got - 2010.06.03 12:22:45.
