data_PCOD9155005
_publ_section_title
;
Structure prediction by ZEFSAII (Michael W. Deem and Ramdas Pophale) SiO2 
 PCOD9155005
Probable space group: P 2/M
;
_chemical_formula_sum "Si O2"
_cell_formula_units_Z 24
_cell_length_a 21.662525
_cell_length_b 7.557736
_cell_length_c 9.374552
_cell_angle_alpha 90.000000
_cell_angle_beta 49.523489
_cell_angle_gamma 90.000000
_cell_volume 1167.478342
_symmetry_space_group_name_H-M "P 2/M"
_symmetry_group_IT_number 10
_symmetry_cell_setting 'monoclinic'
loop_
_space_group_symop_operation_xyz
x,y,z
-x,y,-z
-x,-y,-z
x,-y,z
loop_
_atom_site_type_symbol
_atom_site_label
_atom_site_fract_x
_atom_site_fract_y
_atom_site_fract_z
Si Si1 0.735525 0.789809 0.734078
Si Si2 0.912777 0.712685 0.797010
Si Si3 0.264474 0.210192 0.940656
Si Si4 0.912777 0.712685 0.464656
Si Si5 0.579936 0.783352 0.466349
Si Si6 0.420064 0.783352 0.206157
O O1 0.733905 0.717468 0.899142
O O2 0.825504 0.763993 0.534926
O O3 0.661658 0.721934 0.750097
O O4 0.723792 0.000000 0.763038
O O5 0.914305 0.500000 0.794376
O O6 0.825504 0.763986 0.988560
O O7 0.911288 0.772165 0.633067
O O8 1.000000 0.773189 0.727191
O O9 0.276204 0.000000 0.934419
O O10 0.338343 0.278065 0.735072
O O11 0.914301 0.500000 0.462708
O O12 0.500000 0.728981 0.500000
O O13 0.576837 0.726304 0.634745
O O14 0.580547 0.000000 0.465909
O O15 0.419452 0.000000 0.207551
O O16 0.500000 0.728981 0.000000
#
# Coordination Sequence:
#
# PCOD9155005 Si02
#       6
#     4   4   4   4   4   4
#     4   9  16  25  40  64  89 110 137 175 213 245
#     4   8  14  25  41  61  85 113 143 173 207 248
#     4   9  16  25  40  64  89 110 137 175 213 245
#     4   8  14  25  41  61  85 113 143 173 207 248
#     4   9  16  26  41  61  86 114 141 170 207 251
#     4   9  16  26  41  61  86 114 141 170 207 251
#
# _framework density 20.557124999999999
#
# number of rings (size 3 to 8) (size 9 to 14) (size 15 to 20)
#    0.000    3.333    0.000    2.000    0.000    4.667 
#    0.000    3.333    0.000    3.000    0.000    7.000 
#    0.000    0.000    0.000    0.000    0.000    0.000 
#
# Total GULP energy -133691.957191 kJ/mol
# GULP energy per Si atom -5570.498216 kJ/mol
# Density = 2.051034 g / cm^3
# Si number density = 20.557125 Si / 1000 Ang^3
#
#
#
# Elastic Constant Matrix: (Units=GPa)
#
#
# Indices 1 2 3 4 5 6 
#
# 1 181.6453 3.8284 111.5126 0.0000 -44.3169 0.0000
# 2 3.8284 44.3630 4.2035 0.0000 1.0667 0.0000
# 3 111.5126 4.2035 151.8088 0.0000 -40.3164 0.0000
# 4 0.0000 0.0000 0.0000 15.0969 0.0000 -19.2168
# 5 -44.3169 1.0667 -40.3164 0.0000 38.6030 0.0000
# 6 0.0000 0.0000 0.0000 -19.2168 0.0000 21.8706
#
#
#
# Elastic Compliance Matrix: (Units=1/GPa)
#
#
# Indices 1 2 3 4 5 6 
#
# 1 0.010881 -0.000467 -0.006447 0.000000 0.005771 0.000000
# 2 -0.000467 0.022708 -0.000823 0.000000 -0.002023 0.000000
# 3 -0.006447 -0.000823 0.012989 0.000000 0.006187 0.000000
# 4 0.000000 0.000000 0.000000 -0.559232 0.000000 -0.491375
# 5 0.005771 -0.002023 0.006187 0.000000 0.039047 0.000000
# 6 0.000000 0.000000 0.000000 -0.491375 0.000000 -0.386028
#
#
# Mechanical properties :
#
#
# Convention : Reuss Voigt Hill
#
# Bulk Modulus (GPa) = 32.15040 68.54513 50.34776
# Shear Modulus (GPa) = -5.99670 32.33227 13.16779
#
# Velocity S-wave (km/s) = -1.70980 3.97016 2.53365
# Velocity P-wave (km/s) = 3.43156 7.37783 5.75360
#
# Compressibility (1/GPa) = 0.03110382
#
# Stress axis : x y z
#
# Youngs Moduli (GPa) = 91.90301 44.03692 76.98895
#
# Poissons Ratio (x) = 0.02056 0.49636
# Poissons Ratio (y) = 0.04291 0.06337
# Poissons Ratio (z) = 0.59251 0.03625
#
# Static dielectric constant tensor:
#      x y z
#    x 1.744150 0.000000 -0.032920 
#    y 0.000000 1.771220 0.000000 
#    z -0.032920 0.000000 1.732550 
# 
# From -- ./inp_files/27997.got.cif
#   From: 2010.05.17/outbox.cif.g08.bks.cpg/sg10_14_cif.got.tgz:27997.got - 2010.06.03 11:33:40.
