data_PCOD9155518
_publ_section_title
;
Structure prediction by ZEFSAII (Michael W. Deem and Ramdas Pophale) SiO2 
 PCOD9155518
Probable space group: P 2/M
;
_chemical_formula_sum "Si O2"
_cell_formula_units_Z 24
_cell_length_a 30.000000
_cell_length_b 9.000000
_cell_length_c 9.000000
_cell_angle_alpha 90.000000
_cell_angle_beta 150.000000
_cell_angle_gamma 90.000000
_cell_volume 1215.000000
_symmetry_space_group_name_H-M "P 2/M"
_symmetry_group_IT_number 10
_symmetry_cell_setting 'monoclinic'
loop_
_space_group_symop_operation_xyz
x,y,z
-x,y,-z
-x,-y,-z
x,-y,z
loop_
_atom_site_type_symbol
_atom_site_label
_atom_site_fract_x
_atom_site_fract_y
_atom_site_fract_z
Si Si1 0.029473 0.323558 0.249492
Si Si2 0.376121 0.175885 0.510115
Si Si3 0.182707 0.174367 0.840937
Si Si4 0.875512 0.176775 0.989077
Si Si5 0.523348 0.677152 0.734398
Si Si6 0.303944 0.324086 0.599850
O O1 0.021446 0.500000 0.238032
O O2 0.129426 0.272232 0.571317
O O3 0.000000 0.276998 0.000000
O O4 0.964198 0.248694 0.180727
O O5 0.461984 0.237017 0.674448
O O6 0.353428 0.262593 0.595575
O O7 0.383507 0.000000 0.563166
O O8 0.288360 0.197905 0.154722
O O9 0.165850 0.000000 0.764755
O O10 0.144125 0.209581 0.894318
O O11 0.789604 0.241132 0.656050
O O12 0.880052 0.000000 0.987135
O O13 0.500000 0.721245 0.500000
O O14 0.506644 0.500000 0.703348
O O15 0.626930 0.702653 0.068362
O O16 0.288302 0.500000 0.539006
#
# Coordination Sequence:
#
# PCOD9155518 Si02
#       6
#     4   4   4   4   4   4
#     4  11  24  38  54  81 114 147 183 222 268 325
#     4  10  21  37  58  84 112 142 182 230 274 322
#     4   9  20  38  58  82 109 140 181 227 274 323
#     4  10  21  38  60  84 110 141 181 229 276 323
#     4  10  22  38  55  79 113 150 185 225 274 325
#     4  10  20  36  59  84 110 143 184 227 272 324
#
# _framework density 19.753086
#
# number of rings (size 3 to 8) (size 9 to 14) (size 15 to 20)
#    0.000    2.000    0.000    4.000    0.000   12.333 
#    0.000    5.000    0.000    0.000    0.000    0.000 
#    0.000    0.000    0.000    0.000    0.000    0.000 
#
# Total GULP energy -134101.433053 kJ/mol
# GULP energy per Si atom -5587.559711 kJ/mol
# Density = 1.970813 g / cm^3
# Si number density = 19.753086 Si / 1000 Ang^3
#
#
#
# Elastic Constant Matrix: (Units=GPa)
#
#
# Indices 1 2 3 4 5 6 
#
# 1 -7.9533 -4.9020 1.2705 0.0000 6.5184 0.0000
# 2 -4.9020 23.3007 34.3516 0.0000 -9.9023 0.0000
# 3 1.2705 34.3516 94.2820 0.0000 -9.8990 0.0000
# 4 0.0000 0.0000 0.0000 29.0940 0.0000 6.9285
# 5 6.5184 -9.9023 -9.8990 0.0000 21.4793 0.0000
# 6 0.0000 0.0000 0.0000 6.9285 0.0000 618.4898
#
#
#
# Elastic Compliance Matrix: (Units=1/GPa)
#
#
# Indices 1 2 3 4 5 6 
#
# 1 -0.087886 -0.032948 0.015126 0.000000 0.018453 0.000000
# 2 -0.032948 0.100698 -0.031863 0.000000 0.041738 0.000000
# 3 0.015126 -0.031863 0.021004 0.000000 -0.009600 0.000000
# 4 0.000000 0.000000 0.000000 0.034463 0.000000 -0.000386
# 5 0.018453 0.041738 -0.009600 0.000000 0.055774 0.000000
# 6 0.000000 0.000000 0.000000 -0.000386 0.000000 0.001621
#
#
# Mechanical properties :
#
#
# Convention : Reuss Voigt Hill
#
# Bulk Modulus (GPa) = -15.25479 19.00771 1.87646
# Shear Modulus (GPa) = 24.60728 139.07326 81.84027
#
# Velocity S-wave (km/s) = 3.53334 8.39992 6.44372
# Velocity P-wave (km/s) = 2.98437 10.18439 7.50427
#
# Compressibility (1/GPa) = -0.06555318
#
# Stress axis : x y z
#
# Youngs Moduli (GPa) = -11.37834 9.93069 47.60996
#
# Poissons Ratio (x) = 0.32719 -0.72016
# Poissons Ratio (y) = -0.37489 1.51700
# Poissons Ratio (z) = 0.17211 0.31642
#
# Static dielectric constant tensor:
#      x y z
#    x 1.646770 0.000000 -0.020470 
#    y 0.000000 1.658520 0.000000 
#    z -0.020470 0.000000 1.724570 
# 
# From -- ./inp_files/27101.got.cif
#   From: 2010.05.17/outbox.ucp.g08.bks.cvg/sg10_14_cif.got.tgz:27101.got - 2010.06.11 11:31:16.
