data_PCOD9155954
_publ_section_title
;
Structure prediction by ZEFSAII (Michael W. Deem and Ramdas Pophale) SiO2 
 PCOD9155954
Probable space group: P 21/M
;
_chemical_formula_sum "Si O2"
_cell_formula_units_Z 24
_cell_length_a 14.781288
_cell_length_b 8.658074
_cell_length_c 12.606435
_cell_angle_alpha 90.000000
_cell_angle_beta 110.201009
_cell_angle_gamma 90.000000
_cell_volume 1514.098382
_symmetry_space_group_name_H-M "P 21/M"
_symmetry_group_IT_number 11
_symmetry_cell_setting 'monoclinic'
loop_
_space_group_symop_operation_xyz
x,y,z
-x,1/2+y,-z
-x,-y,-z
x,1/2-y,z
loop_
_atom_site_type_symbol
_atom_site_label
_atom_site_fract_x
_atom_site_fract_y
_atom_site_fract_z
Si Si1 0.730220 0.437513 0.538756
Si Si2 0.156306 0.434366 0.069771
Si Si3 0.526706 0.064751 0.394529
Si Si4 0.004385 0.436325 0.837032
Si Si5 0.335380 0.934551 0.250682
Si Si6 0.053845 0.936583 0.419698
O O1 0.733089 0.250000 0.542601
O O2 0.638986 0.480848 0.428360
O O3 0.706504 0.485978 0.650428
O O4 0.834844 0.490534 0.543806
O O5 0.164157 0.250000 0.077262
O O6 0.083662 0.491315 0.132560
O O7 0.259893 0.507718 0.133339
O O8 0.102357 0.478027 0.938525
O O9 0.521075 0.250000 0.393309
O O10 0.500000 0.000000 0.500000
O O11 0.443645 0.999178 0.285511
O O12 0.993423 0.250000 0.838612
O O13 0.997323 0.481592 0.711667
O O14 0.339023 0.750000 0.253110
O O15 0.054217 0.750000 0.424695
O O16 0.000000 0.000000 0.500000
#
# Coordination Sequence:
#
# PCOD9155954 Si02
#       6
#     4   4   4   4   4   4
#     4   8  15  28  44  59  87 123 149 178 227 270
#     4  10  18  27  45  70  91 118 154 188 223 277
#     4   9  16  26  41  64  89 119 152 184 223 277
#     4   9  18  32  46  62  92 125 150 185 235 275
#     4  10  17  28  44  64  92 126 148 179 232 278
#     4  10  19  33  48  65  90 124 158 188 224 267
#
# _framework density 15.851018
#
# number of rings (size 3 to 8) (size 9 to 14) (size 15 to 20)
#    0.000    2.667    1.667    2.500    0.000    1.333 
#    0.000    1.667    0.000    0.000    0.000    1.167 
#    0.000    0.000    0.000    0.000    0.000    0.000 
#
# Total GULP energy -133650.394740 kJ/mol
# GULP energy per Si atom -5568.766448 kJ/mol
# Density = 1.581494 g / cm^3
# Si number density = 15.851018 Si / 1000 Ang^3
#
#
#
# Elastic Constant Matrix: (Units=GPa)
#
#
# Indices 1 2 3 4 5 6 
#
# 1 96.4282 23.6928 75.0404 0.0000 27.0659 0.0000
# 2 23.6928 27.6452 32.7972 0.0000 12.4214 0.0000
# 3 75.0404 32.7972 115.1489 0.0000 27.7097 0.0000
# 4 0.0000 0.0000 0.0000 20.3286 0.0000 3.9190
# 5 27.0659 12.4214 27.7097 0.0000 35.0806 0.0000
# 6 0.0000 0.0000 0.0000 3.9190 0.0000 22.6613
#
#
#
# Elastic Compliance Matrix: (Units=1/GPa)
#
#
# Indices 1 2 3 4 5 6 
#
# 1 0.022409 -0.001126 -0.012616 0.000000 -0.006925 0.000000
# 2 -0.001126 0.056934 -0.013384 0.000000 -0.008718 0.000000
# 3 -0.012616 -0.013384 0.021280 0.000000 -0.002336 0.000000
# 4 0.000000 0.000000 0.000000 0.050888 0.000000 -0.008801
# 5 -0.006925 -0.008718 -0.002336 0.000000 0.038781 0.000000
# 6 0.000000 0.000000 0.000000 -0.008801 0.000000 0.045650
#
#
# Mechanical properties :
#
#
# Convention : Reuss Voigt Hill
#
# Bulk Modulus (GPa) = 21.56576 55.80921 38.68749
# Shear Modulus (GPa) = 16.35849 22.79357 19.57603
#
# Velocity S-wave (km/s) = 3.21598 3.79619 3.51807
# Velocity P-wave (km/s) = 5.23688 7.38240 6.40018
#
# Compressibility (1/GPa) = 0.04636980
#
# Stress axis : x y z
#
# Youngs Moduli (GPa) = 44.62547 17.56433 46.99159
#
# Poissons Ratio (x) = 0.01978 0.59285
# Poissons Ratio (y) = 0.05026 0.62894
# Poissons Ratio (z) = 0.56300 0.23508
#
# Static dielectric constant tensor:
#      x y z
#    x 1.532380 0.000000 0.049790 
#    y 0.000000 1.535900 0.000000 
#    z 0.049790 0.000000 1.543220 
# 
# From -- ./inp_files/33818.got.cif
#   From: 2010.05.17/outbox.cif.g08.bks.cpg/sg11_17_cif.got.tgz:33818.got - 2010.06.03 12:22:45.
