data_PCOD9155001
_publ_section_title
;
Structure prediction by ZEFSAII (Michael W. Deem and Ramdas Pophale) SiO2 
 PCOD9155001
Probable space group: P 2/M
;
_chemical_formula_sum "Si O2"
_cell_formula_units_Z 24
_cell_length_a 7.800380
_cell_length_b 14.107778
_cell_length_c 13.271638
_cell_angle_alpha 90.000000
_cell_angle_beta 45.073800
_cell_angle_gamma 90.000000
_cell_volume 1034.052481
_symmetry_space_group_name_H-M "P 2/M"
_symmetry_group_IT_number 10
_symmetry_cell_setting 'monoclinic'
loop_
_space_group_symop_operation_xyz
x,y,z
-x,y,-z
-x,-y,-z
x,-y,z
loop_
_atom_site_type_symbol
_atom_site_label
_atom_site_fract_x
_atom_site_fract_y
_atom_site_fract_z
Si Si1 0.661460 0.304213 0.300429
Si Si2 0.357655 0.897933 0.766764
Si Si3 0.192803 0.387468 0.545266
Si Si4 0.797496 0.311581 0.940289
Si Si5 0.789741 0.102109 0.947210
Si Si6 0.338081 0.391159 0.212273
O O1 0.564252 0.198194 0.319524
O O2 0.429442 0.370626 0.377562
O O3 0.742305 0.326467 0.382168
O O4 0.924560 0.318189 0.139439
O O5 0.364374 0.893065 0.885383
O O6 0.464017 0.000000 0.690714
O O7 0.071260 0.900944 0.861228
O O8 0.187994 0.500000 0.570051
O O9 0.917113 0.362149 0.631142
O O10 0.747606 0.383417 0.870270
O O11 0.764170 0.205004 0.908923
O O12 0.585057 0.330428 0.109173
O O13 0.746011 0.000000 0.914241
O O14 0.392478 0.500000 0.212519
#
# Coordination Sequence:
#
# PCOD9155001 Si02
#       6
#     4   4   4   4   4   4
#     4   9  15  24  42  64  81 102 136 170 196 231
#     4   8  14  25  41  61  84 108 133 163 201 241
#     4   9  17  28  41  58  83 112 135 160 201 246
#     4   9  15  24  42  64  81 102 136 170 196 231
#     4   8  14  25  41  61  84 108 133 163 201 241
#     4   9  17  28  41  58  83 112 135 160 201 246
#
# _framework density 23.209652999999999
#
# number of rings (size 3 to 8) (size 9 to 14) (size 15 to 20)
#    0.000    3.333    0.000    3.000    0.000    2.000 
#    0.000    3.333    0.000    8.000    0.000   25.667 
#    0.000    0.000    0.000    0.000    0.000    0.000 
#
# Total GULP energy -133636.613426 kJ/mol
# GULP energy per Si atom -5568.192226 kJ/mol
# Density = 2.315683 g / cm^3
# Si number density = 23.209653 Si / 1000 Ang^3
#
#
#
# Elastic Constant Matrix: (Units=GPa)
#
#
# Indices 1 2 3 4 5 6 
#
# 1 67.2171 18.7933 26.2432 0.0000 -30.7028 0.0000
# 2 18.7933 155.1560 40.3234 0.0000 -2.2120 0.0000
# 3 26.2432 40.3234 142.5015 0.0000 -23.2561 0.0000
# 4 0.0000 0.0000 0.0000 33.7180 0.0000 -1.8679
# 5 -30.7028 -2.2120 -23.2561 0.0000 44.2806 0.0000
# 6 0.0000 0.0000 0.0000 -1.8679 0.0000 28.9051
#
#
#
# Elastic Compliance Matrix: (Units=1/GPa)
#
#
# Indices 1 2 3 4 5 6 
#
# 1 0.022867 -0.002269 -0.001094 0.000000 0.015167 0.000000
# 2 -0.002269 0.007205 -0.001989 0.000000 -0.002258 0.000000
# 3 -0.001094 -0.001989 0.008358 0.000000 0.003532 0.000000
# 4 0.000000 0.000000 0.000000 0.029764 0.000000 0.001923
# 5 0.015167 -0.002258 0.003532 0.000000 0.034842 0.000000
# 6 0.000000 0.000000 0.000000 0.001923 0.000000 0.034720
#
#
# Mechanical properties :
#
#
# Convention : Reuss Voigt Hill
#
# Bulk Modulus (GPa) = 36.06865 59.51049 47.78957
# Shear Modulus (GPa) = 31.70528 40.01505 35.86017
#
# Velocity S-wave (km/s) = 3.70001 4.15670 3.93498
# Velocity P-wave (km/s) = 5.81614 6.98094 6.42499
#
# Compressibility (1/GPa) = 0.02772490
#
# Stress axis : x y z
#
# Youngs Moduli (GPa) = 43.73198 138.79609 119.64231
#
# Poissons Ratio (x) = 0.31496 0.13086
# Poissons Ratio (y) = 0.09924 0.23802
# Poissons Ratio (z) = 0.04783 0.27612
#
# Static dielectric constant tensor:
#      x y z
#    x 1.947910 0.000000 0.054990 
#    y 0.000000 1.861360 0.000000 
#    z 0.054990 0.000000 1.998790 
# 
# From -- ./inp_files/55626.got.cif
#   From: 2010.05.17/outbox.cif.g08.bks.cpg/sg10_28_cif.got.tgz:55626.got - 2010.06.03 11:33:40.
