data_PCOD9155224
_publ_section_title
;
Structure prediction by ZEFSAII (Michael W. Deem and Ramdas Pophale) SiO2 
 PCOD9155224
Probable space group: P 2/M
;
_chemical_formula_sum "Si O2"
_cell_formula_units_Z 28
_cell_length_a 12.000000
_cell_length_b 9.000000
_cell_length_c 15.000000
_cell_angle_alpha 90.000000
_cell_angle_beta 60.000000
_cell_angle_gamma 90.000000
_cell_volume 1402.961154
_symmetry_space_group_name_H-M "P 2/M"
_symmetry_group_IT_number 10
_symmetry_cell_setting 'monoclinic'
loop_
_space_group_symop_operation_xyz
x,y,z
-x,y,-z
-x,-y,-z
x,-y,z
loop_
_atom_site_type_symbol
_atom_site_label
_atom_site_fract_x
_atom_site_fract_y
_atom_site_fract_z
Si Si1 0.877321 0.321155 0.490035
Si Si2 0.246026 0.332419 0.201440
Si Si3 0.637608 0.163598 0.993572
Si Si4 0.996274 0.826151 0.284624
Si Si5 0.612595 0.326474 0.678932
Si Si6 0.357529 0.172925 0.795536
Si Si7 0.073154 0.181265 0.882968
O O1 0.876872 0.500000 0.493443
O O2 0.896001 0.263882 0.383290
O O3 0.742250 0.266951 0.582700
O O4 0.000000 0.271947 0.500000
O O5 0.196534 0.500000 0.232325
O O6 0.360807 0.313349 0.225602
O O7 0.134986 0.216879 0.266917
O O8 0.291221 0.296093 0.084474
O O9 0.633715 0.182584 0.100412
O O10 0.700653 0.000000 0.951917
O O11 0.500000 0.156981 0.000000
O O12 0.993805 0.780320 0.182537
O O13 0.971025 0.000000 0.301118
O O14 0.602774 0.500000 0.662491
O O15 0.481651 0.249266 0.705909
O O16 0.219666 0.234859 0.823135
O O17 0.360825 0.000000 0.770720
O O18 0.076449 0.000000 0.887154
O O19 0.000000 0.234213 0.000000
#
# Coordination Sequence:
#
# PCOD9155224 Si02
#       7
#     4   4   4   4   4   4   4
#     4  10  20  39  60  81 115 156 191 230 289 351
#     4  11  21  34  53  79 114 154 187 223 285 350
#     4  10  19  31  50  81 112 141 184 234 282 335
#     4  11  22  36  59  88 113 143 195 247 284 332
#     4  10  21  36  55  80 113 149 185 228 282 347
#     4  10  20  36  58  81 113 152 188 235 291 342
#     4   9  19  38  61  83 113 154 192 231 286 343
#
# _framework density 19.957787
#
# number of rings (size 3 to 8) (size 9 to 14) (size 15 to 20)
#    0.000    1.857    2.857    1.714    0.000    4.571 
#    0.000    2.143    0.000    7.286    0.000    0.000 
#    0.000    0.000    0.000    0.000    0.000    0.000 
#
# Total GULP energy -156082.712969 kJ/mol
# GULP energy per Si atom -5574.382606 kJ/mol
# Density = 1.991236 g / cm^3
# Si number density = 19.957787 Si / 1000 Ang^3
#
#
#
# Elastic Constant Matrix: (Units=GPa)
#
#
# Indices 1 2 3 4 5 6 
#
# 1 77.5126 17.5527 22.5798 0.0000 -21.3027 0.0000
# 2 17.5527 1.0032 28.2955 0.0000 -7.8488 0.0000
# 3 22.5798 28.2955 70.7697 0.0000 -15.4366 0.0000
# 4 0.0000 0.0000 0.0000 26.4246 0.0000 -6.2108
# 5 -21.3027 -7.8488 -15.4366 0.0000 27.9569 0.0000
# 6 0.0000 0.0000 0.0000 -6.2108 0.0000 7.1776
#
#
#
# Elastic Compliance Matrix: (Units=1/GPa)
#
#
# Indices 1 2 3 4 5 6 
#
# 1 0.015464 0.010989 -0.006918 0.000000 0.011049 0.000000
# 2 0.010989 -0.088119 0.032012 0.000000 0.001310 0.000000
# 3 -0.006918 0.032012 0.004944 0.000000 0.006446 0.000000
# 4 0.000000 0.000000 0.000000 0.047505 0.000000 0.041106
# 5 0.011049 0.001310 0.006446 0.000000 0.048115 0.000000
# 6 0.000000 0.000000 0.000000 0.041106 0.000000 0.174892
#
#
# Mechanical properties :
#
#
# Convention : Reuss Voigt Hill
#
# Bulk Modulus (GPa) = 224.40006 31.79353 128.09679
# Shear Modulus (GPa) = 37.84410 17.70231 27.77321
#
# Velocity S-wave (km/s) = 4.35927 2.98147 3.73446
# Velocity P-wave (km/s) = 11.74815 5.27420 9.10594
#
# Compressibility (1/GPa) = 0.00445633
#
# Stress axis : x y z
#
# Youngs Moduli (GPa) = 64.66472 -11.34825 202.24659
#
# Poissons Ratio (x) = 0.12471 1.39912
# Poissons Ratio (y) = -0.71063 -6.47428
# Poissons Ratio (z) = 0.44734 0.36328
#
# Static dielectric constant tensor:
#      x y z
#    x 1.701790 0.000000 -0.034050 
#    y 0.000000 1.694830 0.000000 
#    z -0.034050 0.000000 1.746170 
# 
# From -- ./inp_files/50098.got.cif
#   From: 2010.05.17/outbox.ucp.g08.bks.cvg/sg10_26_cif.got.tgz:50098.got - 2010.06.11 11:31:16.
