data_PCOD9155564
_publ_section_title
;
Structure prediction by ZEFSAII (Michael W. Deem and Ramdas Pophale) SiO2 
 PCOD9155564
Probable space group: P 2/M
;
_chemical_formula_sum "Si O2"
_cell_formula_units_Z 24
_cell_length_a 18.000000
_cell_length_b 9.000000
_cell_length_c 24.000000
_cell_angle_alpha 90.000000
_cell_angle_beta 20.000000
_cell_angle_gamma 90.000000
_cell_volume 1329.774317
_symmetry_space_group_name_H-M "P 2/M"
_symmetry_group_IT_number 10
_symmetry_cell_setting 'monoclinic'
loop_
_space_group_symop_operation_xyz
x,y,z
-x,y,-z
-x,-y,-z
x,-y,z
loop_
_atom_site_type_symbol
_atom_site_label
_atom_site_fract_x
_atom_site_fract_y
_atom_site_fract_z
Si Si1 0.065386 0.679361 0.544288
Si Si2 0.652550 0.322041 0.764115
Si Si3 0.202850 0.821136 0.564033
Si Si4 0.669813 0.679767 0.250068
Si Si5 0.189238 0.177434 0.075873
Si Si6 0.054686 0.180094 0.044028
O O1 0.070086 0.500000 0.549659
O O2 0.231881 0.713351 0.376452
O O3 0.133998 0.763476 0.551525
O O4 0.825694 0.720563 0.690102
O O5 0.632286 0.500000 0.780863
O O6 0.416082 0.251118 0.933260
O O7 0.425002 0.739866 0.425174
O O8 0.008174 0.784108 0.743817
O O9 0.234657 0.000000 0.541269
O O10 0.679283 0.500000 0.243559
O O11 0.822639 0.749414 0.190600
O O12 0.776279 0.745569 0.118253
O O13 0.124202 0.214762 0.058101
O O14 0.217674 0.000000 0.058121
O O15 0.050087 0.000000 0.040025
#
# Coordination Sequence:
#
# PCOD9155564 Si02
#       6
#     4   4   4   4   4   4
#     4   9  19  37  58  83 109 140 181 226 272 322
#     4   9  19  36  59  82 109 141 179 226 274 320
#     4  11  23  38  54  78 112 149 182 221 270 322
#     4  11  22  37  58  85 111 139 179 228 272 320
#     4  10  23  38  54  79 112 146 183 222 267 321
#     4  10  20  38  61  83 108 143 182 223 269 321
#
# _framework density 18.048175000000001
#
# number of rings (size 3 to 8) (size 9 to 14) (size 15 to 20)
#    0.000    2.000    0.000    5.500    0.000    8.000 
#    0.000    8.333    0.000    0.000    0.000    0.000 
#    0.000    0.000    0.000    0.000    0.000    0.000 
#
# Total GULP energy -134043.568002 kJ/mol
# GULP energy per Si atom -5585.148667 kJ/mol
# Density = 1.800710 g / cm^3
# Si number density = 18.048175 Si / 1000 Ang^3
#
#
#
# Elastic Constant Matrix: (Units=GPa)
#
#
# Indices 1 2 3 4 5 6 
#
# 1 33.4541 19.9776 45.8546 0.0000 -22.1502 0.0000
# 2 19.9776 77.4942 49.7413 0.0000 -13.1757 0.0000
# 3 45.8546 49.7413 148.2553 0.0000 -37.4661 0.0000
# 4 0.0000 0.0000 0.0000 35.9808 0.0000 -8.9709
# 5 -22.1502 -13.1757 -37.4661 0.0000 23.2607 0.0000
# 6 0.0000 0.0000 0.0000 -8.9709 0.0000 23.1552
#
#
#
# Elastic Compliance Matrix: (Units=1/GPa)
#
#
# Indices 1 2 3 4 5 6 
#
# 1 0.091721 -0.006232 -0.008597 0.000000 0.069966 0.000000
# 2 -0.006232 0.016876 -0.004754 0.000000 -0.004031 0.000000
# 3 -0.008597 -0.004754 0.013913 0.000000 0.011530 0.000000
# 4 0.000000 0.000000 0.000000 0.030764 0.000000 0.011919
# 5 0.069966 -0.004031 0.011530 0.000000 0.125905 0.000000
# 6 0.000000 0.000000 0.000000 0.011919 0.000000 0.047804
#
#
# Mechanical properties :
#
#
# Convention : Reuss Voigt Hill
#
# Bulk Modulus (GPa) = 11.99811 54.48341 33.24076
# Shear Modulus (GPa) = 12.69259 26.05468 19.37363
#
# Velocity S-wave (km/s) = 2.65478 3.80362 3.27989
# Velocity P-wave (km/s) = 4.00742 7.03870 5.72725
#
# Compressibility (1/GPa) = 0.08334648
#
# Stress axis : x y z
#
# Youngs Moduli (GPa) = 10.90259 59.25408 71.87575
#
# Poissons Ratio (x) = 0.36925 0.61791
# Poissons Ratio (y) = 0.06794 0.34167
# Poissons Ratio (z) = 0.09373 0.28167
#
# Static dielectric constant tensor:
#      x y z
#    x 1.607590 0.000000 -0.001140 
#    y 0.000000 1.603210 0.000000 
#    z -0.001140 0.000000 1.609810 
# 
# From -- ./inp_files/60275.got.cif
#   From: 2010.05.17/outbox.ucp.g08.bks.cvg/sg10_31_cif.got.tgz:60275.got - 2010.06.11 11:31:16.
