data_PCOD9155851
_publ_section_title
;
Structure prediction by ZEFSAII (Michael W. Deem and Ramdas Pophale) SiO2 
 PCOD9155851
Probable space group: P 21/M
;
_chemical_formula_sum "Si O2"
_cell_formula_units_Z 32
_cell_length_a 5.432057
_cell_length_b 31.102487
_cell_length_c 10.697664
_cell_angle_alpha 90.000000
_cell_angle_beta 101.692184
_cell_angle_gamma 90.000000
_cell_volume 1769.873290
_symmetry_space_group_name_H-M "P 21/M"
_symmetry_group_IT_number 11
_symmetry_cell_setting 'monoclinic'
loop_
_space_group_symop_operation_xyz
x,y,z
-x,1/2+y,-z
-x,-y,-z
x,1/2-y,z
loop_
_atom_site_type_symbol
_atom_site_label
_atom_site_fract_x
_atom_site_fract_y
_atom_site_fract_z
Si Si1 0.931683 0.297988 0.343166
Si Si2 0.702031 0.800159 0.928162
Si Si3 0.538016 0.579256 0.671662
Si Si4 0.445623 0.177719 0.375449
Si Si5 0.988361 0.026407 0.371884
Si Si6 0.838439 0.512020 0.105989
Si Si7 0.799927 0.156226 0.074478
Si Si8 0.499977 0.428539 0.053992
O O1 0.919983 0.250000 0.284921
O O2 0.715090 0.301736 0.422771
O O3 0.872509 0.333202 0.228043
O O4 0.205423 0.306575 0.425684
O O5 0.748047 0.750000 0.954108
O O6 0.955002 0.827826 0.973978
O O7 0.628983 0.807038 0.773965
O O8 0.454633 0.816531 0.974313
O O9 0.524388 0.626865 0.616037
O O10 0.758188 0.553587 0.624924
O O11 0.619758 0.584777 0.825859
O O12 0.265005 0.556000 0.646314
O O13 0.977059 0.994097 0.251520
O O14 0.000000 0.000000 0.500000
O O15 0.634648 0.473843 0.092697
O O16 0.707563 0.558053 0.068949
O O17 0.000000 0.500000 0.000000
O O18 0.708027 0.107447 0.046090
#
# Coordination Sequence:
#
# PCOD9155851 Si02
#       8
#     4   4   4   4   4   4   4   4
#     4  10  17  25  38  63  99 139 166 196 251 313
#     4  10  18  27  40  65 100 141 170 199 252 315
#     4  11  20  34  55  73  99 132 185 212 255 318
#     4  10  17  26  42  65  89 132 174 202 238 300
#     4  11  24  39  55  75 103 138 176 221 276 313
#     4  10  21  34  55  74 105 133 181 227 262 312
#     4  10  18  26  43  61  96 133 176 197 251 304
#     4  10  20  32  48  79  98 135 179 223 259 308
#
# _framework density 18.080390000000001
#
# number of rings (size 3 to 8) (size 9 to 14) (size 15 to 20)
#    0.000    1.750    3.750    4.875    7.000    0.000 
#    0.000    0.000    0.000    0.000    0.000    0.000 
#    0.000    0.000    0.000   38.250    0.250    0.000 
#
# Total GULP energy -178206.701689 kJ/mol
# GULP energy per Si atom -5568.959428 kJ/mol
# Density = 1.803924 g / cm^3
# Si number density = 18.080390 Si / 1000 Ang^3
#
#
#
# Elastic Constant Matrix: (Units=GPa)
#
#
# Indices 1 2 3 4 5 6 
#
# 1 138.4823 16.9832 3.7674 0.0000 5.8148 0.0000
# 2 16.9832 67.6494 9.0330 0.0000 8.1977 0.0000
# 3 3.7674 9.0330 37.8064 0.0000 -4.7875 0.0000
# 4 0.0000 0.0000 0.0000 9.1682 0.0000 3.2973
# 5 5.8148 8.1977 -4.7875 0.0000 9.9475 0.0000
# 6 0.0000 0.0000 0.0000 3.2973 0.0000 31.1743
#
#
#
# Elastic Compliance Matrix: (Units=1/GPa)
#
#
# Indices 1 2 3 4 5 6 
#
# 1 0.007566 -0.001319 -0.000917 0.000000 -0.003777 0.000000
# 2 -0.001319 0.018040 -0.006351 0.000000 -0.017152 0.000000
# 3 -0.000917 -0.006351 0.030658 0.000000 0.020525 0.000000
# 4 0.000000 0.000000 0.000000 0.113386 0.000000 -0.011993
# 5 -0.003777 -0.017152 0.020525 0.000000 0.126749 0.000000
# 6 0.000000 0.000000 0.000000 -0.011993 0.000000 0.033346
#
#
# Mechanical properties :
#
#
# Convention : Reuss Voigt Hill
#
# Bulk Modulus (GPa) = 25.58174 33.72280 29.65227
# Shear Modulus (GPa) = 13.89082 24.33496 19.11289
#
# Velocity S-wave (km/s) = 2.77479 3.67267 3.25484
# Velocity P-wave (km/s) = 4.94425 6.05614 5.52822
#
# Compressibility (1/GPa) = 0.03909038
#
# Stress axis : x y z
#
# Youngs Moduli (GPa) = 132.16164 55.43319 32.61757
#
# Poissons Ratio (x) = 0.07314 0.02991
# Poissons Ratio (y) = 0.17437 0.20714
# Poissons Ratio (z) = 0.12120 0.35204
#
# Static dielectric constant tensor:
#      x y z
#    x 1.782140 0.000000 0.013500 
#    y 0.000000 1.688710 0.000000 
#    z 0.013500 0.000000 1.610570 
# 
# From -- ./inp_files/30390.got.cif
#   From: 2010.05.17/outbox.cif.g08.bks.cpg/sg11_16_cif.got.tgz:30390.got - 2010.06.03 12:22:45.
