data_PCOD9155680
_publ_section_title
;
Structure prediction by ZEFSAII (Michael W. Deem and Ramdas Pophale) SiO2 
 PCOD9155680
Probable space group: P 2/M
;
_chemical_formula_sum "Si O2"
_cell_formula_units_Z 28
_cell_length_a 9.000000
_cell_length_b 9.000000
_cell_length_c 27.000000
_cell_angle_alpha 90.000000
_cell_angle_beta 40.000000
_cell_angle_gamma 90.000000
_cell_volume 1405.776502
_symmetry_space_group_name_H-M "P 2/M"
_symmetry_group_IT_number 10
_symmetry_cell_setting 'monoclinic'
loop_
_space_group_symop_operation_xyz
x,y,z
-x,y,-z
-x,-y,-z
x,-y,z
loop_
_atom_site_type_symbol
_atom_site_label
_atom_site_fract_x
_atom_site_fract_y
_atom_site_fract_z
Si Si1 0.031609 0.675112 0.852461
Si Si2 0.461457 0.177125 0.279410
Si Si3 0.708729 0.824897 0.853127
Si Si4 0.276581 0.674937 0.423843
Si Si5 0.891438 0.322463 0.708555
Si Si6 0.395285 0.828844 0.581334
Si Si7 0.841937 0.168070 0.991529
O O1 0.042726 0.500000 0.837673
O O2 0.285936 0.747870 0.786917
O O3 0.856974 0.762691 0.860953
O O4 0.929947 0.705940 0.932524
O O5 0.356744 0.220622 0.358918
O O6 0.283486 0.249651 0.286094
O O7 0.478173 0.000000 0.267603
O O8 0.785640 0.723397 0.788058
O O9 0.762222 0.000000 0.831157
O O10 0.431767 0.814734 0.929891
O O11 0.327306 0.500000 0.401424
O O12 0.426398 0.732828 0.431697
O O13 0.000000 0.688121 0.500000
O O14 0.905566 0.500000 0.698140
O O15 0.145608 0.249158 0.642232
O O16 0.500000 0.835866 0.500000
O O17 0.373210 0.000000 0.605696
O O18 0.874970 0.000000 0.961732
O O19 0.000000 0.173537 0.000000
#
# Coordination Sequence:
#
# PCOD9155680 Si02
#       7
#     4   4   4   4   4   4   4
#     4  12  25  41  63  92 127 164 207 259 313 366
#     4  12  25  43  66  91 124 164 209 256 307 371
#     4  11  23  41  65  92 126 167 210 254 306 369
#     4  11  24  42  65  94 128 164 205 257 315 368
#     4  12  25  42  65  94 128 162 204 257 313 369
#     4  11  24  42  65  93 126 166 211 255 304 367
#     4  10  22  41  65  92 123 162 208 257 310 370
#
# _framework density 19.917818
#
# number of rings (size 3 to 8) (size 9 to 14) (size 15 to 20)
#    0.000    0.714    0.000    8.143    0.000    8.857 
#    0.000    0.000    0.000    0.000    0.000    0.000 
#    0.000    0.000    0.000    0.000    0.000    0.000 
#
# Total GULP energy -156609.826610 kJ/mol
# GULP energy per Si atom -5593.208093 kJ/mol
# Density = 1.987248 g / cm^3
# Si number density = 19.917818 Si / 1000 Ang^3
#
#
#
# Elastic Constant Matrix: (Units=GPa)
#
#
# Indices 1 2 3 4 5 6 
#
# 1 150.7385 44.2856 34.8100 0.0000 -27.4250 0.0000
# 2 44.2856 146.6962 32.4397 0.0000 -25.1838 0.0000
# 3 34.8100 32.4397 77.1796 0.0000 -23.2749 0.0000
# 4 0.0000 0.0000 0.0000 60.0505 0.0000 18.7467
# 5 -27.4250 -25.1838 -23.2749 0.0000 42.2298 0.0000
# 6 0.0000 0.0000 0.0000 18.7467 0.0000 48.3646
#
#
#
# Elastic Compliance Matrix: (Units=1/GPa)
#
#
# Indices 1 2 3 4 5 6 
#
# 1 0.008131 -0.001432 -0.002076 0.000000 0.003283 0.000000
# 2 -0.001432 0.008168 -0.001918 0.000000 0.002884 0.000000
# 3 -0.002076 -0.001918 0.016728 0.000000 0.006728 0.000000
# 4 0.000000 0.000000 0.000000 0.018945 0.000000 -0.007343
# 5 0.003283 0.002884 0.006728 0.000000 0.031240 0.000000
# 6 0.000000 0.000000 0.000000 -0.007343 0.000000 0.023523
#
#
# Mechanical properties :
#
#
# Convention : Reuss Voigt Hill
#
# Bulk Modulus (GPa) = 45.09172 66.40944 55.75058
# Shear Modulus (GPa) = 40.00703 47.66759 43.83731
#
# Velocity S-wave (km/s) = 4.48661 4.89736 4.69647
# Velocity P-wave (km/s) = 7.03758 8.08659 7.58025
#
# Compressibility (1/GPa) = 0.02217702
#
# Stress axis : x y z
#
# Youngs Moduli (GPa) = 122.98141 122.42371 59.78062
#
# Poissons Ratio (x) = 0.17534 0.12408
# Poissons Ratio (y) = 0.17614 0.11463
# Poissons Ratio (z) = 0.25525 0.23475
#
# Static dielectric constant tensor:
#      x y z
#    x 1.436800 0.000000 0.082240 
#    y 0.000000 1.673440 0.000000 
#    z 0.082240 0.000000 1.699460 
# 
# From -- ./inp_files/91994.got.cif
#   From: 2010.05.17/outbox.ucp.g08.bks.cvg/sg10_46_cif.got.tgz:91994.got - 2010.06.11 11:31:16.
