data_PCOD9155279
_publ_section_title
;
Structure prediction by ZEFSAII (Michael W. Deem and Ramdas Pophale) SiO2 
 PCOD9155279
Probable space group: P 2/M
;
_chemical_formula_sum "Si O2"
_cell_formula_units_Z 24
_cell_length_a 24.000000
_cell_length_b 9.000000
_cell_length_c 12.000000
_cell_angle_alpha 90.000000
_cell_angle_beta 150.000000
_cell_angle_gamma 90.000000
_cell_volume 1296.000000
_symmetry_space_group_name_H-M "P 2/M"
_symmetry_group_IT_number 10
_symmetry_cell_setting 'monoclinic'
loop_
_space_group_symop_operation_xyz
x,y,z
-x,y,-z
-x,-y,-z
x,-y,z
loop_
_atom_site_type_symbol
_atom_site_label
_atom_site_fract_x
_atom_site_fract_y
_atom_site_fract_z
Si Si1 0.308799 0.180268 0.882250
Si Si2 0.885352 0.820285 0.849065
Si Si3 0.450488 0.819583 0.647652
Si Si4 0.667893 0.821012 0.333259
Si Si5 0.764480 0.819372 0.864628
Si Si6 0.131904 0.321353 0.733373
O O1 0.332948 0.227830 0.796201
O O2 0.200692 0.254815 0.748401
O O3 0.295987 0.000000 0.861557
O O4 0.420566 0.219320 0.145753
O O5 0.787988 0.787638 0.593385
O O6 0.847361 0.776064 0.906658
O O7 0.893031 0.000000 0.867524
O O8 0.000000 0.759623 0.000000
O O9 0.414429 0.768825 0.710325
O O10 0.358407 0.775620 0.396069
O O11 0.444718 0.000000 0.640385
O O12 0.651928 0.000000 0.300463
O O13 0.764912 0.000000 0.877856
O O14 0.808114 0.745715 0.052895
O O15 0.139913 0.500000 0.748241
O O16 0.000000 0.281723 0.500000
#
# Coordination Sequence:
#
# PCOD9155279 Si02
#       6
#     4   4   4   4   4   4
#     4  10  19  32  57  85 108 139 179 214 251 314
#     4   8  14  24  44  78 111 133 161 211 261 296
#     4   8  15  30  53  87 119 135 158 212 274 311
#     4   8  14  25  46  81 117 140 160 200 262 319
#     4   9  18  34  57  80 106 137 173 216 259 313
#     4  11  26  43  53  67 102 145 182 226 272 307
#
# _framework density 18.518519000000001
#
# number of rings (size 3 to 8) (size 9 to 14) (size 15 to 20)
#    0.000    3.000    0.000    3.000    2.333    4.000 
#    0.000    4.167    0.000    6.500    0.000    0.000 
#    0.000    0.000    0.000    0.000    0.000    0.000 
#
# Total GULP energy -133670.525048 kJ/mol
# GULP energy per Si atom -5569.605210 kJ/mol
# Density = 1.847637 g / cm^3
# Si number density = 18.518519 Si / 1000 Ang^3
#
#
#
# Elastic Constant Matrix: (Units=GPa)
#
#
# Indices 1 2 3 4 5 6 
#
# 1 54.1003 17.6646 69.6844 0.0000 3.9211 0.0000
# 2 17.6646 19.5828 20.0663 0.0000 0.1304 0.0000
# 3 69.6844 20.0663 73.3232 0.0000 -1.3063 0.0000
# 4 0.0000 0.0000 0.0000 8.6830 0.0000 6.5407
# 5 3.9211 0.1304 -1.3063 0.0000 37.8201 0.0000
# 6 0.0000 0.0000 0.0000 6.5407 0.0000 4.0353
#
#
#
# Elastic Compliance Matrix: (Units=1/GPa)
#
#
# Indices 1 2 3 4 5 6 
#
# 1 -0.077011 -0.008052 0.075582 0.000000 0.010623 0.000000
# 2 -0.008052 0.070156 -0.011544 0.000000 0.000194 0.000000
# 3 0.075582 -0.011544 -0.055207 0.000000 -0.009703 0.000000
# 4 0.000000 0.000000 0.000000 -0.521219 0.000000 0.844829
# 5 0.010623 0.000194 -0.009703 0.000000 0.025004 0.000000
# 6 0.000000 0.000000 0.000000 0.844829 0.000000 -1.121543
#
#
# Mechanical properties :
#
#
# Convention : Reuss Voigt Hill
#
# Bulk Modulus (GPa) = 20.03567 40.20411 30.11989
# Shear Modulus (GPa) = -2.81665 12.74706 4.96520
#
# Velocity S-wave (km/s) = -1.23462 2.62647 1.63922
# Velocity P-wave (km/s) = 2.96822 5.56374 4.45901
#
# Compressibility (1/GPa) = 0.04991098
#
# Stress axis : x y z
#
# Youngs Moduli (GPa) = -12.98509 14.25399 -18.11372
#
# Poissons Ratio (x) = 0.11477 1.36908
# Poissons Ratio (y) = -0.10455 -0.20911
# Poissons Ratio (z) = 0.98144 0.16455
#
# Static dielectric constant tensor:
#      x y z
#    x 1.660720 0.000000 0.016570 
#    y 0.000000 1.618360 0.000000 
#    z 0.016570 0.000000 1.659330 
# 
# From -- ./inp_files/56690.got.cif
#   From: 2010.05.17/outbox.ucp.g08.bks.cvg/sg10_29_cif.got.tgz:56690.got - 2010.06.11 11:31:16.
