data_PCOD9155933
_publ_section_title
;
Structure prediction by ZEFSAII (Michael W. Deem and Ramdas Pophale) SiO2 
 PCOD9155933
Probable space group: P 21/M
;
_chemical_formula_sum "Si O2"
_cell_formula_units_Z 32
_cell_length_a 11.474801
_cell_length_b 19.656993
_cell_length_c 14.768448
_cell_angle_alpha 90.000000
_cell_angle_beta 152.206504
_cell_angle_gamma 90.000000
_cell_volume 1553.279776
_symmetry_space_group_name_H-M "P 21/M"
_symmetry_group_IT_number 11
_symmetry_cell_setting 'monoclinic'
loop_
_space_group_symop_operation_xyz
x,y,z
-x,1/2+y,-z
-x,-y,-z
x,1/2-y,z
loop_
_atom_site_type_symbol
_atom_site_label
_atom_site_fract_x
_atom_site_fract_y
_atom_site_fract_z
Si Si1 0.619820 0.543899 0.223311
Si Si2 0.996500 0.673239 0.698546
Si Si3 0.788137 0.518957 0.952136
Si Si4 0.596155 0.458053 0.480778
Si Si5 0.933134 0.115872 0.958374
Si Si6 0.024594 0.523844 0.665413
Si Si7 0.658494 0.674784 0.645901
Si Si8 0.513102 0.674705 0.248654
O O1 0.388769 0.493371 0.084457
O O2 0.823020 0.534477 0.444624
O O3 0.517335 0.619994 0.171232
O O4 0.761549 0.523402 0.230163
O O5 0.115105 0.750000 0.782833
O O6 0.116278 0.599177 0.758952
O O7 0.835999 0.663843 0.680450
O O8 0.789006 0.678569 0.477478
O O9 0.591737 0.529606 0.733555
O O10 0.981905 0.580741 0.076246
O O11 0.927714 0.448712 0.024037
O O12 0.500000 0.500000 0.500000
O O13 0.862936 0.486320 0.631660
O O14 0.553163 0.380450 0.480702
O O15 0.144758 0.167139 0.136543
O O16 0.664388 0.148245 0.791661
O O17 0.553200 0.750000 0.566273
O O18 0.427692 0.750000 0.164350
#
# Coordination Sequence:
#
# PCOD9155933 Si02
#       8
#     4   4   4   4   4   4   4   4
#     4   8  15  26  44  63  90 117 151 187 221 270
#     4   9  17  28  44  67  92 114 148 195 233 275
#     4   8  16  28  43  67  90 118 150 190 226 270
#     4  10  17  27  46  69  94 121 152 192 236 276
#     4   9  16  27  45  65  90 117 148 183 231 274
#     4   9  15  27  44  66  88 122 152 182 231 274
#     4  10  19  29  42  67  98 121 146 191 243 284
#     4   9  16  27  44  66  89 116 154 193 227 272
#
# _framework density 20.601569999999999
#
# number of rings (size 3 to 8) (size 9 to 14) (size 15 to 20)
#    0.000    3.000    1.250    1.125    0.000    0.000 
#    0.000    0.625    0.000   15.000    0.000    0.000 
#    0.000    4.500    0.000    0.000    0.000    0.000 
#
# Total GULP energy -178384.265785 kJ/mol
# GULP energy per Si atom -5574.508306 kJ/mol
# Density = 2.055468 g / cm^3
# Si number density = 20.601570 Si / 1000 Ang^3
#
#
#
# Elastic Constant Matrix: (Units=GPa)
#
#
# Indices 1 2 3 4 5 6 
#
# 1 119.5343 65.5330 5.8226 0.0000 26.1569 0.0000
# 2 65.5330 152.6560 4.1425 0.0000 19.2789 0.0000
# 3 5.8226 4.1425 33.2070 0.0000 -1.7060 0.0000
# 4 0.0000 0.0000 0.0000 13.2165 0.0000 0.3303
# 5 26.1569 19.2789 -1.7060 0.0000 35.3151 0.0000
# 6 0.0000 0.0000 0.0000 0.3303 0.0000 18.8335
#
#
#
# Elastic Compliance Matrix: (Units=1/GPa)
#
#
# Indices 1 2 3 4 5 6 
#
# 1 0.012370 -0.004390 -0.001974 0.000000 -0.006861 0.000000
# 2 -0.004390 0.008633 -0.000383 0.000000 -0.001479 0.000000
# 3 -0.001974 -0.000383 0.030670 0.000000 0.003153 0.000000
# 4 0.000000 0.000000 0.000000 0.075696 0.000000 -0.001328
# 5 -0.006861 -0.001479 0.003153 0.000000 0.034358 0.000000
# 6 0.000000 0.000000 0.000000 -0.001328 0.000000 0.053120
#
#
# Mechanical properties :
#
#
# Convention : Reuss Voigt Hill
#
# Bulk Modulus (GPa) = 26.19285 50.71037 38.45161
# Shear Modulus (GPa) = 20.74110 28.79966 24.77038
#
# Velocity S-wave (km/s) = 3.17641 3.74295 3.47126
# Velocity P-wave (km/s) = 5.11804 6.58391 5.89670
#
# Compressibility (1/GPa) = 0.03817836
#
# Stress axis : x y z
#
# Youngs Moduli (GPa) = 80.83949 115.83996 32.60515
#
# Poissons Ratio (x) = 0.50858 0.06436
# Poissons Ratio (y) = 0.35491 0.01249
# Poissons Ratio (z) = 0.15956 0.04438
#
# Static dielectric constant tensor:
#      x y z
#    x 1.733670 0.000000 -0.060440 
#    y 0.000000 1.777080 0.000000 
#    z -0.060440 0.000000 1.850700 
# 
# From -- ./inp_files/59701.got.cif
#   From: 2010.05.17/outbox.cif.g08.bks.cpg/sg11_30_cif.got.tgz:59701.got - 2010.06.03 12:22:45.
