data_PCOD9155486
_publ_section_title
;
Structure prediction by ZEFSAII (Michael W. Deem and Ramdas Pophale) SiO2 
 PCOD9155486
Probable space group: P 2/M
;
_chemical_formula_sum "Si O2"
_cell_formula_units_Z 28
_cell_length_a 12.000000
_cell_length_b 9.000000
_cell_length_c 15.000000
_cell_angle_alpha 90.000000
_cell_angle_beta 60.000000
_cell_angle_gamma 90.000000
_cell_volume 1402.961154
_symmetry_space_group_name_H-M "P 2/M"
_symmetry_group_IT_number 10
_symmetry_cell_setting 'monoclinic'
loop_
_space_group_symop_operation_xyz
x,y,z
-x,y,-z
-x,-y,-z
x,-y,z
loop_
_atom_site_type_symbol
_atom_site_label
_atom_site_fract_x
_atom_site_fract_y
_atom_site_fract_z
Si Si1 0.831255 0.322095 0.378393
Si Si2 0.081246 0.669686 0.057352
Si Si3 0.632137 0.669803 0.126503
Si Si4 0.651349 0.322272 0.787095
Si Si5 0.094299 0.175862 0.233390
Si Si6 0.638929 0.178312 0.595676
Si Si7 0.345096 0.174857 0.696786
O O1 0.833138 0.500000 0.382058
O O2 0.743718 0.249526 0.489730
O O3 0.758497 0.268999 0.316929
O O4 0.975161 0.256947 0.329588
O O5 0.044836 0.500000 0.099937
O O6 0.062254 0.786028 0.143372
O O7 0.234395 0.669585 0.979218
O O8 0.000000 0.700642 0.000000
O O9 0.614064 0.500000 0.168891
O O10 0.499793 0.704033 0.126415
O O11 0.655013 0.780488 0.199347
O O12 0.673154 0.500000 0.780425
O O13 0.766794 0.244099 0.794928
O O14 0.651938 0.256882 0.686417
O O15 0.094199 0.000000 0.249624
O O16 0.495340 0.203579 0.613286
O O17 0.654509 0.000000 0.598360
O O18 0.318923 0.000000 0.693936
#
# Coordination Sequence:
#
# PCOD9155486 Si02
#       7
#     4   4   4   4   4   4   4
#     4  12  24  38  58  84 116 156 200 243 291 348
#     4  10  21  39  63  91 121 153 190 234 287 347
#     4   9  19  36  61  89 119 157 196 239 288 340
#     4  10  21  40  62  86 117 154 199 242 286 343
#     4  12  26  42  60  84 116 153 195 245 297 347
#     4  10  21  38  60  88 121 155 193 239 291 344
#     4  10  20  35  58  89 124 156 190 238 292 345
#
# _framework density 19.957787
#
# number of rings (size 3 to 8) (size 9 to 14) (size 15 to 20)
#    0.000    1.571    0.000    5.143    0.000    7.143 
#    0.000    5.714    0.000    0.000    0.000    0.000 
#    0.000    0.000    0.000    0.000    0.000    0.000 
#
# Total GULP energy -156397.054987 kJ/mol
# GULP energy per Si atom -5585.609107 kJ/mol
# Density = 1.991236 g / cm^3
# Si number density = 19.957787 Si / 1000 Ang^3
#
#
#
# Elastic Constant Matrix: (Units=GPa)
#
#
# Indices 1 2 3 4 5 6 
#
# 1 117.4572 41.7308 10.8199 0.0000 -13.7032 0.0000
# 2 41.7308 111.4188 15.1931 0.0000 -12.2203 0.0000
# 3 10.8199 15.1931 36.5358 0.0000 -15.8872 0.0000
# 4 0.0000 0.0000 0.0000 25.2093 0.0000 1.1894
# 5 -13.7032 -12.2203 -15.8872 0.0000 32.9369 0.0000
# 6 0.0000 0.0000 0.0000 1.1894 0.0000 -32.6172
#
#
#
# Elastic Compliance Matrix: (Units=1/GPa)
#
#
# Indices 1 2 3 4 5 6 
#
# 1 0.010085 -0.003426 -0.000367 0.000000 0.002748 0.000000
# 2 -0.003426 0.010789 -0.002975 0.000000 0.001143 0.000000
# 3 -0.000367 -0.002975 0.035647 0.000000 0.015938 0.000000
# 4 0.000000 0.000000 0.000000 0.039600 0.000000 0.001444
# 5 0.002748 0.001143 0.015938 0.000000 0.039616 0.000000
# 6 0.000000 0.000000 0.000000 0.001444 0.000000 -0.030606
#
#
# Mechanical properties :
#
#
# Convention : Reuss Voigt Hill
#
# Bulk Modulus (GPa) = 23.26423 44.54439 33.90431
# Shear Modulus (GPa) = 37.59518 18.28366 27.93942
#
# Velocity S-wave (km/s) = 4.34491 3.03003 3.74562
# Velocity P-wave (km/s) = 6.07067 5.88296 5.97755
#
# Compressibility (1/GPa) = 0.04298445
#
# Stress axis : x y z
#
# Youngs Moduli (GPa) = 99.15418 92.68438 28.05309
#
# Poissons Ratio (x) = 0.31753 0.01030
# Poissons Ratio (y) = 0.33969 0.08346
# Poissons Ratio (z) = 0.03642 0.27576
#
# Static dielectric constant tensor:
#      x y z
#    x 1.684450 0.000000 -0.022860 
#    y 0.000000 1.676030 0.000000 
#    z -0.022860 0.000000 1.762830 
# 
# From -- ./inp_files/63639.got.cif
#   From: 2010.05.17/outbox.ucp.g08.bks.cvg/sg10_32_cif.got.tgz:63639.got - 2010.06.11 11:31:16.
