data_PCOD9155978
_publ_section_title
;
Structure prediction by ZEFSAII (Michael W. Deem and Ramdas Pophale) SiO2 
 PCOD9155978
Probable space group: P 21/M
;
_chemical_formula_sum "Si O2"
_cell_formula_units_Z 28
_cell_length_a 19.493043
_cell_length_b 8.995050
_cell_length_c 19.276699
_cell_angle_alpha 90.000000
_cell_angle_beta 31.657388
_cell_angle_gamma 90.000000
_cell_volume 1773.951629
_symmetry_space_group_name_H-M "P 21/M"
_symmetry_group_IT_number 11
_symmetry_cell_setting 'monoclinic'
loop_
_space_group_symop_operation_xyz
x,y,z
-x,1/2+y,-z
-x,-y,-z
x,1/2-y,z
loop_
_atom_site_type_symbol
_atom_site_label
_atom_site_fract_x
_atom_site_fract_y
_atom_site_fract_z
Si Si1 0.747592 0.579140 0.946419
Si Si2 0.273793 0.928925 0.800303
Si Si3 0.463362 0.579033 0.237436
Si Si4 0.432788 0.070998 0.406387
Si Si5 0.790138 0.571006 0.291973
Si Si6 0.078845 0.928822 0.093547
Si Si7 0.458515 0.927254 0.963617
O O1 0.772581 0.750000 0.905581
O O2 0.622305 0.578662 0.106543
O O3 0.866250 0.504908 0.884499
O O4 0.684810 0.486804 0.936947
O O5 0.270210 0.750000 0.796906
O O6 0.422219 0.970863 0.692272
O O7 0.173353 0.969890 0.947969
O O8 0.232644 0.000272 0.763281
O O9 0.422036 0.750000 0.264998
O O10 0.407617 0.503605 0.353733
O O11 0.448114 0.487448 0.179089
O O12 0.430434 0.250000 0.400030
O O13 0.325129 0.028410 0.555860
O O14 0.787981 0.750000 0.286780
O O15 0.931180 0.529473 0.201551
O O16 0.086155 0.750000 0.095548
O O17 0.460571 0.750000 0.964877
O O18 0.500000 0.000000 0.000000
#
# Coordination Sequence:
#
# PCOD9155978 Si02
#       7
#     4   4   4   4   4   4   4
#     4   9  18  30  47  72  96 124 160 194 235 282
#     4  10  19  31  48  65  87 124 165 204 252 297
#     4   9  18  30  47  72  96 124 160 194 235 282
#     4  10  19  33  49  67  93 126 162 203 246 294
#     4  10  22  33  45  68  95 123 161 206 253 293
#     4  10  19  33  49  67  93 126 162 203 246 294
#     4  10  17  28  47  75 108 133 156 194 237 278
#
# _framework density 15.78397
#
# number of rings (size 3 to 8) (size 9 to 14) (size 15 to 20)
#    0.857    1.429    1.429    2.571    0.000    2.286 
#    0.000    0.000    0.000    0.000    0.000    1.000 
#    0.000    0.000    0.000    0.000    0.000    0.000 
#
# Total GULP energy -155898.450809 kJ/mol
# GULP energy per Si atom -5567.801815 kJ/mol
# Density = 1.574805 g / cm^3
# Si number density = 15.783970 Si / 1000 Ang^3
#
#
#
# Elastic Constant Matrix: (Units=GPa)
#
#
# Indices 1 2 3 4 5 6 
#
# 1 141.6403 62.9124 41.5296 0.0000 3.9059 0.0000
# 2 62.9124 72.0760 21.5365 0.0000 0.5311 0.0000
# 3 41.5296 21.5365 54.1872 0.0000 -19.8447 0.0000
# 4 0.0000 0.0000 0.0000 12.0695 0.0000 5.1635
# 5 3.9059 0.5311 -19.8447 0.0000 11.1679 0.0000
# 6 0.0000 0.0000 0.0000 5.1635 0.0000 32.5160
#
#
#
# Elastic Compliance Matrix: (Units=1/GPa)
#
#
# Indices 1 2 3 4 5 6 
#
# 1 0.064335 -0.007305 -0.156103 0.000000 -0.299541 0.000000
# 2 -0.007305 0.022882 -0.008472 0.000000 -0.013588 0.000000
# 3 -0.156103 -0.008472 0.462731 0.000000 0.877248 0.000000
# 4 0.000000 0.000000 0.000000 0.088893 0.000000 -0.014116
# 5 -0.299541 -0.013588 0.877248 0.000000 1.753775 0.000000
# 6 0.000000 0.000000 0.000000 -0.014116 0.000000 0.032996
#
#
# Mechanical properties :
#
#
# Convention : Reuss Voigt Hill
#
# Bulk Modulus (GPa) = 4.84995 57.76229 31.30612
# Shear Modulus (GPa) = 1.76174 20.61233 11.18703
#
# Velocity S-wave (km/s) = 1.05763 3.61765 2.66514
# Velocity P-wave (km/s) = 2.13795 7.35696 5.41736
#
# Compressibility (1/GPa) = 0.20618773
#
# Stress axis : x y z
#
# Youngs Moduli (GPa) = 15.54361 43.70278 2.16108
#
# Poissons Ratio (x) = 0.31923 0.33735
# Poissons Ratio (y) = 0.11354 0.01831
# Poissons Ratio (z) = 2.42641 0.37027
#
# Static dielectric constant tensor:
#      x y z
#    x 1.507850 0.000000 -0.006200 
#    y 0.000000 1.531280 0.000000 
#    z -0.006200 0.000000 1.519630 
# 
# From -- ./inp_files/66350.got.cif
#   From: 2010.05.17/outbox.cif.g08.bks.cpg/sg11_34_cif.got.tgz:66350.got - 2010.06.03 12:22:45.
