data_PCOD9155740
_publ_section_title
;
Structure prediction by ZEFSAII (Michael W. Deem and Ramdas Pophale) SiO2 
 PCOD9155740
Probable space group: P 21/M
;
_chemical_formula_sum "Si O2"
_cell_formula_units_Z 32
_cell_length_a 15.411110
_cell_length_b 21.565382
_cell_length_c 9.852865
_cell_angle_alpha 90.000000
_cell_angle_beta 27.021942
_cell_angle_gamma 90.000000
_cell_volume 1487.738613
_symmetry_space_group_name_H-M "P 21/M"
_symmetry_group_IT_number 11
_symmetry_cell_setting 'monoclinic'
loop_
_space_group_symop_operation_xyz
x,y,z
-x,1/2+y,-z
-x,-y,-z
x,1/2-y,z
loop_
_atom_site_type_symbol
_atom_site_label
_atom_site_fract_x
_atom_site_fract_y
_atom_site_fract_z
Si Si1 0.813322 0.436554 0.292744
Si Si2 0.159480 0.364186 0.403008
Si Si3 0.436436 0.682260 0.663412
Si Si4 0.230680 0.595771 0.113083
Si Si5 0.973779 0.319717 0.922635
Si Si6 0.271894 0.492961 0.840017
Si Si7 0.390461 0.121683 0.829172
Si Si8 0.727209 0.494388 0.695351
O O1 0.817019 0.494924 0.183305
O O2 0.596554 0.408396 0.578570
O O3 0.821051 0.463422 0.432740
O O4 0.949154 0.378971 0.057543
O O5 0.200923 0.436640 0.374316
O O6 0.951237 0.360064 0.623533
O O7 0.134727 0.331412 0.582973
O O8 0.309817 0.346555 0.076939
O O9 0.476044 0.750000 0.661438
O O10 0.577680 0.664360 0.346088
O O11 0.419553 0.633718 0.809341
O O12 0.228310 0.681263 0.878935
O O13 0.240163 0.551633 0.226402
O O14 0.203810 0.551263 0.021336
O O15 0.995844 0.250000 0.951344
O O16 0.500000 0.500000 0.500000
O O17 0.253963 0.432805 0.959790
O O18 0.500000 0.500000 0.000000
#
# Coordination Sequence:
#
# PCOD9155740 Si02
#       8
#     4   4   4   4   4   4   4   4
#     4  10  19  35  54  84 111 150 192 222 279 344
#     4  11  21  35  56  89 116 144 186 239 292 334
#     4   9  18  34  57  81 106 151 203 229 268 344
#     4  11  20  36  57  83 116 148 183 237 289 334
#     4   9  19  37  57  78 112 153 195 235 278 340
#     4  10  15  31  54  78 107 146 181 220 281 334
#     4  10  18  30  56  82 114 145 181 233 280 339
#     4  12  23  34  56  89 123 145 185 237 292 347
#
# _framework density 21.509153999999999
#
# number of rings (size 3 to 8) (size 9 to 14) (size 15 to 20)
#    0.000    1.750    7.500    1.125    0.000    1.000 
#    0.000    0.625    0.000    0.750    0.000    0.000 
#    0.000    0.000    0.000    0.000    0.000    0.000 
#
# Total GULP energy -178523.850822 kJ/mol
# GULP energy per Si atom -5578.870338 kJ/mol
# Density = 2.146020 g / cm^3
# Si number density = 21.509154 Si / 1000 Ang^3
#
#
#
# Elastic Constant Matrix: (Units=GPa)
#
#
# Indices 1 2 3 4 5 6 
#
# 1 46.4779 9.5181 10.6267 0.0000 22.3564 0.0000
# 2 9.5181 85.1917 17.7902 0.0000 21.2196 0.0000
# 3 10.6267 17.7902 119.7580 0.0000 20.4953 0.0000
# 4 0.0000 0.0000 0.0000 14.3702 0.0000 9.0244
# 5 22.3564 21.2196 20.4953 0.0000 34.2413 0.0000
# 6 0.0000 0.0000 0.0000 9.0244 0.0000 13.8035
#
#
#
# Elastic Compliance Matrix: (Units=1/GPa)
#
#
# Indices 1 2 3 4 5 6 
#
# 1 0.031681 0.001856 0.000724 0.000000 -0.022269 0.000000
# 2 0.001856 0.014036 -0.000617 0.000000 -0.009541 0.000000
# 3 0.000724 -0.000617 0.009351 0.000000 -0.005687 0.000000
# 4 0.000000 0.000000 0.000000 0.118059 0.000000 -0.077184
# 5 -0.022269 -0.009541 -0.005687 0.000000 0.053061 0.000000
# 6 0.000000 0.000000 0.000000 -0.077184 0.000000 0.122906
#
#
# Mechanical properties :
#
#
# Convention : Reuss Voigt Hill
#
# Bulk Modulus (GPa) = 16.95076 36.36643 26.65859
# Shear Modulus (GPa) = 13.70487 26.71584 20.21036
#
# Velocity S-wave (km/s) = 2.52695 3.52812 3.06864
# Velocity P-wave (km/s) = 4.05115 5.79146 4.99764
#
# Compressibility (1/GPa) = 0.05899440
#
# Stress axis : x y z
#
# Youngs Moduli (GPa) = 31.56425 71.24468 106.94127
#
# Poissons Ratio (x) = -0.13222 -0.07744
# Poissons Ratio (y) = -0.05858 0.06598
# Poissons Ratio (z) = -0.02286 0.04396
#
# Static dielectric constant tensor:
#      x y z
#    x 1.815150 0.000000 -0.051720 
#    y 0.000000 1.924780 0.000000 
#    z -0.051720 0.000000 1.915440 
# 
# From -- ./inp_files/23351.got.cif
#   From: 2010.05.17/outbox.cif.g08.bks.cpg/sg11_12_cif.got.tgz:23351.got - 2010.06.03 12:22:45.
