data_PCOD9155551
_publ_section_title
;
Structure prediction by ZEFSAII (Michael W. Deem and Ramdas Pophale) SiO2 
 PCOD9155551
Probable space group: P 2/M
;
_chemical_formula_sum "Si O2"
_cell_formula_units_Z 28
_cell_length_a 9.000000
_cell_length_b 9.000000
_cell_length_c 27.000000
_cell_angle_alpha 90.000000
_cell_angle_beta 140.000000
_cell_angle_gamma 90.000000
_cell_volume 1405.776502
_symmetry_space_group_name_H-M "P 2/M"
_symmetry_group_IT_number 10
_symmetry_cell_setting 'monoclinic'
loop_
_space_group_symop_operation_xyz
x,y,z
-x,y,-z
-x,-y,-z
x,-y,z
loop_
_atom_site_type_symbol
_atom_site_label
_atom_site_fract_x
_atom_site_fract_y
_atom_site_fract_z
Si Si1 0.367156 0.821275 0.351982
Si Si2 0.884426 0.833208 0.812629
Si Si3 0.920592 0.666659 0.925480
Si Si4 0.005876 0.177166 0.655594
Si Si5 0.587096 0.832342 0.076192
Si Si6 0.603024 0.665071 0.181895
Si Si7 0.845508 0.677847 0.509679
O O1 0.277704 0.772095 0.273867
O O2 0.181991 0.795603 0.348696
O O3 0.598041 0.743601 0.430472
O O4 0.399483 0.000000 0.356681
O O5 0.945418 0.753278 0.880169
O O6 0.136760 0.844187 0.852973
O O7 0.798972 0.000000 0.802697
O O8 0.025812 0.500000 0.948862
O O9 0.646132 0.653147 0.857624
O O10 0.000000 0.728420 0.000000
O O11 0.938773 0.250841 0.585348
O O12 0.237225 0.239858 0.740591
O O13 0.023255 0.000000 0.652411
O O14 0.545189 0.733224 0.113299
O O15 0.488416 0.000000 0.056828
O O16 0.500000 0.778013 0.000000
O O17 0.706401 0.500000 0.202214
O O18 0.833476 0.500000 0.513870
O O19 0.000000 0.706852 0.500000
#
# Coordination Sequence:
#
# PCOD9155551 Si02
#       7
#     4   4   4   4   4   4   4
#     4  10  22  42  65  92 124 159 203 250 302 361
#     4  10  21  38  60  90 122 156 205 253 297 358
#     4  10  23  41  58  83 123 166 207 254 308 363
#     4  11  23  43  68  92 124 161 202 250 303 361
#     4  10  20  37  61  89 122 159 203 254 302 354
#     4  11  23  38  60  90 124 161 206 253 304 364
#     4  11  26  44  64  95 130 159 197 246 298 359
#
# _framework density 19.917818
#
# number of rings (size 3 to 8) (size 9 to 14) (size 15 to 20)
#    0.000    1.571    1.429    2.571    2.000    6.857 
#    0.000    0.000    0.000    0.000    0.000    0.000 
#    0.000    0.000    0.000    0.000    0.000    0.000 
#
# Total GULP energy -156041.519698 kJ/mol
# GULP energy per Si atom -5572.911418 kJ/mol
# Density = 1.987248 g / cm^3
# Si number density = 19.917818 Si / 1000 Ang^3
#
#
#
# Elastic Constant Matrix: (Units=GPa)
#
#
# Indices 1 2 3 4 5 6 
#
# 1 70.3374 42.1984 30.1611 0.0000 -16.0489 0.0000
# 2 42.1984 58.1435 34.1966 0.0000 -12.6551 0.0000
# 3 30.1611 34.1966 152.0885 0.0000 -21.4411 0.0000
# 4 0.0000 0.0000 0.0000 34.7368 0.0000 -8.2998
# 5 -16.0489 -12.6551 -21.4411 0.0000 49.5336 0.0000
# 6 0.0000 0.0000 0.0000 -8.2998 0.0000 21.3482
#
#
#
# Elastic Compliance Matrix: (Units=1/GPa)
#
#
# Indices 1 2 3 4 5 6 
#
# 1 0.025894 -0.017617 -0.000666 0.000000 0.003600 0.000000
# 2 -0.017617 0.032338 -0.003639 0.000000 0.000979 0.000000
# 3 -0.000666 -0.003639 0.007843 0.000000 0.002249 0.000000
# 4 0.000000 0.000000 0.000000 0.031736 0.000000 0.012338
# 5 0.003600 0.000979 0.002249 0.000000 0.022578 0.000000
# 6 0.000000 0.000000 0.000000 0.012338 0.000000 0.051639
#
#
# Mechanical properties :
#
#
# Convention : Reuss Voigt Hill
#
# Bulk Modulus (GPa) = 44.98709 54.85349 49.92029
# Shear Modulus (GPa) = 22.39308 32.72462 27.55885
#
# Velocity S-wave (km/s) = 3.35666 4.05777 3.72375
# Velocity P-wave (km/s) = 6.13663 7.03944 6.60348
#
# Compressibility (1/GPa) = 0.02222860
#
# Stress axis : x y z
#
# Youngs Moduli (GPa) = 38.61954 30.92319 127.50791
#
# Poissons Ratio (x) = 0.54478 0.08496
# Poissons Ratio (y) = 0.68037 0.46406
# Poissons Ratio (z) = 0.02573 0.11254
#
# Static dielectric constant tensor:
#      x y z
#    x 1.735200 0.000000 0.028740 
#    y 0.000000 1.764670 0.000000 
#    z 0.028740 0.000000 1.670410 
# 
# From -- ./inp_files/36904.got.cif
#   From: 2010.05.17/outbox.ucp.g08.bks.cvg/sg10_19_cif.got.tgz:36904.got - 2010.06.11 11:31:16.
