data_PCOD9155059
_publ_section_title
;
Structure prediction by ZEFSAII (Michael W. Deem and Ramdas Pophale) SiO2 
 PCOD9155059
Probable space group: P 2/M
;
_chemical_formula_sum "Si O2"
_cell_formula_units_Z 28
_cell_length_a 9.498699
_cell_length_b 7.438760
_cell_length_c 23.539972
_cell_angle_alpha 90.000000
_cell_angle_beta 127.248298
_cell_angle_gamma 90.000000
_cell_volume 1324.020120
_symmetry_space_group_name_H-M "P 2/M"
_symmetry_group_IT_number 10
_symmetry_cell_setting 'monoclinic'
loop_
_space_group_symop_operation_xyz
x,y,z
-x,y,-z
-x,-y,-z
x,-y,z
loop_
_atom_site_type_symbol
_atom_site_label
_atom_site_fract_x
_atom_site_fract_y
_atom_site_fract_z
Si Si1 0.337560 0.219369 0.000000
Si Si2 0.072695 0.214552 0.274433
Si Si3 0.750606 0.214552 0.274433
Si Si4 0.310420 0.284541 0.433756
Si Si5 0.953564 0.219895 0.860964
Si Si6 0.990847 0.284541 0.433756
Si Si7 0.370672 0.219895 0.139036
O O1 0.359210 0.275299 0.070590
O O2 0.339370 0.000000 0.000000
O O3 0.500000 0.277921 0.000000
O O4 0.147440 0.275299 0.929410
O O5 0.247503 0.248122 0.354357
O O6 0.077889 0.280713 0.211362
O O7 0.904516 0.284858 0.269677
O O8 0.050889 0.000000 0.265746
O O9 0.815569 0.248122 0.354357
O O10 0.556198 0.280713 0.211362
O O11 0.746349 0.000000 0.265746
O O12 0.500000 0.215487 0.500000
O O13 0.314260 0.500000 0.440724
O O14 0.154287 0.214547 0.436191
O O15 0.797925 0.277560 0.865283
O O16 0.952082 0.000000 0.860823
O O17 0.007913 0.500000 0.440724
O O18 0.000000 0.215487 0.500000
O O19 0.369614 0.000000 0.139177
#
# Coordination Sequence:
#
# PCOD9155059 Si02
#       7
#     4   4   4   4   4   4   4
#     4   9  15  23  37  57  84 119 152 179 212 256
#     4   9  17  29  44  63  88 116 145 178 217 260
#     4   9  17  29  44  63  88 116 145 178 217 260
#     4   9  18  32  48  65  86 113 145 180 217 259
#     4   9  16  25  38  59  87 116 146 181 218 255
#     4   9  18  32  48  65  86 113 145 180 217 259
#     4   9  16  25  38  59  87 116 146 181 218 255
#
# _framework density 21.147715999999999
#
# number of rings (size 3 to 8) (size 9 to 14) (size 15 to 20)
#    0.000    3.000    0.000    1.286    0.000    6.857 
#    0.000    0.000    0.000    0.000    0.000    1.000 
#    0.000    8.000    0.000    0.000    0.000    0.000 
#
# Total GULP energy -156298.667061 kJ/mol
# GULP energy per Si atom -5582.095252 kJ/mol
# Density = 2.109958 g / cm^3
# Si number density = 21.147716 Si / 1000 Ang^3
#
#
#
# Elastic Constant Matrix: (Units=GPa)
#
#
# Indices 1 2 3 4 5 6 
#
# 1 157.3685 4.8488 143.2113 0.0000 0.0026 0.0000
# 2 4.8488 65.7035 -0.4647 0.0000 -0.0002 0.0000
# 3 143.2113 -0.4647 254.7055 0.0000 0.0016 0.0000
# 4 0.0000 0.0000 0.0000 36.2948 0.0000 0.0018
# 5 0.0026 -0.0002 0.0016 0.0000 37.0822 0.0000
# 6 0.0000 0.0000 0.0000 0.0018 0.0000 -4.8045
#
#
#
# Elastic Compliance Matrix: (Units=1/GPa)
#
#
# Indices 1 2 3 4 5 6 
#
# 1 0.013081 -0.001017 -0.007357 0.000000 -0.000001 0.000000
# 2 -0.001017 0.015299 0.000600 0.000000 0.000000 0.000000
# 3 -0.007357 0.000600 0.008064 0.000000 0.000000 0.000000
# 4 0.000000 0.000000 0.000000 0.027552 0.000000 0.000010
# 5 -0.000001 0.000000 0.000000 0.000000 0.026967 0.000000
# 6 0.000000 0.000000 0.000000 0.000010 0.000000 -0.208137
#
#
# Mechanical properties :
#
#
# Convention : Reuss Voigt Hill
#
# Bulk Modulus (GPa) = 47.85760 85.88537 66.87149
# Shear Modulus (GPa) = -52.82022 35.72663 -8.54680
#
# Velocity S-wave (km/s) = -5.00310 4.11467 -2.01252
# Velocity P-wave (km/s) = 3.27038 7.95452 5.12732
#
# Compressibility (1/GPa) = 0.02089532
#
# Stress axis : x y z
#
# Youngs Moduli (GPa) = 76.44873 65.36289 124.01492
#
# Poissons Ratio (x) = 0.06650 0.91233
# Poissons Ratio (y) = 0.07778 -0.07440
# Poissons Ratio (z) = 0.56240 -0.03921
#
# Static dielectric constant tensor:
#      x y z
#    x 1.731770 0.000000 0.000000 
#    y 0.000000 1.803430 0.000000 
#    z 0.000000 0.000000 1.730450 
# 
# From -- ./inp_files/34548.got.cif
#   From: 2010.05.17/outbox.cif.g08.bks.cpg/sg10_18_cif.got.tgz:34548.got - 2010.06.03 11:33:40.
