data_PCOD9155927
_publ_section_title
;
Structure prediction by ZEFSAII (Michael W. Deem and Ramdas Pophale) SiO2 
 PCOD9155927
Probable space group: P 21/M
;
_chemical_formula_sum "Si O2"
_cell_formula_units_Z 32
_cell_length_a 7.136169
_cell_length_b 19.567800
_cell_length_c 18.013709
_cell_angle_alpha 90.000000
_cell_angle_beta 140.414416
_cell_angle_gamma 90.000000
_cell_volume 1602.900462
_symmetry_space_group_name_H-M "P 21/M"
_symmetry_group_IT_number 11
_symmetry_cell_setting 'monoclinic'
loop_
_space_group_symop_operation_xyz
x,y,z
-x,1/2+y,-z
-x,-y,-z
x,1/2-y,z
loop_
_atom_site_type_symbol
_atom_site_label
_atom_site_fract_x
_atom_site_fract_y
_atom_site_fract_z
Si Si1 0.894005 0.087239 0.441093
Si Si2 0.196701 0.455295 0.815109
Si Si3 0.133980 0.039707 0.109557
Si Si4 0.444104 0.325251 0.233673
Si Si5 0.366020 0.039706 0.390443
Si Si6 0.394005 0.912761 0.941094
Si Si7 0.055897 0.174749 0.266327
Si Si8 0.696701 0.544704 0.315109
O O1 0.769093 0.152574 0.360222
O O2 0.628908 0.063772 0.416118
O O3 0.186131 0.090147 0.580525
O O4 0.898091 0.023675 0.385631
O O5 0.398091 0.523675 0.885631
O O6 0.250000 0.424199 0.750000
O O7 0.870742 0.486346 0.715203
O O8 0.313869 0.409853 0.919474
O O9 0.307590 0.110832 0.147597
O O10 0.871092 0.063772 0.083881
O O11 0.370742 0.986346 0.215203
O O12 0.000000 0.000000 0.000000
O O13 0.434393 0.250000 0.196698
O O14 0.250001 0.322302 0.250000
O O15 0.192411 0.110832 0.352403
O O16 0.500000 0.000000 0.500000
O O17 0.269092 0.847426 0.860221
O O18 0.065608 0.250000 0.303302
#
# Coordination Sequence:
#
# PCOD9155927 Si02
#       8
#     4   4   4   4   4   4   4   4
#     4   9  18  29  44  68  93 120 152 189 235 271
#     4  10  17  27  44  67  93 117 150 192 234 269
#     4  10  17  28  46  70  95 121 152 193 233 273
#     4   8  15  28  46  65  91 122 154 190 229 270
#     4  10  17  28  46  70  95 121 152 193 233 273
#     4   9  18  29  44  68  93 120 152 189 235 271
#     4   8  15  28  46  65  91 122 154 190 229 270
#     4  10  17  27  44  67  93 117 150 192 234 269
#
# _framework density 19.963811
#
# number of rings (size 3 to 8) (size 9 to 14) (size 15 to 20)
#    0.000    2.750    2.500    2.250    0.000    0.000 
#    0.000    0.000    0.000   14.250    0.000    0.000 
#    0.000   30.000    0.000    0.000    0.000    0.000 
#
# Total GULP energy -178195.696835 kJ/mol
# GULP energy per Si atom -5568.615526 kJ/mol
# Density = 1.991837 g / cm^3
# Si number density = 19.963811 Si / 1000 Ang^3
#
#
#
# Elastic Constant Matrix: (Units=GPa)
#
#
# Indices 1 2 3 4 5 6 
#
# 1 55.9414 11.7136 12.3635 0.0000 7.7050 0.0000
# 2 11.7136 110.2693 54.7136 0.0000 -2.4285 0.0000
# 3 12.3635 54.7136 158.2821 0.0000 -0.8855 0.0000
# 4 0.0000 0.0000 0.0000 21.7256 0.0000 -4.8443
# 5 7.7050 -2.4285 -0.8855 0.0000 29.5925 0.0000
# 6 0.0000 0.0000 0.0000 -4.8443 0.0000 15.2553
#
#
#
# Elastic Compliance Matrix: (Units=1/GPa)
#
#
# Indices 1 2 3 4 5 6 
#
# 1 0.019145 -0.001679 -0.000944 0.000000 -0.005151 0.000000
# 2 -0.001679 0.011112 -0.003703 0.000000 0.001238 0.000000
# 3 -0.000944 -0.003703 0.007673 0.000000 0.000171 0.000000
# 4 0.000000 0.000000 0.000000 0.049536 0.000000 0.015730
# 5 -0.005151 0.001238 0.000171 0.000000 0.035240 0.000000
# 6 0.000000 0.000000 0.000000 0.015730 0.000000 0.070546
#
#
# Mechanical properties :
#
#
# Convention : Reuss Voigt Hill
#
# Bulk Modulus (GPa) = 39.55977 53.56379 46.56178
# Shear Modulus (GPa) = 23.32858 29.69482 26.51170
#
# Velocity S-wave (km/s) = 3.42210 3.86091 3.64811
# Velocity P-wave (km/s) = 5.95594 6.83843 6.41238
#
# Compressibility (1/GPa) = 0.02527820
#
# Stress axis : x y z
#
# Youngs Moduli (GPa) = 52.23171 89.99577 130.33541
#
# Poissons Ratio (x) = 0.15109 0.12303
# Poissons Ratio (y) = 0.08769 0.48262
# Poissons Ratio (z) = 0.04930 0.33325
#
# Static dielectric constant tensor:
#      x y z
#    x 1.892290 0.000000 0.001180 
#    y 0.000000 1.683890 0.000000 
#    z 0.001180 0.000000 1.764540 
# 
# From -- ./inp_files/64016.got.cif
#   From: 2010.05.17/outbox.cif.g08.bks.cpg/sg11_33_cif.got.tgz:64016.got - 2010.06.03 12:22:45.
