data_PCOD9155721
_publ_section_title
;
Structure prediction by ZEFSAII (Michael W. Deem and Ramdas Pophale) SiO2 
 PCOD9155721
Probable space group: P 2/M
;
_chemical_formula_sum "Si O2"
_cell_formula_units_Z 32
_cell_length_a 15.000000
_cell_length_b 18.000000
_cell_length_c 12.000000
_cell_angle_alpha 90.000000
_cell_angle_beta 30.000000
_cell_angle_gamma 90.000000
_cell_volume 1620.000000
_symmetry_space_group_name_H-M "P 2/M"
_symmetry_group_IT_number 10
_symmetry_cell_setting 'monoclinic'
loop_
_space_group_symop_operation_xyz
x,y,z
-x,y,-z
-x,-y,-z
x,-y,z
loop_
_atom_site_type_symbol
_atom_site_label
_atom_site_fract_x
_atom_site_fract_y
_atom_site_fract_z
Si Si1 0.964752 0.587315 0.173278
Si Si2 0.356107 0.698815 0.495216
Si Si3 0.242758 0.164250 0.472550
Si Si4 0.600740 0.082506 0.055058
Si Si5 0.819998 0.775490 0.128804
Si Si6 0.759528 0.314388 0.985958
Si Si7 0.880956 0.085364 0.952118
Si Si8 0.206520 0.781903 0.270599
O O1 0.940958 0.500000 0.222439
O O2 0.787563 0.636444 0.382699
O O3 0.000000 0.592652 0.000000
O O4 0.117576 0.620395 0.091880
O O5 0.302970 0.778588 0.501899
O O6 0.322638 0.720877 0.660544
O O7 0.550886 0.675835 0.241449
O O8 0.394803 0.102021 0.296745
O O9 0.249231 0.218472 0.356217
O O10 0.056820 0.124131 0.706084
O O11 0.622402 0.000000 0.982520
O O12 0.719214 0.084261 0.038651
O O13 0.679069 0.149654 0.898366
O O14 0.823813 0.753393 0.994828
O O15 0.812196 0.864384 0.130145
O O16 0.000000 0.757587 0.000000
O O17 0.776241 0.286381 0.838248
O O18 0.921915 0.000000 0.936968
O O19 0.000000 0.802447 0.500000
#
# Coordination Sequence:
#
# PCOD9155721 Si02
#       8
#     4   4   4   4   4   4   4   4
#     4  11  24  43  68 103 138 165 201 256 318 386
#     4  12  23  39  70  93 129 168 213 257 315 380
#     4  12  23  41  63  94 123 169 221 270 316 381
#     4  11  24  40  59  89 127 165 215 280 332 371
#     4  12  20  39  63  89 123 166 220 265 314 379
#     4  12  23  42  65  98 128 169 208 265 318 380
#     4  11  23  41  60  87 129 172 220 277 338 385
#     4  12  23  40  66  91 124 168 222 268 320 379
#
# _framework density 19.753086
#
# number of rings (size 3 to 8) (size 9 to 14) (size 15 to 20)
#    0.000    0.375    7.500    1.875    0.000    2.500 
#    0.000    1.250    0.000    5.625    0.000    4.375 
#    0.000    0.000    0.000    0.000    0.000    0.000 
#
# Total GULP energy -178367.362065 kJ/mol
# GULP energy per Si atom -5573.980065 kJ/mol
# Density = 1.970813 g / cm^3
# Si number density = 19.753086 Si / 1000 Ang^3
#
#
#
# Elastic Constant Matrix: (Units=GPa)
#
#
# Indices 1 2 3 4 5 6 
#
# 1 55.0839 11.6718 20.0046 0.0000 -14.8611 0.0000
# 2 11.6718 111.7495 24.8760 0.0000 -4.3090 0.0000
# 3 20.0046 24.8760 92.5551 0.0000 -29.6895 0.0000
# 4 0.0000 0.0000 0.0000 14.1727 0.0000 -4.6410
# 5 -14.8611 -4.3090 -29.6895 0.0000 33.7284 0.0000
# 6 0.0000 0.0000 0.0000 -4.6410 0.0000 24.1101
#
#
#
# Elastic Compliance Matrix: (Units=1/GPa)
#
#
# Indices 1 2 3 4 5 6 
#
# 1 0.021157 -0.001534 -0.001718 0.000000 0.007614 0.000000
# 2 -0.001534 0.009680 -0.002913 0.000000 -0.002003 0.000000
# 3 -0.001718 -0.002913 0.016159 0.000000 0.013095 0.000000
# 4 0.000000 0.000000 0.000000 0.075305 0.000000 0.014496
# 5 0.007614 -0.002003 0.013095 0.000000 0.044274 0.000000
# 6 0.000000 0.000000 0.000000 0.014496 0.000000 0.044267
#
#
# Mechanical properties :
#
#
# Convention : Reuss Voigt Hill
#
# Bulk Modulus (GPa) = 28.84612 41.38813 35.11713
# Shear Modulus (GPa) = 21.30129 27.92464 24.61297
#
# Velocity S-wave (km/s) = 3.28743 3.76398 3.53375
# Velocity P-wave (km/s) = 5.38931 6.31572 5.87081
#
# Compressibility (1/GPa) = 0.03466671
#
# Stress axis : x y z
#
# Youngs Moduli (GPa) = 47.26521 103.30667 61.88443
#
# Poissons Ratio (x) = 0.15844 0.10634
# Poissons Ratio (y) = 0.07249 0.18025
# Poissons Ratio (z) = 0.08122 0.30090
#
# Static dielectric constant tensor:
#      x y z
#    x 1.792400 0.000000 0.027230 
#    y 0.000000 1.683530 0.000000 
#    z 0.027230 0.000000 1.758260 
# 
# From -- ./inp_files/51940.got.cif
#   From: 2010.05.17/outbox.ucp.g08.bks.cvg/sg10_26_cif.got.tgz:51940.got - 2010.06.11 11:31:16.
