data_PCOD9155295
_publ_section_title
;
Structure prediction by ZEFSAII (Michael W. Deem and Ramdas Pophale) SiO2 
 PCOD9155295
Probable space group: P 2/M
;
_chemical_formula_sum "Si O2"
_cell_formula_units_Z 32
_cell_length_a 21.000000
_cell_length_b 9.000000
_cell_length_c 30.000000
_cell_angle_alpha 90.000000
_cell_angle_beta 160.000000
_cell_angle_gamma 90.000000
_cell_volume 1939.254213
_symmetry_space_group_name_H-M "P 2/M"
_symmetry_group_IT_number 10
_symmetry_cell_setting 'monoclinic'
loop_
_space_group_symop_operation_xyz
x,y,z
-x,y,-z
-x,-y,-z
x,-y,z
loop_
_atom_site_type_symbol
_atom_site_label
_atom_site_fract_x
_atom_site_fract_y
_atom_site_fract_z
Si Si1 0.784601 0.820405 0.450247
Si Si2 0.821659 0.321604 0.275729
Si Si3 0.328371 0.319158 0.528733
Si Si4 0.430412 0.821548 0.051366
Si Si5 0.119894 0.681107 0.018485
Si Si6 0.265447 0.817803 0.207840
Si Si7 0.907740 0.676936 0.227333
Si Si8 0.421482 0.822494 0.151950
O O1 0.709913 0.745574 0.446860
O O2 0.624986 0.789718 0.307968
O O3 0.993146 0.753474 0.580341
O O4 0.798179 0.000000 0.464098
O O5 0.823556 0.500000 0.284815
O O6 0.623311 0.252819 0.160421
O O7 0.848048 0.297775 0.239737
O O8 0.346545 0.500000 0.541948
O O9 0.526199 0.245267 0.643623
O O10 0.131757 0.285111 0.373108
O O11 0.420380 0.793889 0.098166
O O12 0.440197 0.000000 0.050876
O O13 0.244339 0.759104 0.904016
O O14 0.110318 0.500000 0.015518
O O15 0.909740 0.751556 0.878630
O O16 0.214279 0.752690 0.125029
O O17 0.257448 0.732341 0.069165
O O18 0.264431 0.000000 0.207256
O O19 0.893999 0.500000 0.209609
O O20 0.389440 0.000000 0.137857
#
# Coordination Sequence:
#
# PCOD9155295 Si02
#       8
#     4   4   4   4   4   4   4   4
#     4  10  19  33  54  77 106 142 177 216 271 324
#     4  10  21  37  56  78 107 137 175 229 278 318
#     4  10  19  33  54  82 112 139 176 223 269 316
#     4  11  23  37  55  78 105 141 185 224 266 324
#     4  11  21  33  53  80 110 144 181 219 259 314
#     4  11  20  32  53  81 114 145 175 215 266 316
#     4   9  20  37  56  78 107 139 175 227 276 313
#     4  10  22  38  53  75 111 147 177 219 269 320
#
# _framework density 16.501189
#
# number of rings (size 3 to 8) (size 9 to 14) (size 15 to 20)
#    0.000    1.750    1.250    5.625    0.000    6.500 
#    0.000    2.500    0.000    0.750    0.000    5.250 
#    0.000    0.000    0.000    0.000    0.000    0.000 
#
# Total GULP energy -178456.537723 kJ/mol
# GULP energy per Si atom -5576.766804 kJ/mol
# Density = 1.646363 g / cm^3
# Si number density = 16.501189 Si / 1000 Ang^3
#
#
#
# Elastic Constant Matrix: (Units=GPa)
#
#
# Indices 1 2 3 4 5 6 
#
# 1 70.3525 44.0946 65.1194 0.0000 8.3523 0.0000
# 2 44.0946 132.5287 76.2908 0.0000 8.8202 0.0000
# 3 65.1194 76.2908 190.7374 0.0000 17.4642 0.0000
# 4 0.0000 0.0000 0.0000 42.2857 0.0000 6.4948
# 5 8.3523 8.8202 17.4642 0.0000 33.2329 0.0000
# 6 0.0000 0.0000 0.0000 6.4948 0.0000 24.6669
#
#
#
# Elastic Compliance Matrix: (Units=1/GPa)
#
#
# Indices 1 2 3 4 5 6 
#
# 1 0.022325 -0.003924 -0.005919 0.000000 -0.001459 0.000000
# 2 -0.003924 0.010502 -0.002833 0.000000 -0.000313 0.000000
# 3 -0.005919 -0.002833 0.008606 0.000000 -0.002283 0.000000
# 4 0.000000 0.000000 0.000000 0.024645 0.000000 -0.006489
# 5 -0.001459 -0.000313 -0.002283 0.000000 0.031740 0.000000
# 6 0.000000 0.000000 0.000000 -0.006489 0.000000 0.042249
#
#
# Mechanical properties :
#
#
# Convention : Reuss Voigt Hill
#
# Bulk Modulus (GPa) = 62.17790 84.95869 73.56829
# Shear Modulus (GPa) = 29.27763 33.91137 31.59450
#
# Velocity S-wave (km/s) = 4.21678 4.53822 4.38045
# Velocity P-wave (km/s) = 7.84034 8.89150 8.38242
#
# Compressibility (1/GPa) = 0.01608289
#
# Stress axis : x y z
#
# Youngs Moduli (GPa) = 44.79216 95.21681 116.20285
#
# Poissons Ratio (x) = 0.37359 0.68782
# Poissons Ratio (y) = 0.17574 0.32915
# Poissons Ratio (z) = 0.26513 0.26971
#
# Static dielectric constant tensor:
#      x y z
#    x 1.551930 0.000000 0.010700 
#    y 0.000000 1.560480 0.000000 
#    z 0.010700 0.000000 1.569180 
# 
# From -- ./inp_files/95678.got.cif
#   From: 2010.05.17/outbox.ucp.g08.bks.cvg/sg10_48_cif.got.tgz:95678.got - 2010.06.11 11:31:16.
