data_PCOD9155187
_publ_section_title
;
Structure prediction by ZEFSAII (Michael W. Deem and Ramdas Pophale) SiO2 
 PCOD9155187
Probable space group: P 2/M
;
_chemical_formula_sum "Si O2"
_cell_formula_units_Z 32
_cell_length_a 24.000000
_cell_length_b 9.000000
_cell_length_c 15.000000
_cell_angle_alpha 90.000000
_cell_angle_beta 150.000000
_cell_angle_gamma 90.000000
_cell_volume 1620.000000
_symmetry_space_group_name_H-M "P 2/M"
_symmetry_group_IT_number 10
_symmetry_cell_setting 'monoclinic'
loop_
_space_group_symop_operation_xyz
x,y,z
-x,y,-z
-x,-y,-z
x,-y,z
loop_
_atom_site_type_symbol
_atom_site_label
_atom_site_fract_x
_atom_site_fract_y
_atom_site_fract_z
Si Si1 0.018208 0.181345 0.760049
Si Si2 0.887871 0.819774 0.294167
Si Si3 0.764502 0.180817 0.418249
Si Si4 0.524097 0.676567 0.756296
Si Si5 0.709627 0.819789 0.542516
Si Si6 0.616832 0.173731 0.714654
Si Si7 0.332299 0.179913 0.900622
Si Si8 0.821971 0.819737 0.871477
O O1 0.097124 0.227811 0.787387
O O2 0.890900 0.228516 0.571889
O O3 0.017241 0.000000 0.757717
O O4 0.069428 0.230484 0.924786
O O5 0.778982 0.777234 0.198162
O O6 0.000000 0.772508 0.500000
O O7 0.886998 0.000000 0.293107
O O8 0.731205 0.228850 0.471155
O O9 0.685421 0.222904 0.226728
O O10 0.765189 0.000000 0.420079
O O11 0.517674 0.500000 0.746553
O O12 0.403934 0.751236 0.577962
O O13 0.603024 0.734412 0.785877
O O14 0.568984 0.739257 0.911970
O O15 0.804044 0.775253 0.744660
O O16 0.700553 0.000000 0.530270
O O17 0.500000 0.182748 0.500000
O O18 0.715751 0.221365 0.785782
O O19 0.636348 0.000000 0.765544
O O20 0.345844 0.000000 0.924494
O O21 0.823946 0.000000 0.873526
#
# Coordination Sequence:
#
# PCOD9155187 Si02
#       8
#     4   4   4   4   4   4   4   4
#     4   9  15  25  44  80 116 138 167 214 271 325
#     4   9  14  24  48  80 112 137 166 215 273 324
#     4   9  18  31  52  80 109 139 180 229 271 313
#     4  12  25  38  54  79 108 143 182 227 274 320
#     4  10  20  37  55  76 107 144 183 226 272 320
#     4  10  18  34  59  84 110 143 177 214 265 326
#     4  10  19  34  56  82 109 143 181 222 270 323
#     4   9  17  29  51  81 113 143 170 209 269 329
#
# _framework density 19.753086
#
# number of rings (size 3 to 8) (size 9 to 14) (size 15 to 20)
#    0.000    2.250    2.500    1.875    0.000    3.250 
#    0.000    5.625    0.000    0.375    0.000    3.500 
#    0.000    0.000    0.000    0.000    0.000    0.000 
#
# Total GULP energy -178510.765570 kJ/mol
# GULP energy per Si atom -5578.461424 kJ/mol
# Density = 1.970813 g / cm^3
# Si number density = 19.753086 Si / 1000 Ang^3
#
#
#
# Elastic Constant Matrix: (Units=GPa)
#
#
# Indices 1 2 3 4 5 6 
#
# 1 76.7528 12.8698 9.5521 0.0000 -37.2899 0.0000
# 2 12.8698 15.2560 8.5193 0.0000 -10.7419 0.0000
# 3 9.5521 8.5193 75.1409 0.0000 -37.2947 0.0000
# 4 0.0000 0.0000 0.0000 -7.8587 0.0000 2.3835
# 5 -37.2899 -10.7419 -37.2947 0.0000 35.5345 0.0000
# 6 0.0000 0.0000 0.0000 2.3835 0.0000 2.6847
#
#
#
# Elastic Compliance Matrix: (Units=1/GPa)
#
#
# Indices 1 2 3 4 5 6 
#
# 1 0.075362 0.004258 0.062261 0.000000 0.145717 0.000000
# 2 0.004258 0.085001 0.010004 0.000000 0.040664 0.000000
# 3 0.062261 0.010004 0.079712 0.000000 0.152022 0.000000
# 4 0.000000 0.000000 0.000000 -0.100254 0.000000 0.089004
# 5 0.145717 0.040664 0.152022 0.000000 0.352903 0.000000
# 6 0.000000 0.000000 0.000000 0.089004 0.000000 0.293461
#
#
# Mechanical properties :
#
#
# Convention : Reuss Voigt Hill
#
# Bulk Modulus (GPa) = 2.54374 25.44802 13.99588
# Shear Modulus (GPa) = 6.54297 15.15268 10.84782
#
# Velocity S-wave (km/s) = 1.82197 2.77267 2.34598
# Velocity P-wave (km/s) = 2.39095 4.81262 3.79986
#
# Compressibility (1/GPa) = 0.39312193
#
# Stress axis : x y z
#
# Youngs Moduli (GPa) = 13.26927 11.76461 12.54509
#
# Poissons Ratio (x) = -0.05010 -0.78107
# Poissons Ratio (y) = -0.05650 -0.12550
# Poissons Ratio (z) = -0.82616 -0.11769
#
# Static dielectric constant tensor:
#      x y z
#    x 1.699140 0.000000 -0.018110 
#    y 0.000000 1.654620 0.000000 
#    z -0.018110 0.000000 1.736260 
# 
# From -- ./inp_files/71584.got.cif
#   From: 2010.05.17/outbox.ucp.g08.bks.cvg/sg10_36_cif.got.tgz:71584.got - 2010.06.11 11:31:16.
