data_PCOD9155544
_publ_section_title
;
Structure prediction by ZEFSAII (Michael W. Deem and Ramdas Pophale) SiO2 
 PCOD9155544
Probable space group: P 2/M
;
_chemical_formula_sum "Si O2"
_cell_formula_units_Z 28
_cell_length_a 15.000000
_cell_length_b 9.000000
_cell_length_c 21.000000
_cell_angle_alpha 90.000000
_cell_angle_beta 150.000000
_cell_angle_gamma 90.000000
_cell_volume 1417.500000
_symmetry_space_group_name_H-M "P 2/M"
_symmetry_group_IT_number 10
_symmetry_cell_setting 'monoclinic'
loop_
_space_group_symop_operation_xyz
x,y,z
-x,y,-z
-x,-y,-z
x,-y,z
loop_
_atom_site_type_symbol
_atom_site_label
_atom_site_fract_x
_atom_site_fract_y
_atom_site_fract_z
Si Si1 0.384591 0.831884 0.370478
Si Si2 0.481564 0.170568 0.801601
Si Si3 0.205255 0.672546 0.937187
Si Si4 0.835658 0.664289 0.348799
Si Si5 0.010766 0.670986 0.320409
Si Si6 0.052366 0.672121 0.102574
Si Si7 0.357396 0.831632 0.589872
O O1 0.500000 0.765348 0.500000
O O2 0.212260 0.748508 0.239192
O O3 0.506879 0.838654 0.384136
O O4 0.334912 0.000000 0.360012
O O5 0.288267 0.199112 0.710961
O O6 0.455626 0.233805 0.713338
O O7 0.535237 0.000000 0.828157
O O8 0.614074 0.244880 0.933772
O O9 0.241458 0.500000 0.944510
O O10 0.086989 0.730228 0.804069
O O11 0.104460 0.679294 0.942739
O O12 0.749950 0.500000 0.306566
O O13 0.000000 0.668759 0.500000
O O14 0.887628 0.671233 0.307013
O O15 0.059039 0.500000 0.335409
O O16 0.186812 0.750515 0.455377
O O17 0.101208 0.500000 0.122113
O O18 0.000000 0.734076 0.000000
O O19 0.303358 0.000000 0.574464
#
# Coordination Sequence:
#
# PCOD9155544 Si02
#       7
#     4   4   4   4   4   4   4
#     4  10  21  36  55  81 112 146 184 226 275 329
#     4  11  23  37  57  84 113 146 185 225 271 328
#     4  10  22  39  57  81 114 147 183 228 276 325
#     4  10  20  37  60  84 110 142 183 227 274 326
#     4  10  21  37  59  84 109 144 186 228 276 327
#     4  10  21  37  57  82 111 146 187 229 273 322
#     4  10  21  36  55  82 113 145 183 228 275 325
#
# _framework density 19.753086
#
# number of rings (size 3 to 8) (size 9 to 14) (size 15 to 20)
#    0.000    1.857    1.429    2.143    0.000    4.286 
#    0.000    2.857    0.000    0.000    0.000    0.000 
#    0.000    0.000    0.000    0.000    0.000    0.000 
#
# Total GULP energy -155942.498688 kJ/mol
# GULP energy per Si atom -5569.374953 kJ/mol
# Density = 1.970813 g / cm^3
# Si number density = 19.753086 Si / 1000 Ang^3
#
#
#
# Elastic Constant Matrix: (Units=GPa)
#
#
# Indices 1 2 3 4 5 6 
#
# 1 29.4227 6.0641 8.1975 0.0000 -15.0544 0.0000
# 2 6.0641 5.6461 14.3881 0.0000 0.1703 0.0000
# 3 8.1975 14.3881 90.1226 0.0000 -25.5094 0.0000
# 4 0.0000 0.0000 0.0000 18.3467 0.0000 -20.2116
# 5 -15.0544 0.1703 -25.5094 0.0000 30.1799 0.0000
# 6 0.0000 0.0000 0.0000 -20.2116 0.0000 4.6258
#
#
#
# Elastic Compliance Matrix: (Units=1/GPa)
#
#
# Indices 1 2 3 4 5 6 
#
# 1 0.522759 -1.448806 0.341604 0.000000 0.557680 0.000000
# 2 -1.448806 4.405187 -1.029381 0.000000 -1.617637 0.000000
# 3 0.341604 -1.029381 0.255328 0.000000 0.392024 0.000000
# 4 0.000000 0.000000 0.000000 -0.014293 0.000000 -0.062451
# 5 0.557680 -1.617637 0.392024 0.000000 0.651803 0.000000
# 6 0.000000 0.000000 0.000000 -0.062451 0.000000 -0.056688
#
#
# Mechanical properties :
#
#
# Convention : Reuss Voigt Hill
#
# Bulk Modulus (GPa) = 1.09877 20.27675 10.68776
# Shear Modulus (GPa) = 0.48353 17.06659 8.77506
#
# Velocity S-wave (km/s) = 0.49530 2.94257 2.10998
# Velocity P-wave (km/s) = 0.94051 4.67251 3.37023
#
# Compressibility (1/GPa) = 0.91010699
#
# Stress axis : x y z
#
# Youngs Moduli (GPa) = 1.91293 0.22701 3.91654
#
# Poissons Ratio (x) = 0.32889 -1.33791
# Poissons Ratio (y) = 2.77146 4.03161
# Poissons Ratio (z) = -0.65347 0.23367
#
# Static dielectric constant tensor:
#      x y z
#    x 1.752790 0.000000 0.030240 
#    y 0.000000 1.773690 0.000000 
#    z 0.030240 0.000000 1.704500 
# 
# From -- ./inp_files/66873.got.cif
#   From: 2010.05.17/outbox.ucp.g08.bks.cvg/sg10_34_cif.got.tgz:66873.got - 2010.06.11 11:31:16.
