data_PCOD9155779
_publ_section_title
;
Structure prediction by ZEFSAII (Michael W. Deem and Ramdas Pophale) SiO2 
 PCOD9155779
Probable space group: P 21/M
;
_chemical_formula_sum "Si O2"
_cell_formula_units_Z 32
_cell_length_a 18.715571
_cell_length_b 23.467692
_cell_length_c 5.355022
_cell_angle_alpha 90.000000
_cell_angle_beta 64.583879
_cell_angle_gamma 90.000000
_cell_volume 2124.347967
_symmetry_space_group_name_H-M "P 21/M"
_symmetry_group_IT_number 11
_symmetry_cell_setting 'monoclinic'
loop_
_space_group_symop_operation_xyz
x,y,z
-x,1/2+y,-z
-x,-y,-z
x,1/2-y,z
loop_
_atom_site_type_symbol
_atom_site_label
_atom_site_fract_x
_atom_site_fract_y
_atom_site_fract_z
Si Si1 0.480258 0.575600 0.779614
Si Si2 0.005760 0.069512 0.491361
Si Si3 0.059740 0.554861 0.910390
Si Si4 0.775880 0.510137 0.336179
Si Si5 0.311115 0.316610 0.033327
Si Si6 0.598336 0.029883 0.602496
Si Si7 0.192225 0.418033 0.211662
Si Si8 0.585861 0.683129 0.621208
O O1 0.431298 0.561388 0.603139
O O2 0.554981 0.531922 0.667529
O O3 0.513696 0.639275 0.729456
O O4 0.431298 0.561388 0.102968
O O5 0.097308 0.085782 0.354037
O O6 0.961854 0.088148 0.307214
O O7 0.000000 0.000000 0.500000
O O8 0.961854 0.088148 0.807224
O O9 0.148333 0.531471 0.777501
O O10 0.000000 0.500000 0.000000
O O11 0.691962 0.478924 0.462057
O O12 0.783002 0.547937 0.575922
O O13 0.783002 0.547937 0.075072
O O14 0.288975 0.250000 0.066537
O O15 0.236500 0.358028 0.145249
O O16 0.362660 0.327334 0.205721
O O17 0.362660 0.327334 0.706298
O O18 0.563205 0.750000 0.655192
#
# Coordination Sequence:
#
# PCOD9155779 Si02
#       8
#     4   4   4   4   4   4   4   4
#     4  10  19  35  46  65  97 121 160 185 234 277
#     4  10  16  28  40  63  89 124 152 186 218 255
#     4  10  16  29  41  61  96 119 148 193 212 259
#     4  12  20  29  46  70  92 128 162 182 236 283
#     4  10  21  33  46  71  95 117 158 202 232 271
#     4  10  21  30  46  67  96 132 146 190 227 294
#     4  12  19  28  48  64  94 131 157 185 234 285
#     4  10  20  36  55  69  90 124 163 201 235 278
#
# _framework density 15.063445
#
# number of rings (size 3 to 8) (size 9 to 14) (size 15 to 20)
#    0.000    1.500    5.000    3.750    0.000    2.000 
#    0.000    0.000    0.000    0.000    0.000    0.000 
#    0.000    6.000    0.000    0.000    0.000    0.000 
#
# Total GULP energy -178471.219328 kJ/mol
# GULP energy per Si atom -5577.225604 kJ/mol
# Density = 1.502916 g / cm^3
# Si number density = 15.063445 Si / 1000 Ang^3
#
#
#
# Elastic Constant Matrix: (Units=GPa)
#
#
# Indices 1 2 3 4 5 6 
#
# 1 123.6747 53.4158 85.6875 0.0000 -10.3290 0.0000
# 2 53.4158 55.4847 46.2463 0.0000 -6.2091 0.0000
# 3 85.6875 46.2463 134.4604 0.0000 19.6689 0.0000
# 4 0.0000 0.0000 0.0000 8.8383 0.0000 -7.3853
# 5 -10.3290 -6.2091 19.6689 0.0000 39.0094 0.0000
# 6 0.0000 0.0000 0.0000 -7.3853 0.0000 17.3660
#
#
#
# Elastic Compliance Matrix: (Units=1/GPa)
#
#
# Indices 1 2 3 4 5 6 
#
# 1 0.021048 -0.009484 -0.011601 0.000000 0.009913 0.000000
# 2 -0.009484 0.032910 -0.006126 0.000000 0.005816 0.000000
# 3 -0.011601 -0.006126 0.018925 0.000000 -0.013589 0.000000
# 4 0.000000 0.000000 0.000000 0.175515 0.000000 0.074642
# 5 0.009913 0.005816 -0.013589 0.000000 0.036037 0.000000
# 6 0.000000 0.000000 0.000000 0.074642 0.000000 0.089327
#
#
# Mechanical properties :
#
#
# Convention : Reuss Voigt Hill
#
# Bulk Modulus (GPa) = 54.16975 76.03545 65.10260
# Shear Modulus (GPa) = 11.51176 21.59408 16.55292
#
# Velocity S-wave (km/s) = 2.76745 3.79032 3.31853
# Velocity P-wave (km/s) = 6.80080 8.35115 7.61553
#
# Compressibility (1/GPa) = 0.01846049
#
# Stress axis : x y z
#
# Youngs Moduli (GPa) = 47.51134 30.38572 52.84018
#
# Poissons Ratio (x) = 0.28818 0.61301
# Poissons Ratio (y) = 0.45060 0.32370
# Poissons Ratio (z) = 0.55119 0.18614
#
# Static dielectric constant tensor:
#      x y z
#    x 1.474850 0.000000 -0.000950 
#    y 0.000000 1.457420 0.000000 
#    z -0.000950 0.000000 1.473760 
# 
# From -- ./inp_files/8304.got.cif
#   From: 2010.05.17/outbox.cif.g08.bks.cpg/sg11_5_cif.got.tgz:8304.got - 2010.06.03 12:22:45.
