data_PCOD9155540
_publ_section_title
;
Structure prediction by ZEFSAII (Michael W. Deem and Ramdas Pophale) SiO2 
 PCOD9155540
Probable space group: P 2/M
;
_chemical_formula_sum "Si O2"
_cell_formula_units_Z 32
_cell_length_a 24.000000
_cell_length_b 9.000000
_cell_length_c 15.000000
_cell_angle_alpha 90.000000
_cell_angle_beta 30.000000
_cell_angle_gamma 90.000000
_cell_volume 1620.000000
_symmetry_space_group_name_H-M "P 2/M"
_symmetry_group_IT_number 10
_symmetry_cell_setting 'monoclinic'
loop_
_space_group_symop_operation_xyz
x,y,z
-x,y,-z
-x,-y,-z
x,-y,z
loop_
_atom_site_type_symbol
_atom_site_label
_atom_site_fract_x
_atom_site_fract_y
_atom_site_fract_z
Si Si1 0.751027 0.174840 0.947215
Si Si2 0.206729 0.323437 0.806031
Si Si3 0.986920 0.824548 0.172675
Si Si4 0.733380 0.824572 0.454197
Si Si5 0.017123 0.676819 0.323146
Si Si6 0.622174 0.178293 0.296185
Si Si7 0.798894 0.176399 0.684556
Si Si8 0.383453 0.181004 0.204970
O O1 0.731529 0.196210 0.869587
O O2 0.861187 0.266837 0.817866
O O3 0.778356 0.000000 0.922411
O O4 0.649363 0.207999 0.154588
O O5 0.195477 0.500000 0.827557
O O6 0.270447 0.272492 0.628865
O O7 0.279835 0.259182 0.785726
O O8 0.084395 0.248098 0.978320
O O9 0.860701 0.810317 0.313037
O O10 0.994685 0.744456 0.256772
O O11 0.010717 0.000000 0.148656
O O12 0.647582 0.778533 0.650790
O O13 0.715374 0.000000 0.458747
O O14 0.013961 0.500000 0.326320
O O15 0.916416 0.740024 0.522662
O O16 0.500000 0.224135 0.500000
O O17 0.630991 0.000000 0.298532
O O18 0.720474 0.227189 0.712631
O O19 0.821861 0.000000 0.641667
O O20 0.384970 0.000000 0.201100
O O21 0.500000 0.231286 0.000000
#
# Coordination Sequence:
#
# PCOD9155540 Si02
#       8
#     4   4   4   4   4   4   4   4
#     4  10  21  37  61  88 118 155 194 244 296 350
#     4  12  25  39  59  90 124 160 194 239 300 359
#     4  11  21  38  63  89 118 154 196 244 297 353
#     4  10  21  38  62  90 119 156 197 245 298 349
#     4  12  23  35  57  88 121 157 191 237 299 358
#     4  10  22  41  64  89 116 155 206 253 293 342
#     4  10  20  37  59  87 118 155 197 240 294 350
#     4   9  18  35  61  90 117 148 197 253 293 334
#
# _framework density 19.753086
#
# number of rings (size 3 to 8) (size 9 to 14) (size 15 to 20)
#    0.000    1.500    2.500    3.375    0.000    5.750 
#    0.000    3.750    0.000    3.000    0.000    0.000 
#    0.000    0.000    0.000    0.000    0.000    0.000 
#
# Total GULP energy -178783.161853 kJ/mol
# GULP energy per Si atom -5586.973808 kJ/mol
# Density = 1.970813 g / cm^3
# Si number density = 19.753086 Si / 1000 Ang^3
#
#
#
# Elastic Constant Matrix: (Units=GPa)
#
#
# Indices 1 2 3 4 5 6 
#
# 1 25.4412 12.0036 8.8905 0.0000 20.6132 0.0000
# 2 12.0036 51.4971 29.6751 0.0000 11.8079 0.0000
# 3 8.8905 29.6751 143.7960 0.0000 21.3770 0.0000
# 4 0.0000 0.0000 0.0000 -1.2004 0.0000 -2.9357
# 5 20.6132 11.8079 21.3770 0.0000 31.8427 0.0000
# 6 0.0000 0.0000 0.0000 -2.9357 0.0000 -15.4293
#
#
#
# Elastic Compliance Matrix: (Units=1/GPa)
#
#
# Indices 1 2 3 4 5 6 
#
# 1 0.088588 -0.010580 0.005164 0.000000 -0.056890 0.000000
# 2 -0.010580 0.024271 -0.004482 0.000000 0.000858 0.000000
# 3 0.005164 -0.004482 0.008676 0.000000 -0.007505 0.000000
# 4 0.000000 0.000000 0.000000 -1.557975 0.000000 0.296435
# 5 -0.056890 0.000858 -0.007505 0.000000 0.072952 0.000000
# 6 0.000000 0.000000 0.000000 0.296435 0.000000 -0.121215
#
#
# Mechanical properties :
#
#
# Convention : Reuss Voigt Hill
#
# Bulk Modulus (GPa) = 9.82922 35.76364 22.79643
# Shear Modulus (GPa) = -3.49408 14.38694 5.44643
#
# Velocity S-wave (km/s) = -1.33143 2.70170 1.66230
# Velocity P-wave (km/s) = 1.61964 5.27986 3.90513
#
# Compressibility (1/GPa) = 0.10173744
#
# Stress axis : x y z
#
# Youngs Moduli (GPa) = 11.28817 41.20168 115.26426
#
# Poissons Ratio (x) = 0.43593 -0.59519
# Poissons Ratio (y) = 0.11943 0.51663
# Poissons Ratio (z) = -0.05829 0.18467
#
# Static dielectric constant tensor:
#      x y z
#    x 1.714740 0.000000 0.041100 
#    y 0.000000 1.656610 0.000000 
#    z 0.041100 0.000000 1.704590 
# 
# From -- ./inp_files/71510.got.cif
#   From: 2010.05.17/outbox.ucp.g08.bks.cvg/sg10_36_cif.got.tgz:71510.got - 2010.06.11 11:31:16.
