data_PCOD9155798
_publ_section_title
;
Structure prediction by ZEFSAII (Michael W. Deem and Ramdas Pophale) SiO2 
 PCOD9155798
Probable space group: P 21/M
;
_chemical_formula_sum "Si O2"
_cell_formula_units_Z 24
_cell_length_a 7.209021
_cell_length_b 14.237067
_cell_length_c 14.383408
_cell_angle_alpha 90.000000
_cell_angle_beta 130.022386
_cell_angle_gamma 90.000000
_cell_volume 1130.498911
_symmetry_space_group_name_H-M "P 21/M"
_symmetry_group_IT_number 11
_symmetry_cell_setting 'monoclinic'
loop_
_space_group_symop_operation_xyz
x,y,z
-x,1/2+y,-z
-x,-y,-z
x,1/2-y,z
loop_
_atom_site_type_symbol
_atom_site_label
_atom_site_fract_x
_atom_site_fract_y
_atom_site_fract_z
Si Si1 0.883615 0.354483 0.787045
Si Si2 0.026396 0.141925 0.343215
Si Si3 0.410687 0.037009 0.571562
Si Si4 0.580676 0.853128 0.701954
Si Si5 0.242155 0.532395 0.880688
Si Si6 0.997165 0.608553 0.970254
O O1 0.927939 0.250000 0.760501
O O2 0.617390 0.392489 0.675557
O O3 0.912079 0.345033 0.907223
O O4 0.067588 0.439855 0.820489
O O5 0.972452 0.250000 0.345237
O O6 0.161734 0.090428 0.471312
O O7 0.222920 0.141066 0.320227
O O8 0.798702 0.084801 0.229598
O O9 0.500000 0.000000 0.500000
O O10 0.412195 0.943410 0.634433
O O11 0.467277 0.750000 0.658973
O O12 0.737546 0.861420 0.846842
O O13 0.500000 0.500000 0.000000
O O14 0.164771 0.608938 0.933834
O O15 0.000000 0.500000 0.000000
#
# Coordination Sequence:
#
# PCOD9155798 Si02
#       6
#     4   4   4   4   4   4
#     4  11  20  32  53  81 106 132 174 225 268 309
#     4   9  17  30  48  70 100 137 172 208 258 312
#     4  10  16  30  46  75 104 131 169 224 265 304
#     4   9  15  25  45  70  97 129 161 205 263 310
#     4  10  20  35  53  76 110 141 174 211 260 319
#     4   9  16  32  49  73 106 133 169 217 264 308
#
# _framework density 21.229565999999998
#
# number of rings (size 3 to 8) (size 9 to 14) (size 15 to 20)
#    0.000    2.333    6.667    1.000    0.000    2.000 
#    0.000    0.000    0.000    1.000    0.000    0.000 
#    0.000    0.000    0.000    0.000    0.000    0.000 
#
# Total GULP energy -133730.580295 kJ/mol
# GULP energy per Si atom -5572.107512 kJ/mol
# Density = 2.118125 g / cm^3
# Si number density = 21.229566 Si / 1000 Ang^3
#
#
#
# Elastic Constant Matrix: (Units=GPa)
#
#
# Indices 1 2 3 4 5 6 
#
# 1 39.2766 6.2393 22.5658 0.0000 8.2690 0.0000
# 2 6.2393 167.2751 75.2345 0.0000 13.9436 0.0000
# 3 22.5658 75.2345 176.6721 0.0000 18.0770 0.0000
# 4 0.0000 0.0000 0.0000 8.5202 0.0000 -10.9425
# 5 8.2690 13.9436 18.0770 0.0000 30.1026 0.0000
# 6 0.0000 0.0000 0.0000 -10.9425 0.0000 -3.2053
#
#
#
# Elastic Compliance Matrix: (Units=1/GPa)
#
#
# Indices 1 2 3 4 5 6 
#
# 1 0.028594 0.001001 -0.003439 0.000000 -0.006253 0.000000
# 2 0.001001 0.007506 -0.003133 0.000000 -0.001870 0.000000
# 3 -0.003439 -0.003133 0.007659 0.000000 -0.002204 0.000000
# 4 0.000000 0.000000 0.000000 0.021797 0.000000 -0.074414
# 5 -0.006253 -0.001870 -0.002204 0.000000 0.037127 0.000000
# 6 0.000000 0.000000 0.000000 -0.074414 0.000000 -0.057942
#
#
# Mechanical properties :
#
#
# Convention : Reuss Voigt Hill
#
# Bulk Modulus (GPa) = 30.65794 65.70033 48.17914
# Shear Modulus (GPa) = 74.90181 25.69580 50.29881
#
# Velocity S-wave (km/s) = 5.94630 3.48282 4.87281
# Velocity P-wave (km/s) = 7.84965 6.86936 7.37581
#
# Compressibility (1/GPa) = 0.03261797
#
# Stress axis : x y z
#
# Youngs Moduli (GPa) = 34.97285 133.23101 130.56596
#
# Poissons Ratio (x) = -0.13341 0.44898
# Poissons Ratio (y) = -0.03502 0.40903
# Poissons Ratio (z) = 0.12026 0.41738
#
# Static dielectric constant tensor:
#      x y z
#    x 1.890450 0.000000 -0.029950 
#    y 0.000000 1.799630 0.000000 
#    z -0.029950 0.000000 1.788730 
# 
# From -- ./inp_files/35312.got.cif
#   From: 2010.05.17/outbox.cif.g08.bks.cpg/sg11_18_cif.got.tgz:35312.got - 2010.06.03 12:22:45.
