data_PCOD9155668
_publ_section_title
;
Structure prediction by ZEFSAII (Michael W. Deem and Ramdas Pophale) SiO2 
 PCOD9155668
Probable space group: P 2/M
;
_chemical_formula_sum "Si O2"
_cell_formula_units_Z 24
_cell_length_a 15.000000
_cell_length_b 9.000000
_cell_length_c 18.000000
_cell_angle_alpha 90.000000
_cell_angle_beta 150.000000
_cell_angle_gamma 90.000000
_cell_volume 1215.000000
_symmetry_space_group_name_H-M "P 2/M"
_symmetry_group_IT_number 10
_symmetry_cell_setting 'monoclinic'
loop_
_space_group_symop_operation_xyz
x,y,z
-x,y,-z
-x,-y,-z
x,-y,z
loop_
_atom_site_type_symbol
_atom_site_label
_atom_site_fract_x
_atom_site_fract_y
_atom_site_fract_z
Si Si1 0.586427 0.177183 0.674120
Si Si2 0.806698 0.325902 0.381928
Si Si3 0.294855 0.167996 0.829983
Si Si4 0.792746 0.178499 0.676551
Si Si5 0.855081 0.678298 0.136655
Si Si6 0.460127 0.678109 0.206191
O O1 0.730887 0.216716 0.715594
O O2 0.386486 0.209889 0.500209
O O3 0.612332 0.258480 0.769763
O O4 0.596334 0.000000 0.691190
O O5 0.833877 0.500000 0.418416
O O6 0.706689 0.294906 0.233285
O O7 0.663061 0.265060 0.337332
O O8 0.000000 0.259995 0.500000
O O9 0.173125 0.228691 0.808588
O O10 0.239213 0.000000 0.766281
O O11 0.500000 0.156242 0.000000
O O12 0.963764 0.267419 0.771928
O O13 0.825722 0.000000 0.696625
O O14 0.860502 0.500000 0.153878
O O15 0.682519 0.712975 0.960981
O O16 0.472061 0.500000 0.218041
#
# Coordination Sequence:
#
# PCOD9155668 Si02
#       6
#     4   4   4   4   4   4
#     4   9  20  39  62  84 115 152 186 235 291 339
#     4  10  22  40  60  84 117 156 194 234 282 338
#     4  11  23  39  60  86 116 152 193 237 282 338
#     4   9  20  40  61  86 115 148 191 235 285 344
#     4  11  23  38  59  85 116 155 191 233 288 340
#     4  10  22  38  56  84 119 151 191 238 282 337
#
# _framework density 19.753086
#
# number of rings (size 3 to 8) (size 9 to 14) (size 15 to 20)
#    0.000    2.000    1.667    2.000    2.333    5.000 
#    0.000    5.000    0.000    0.000    0.000    0.000 
#    0.000    0.000    0.000    0.000    0.000    0.000 
#
# Total GULP energy -133769.665695 kJ/mol
# GULP energy per Si atom -5573.736071 kJ/mol
# Density = 1.970813 g / cm^3
# Si number density = 19.753086 Si / 1000 Ang^3
#
#
#
# Elastic Constant Matrix: (Units=GPa)
#
#
# Indices 1 2 3 4 5 6 
#
# 1 90.3795 -2.4165 -2.0028 0.0000 19.6917 0.0000
# 2 -2.4165 -5.7896 -6.3680 0.0000 13.0378 0.0000
# 3 -2.0028 -6.3680 6.8062 0.0000 21.5609 0.0000
# 4 0.0000 0.0000 0.0000 28.0268 0.0000 -14.8132
# 5 19.6917 13.0378 21.5609 0.0000 37.1165 0.0000
# 6 0.0000 0.0000 0.0000 -14.8132 0.0000 -608.5607
#
#
#
# Elastic Compliance Matrix: (Units=1/GPa)
#
#
# Indices 1 2 3 4 5 6 
#
# 1 0.011329 -0.011241 0.000776 0.000000 -0.002513 0.000000
# 2 -0.011241 0.053489 -0.103986 0.000000 0.047579 0.000000
# 3 0.000776 -0.103986 0.076821 0.000000 -0.008510 0.000000
# 4 0.000000 0.000000 0.000000 0.035227 0.000000 -0.000857
# 5 -0.002513 0.047579 -0.008510 0.000000 0.016506 0.000000
# 6 0.000000 0.000000 0.000000 -0.000857 0.000000 -0.001622
#
#
# Mechanical properties :
#
#
# Convention : Reuss Voigt Hill
#
# Bulk Modulus (GPa) = -11.45989 7.75794 -1.85097
# Shear Modulus (GPa) = 12.76937 -101.87124 -44.55094
#
# Velocity S-wave (km/s) = 2.54529 -7.18918 -4.75425
# Velocity P-wave (km/s) = 1.68044 8.06079 5.57461
#
# Compressibility (1/GPa) = -0.08726088
#
# Stress axis : x y z
#
# Youngs Moduli (GPa) = 88.27242 18.69534 13.01725
#
# Poissons Ratio (x) = 0.21015 -0.01010
# Poissons Ratio (y) = 0.99223 1.35361
# Poissons Ratio (z) = -0.06852 1.94404
#
# Static dielectric constant tensor:
#      x y z
#    x 1.149570 0.000000 -0.400910 
#    y 0.000000 1.678160 0.000000 
#    z -0.400910 0.000000 1.458130 
# 
# From -- ./inp_files/27299.got.cif
#   From: 2010.05.17/outbox.ucp.g08.bks.cvg/sg10_14_cif.got.tgz:27299.got - 2010.06.11 11:31:16.
