data_PCOD9155538
_publ_section_title
;
Structure prediction by ZEFSAII (Michael W. Deem and Ramdas Pophale) SiO2 
 PCOD9155538
Probable space group: P 2/M
;
_chemical_formula_sum "Si O2"
_cell_formula_units_Z 28
_cell_length_a 21.000000
_cell_length_b 9.000000
_cell_length_c 15.000000
_cell_angle_alpha 90.000000
_cell_angle_beta 30.000000
_cell_angle_gamma 90.000000
_cell_volume 1417.500000
_symmetry_space_group_name_H-M "P 2/M"
_symmetry_group_IT_number 10
_symmetry_cell_setting 'monoclinic'
loop_
_space_group_symop_operation_xyz
x,y,z
-x,y,-z
-x,-y,-z
x,-y,z
loop_
_atom_site_type_symbol
_atom_site_label
_atom_site_fract_x
_atom_site_fract_y
_atom_site_fract_z
Si Si1 0.568180 0.825143 0.712148
Si Si2 0.690166 0.322887 0.026569
Si Si3 0.204481 0.324269 0.911155
Si Si4 0.957254 0.166403 0.155009
Si Si5 0.847618 0.822893 0.690742
Si Si6 0.283645 0.328035 0.611914
Si Si7 0.648213 0.678620 0.791576
O O1 0.428747 0.754153 0.876999
O O2 0.621390 0.784481 0.550221
O O3 0.651292 0.745677 0.688022
O O4 0.564343 0.000000 0.732866
O O5 0.679725 0.500000 0.028386
O O6 0.706974 0.290824 0.111407
O O7 0.808750 0.257481 0.829481
O O8 0.170944 0.500000 0.956924
O O9 0.267502 0.303035 0.737254
O O10 0.077099 0.225466 0.065124
O O11 0.847849 0.289333 0.279344
O O12 0.915273 0.000000 0.234464
O O13 0.000000 0.153307 0.000000
O O14 0.756277 0.751424 0.724310
O O15 0.000000 0.803106 0.500000
O O16 0.821588 0.000000 0.724659
O O17 0.320415 0.500000 0.553346
O O18 0.664180 0.500000 0.772498
O O19 0.500000 0.709738 0.000000
#
# Coordination Sequence:
#
# PCOD9155538 Si02
#       7
#     4   4   4   4   4   4   4
#     4  12  25  40  62  91 124 161 205 258 315 373
#     4  11  23  41  63  89 121 161 210 256 310 376
#     4   9  20  37  59  85 119 165 207 253 309 366
#     4   9  17  31  53  81 114 152 197 250 307 364
#     4  11  25  44  67  98 133 167 207 260 320 380
#     4  10  20  37  59  85 120 161 209 256 303 366
#     4  11  23  42  70  97 123 164 212 257 311 378
#
# _framework density 19.753086
#
# number of rings (size 3 to 8) (size 9 to 14) (size 15 to 20)
#    0.000    1.571    1.429    3.429    0.000    6.857 
#    0.000    5.714    0.000    0.000    0.000    0.000 
#    0.000    0.000    0.000    0.000    0.000    0.000 
#
# Total GULP energy -156259.071072 kJ/mol
# GULP energy per Si atom -5580.681110 kJ/mol
# Density = 1.970813 g / cm^3
# Si number density = 19.753086 Si / 1000 Ang^3
#
#
#
# Elastic Constant Matrix: (Units=GPa)
#
#
# Indices 1 2 3 4 5 6 
#
# 1 122.6509 49.7162 20.7456 0.0000 2.5309 0.0000
# 2 49.7162 97.8733 25.1739 0.0000 1.7661 0.0000
# 3 20.7456 25.1739 48.1681 0.0000 -0.5878 0.0000
# 4 0.0000 0.0000 0.0000 27.0216 0.0000 -7.6879
# 5 2.5309 1.7661 -0.5878 0.0000 23.2758 0.0000
# 6 0.0000 0.0000 0.0000 -7.6879 0.0000 6.1087
#
#
#
# Elastic Compliance Matrix: (Units=1/GPa)
#
#
# Indices 1 2 3 4 5 6 
#
# 1 0.010446 -0.004773 -0.002014 0.000000 -0.000825 0.000000
# 2 -0.004773 0.014011 -0.005275 0.000000 -0.000677 0.000000
# 3 -0.002014 -0.005275 0.024400 0.000000 0.001236 0.000000
# 4 0.000000 0.000000 0.000000 0.057650 0.000000 0.072554
# 5 -0.000825 -0.000677 0.001236 0.000000 0.043135 0.000000
# 6 0.000000 0.000000 0.000000 0.072554 0.000000 0.255014
#
#
# Mechanical properties :
#
#
# Convention : Reuss Voigt Hill
#
# Bulk Modulus (GPa) = 40.43381 51.10709 45.77045
# Shear Modulus (GPa) = 11.44099 22.81830 17.12965
#
# Velocity S-wave (km/s) = 2.40927 3.40248 2.94800
# Velocity P-wave (km/s) = 5.31540 6.43156 5.89993
#
# Compressibility (1/GPa) = 0.02473178
#
# Stress axis : x y z
#
# Youngs Moduli (GPa) = 95.73310 71.37336 40.98333
#
# Poissons Ratio (x) = 0.34067 0.08256
# Poissons Ratio (y) = 0.45694 0.21619
# Poissons Ratio (z) = 0.19285 0.37649
#
# Static dielectric constant tensor:
#      x y z
#    x 1.663430 0.000000 0.006540 
#    y 0.000000 1.662470 0.000000 
#    z 0.006540 0.000000 1.814210 
# 
# From -- ./inp_files/70209.got.cif
#   From: 2010.05.17/outbox.ucp.g08.bks.cvg/sg10_36_cif.got.tgz:70209.got - 2010.06.11 11:31:16.
