data_PCOD9155474
_publ_section_title
;
Structure prediction by ZEFSAII (Michael W. Deem and Ramdas Pophale) SiO2 
 PCOD9155474
Probable space group: P 2/M
;
_chemical_formula_sum "Si O2"
_cell_formula_units_Z 32
_cell_length_a 12.000000
_cell_length_b 9.000000
_cell_length_c 15.000000
_cell_angle_alpha 90.000000
_cell_angle_beta 90.000000
_cell_angle_gamma 90.000000
_cell_volume 1620.000000
_symmetry_space_group_name_H-M "P 2/M"
_symmetry_group_IT_number 10
_symmetry_cell_setting 'monoclinic'
loop_
_space_group_symop_operation_xyz
x,y,z
-x,y,-z
-x,-y,-z
x,-y,z
loop_
_atom_site_type_symbol
_atom_site_label
_atom_site_fract_x
_atom_site_fract_y
_atom_site_fract_z
Si Si1 0.303435 0.824068 0.852252
Si Si2 0.557476 0.828799 0.877479
Si Si3 0.136255 0.330285 0.742363
Si Si4 0.372466 0.322914 0.474634
Si Si5 0.895367 0.320875 0.800724
Si Si6 0.878666 0.328448 0.468318
Si Si7 0.245987 0.324752 0.025305
Si Si8 0.299541 0.829627 0.302035
O O1 0.431583 0.776464 0.863704
O O2 0.244407 0.764320 0.764584
O O3 0.303466 0.000000 0.853695
O O4 0.231033 0.760304 0.933476
O O5 0.632859 0.726296 0.939464
O O6 0.621549 0.831487 0.784048
O O7 0.558116 0.000000 0.911110
O O8 0.157752 0.500000 0.771040
O O9 0.112861 0.330182 0.637930
O O10 0.023611 0.277441 0.790604
O O11 0.500000 0.270146 0.500000
O O12 0.373385 0.500000 0.491146
O O13 0.248594 0.269384 0.511804
O O14 0.357136 0.276884 0.372673
O O15 0.887618 0.500000 0.786977
O O16 0.842486 0.287376 0.897338
O O17 0.818452 0.237915 0.728764
O O18 0.877461 0.500000 0.503170
O O19 0.000000 0.263720 0.500000
O O20 0.242562 0.500000 0.010938
O O21 0.287686 0.000000 0.334077
#
# Coordination Sequence:
#
# PCOD9155474 Si02
#       8
#     4   4   4   4   4   4   4   4
#     4  11  23  37  53  77 114 152 182 223 277 331
#     4   9  20  37  55  77 110 150 186 223 273 330
#     4  10  21  37  59  83 108 143 186 230 274 327
#     4  10  21  35  54  83 115 145 182 234 288 335
#     4   9  19  37  59  82 108 140 181 231 278 320
#     4   9  18  35  59  83 109 145 187 230 281 339
#     4  10  20  35  57  84 109 139 184 233 276 324
#     4  10  20  35  57  82 108 144 185 224 272 333
#
# _framework density 19.753086
#
# number of rings (size 3 to 8) (size 9 to 14) (size 15 to 20)
#    0.000    2.250    0.000    2.250    1.750    6.750 
#    0.000    3.125    0.000    1.500    0.000    0.000 
#    0.000    0.000    0.000    0.000    0.000    0.000 
#
# Total GULP energy -178291.427194 kJ/mol
# GULP energy per Si atom -5571.607100 kJ/mol
# Density = 1.970813 g / cm^3
# Si number density = 19.753086 Si / 1000 Ang^3
#
#
#
# Elastic Constant Matrix: (Units=GPa)
#
#
# Indices 1 2 3 4 5 6 
#
# 1 114.0621 10.9754 26.1180 0.0000 -13.3865 0.0000
# 2 10.9754 -0.0299 6.3214 0.0000 -4.9724 0.0000
# 3 26.1180 6.3214 41.4938 0.0000 6.5509 0.0000
# 4 0.0000 0.0000 0.0000 75.4565 0.0000 6.2812
# 5 -13.3865 -4.9724 6.5509 0.0000 12.6418 0.0000
# 6 0.0000 0.0000 0.0000 6.2812 0.0000 20.1368
#
#
#
# Elastic Compliance Matrix: (Units=1/GPa)
#
#
# Indices 1 2 3 4 5 6 
#
# 1 0.013850 -0.006850 -0.010416 0.000000 0.017369 0.000000
# 2 -0.006850 -0.242682 0.062622 0.000000 -0.135157 0.000000
# 3 -0.010416 0.062622 0.020659 0.000000 0.002895 0.000000
# 4 0.000000 0.000000 0.000000 0.013606 0.000000 -0.004244
# 5 0.017369 -0.135157 0.002895 0.000000 0.042833 0.000000
# 6 0.000000 0.000000 0.000000 -0.004244 0.000000 0.050984
#
#
# Mechanical properties :
#
#
# Convention : Reuss Voigt Hill
#
# Bulk Modulus (GPa) = -8.51338 26.92839 9.20751
# Shear Modulus (GPa) = -21.68112 29.12111 3.71999
#
# Velocity S-wave (km/s) = -3.31661 3.84377 1.37380
# Velocity P-wave (km/s) = 4.35727 5.77594 2.68102
#
# Compressibility (1/GPa) = -0.11746215
#
# Stress axis : x y z
#
# Youngs Moduli (GPa) = 72.20295 -4.12061 48.40462
#
# Poissons Ratio (x) = -0.02822 0.50420
# Poissons Ratio (y) = 0.49456 -3.03117
# Poissons Ratio (z) = 0.75209 0.25804
#
# Static dielectric constant tensor:
#      x y z
#    x 1.709230 0.000000 -0.007540 
#    y 0.000000 1.684050 0.000000 
#    z -0.007540 0.000000 1.734110 
# 
# From -- ./inp_files/58096.got.cif
#   From: 2010.05.17/outbox.ucp.g08.bks.cvg/sg10_30_cif.got.tgz:58096.got - 2010.06.11 11:31:16.
