data_PCOD9155838
_publ_section_title
;
Structure prediction by ZEFSAII (Michael W. Deem and Ramdas Pophale) SiO2 
 PCOD9155838
Probable space group: P 21/M
;
_chemical_formula_sum "Si O2"
_cell_formula_units_Z 32
_cell_length_a 18.147954
_cell_length_b 7.419451
_cell_length_c 13.879777
_cell_angle_alpha 90.000000
_cell_angle_beta 101.196341
_cell_angle_gamma 90.000000
_cell_volume 1833.312814
_symmetry_space_group_name_H-M "P 21/M"
_symmetry_group_IT_number 11
_symmetry_cell_setting 'monoclinic'
loop_
_space_group_symop_operation_xyz
x,y,z
-x,1/2+y,-z
-x,-y,-z
x,1/2-y,z
loop_
_atom_site_type_symbol
_atom_site_label
_atom_site_fract_x
_atom_site_fract_y
_atom_site_fract_z
Si Si1 0.837745 0.963767 0.338338
Si Si2 0.322139 0.031018 0.751185
Si Si3 0.592819 0.966971 0.425109
Si Si4 0.834930 0.468521 0.566752
Si Si5 0.444600 0.529174 0.281774
Si Si6 0.999086 0.034883 0.614362
Si Si7 0.530108 0.534857 0.113655
Si Si8 0.312112 0.544644 0.366537
O O1 0.840261 0.750000 0.320716
O O2 0.763201 0.036179 0.267820
O O3 0.920069 0.036959 0.330783
O O4 0.827502 0.983998 0.451623
O O5 0.318788 0.250000 0.755685
O O6 0.356492 0.987989 0.655040
O O7 0.385206 0.968671 0.842860
O O8 0.593212 0.750000 0.435599
O O9 0.508771 0.024221 0.375329
O O10 0.630785 0.046966 0.528532
O O11 0.833796 0.250000 0.568777
O O12 0.764812 0.536409 0.611591
O O13 0.916815 0.531235 0.624622
O O14 0.443079 0.750000 0.282253
O O15 0.474984 0.470446 0.185211
O O16 0.362838 0.464728 0.294127
O O17 0.999260 0.250000 0.630000
O O18 0.000000 0.000000 0.500000
O O19 0.533239 0.750000 0.126651
O O20 0.500000 0.500000 0.000000
O O21 0.293992 0.750000 0.333896
#
# Coordination Sequence:
#
# PCOD9155838 Si02
#       8
#     4   4   4   4   4   4   4   4
#     4   9  14  23  38  51  67  97 133 154 172 212
#     4   8  14  24  39  56  72  94 122 151 184 218
#     4   9  15  25  38  51  71  98 128 155 175 202
#     4   9  16  23  31  49  77 102 123 153 184 202
#     4   8  16  28  40  53  71  98 124 147 182 224
#     4   8  14  22  32  47  68  96 127 155 178 202
#     4   9  17  31  46  57  72  92 117 152 192 230
#     4  10  17  24  35  52  76 103 126 147 177 214
#
# _framework density 17.454742
#
# number of rings (size 3 to 8) (size 9 to 14) (size 15 to 20)
#    0.000    3.250    1.250    1.875    0.000    0.000 
#    0.000    3.750    0.000    0.000    0.000    0.000 
#    0.000    1.000    0.000    0.750    0.000    1.500 
#
# Total GULP energy -178170.022405 kJ/mol
# GULP energy per Si atom -5567.813200 kJ/mol
# Density = 1.741501 g / cm^3
# Si number density = 17.454742 Si / 1000 Ang^3
#
#
#
# Elastic Constant Matrix: (Units=GPa)
#
#
# Indices 1 2 3 4 5 6 
#
# 1 186.0793 2.6906 58.7776 0.0000 17.1067 0.0000
# 2 2.6906 55.8658 -1.1129 0.0000 -0.0215 0.0000
# 3 58.7776 -1.1129 66.4946 0.0000 13.5587 0.0000
# 4 0.0000 0.0000 0.0000 9.4718 0.0000 1.0679
# 5 17.1067 -0.0215 13.5587 0.0000 15.9424 0.0000
# 6 0.0000 0.0000 0.0000 1.0679 0.0000 1.9490
#
#
#
# Elastic Compliance Matrix: (Units=1/GPa)
#
#
# Indices 1 2 3 4 5 6 
#
# 1 0.007581 -0.000488 -0.006110 0.000000 -0.002939 0.000000
# 2 -0.000488 0.017938 0.000750 0.000000 -0.000090 0.000000
# 3 -0.006110 0.000750 0.023126 0.000000 -0.013110 0.000000
# 4 0.000000 0.000000 0.000000 0.112528 0.000000 -0.061652
# 5 -0.002939 -0.000090 -0.013110 0.000000 0.077029 0.000000
# 6 0.000000 0.000000 0.000000 -0.061652 0.000000 0.546849
#
#
# Mechanical properties :
#
#
# Convention : Reuss Voigt Hill
#
# Bulk Modulus (GPa) = 27.06445 47.68337 37.37391
# Shear Modulus (GPa) = 6.17997 22.01160 14.09579
#
# Velocity S-wave (km/s) = 1.88368 3.55500 2.84485
# Velocity P-wave (km/s) = 4.50224 6.65044 5.67884
#
# Compressibility (1/GPa) = 0.03694883
#
# Stress axis : x y z
#
# Youngs Moduli (GPa) = 131.90119 55.74614 43.24135
#
# Poissons Ratio (x) = 0.02720 0.26423
# Poissons Ratio (y) = 0.06437 -0.03243
# Poissons Ratio (z) = 0.80598 -0.04181
#
# Static dielectric constant tensor:
#      x y z
#    x 1.674500 0.000000 0.024150 
#    y 0.000000 1.660710 0.000000 
#    z 0.024150 0.000000 1.554310 
# 
# From -- ./inp_files/44094.got.cif
#   From: 2010.05.17/outbox.cif.g08.bks.cpg/sg11_23_cif.got.tgz:44094.got - 2010.06.03 12:22:45.
