data_PCOD9155923
_publ_section_title
;
Structure prediction by ZEFSAII (Michael W. Deem and Ramdas Pophale) SiO2 
 PCOD9155923
Probable space group: P 21/M
;
_chemical_formula_sum "Si O2"
_cell_formula_units_Z 28
_cell_length_a 16.781381
_cell_length_b 9.127331
_cell_length_c 12.201437
_cell_angle_alpha 90.000000
_cell_angle_beta 74.973781
_cell_angle_gamma 90.000000
_cell_volume 1804.982343
_symmetry_space_group_name_H-M "P 21/M"
_symmetry_group_IT_number 11
_symmetry_cell_setting 'monoclinic'
loop_
_space_group_symop_operation_xyz
x,y,z
-x,1/2+y,-z
-x,-y,-z
x,1/2-y,z
loop_
_atom_site_type_symbol
_atom_site_label
_atom_site_fract_x
_atom_site_fract_y
_atom_site_fract_z
Si Si1 0.056651 0.419029 0.323311
Si Si2 0.368753 0.422977 0.038623
Si Si3 0.734914 0.076659 0.551720
Si Si4 0.487858 0.923126 0.830467
Si Si5 0.895766 0.581583 0.434333
Si Si6 0.456159 0.926091 0.412591
Si Si7 0.220700 0.924401 0.209526
O O1 0.056446 0.250000 0.288699
O O2 0.079590 0.421718 0.445064
O O3 0.128754 0.509950 0.239004
O O4 0.966722 0.491355 0.347453
O O5 0.359862 0.250000 0.020237
O O6 0.433265 0.439489 0.116793
O O7 0.283343 0.495564 0.105839
O O8 0.411280 0.505534 0.922109
O O9 0.748800 0.250000 0.530711
O O10 0.641803 0.040621 0.551965
O O11 0.746645 0.048495 0.677684
O O12 0.805404 0.988926 0.462693
O O13 0.475138 0.750000 0.816465
O O14 0.506733 0.006982 0.711848
O O15 0.895516 0.750000 0.399385
O O16 0.465481 0.750000 0.410280
O O17 0.500000 0.000000 0.500000
O O18 0.220405 0.750000 0.192181
#
# Coordination Sequence:
#
# PCOD9155923 Si02
#       7
#     4   4   4   4   4   4   4
#     4   9  16  25  37  57  86 118 150 183 224 271
#     4  10  19  30  47  69  94 122 155 193 234 282
#     4   9  18  30  44  61  86 119 154 191 232 277
#     4  10  20  33  49  68  91 121 157 195 237 281
#     4   9  16  25  39  58  82 114 151 187 224 270
#     4  11  22  36  51  69  93 123 160 201 242 281
#     4  10  17  27  43  64  91 121 155 190 228 275
#
# _framework density 15.512616
#
# number of rings (size 3 to 8) (size 9 to 14) (size 15 to 20)
#    0.000    2.286    1.429    2.571    0.000    6.286 
#    0.000    0.000    0.000    0.000    0.000    0.000 
#    0.000    1.143    0.000    4.286    0.000    6.571 
#
# Total GULP energy -156141.152306 kJ/mol
# GULP energy per Si atom -5576.469725 kJ/mol
# Density = 1.547731 g / cm^3
# Si number density = 15.512616 Si / 1000 Ang^3
#
#
#
# Elastic Constant Matrix: (Units=GPa)
#
#
# Indices 1 2 3 4 5 6 
#
# 1 92.3817 72.5566 64.1874 0.0000 -30.7546 0.0000
# 2 72.5566 109.8075 62.3891 0.0000 -26.0421 0.0000
# 3 64.1874 62.3891 71.5010 0.0000 -25.0911 0.0000
# 4 0.0000 0.0000 0.0000 26.2417 0.0000 -9.2356
# 5 -30.7546 -26.0421 -25.0911 0.0000 30.9200 0.0000
# 6 0.0000 0.0000 0.0000 -9.2356 0.0000 26.1648
#
#
#
# Elastic Compliance Matrix: (Units=1/GPa)
#
#
# Indices 1 2 3 4 5 6 
#
# 1 0.036268 -0.009969 -0.019780 0.000000 0.011627 0.000000
# 2 -0.009969 0.021058 -0.009341 0.000000 0.000240 0.000000
# 3 -0.019780 -0.009341 0.042263 0.000000 0.006755 0.000000
# 4 0.000000 0.000000 0.000000 0.043513 0.000000 0.015359
# 5 0.011627 0.000240 0.006755 0.000000 0.049590 0.000000
# 6 0.000000 0.000000 0.000000 0.015359 0.000000 0.043641
#
#
# Mechanical properties :
#
#
# Convention : Reuss Voigt Hill
#
# Bulk Modulus (GPa) = 46.70650 74.66183 60.68417
# Shear Modulus (GPa) = 15.54491 21.63578 18.59035
#
# Velocity S-wave (km/s) = 3.16900 3.73865 3.46555
# Velocity P-wave (km/s) = 6.60032 8.17746 7.43085
#
# Compressibility (1/GPa) = 0.02141030
#
# Stress axis : x y z
#
# Youngs Moduli (GPa) = 27.57266 47.48743 23.66121
#
# Poissons Ratio (x) = 0.47340 0.46801
# Poissons Ratio (y) = 0.27487 0.22102
# Poissons Ratio (z) = 0.54538 0.44358
#
# Static dielectric constant tensor:
#      x y z
#    x 1.503370 0.000000 -0.011790 
#    y 0.000000 1.514640 0.000000 
#    z -0.011790 0.000000 1.489160 
# 
# From -- ./inp_files/37491.got.cif
#   From: 2010.05.17/outbox.cif.g08.bks.cpg/sg11_19_cif.got.tgz:37491.got - 2010.06.03 12:22:45.
