data_PCOD9155409
_publ_section_title
;
Structure prediction by ZEFSAII (Michael W. Deem and Ramdas Pophale) SiO2 
 PCOD9155409
Probable space group: P 2/M
;
_chemical_formula_sum "Si O2"
_cell_formula_units_Z 28
_cell_length_a 12.000000
_cell_length_b 9.000000
_cell_length_c 15.000000
_cell_angle_alpha 90.000000
_cell_angle_beta 60.000000
_cell_angle_gamma 90.000000
_cell_volume 1402.961154
_symmetry_space_group_name_H-M "P 2/M"
_symmetry_group_IT_number 10
_symmetry_cell_setting 'monoclinic'
loop_
_space_group_symop_operation_xyz
x,y,z
-x,y,-z
-x,-y,-z
x,-y,z
loop_
_atom_site_type_symbol
_atom_site_label
_atom_site_fract_x
_atom_site_fract_y
_atom_site_fract_z
Si Si1 0.192521 0.821713 0.056721
Si Si2 0.050174 0.177669 0.745518
Si Si3 0.530304 0.176200 0.612949
Si Si4 0.677601 0.325317 0.824106
Si Si5 0.925996 0.677443 0.622277
Si Si6 0.568546 0.824520 0.146191
Si Si7 0.308511 0.323287 0.584742
O O1 0.265559 0.762909 0.114938
O O2 0.044595 0.775475 0.135198
O O3 0.187743 0.000000 0.059874
O O4 0.284184 0.780344 0.936543
O O5 0.182602 0.264640 0.684684
O O6 0.983284 0.223720 0.679017
O O7 0.071159 0.000000 0.741341
O O8 0.483134 0.191975 0.732818
O O9 0.423227 0.265537 0.600910
O O10 0.663630 0.246403 0.522756
O O11 0.531383 0.000000 0.592229
O O12 0.681979 0.500000 0.841149
O O13 0.771907 0.300634 0.699950
O O14 0.533318 0.271015 0.867774
O O15 0.949705 0.500000 0.628716
O O16 0.000000 0.712301 0.500000
O O17 0.556421 0.000000 0.128388
O O18 0.307357 0.500000 0.574875
#
# Coordination Sequence:
#
# PCOD9155409 Si02
#       7
#     4   4   4   4   4   4   4
#     4   9  19  37  56  77 108 146 184 221 265 316
#     4  10  20  35  57  80 104 141 183 222 264 316
#     4  10  21  38  59  84 109 136 179 228 267 317
#     4  10  20  32  50  78 111 147 184 219 264 315
#     4   9  19  34  49  73 109 145 179 220 265 317
#     4  10  21  36  56  80 108 142 181 225 270 315
#     4  11  22  38  59  81 110 143 174 216 277 333
#
# _framework density 19.957787
#
# number of rings (size 3 to 8) (size 9 to 14) (size 15 to 20)
#    0.000    2.143    0.000    3.857    2.000    4.857 
#    0.000    0.714    0.000    4.286    0.000    0.000 
#    0.000    0.000    0.000    0.000    0.000    0.000 
#
# Total GULP energy -155987.270426 kJ/mol
# GULP energy per Si atom -5570.973944 kJ/mol
# Density = 1.991236 g / cm^3
# Si number density = 19.957787 Si / 1000 Ang^3
#
#
#
# Elastic Constant Matrix: (Units=GPa)
#
#
# Indices 1 2 3 4 5 6 
#
# 1 31.5735 8.3121 10.2628 0.0000 -31.0817 0.0000
# 2 8.3121 35.0112 15.4536 0.0000 -19.6662 0.0000
# 3 10.2628 15.4536 84.9187 0.0000 -41.3476 0.0000
# 4 0.0000 0.0000 0.0000 25.9727 0.0000 -10.4664
# 5 -31.0817 -19.6662 -41.3476 0.0000 35.5773 0.0000
# 6 0.0000 0.0000 0.0000 -10.4664 0.0000 31.5631
#
#
#
# Elastic Compliance Matrix: (Units=1/GPa)
#
#
# Indices 1 2 3 4 5 6 
#
# 1 -0.044545 -0.027649 -0.036799 0.000000 -0.096968 0.000000
# 2 -0.027649 0.026980 -0.013978 0.000000 -0.025487 0.000000
# 3 -0.036799 -0.013978 -0.001495 0.000000 -0.041613 0.000000
# 4 0.000000 0.000000 0.000000 0.044441 0.000000 0.014737
# 5 -0.096968 -0.025487 -0.041613 0.000000 -0.119058 0.000000
# 6 0.000000 0.000000 0.000000 0.014737 0.000000 0.036569
#
#
# Mechanical properties :
#
#
# Convention : Reuss Voigt Hill
#
# Bulk Modulus (GPa) = -5.68462 24.39561 9.35549
# Shear Modulus (GPa) = 121.63000 26.45428 74.04214
#
# Velocity S-wave (km/s) = 7.81511 3.64471 6.09753
# Velocity P-wave (km/s) = 8.86454 5.47376 7.36689
#
# Compressibility (1/GPa) = -0.17591326
#
# Stress axis : x y z
#
# Youngs Moduli (GPa) = -22.44919 37.06436 -669.04482
#
# Poissons Ratio (x) = 1.02481 -24.62035
# Poissons Ratio (y) = -0.62071 -9.35202
# Poissons Ratio (z) = -0.82611 0.51809
#
# Static dielectric constant tensor:
#      x y z
#    x 1.788430 0.000000 -0.040470 
#    y 0.000000 1.652190 0.000000 
#    z -0.040470 0.000000 1.784140 
# 
# From -- ./inp_files/49350.got.cif
#   From: 2010.05.17/outbox.ucp.g08.bks.cvg/sg10_25_cif.got.tgz:49350.got - 2010.06.11 11:31:16.
