data_PCOD9155694
_publ_section_title
;
Structure prediction by ZEFSAII (Michael W. Deem and Ramdas Pophale) SiO2 
 PCOD9155694
Probable space group: P 2/M
;
_chemical_formula_sum "Si O2"
_cell_formula_units_Z 24
_cell_length_a 9.000000
_cell_length_b 21.000000
_cell_length_c 9.000000
_cell_angle_alpha 90.000000
_cell_angle_beta 50.000000
_cell_angle_gamma 90.000000
_cell_volume 1303.041598
_symmetry_space_group_name_H-M "P 2/M"
_symmetry_group_IT_number 10
_symmetry_cell_setting 'monoclinic'
loop_
_space_group_symop_operation_xyz
x,y,z
-x,y,-z
-x,-y,-z
x,-y,z
loop_
_atom_site_type_symbol
_atom_site_label
_atom_site_fract_x
_atom_site_fract_y
_atom_site_fract_z
Si Si1 0.287163 0.072143 0.712837
Si Si2 0.865552 0.500000 0.442104
Si Si3 0.900051 0.744231 0.900049
Si Si4 0.134194 0.158782 0.553656
Si Si5 0.557895 0.500000 0.134449
Si Si6 0.446341 0.158781 0.865808
Si Si7 0.902902 0.401414 0.902903
O O1 0.500000 0.070153 0.500000
O O2 0.155585 0.108896 0.676561
O O3 0.323438 0.108895 0.844415
O O4 0.221062 0.000000 0.778936
O O5 0.637605 0.500000 0.637604
O O6 0.000000 0.500000 0.500000
O O7 0.944685 0.439569 0.298104
O O8 0.872773 0.670914 0.872775
O O9 0.035658 0.780130 0.693697
O O10 0.693701 0.780131 0.035653
O O11 0.000000 0.748283 0.000000
O O12 0.350228 0.170639 0.350226
O O13 0.000000 0.138219 0.500000
O O14 0.500000 0.500000 0.000000
O O15 0.701895 0.439569 0.055317
O O16 0.500000 0.138217 0.000000
O O17 0.000000 0.398869 0.000000
#
# Coordination Sequence:
#
# PCOD9155694 Si02
#       7
#     4   2   4   4   2   4   4
#     4   9  20  39  63  89 124 163 207 261 312 371
#     4  11  21  41  64  89 126 163 199 252 303 357
#     4  11  23  42  63  89 126 163 207 257 311 371
#     4  11  22  39  62  89 125 165 207 259 313 369
#     4  11  21  41  64  89 126 163 199 252 303 357
#     4  11  22  39  62  89 125 165 207 259 313 369
#     4  10  24  41  62  94 125 158 206 257 303 364
#
# _framework density 18.418444999999998
#
# number of rings (size 3 to 8) (size 9 to 14) (size 15 to 20)
#    0.000    1.500    5.000    1.000    0.000    4.667 
#    0.000    5.000    0.000    0.000    0.000    0.000 
#    0.000    0.000    0.000    0.000    0.000    0.000 
#
# Total GULP energy -133881.929517 kJ/mol
# GULP energy per Si atom -5578.413730 kJ/mol
# Density = 1.837652 g / cm^3
# Si number density = 18.418445 Si / 1000 Ang^3
#
#
#
# Elastic Constant Matrix: (Units=GPa)
#
#
# Indices 1 2 3 4 5 6 
#
# 1 119.9432 71.8406 46.6422 0.0000 8.6702 0.0000
# 2 71.8406 176.7137 71.6768 0.0000 0.1005 0.0000
# 3 46.6422 71.6768 133.1238 0.0000 -16.5196 0.0000
# 4 0.0000 0.0000 0.0000 12.3441 0.0000 -4.1091
# 5 8.6702 0.1005 -16.5196 0.0000 44.3868 0.0000
# 6 0.0000 0.0000 0.0000 -4.1091 0.0000 5.4491
#
#
#
# Elastic Compliance Matrix: (Units=1/GPa)
#
#
# Indices 1 2 3 4 5 6 
#
# 1 0.011810 -0.003785 -0.002501 0.000000 -0.003229 0.000000
# 2 -0.003785 0.008555 -0.003345 0.000000 -0.000525 0.000000
# 3 -0.002501 -0.003345 0.010747 0.000000 0.004496 0.000000
# 4 0.000000 0.000000 0.000000 0.108160 0.000000 0.081561
# 5 -0.003229 -0.000525 0.004496 0.000000 0.024834 0.000000
# 6 0.000000 0.000000 0.000000 0.081561 0.000000 0.245019
#
#
# Mechanical properties :
#
#
# Convention : Reuss Voigt Hill
#
# Bulk Modulus (GPa) = 84.38621 90.01109 87.19865
# Shear Modulus (GPa) = 11.56506 28.41075 19.98791
#
# Velocity S-wave (km/s) = 2.50852 3.93175 3.29783
# Velocity P-wave (km/s) = 7.36925 8.34192 7.87063
#
# Compressibility (1/GPa) = 0.01185028
#
# Stress axis : x y z
#
# Youngs Moduli (GPa) = 84.67214 116.89399 93.05065
#
# Poissons Ratio (x) = 0.44247 0.23268
# Poissons Ratio (y) = 0.32050 0.31125
# Poissons Ratio (z) = 0.21173 0.39101
#
# Static dielectric constant tensor:
#      x y z
#    x 1.637880 0.000000 0.018810 
#    y 0.000000 1.683620 0.000000 
#    z 0.018810 0.000000 1.606310 
# 
# From -- ./inp_files/20162.got.cif
#   From: 2010.05.17/outbox.ucp.g08.bks.cvg/sg10_11_cif.got.tgz:20162.got - 2010.06.11 11:31:16.
