data_PCOD9155695
_publ_section_title
;
Structure prediction by ZEFSAII (Michael W. Deem and Ramdas Pophale) SiO2 
 PCOD9155695
Probable space group: P 2/M
;
_chemical_formula_sum "Si O2"
_cell_formula_units_Z 30
_cell_length_a 15.000000
_cell_length_b 18.000000
_cell_length_c 6.000000
_cell_angle_alpha 90.000000
_cell_angle_beta 70.000000
_cell_angle_gamma 90.000000
_cell_volume 1522.302046
_symmetry_space_group_name_H-M "P 2/M"
_symmetry_group_IT_number 10
_symmetry_cell_setting 'monoclinic'
loop_
_space_group_symop_operation_xyz
x,y,z
-x,y,-z
-x,-y,-z
x,-y,z
loop_
_atom_site_type_symbol
_atom_site_label
_atom_site_fract_x
_atom_site_fract_y
_atom_site_fract_z
Si Si1 0.598489 0.161690 0.503783
Si Si2 0.765975 0.086568 0.624746
Si Si3 0.000000 0.706751 0.500000
Si Si4 0.183654 0.361978 0.144974
Si Si5 0.746441 0.791706 0.022740
Si Si6 0.551323 0.680967 0.705466
Si Si7 0.089711 0.822093 0.770118
Si Si8 0.257339 0.587348 0.568078
O O1 0.500000 0.128138 0.500000
O O2 0.672885 0.107045 0.557982
O O3 0.576197 0.231176 0.685005
O O4 0.651470 0.196211 0.243347
O O5 0.762580 0.140156 0.841893
O O6 0.858399 0.111156 0.403946
O O7 0.767877 0.000000 0.678959
O O8 0.073027 0.661008 0.279708
O O9 0.059170 0.760470 0.614992
O O10 0.246168 0.286651 0.106922
O O11 0.203341 0.404020 0.369067
O O12 0.209844 0.390108 0.860824
O O13 0.830906 0.789981 0.131912
O O14 0.500000 0.671718 0.500000
O O15 0.646853 0.633456 0.571944
O O16 0.500000 0.664064 0.000000
O O17 0.000000 0.842900 0.000000
O O18 0.277495 0.500000 0.577780
#
# Coordination Sequence:
#
# PCOD9155695 Si02
#       8
#     4   4   2   4   4   4   4   4
#     4  10  24  41  67  99 131 179 238 294 334 410
#     4  11  25  42  63  98 143 183 228 289 362 424
#     4  12  24  40  74 106 128 176 242 298 346 412
#     4  12  24  44  72 103 136 187 238 290 342 422
#     4  11  22  40  69  97 131 180 239 287 341 417
#     4  11  24  41  72 106 135 180 239 295 345 410
#     4  11  21  40  66 100 132 171 234 295 352 413
#     4  12  27  46  69 104 149 188 225 283 365 430
#
# _framework density 19.706996
#
# number of rings (size 3 to 8) (size 9 to 14) (size 15 to 20)
#    0.000    0.800    4.000    2.800    5.600    3.200 
#    0.000    5.000    0.000    0.000    0.000    0.000 
#    0.000    0.000    0.000    0.000    0.000    0.000 
#
# Total GULP energy -167147.982426 kJ/mol
# GULP energy per Si atom -5571.599414 kJ/mol
# Density = 1.966214 g / cm^3
# Si number density = 19.706996 Si / 1000 Ang^3
#
#
#
# Elastic Constant Matrix: (Units=GPa)
#
#
# Indices 1 2 3 4 5 6 
#
# 1 87.5516 13.0404 37.2491 0.0000 -5.3836 0.0000
# 2 13.0404 98.9198 37.4173 0.0000 5.1508 0.0000
# 3 37.2491 37.4173 175.7331 0.0000 -11.1487 0.0000
# 4 0.0000 0.0000 0.0000 32.6690 0.0000 -0.7626
# 5 -5.3836 5.1508 -11.1487 0.0000 41.2479 0.0000
# 6 0.0000 0.0000 0.0000 -0.7626 0.0000 15.7480
#
#
#
# Elastic Compliance Matrix: (Units=1/GPa)
#
#
# Indices 1 2 3 4 5 6 
#
# 1 0.012647 -0.000801 -0.002441 0.000000 0.001091 0.000000
# 2 -0.000801 0.011217 -0.002354 0.000000 -0.002142 0.000000
# 3 -0.002441 -0.002354 0.006825 0.000000 0.001820 0.000000
# 4 0.000000 0.000000 0.000000 0.030645 0.000000 0.001484
# 5 0.001091 -0.002142 0.001820 0.000000 0.025145 0.000000
# 6 0.000000 0.000000 0.000000 0.001484 0.000000 0.063572
#
#
# Mechanical properties :
#
#
# Convention : Reuss Voigt Hill
#
# Bulk Modulus (GPa) = 51.29260 59.73534 55.51397
# Shear Modulus (GPa) = 29.80782 36.23283 33.02033
#
# Velocity S-wave (km/s) = 3.89337 4.29251 4.09781
# Velocity P-wave (km/s) = 6.80406 7.41250 7.11479
#
# Compressibility (1/GPa) = 0.01949599
#
# Stress axis : x y z
#
# Youngs Moduli (GPa) = 79.07216 89.15156 146.52834
#
# Poissons Ratio (x) = 0.07138 0.35767
# Poissons Ratio (y) = 0.06331 0.34499
# Poissons Ratio (z) = 0.19301 0.20990
#
# Static dielectric constant tensor:
#      x y z
#    x 1.760950 0.000000 0.016230 
#    y 0.000000 1.681040 0.000000 
#    z 0.016230 0.000000 1.734080 
# 
# From -- ./inp_files/9808.got.cif
#   From: 2010.05.17/outbox.ucp.g08.bks.cvg/sg10_5_cif.got.tgz:9808.got - 2010.06.11 11:31:16.
