data_PCOD9155079
_publ_section_title
;
Structure prediction by ZEFSAII (Michael W. Deem and Ramdas Pophale) SiO2 
 PCOD9155079
Probable space group: P 2/M
;
_chemical_formula_sum "Si O2"
_cell_formula_units_Z 24
_cell_length_a 18.859972
_cell_length_b 8.270305
_cell_length_c 26.454530
_cell_angle_alpha 90.000000
_cell_angle_beta 14.792108
_cell_angle_gamma 90.000000
_cell_volume 1053.500730
_symmetry_space_group_name_H-M "P 2/M"
_symmetry_group_IT_number 10
_symmetry_cell_setting 'monoclinic'
loop_
_space_group_symop_operation_xyz
x,y,z
-x,y,-z
-x,-y,-z
x,-y,z
loop_
_atom_site_type_symbol
_atom_site_label
_atom_site_fract_x
_atom_site_fract_y
_atom_site_fract_z
Si Si1 0.274627 0.500000 0.381628
Si Si2 0.210672 0.192281 0.594291
Si Si3 0.177797 0.691416 0.722185
Si Si4 0.564325 0.174735 0.896341
Si Si5 0.154715 0.194202 0.843575
Si Si6 0.184385 0.181438 0.497650
Si Si7 0.390842 0.500000 0.186274
O O1 0.339987 0.335495 0.367170
O O2 0.411752 0.500000 0.232144
O O3 0.938773 0.500000 0.602438
O O4 0.070345 0.263134 0.740893
O O5 0.528079 0.255381 0.373299
O O6 0.102201 0.220051 0.612461
O O7 0.219652 0.000000 0.595380
O O8 0.500000 0.753620 0.500000
O O9 0.182520 0.500000 0.723895
O O10 0.038579 0.760837 0.868522
O O11 0.483954 0.337314 0.923549
O O12 0.899300 0.166988 0.662997
O O13 0.451943 0.000000 0.955553
O O14 0.500000 0.186188 0.000000
O O15 0.161131 0.000000 0.842158
O O16 0.000000 0.255524 0.000000
O O17 0.317778 0.000000 0.405942
#
# Coordination Sequence:
#
# PCOD9155079 Si02
#       7
#     2   4   4   4   4   4   2
#     4   9  18  30  48  72  96 124 158 195 235 281
#     4   9  17  30  49  69  91 121 158 197 234 278
#     4   9  17  28  45  70  93 118 155 195 232 276
#     4   9  17  30  50  73  96 124 160 197 235 279
#     4   9  17  30  49  69  91 122 157 193 236 282
#     4   9  18  31  49  72  95 124 159 195 236 282
#     4   9  17  30  48  72  97 123 157 197 236 278
#
# _framework density 22.781189999999999
#
# number of rings (size 3 to 8) (size 9 to 14) (size 15 to 20)
#    0.000    3.000    0.000    0.750    1.167    3.000 
#    0.000    3.333    3.667    0.000    0.000    0.000 
#    0.000    0.000    0.000    0.000    0.000    0.000 
#
# Total GULP energy -133890.589009 kJ/mol
# GULP energy per Si atom -5578.774542 kJ/mol
# Density = 2.272934 g / cm^3
# Si number density = 22.781190 Si / 1000 Ang^3
#
#
#
# Elastic Constant Matrix: (Units=GPa)
#
#
# Indices 1 2 3 4 5 6 
#
# 1 119.7656 65.3376 38.7931 0.0000 32.7271 0.0000
# 2 65.3376 145.5577 31.1294 0.0000 37.9343 0.0000
# 3 38.7931 31.1294 56.8580 0.0000 18.8289 0.0000
# 4 0.0000 0.0000 0.0000 12.8602 0.0000 15.0975
# 5 32.7271 37.9343 18.8289 0.0000 44.3477 0.0000
# 6 0.0000 0.0000 0.0000 15.0975 0.0000 38.1349
#
#
#
# Elastic Compliance Matrix: (Units=1/GPa)
#
#
# Indices 1 2 3 4 5 6 
#
# 1 0.013368 -0.003658 -0.005687 0.000000 -0.004322 0.000000
# 2 -0.003658 0.010219 -0.001278 0.000000 -0.005499 0.000000
# 3 -0.005687 -0.001278 0.023756 0.000000 -0.004796 0.000000
# 4 0.000000 0.000000 0.000000 0.145284 0.000000 -0.057518
# 5 -0.004322 -0.005499 -0.004796 0.000000 0.032478 0.000000
# 6 0.000000 0.000000 0.000000 -0.057518 0.000000 0.048994
#
#
# Mechanical properties :
#
#
# Convention : Reuss Voigt Hill
#
# Bulk Modulus (GPa) = 38.31906 65.85571 52.08738
# Shear Modulus (GPa) = 16.44505 31.52997 23.98751
#
# Velocity S-wave (km/s) = 2.68968 3.72430 3.24844
# Velocity P-wave (km/s) = 5.14809 6.88945 6.08142
#
# Compressibility (1/GPa) = 0.02609668
#
# Stress axis : x y z
#
# Youngs Moduli (GPa) = 74.80341 97.86166 42.09522
#
# Poissons Ratio (x) = 0.35800 0.23939
# Poissons Ratio (y) = 0.27365 0.05379
# Poissons Ratio (z) = 0.42541 0.12504
#
# Static dielectric constant tensor:
#      x y z
#    x 1.867430 0.000000 -0.060930 
#    y 0.000000 1.831090 0.000000 
#    z -0.060930 0.000000 1.910200 
# 
# From -- ./inp_files/27368.got.cif
#   From: 2010.05.17/outbox.cif.g08.bks.cpg/sg10_14_cif.got.tgz:27368.got - 2010.06.03 11:33:40.
