data_PCOD9155462
_publ_section_title
;
Structure prediction by ZEFSAII (Michael W. Deem and Ramdas Pophale) SiO2 
 PCOD9155462
Probable space group: P 2/M
;
_chemical_formula_sum "Si O2"
_cell_formula_units_Z 32
_cell_length_a 24.000000
_cell_length_b 9.000000
_cell_length_c 15.000000
_cell_angle_alpha 90.000000
_cell_angle_beta 30.000000
_cell_angle_gamma 90.000000
_cell_volume 1620.000000
_symmetry_space_group_name_H-M "P 2/M"
_symmetry_group_IT_number 10
_symmetry_cell_setting 'monoclinic'
loop_
_space_group_symop_operation_xyz
x,y,z
-x,y,-z
-x,-y,-z
x,-y,z
loop_
_atom_site_type_symbol
_atom_site_label
_atom_site_fract_x
_atom_site_fract_y
_atom_site_fract_z
Si Si1 0.743205 0.327336 0.894132
Si Si2 0.720390 0.822171 0.356402
Si Si3 0.812376 0.326645 0.599338
Si Si4 0.402437 0.319406 0.203386
Si Si5 0.904560 0.830056 0.959841
Si Si6 0.949100 0.829426 0.698336
Si Si7 0.507694 0.320285 0.724805
Si Si8 0.907060 0.669198 0.207951
O O1 0.753663 0.500000 0.906423
O O2 0.741050 0.321859 0.789841
O O3 0.858674 0.248457 0.760731
O O4 0.622927 0.272810 0.097868
O O5 0.795800 0.779756 0.165368
O O6 0.598500 0.749160 0.531739
O O7 0.800895 0.762467 0.323929
O O8 0.710203 0.000000 0.373878
O O9 0.838430 0.500000 0.544751
O O10 0.722948 0.269214 0.649993
O O11 0.929631 0.245074 0.455543
O O12 0.398126 0.500000 0.204259
O O13 0.442974 0.280106 0.246069
O O14 0.500000 0.270636 0.000000
O O15 0.927077 0.000000 0.958697
O O16 0.887100 0.827767 0.879568
O O17 0.017530 0.738369 0.819723
O O18 0.966762 0.000000 0.647576
O O19 0.509019 0.500000 0.715499
O O20 0.872980 0.500000 0.272471
O O21 0.000000 0.669589 0.000000
#
# Coordination Sequence:
#
# PCOD9155462 Si02
#       8
#     4   4   4   4   4   4   4   4
#     4  10  21  39  60  82 112 148 188 232 281 338
#     4  10  20  35  55  78 111 152 187 222 276 339
#     4  10  20  36  60  87 114 146 184 224 278 345
#     4   9  16  32  58  86 114 145 179 221 275 334
#     4   9  20  38  54  74 109 151 190 230 276 331
#     4  11  24  39  57  81 111 147 193 240 280 325
#     4  10  20  35  58  87 115 144 186 233 275 328
#     4   9  17  30  51  78 106 138 178 226 275 323
#
# _framework density 19.753086
#
# number of rings (size 3 to 8) (size 9 to 14) (size 15 to 20)
#    0.000    2.250    1.250    1.500    1.750    5.500 
#    0.000    0.625    0.000    4.500    0.000    0.000 
#    0.000    0.000    0.000    0.000    0.000    0.000 
#
# Total GULP energy -178450.644826 kJ/mol
# GULP energy per Si atom -5576.582651 kJ/mol
# Density = 1.970813 g / cm^3
# Si number density = 19.753086 Si / 1000 Ang^3
#
#
#
# Elastic Constant Matrix: (Units=GPa)
#
#
# Indices 1 2 3 4 5 6 
#
# 1 63.0928 16.7176 21.2951 0.0000 -14.3185 0.0000
# 2 16.7176 45.5216 24.4059 0.0000 -13.8027 0.0000
# 3 21.2951 24.4059 123.4026 0.0000 -21.4548 0.0000
# 4 0.0000 0.0000 0.0000 21.4910 0.0000 0.4914
# 5 -14.3185 -13.8027 -21.4548 0.0000 44.1164 0.0000
# 6 0.0000 0.0000 0.0000 0.4914 0.0000 10.9739
#
#
#
# Elastic Compliance Matrix: (Units=1/GPa)
#
#
# Indices 1 2 3 4 5 6 
#
# 1 0.018509 -0.004813 -0.001594 0.000000 0.003726 0.000000
# 2 -0.004813 0.027271 -0.003661 0.000000 0.005190 0.000000
# 3 -0.001594 -0.003661 0.009628 0.000000 0.003019 0.000000
# 4 0.000000 0.000000 0.000000 0.046579 0.000000 -0.002086
# 5 0.003726 0.005190 0.003019 0.000000 0.026969 0.000000
# 6 0.000000 0.000000 0.000000 -0.002086 0.000000 0.091218
#
#
# Mechanical properties :
#
#
# Convention : Reuss Voigt Hill
#
# Bulk Modulus (GPa) = 28.35090 39.65045 34.00068
# Shear Modulus (GPa) = 19.83605 26.62283 23.22944
#
# Velocity S-wave (km/s) = 3.17235 3.67520 3.43299
# Velocity P-wave (km/s) = 5.27278 6.17463 5.74144
#
# Compressibility (1/GPa) = 0.03527225
#
# Stress axis : x y z
#
# Youngs Moduli (GPa) = 54.02895 36.66850 103.86779
#
# Poissons Ratio (x) = 0.17647 0.16560
# Poissons Ratio (y) = 0.26002 0.38023
# Poissons Ratio (z) = 0.08614 0.13423
#
# Static dielectric constant tensor:
#      x y z
#    x 1.723930 0.000000 0.051660 
#    y 0.000000 1.688150 0.000000 
#    z 0.051660 0.000000 1.715190 
# 
# From -- ./inp_files/71399.got.cif
#   From: 2010.05.17/outbox.ucp.g08.bks.cvg/sg10_36_cif.got.tgz:71399.got - 2010.06.11 11:31:16.
