data_PCOD9155125
_publ_section_title
;
Structure prediction by ZEFSAII (Michael W. Deem and Ramdas Pophale) SiO2 
 PCOD9155125
Probable space group: P 2/M
;
_chemical_formula_sum "Si O2"
_cell_formula_units_Z 32
_cell_length_a 12.000000
_cell_length_b 9.000000
_cell_length_c 21.000000
_cell_angle_alpha 90.000000
_cell_angle_beta 130.000000
_cell_angle_gamma 90.000000
_cell_volume 1737.388797
_symmetry_space_group_name_H-M "P 2/M"
_symmetry_group_IT_number 10
_symmetry_cell_setting 'monoclinic'
loop_
_space_group_symop_operation_xyz
x,y,z
-x,y,-z
-x,-y,-z
x,-y,z
loop_
_atom_site_type_symbol
_atom_site_label
_atom_site_fract_x
_atom_site_fract_y
_atom_site_fract_z
Si Si1 0.858331 0.174120 0.723611
Si Si2 0.201544 0.671206 0.646753
Si Si3 0.563848 0.318729 0.088436
Si Si4 0.538231 0.669179 0.818717
Si Si5 0.687166 0.822624 0.431840
Si Si6 0.673633 0.668674 0.556703
Si Si7 0.365375 0.175838 0.263404
Si Si8 0.121066 0.321197 0.751493
O O1 0.735128 0.207586 0.626162
O O2 0.779579 0.235545 0.757334
O O3 0.996000 0.261634 0.749814
O O4 0.890662 0.000000 0.740266
O O5 0.165218 0.500000 0.616716
O O6 0.367409 0.668748 0.735505
O O7 0.210344 0.775789 0.589098
O O8 0.107269 0.724576 0.672246
O O9 0.569806 0.500000 0.088856
O O10 0.459400 0.281430 0.108151
O O11 0.725358 0.267772 0.164273
O O12 0.500000 0.262129 0.000000
O O13 0.588755 0.500000 0.830312
O O14 0.623757 0.775610 0.804496
O O15 0.720500 0.721709 0.504434
O O16 0.519742 0.780257 0.351735
O O17 0.693248 0.000000 0.445734
O O18 0.500000 0.667136 0.500000
O O19 0.726013 0.500000 0.589569
O O20 0.359951 0.000000 0.268284
O O21 0.122858 0.500000 0.750792
#
# Coordination Sequence:
#
# PCOD9155125 Si02
#       8
#     4   4   4   4   4   4   4   4
#     4  11  22  35  50  69  99 135 168 204 248 297
#     4   8  15  29  47  68  96 126 159 203 250 291
#     4   8  14  28  53  82 107 129 156 198 249 292
#     4   8  14  25  46  74  98 123 159 200 239 285
#     4  10  18  30  49  71  96 125 163 208 252 295
#     4  11  22  34  50  72  97 127 166 210 253 295
#     4   9  18  30  45  67  96 130 163 201 246 287
#     4   9  18  33  52  75 102 131 165 203 245 296
#
# _framework density 18.418444999999998
#
# number of rings (size 3 to 8) (size 9 to 14) (size 15 to 20)
#    0.000    2.750    1.250    2.625    0.000    2.500 
#    0.000    2.500    0.000    6.000    0.000    5.250 
#    0.000    0.000    0.000    0.000    0.000    0.000 
#
# Total GULP energy -178145.376957 kJ/mol
# GULP energy per Si atom -5567.043030 kJ/mol
# Density = 1.837652 g / cm^3
# Si number density = 18.418445 Si / 1000 Ang^3
#
#
#
# Elastic Constant Matrix: (Units=GPa)
#
#
# Indices 1 2 3 4 5 6 
#
# 1 46.9437 -24.5841 -0.0041 0.0000 10.2887 0.0000
# 2 -24.5841 -17.7248 -18.2461 0.0000 11.3250 0.0000
# 3 -0.0041 -18.2461 11.5900 0.0000 -4.1672 0.0000
# 4 0.0000 0.0000 0.0000 11.2660 0.0000 -9.5075
# 5 10.2887 11.3250 -4.1672 0.0000 10.2457 0.0000
# 6 0.0000 0.0000 0.0000 -9.5075 0.0000 24.2012
#
#
#
# Elastic Compliance Matrix: (Units=1/GPa)
#
#
# Indices 1 2 3 4 5 6 
#
# 1 0.018715 -0.011521 -0.023789 0.000000 -0.015733 0.000000
# 2 -0.011521 -0.013296 -0.013461 0.000000 0.020792 0.000000
# 3 -0.023789 -0.013461 0.092555 0.000000 0.076412 0.000000
# 4 0.000000 0.000000 0.000000 0.132786 0.000000 0.052165
# 5 -0.015733 0.020792 0.076412 0.000000 0.121498 0.000000
# 6 0.000000 0.000000 0.000000 0.052165 0.000000 0.061813
#
#
# Mechanical properties :
#
#
# Convention : Reuss Voigt Hill
#
# Bulk Modulus (GPa) = 2318.71183 -4.98444 1156.86370
# Shear Modulus (GPa) = 9.77029 14.71880 12.24455
#
# Velocity S-wave (km/s) = 2.30568 2.82996 2.58116
# Velocity P-wave (km/s) = 35.61922 2.82244 25.26554
#
# Compressibility (1/GPa) = 0.00043127
#
# Stress axis : x y z
#
# Youngs Moduli (GPa) = 53.43403 -75.20803 10.80438
#
# Poissons Ratio (x) = -0.86650 0.25702
# Poissons Ratio (y) = 0.61564 0.14544
# Poissons Ratio (z) = 1.27112 -1.01238
#
# Static dielectric constant tensor:
#      x y z
#    x 1.648510 0.000000 -0.005660 
#    y 0.000000 1.605860 0.000000 
#    z -0.005660 0.000000 1.651690 
# 
# From -- ./inp_files/54822.got.cif
#   From: 2010.05.17/outbox.ucp.g08.bks.cvg/sg10_28_cif.got.tgz:54822.got - 2010.06.11 11:31:16.
