data_PCOD9155280
_publ_section_title
;
Structure prediction by ZEFSAII (Michael W. Deem and Ramdas Pophale) SiO2 
 PCOD9155280
Probable space group: P 2/M
;
_chemical_formula_sum "Si O2"
_cell_formula_units_Z 32
_cell_length_a 21.000000
_cell_length_b 9.000000
_cell_length_c 12.000000
_cell_angle_alpha 90.000000
_cell_angle_beta 120.000000
_cell_angle_gamma 90.000000
_cell_volume 1964.145616
_symmetry_space_group_name_H-M "P 2/M"
_symmetry_group_IT_number 10
_symmetry_cell_setting 'monoclinic'
loop_
_space_group_symop_operation_xyz
x,y,z
-x,y,-z
-x,-y,-z
x,-y,z
loop_
_atom_site_type_symbol
_atom_site_label
_atom_site_fract_x
_atom_site_fract_y
_atom_site_fract_z
Si Si1 0.089239 0.826212 0.465053
Si Si2 0.491501 0.824369 0.122818
Si Si3 0.586473 0.678531 0.587620
Si Si4 0.344151 0.823804 0.131219
Si Si5 0.067815 0.175223 0.714482
Si Si6 0.753703 0.180348 0.342916
Si Si7 0.377297 0.677170 0.633139
Si Si8 0.780310 0.678150 0.122903
O O1 0.077727 0.819717 0.588762
O O2 0.172078 0.768928 0.526406
O O3 0.015644 0.765600 0.341839
O O4 0.090275 0.000000 0.435345
O O5 0.409337 0.805165 0.097157
O O6 0.545551 0.728321 0.246258
O O7 0.510466 0.000000 0.150323
O O8 0.500000 0.785088 0.000000
O O9 0.500000 0.719522 0.500000
O O10 0.589398 0.500000 0.608521
O O11 0.625447 0.759296 0.725300
O O12 0.622433 0.711439 0.498637
O O13 0.329532 0.000000 0.129189
O O14 0.273560 0.739666 0.019851
O O15 0.135826 0.266266 0.822741
O O16 0.072845 0.000000 0.749916
O O17 0.684442 0.236416 0.351488
O O18 0.755982 0.249900 0.220727
O O19 0.754533 0.000000 0.333413
O O20 0.368465 0.500000 0.638234
O O21 0.777162 0.500000 0.127190
#
# Coordination Sequence:
#
# PCOD9155280 Si02
#       8
#     4   4   4   4   4   4   4   4
#     4   7  12  24  45  69  95 133 170 202 241 290
#     4  10  21  35  51  72  99 130 163 203 249 297
#     4  10  21  39  57  73  98 131 165 210 261 306
#     4  11  22  35  54  76  98 130 173 214 251 294
#     4   8  13  26  46  68  97 133 172 203 238 291
#     4  10  19  33  51  73 105 138 171 209 250 295
#     4  11  22  35  53  75  99 131 168 205 255 306
#     4  11  21  32  48  74 108 139 168 204 254 305
#
# _framework density 16.292071
#
# number of rings (size 3 to 8) (size 9 to 14) (size 15 to 20)
#    0.000    2.250    1.250    4.500    0.000    3.000 
#    0.000    5.625    0.000    0.000    0.000    0.875 
#    0.000    7.000    0.000    0.000    0.000    0.000 
#
# Total GULP energy -178352.096923 kJ/mol
# GULP energy per Si atom -5573.503029 kJ/mol
# Density = 1.625499 g / cm^3
# Si number density = 16.292071 Si / 1000 Ang^3
#
#
#
# Elastic Constant Matrix: (Units=GPa)
#
#
# Indices 1 2 3 4 5 6 
#
# 1 36.4691 25.1331 39.4235 0.0000 22.5869 0.0000
# 2 25.1331 79.1651 54.6183 0.0000 12.3006 0.0000
# 3 39.4235 54.6183 122.3160 0.0000 17.1203 0.0000
# 4 0.0000 0.0000 0.0000 26.8090 0.0000 -0.8395
# 5 22.5869 12.3006 17.1203 0.0000 31.6374 0.0000
# 6 0.0000 0.0000 0.0000 -0.8395 0.0000 7.8234
#
#
#
# Elastic Compliance Matrix: (Units=1/GPa)
#
#
# Indices 1 2 3 4 5 6 
#
# 1 0.074791 -0.006660 -0.015170 0.000000 -0.042597 0.000000
# 2 -0.006660 0.019100 -0.006501 0.000000 0.000846 0.000000
# 3 -0.015170 -0.006501 0.015253 0.000000 0.005103 0.000000
# 4 0.000000 0.000000 0.000000 0.037427 0.000000 0.004016
# 5 -0.042597 0.000846 0.005103 0.000000 0.058929 0.000000
# 6 0.000000 0.000000 0.000000 0.004016 0.000000 0.128253
#
#
# Mechanical properties :
#
#
# Convention : Reuss Voigt Hill
#
# Bulk Modulus (GPa) = 19.05346 52.92221 35.98784
# Shear Modulus (GPa) = 12.25768 21.17231 16.71500
#
# Velocity S-wave (km/s) = 2.74591 3.60883 3.20653
# Velocity P-wave (km/s) = 4.66623 7.06533 5.98718
#
# Compressibility (1/GPa) = 0.05248390
#
# Stress axis : x y z
#
# Youngs Moduli (GPa) = 13.37057 52.35713 65.55940
#
# Poissons Ratio (x) = 0.34868 0.99452
# Poissons Ratio (y) = 0.08904 0.42618
# Poissons Ratio (z) = 0.20283 0.34035
#
# Static dielectric constant tensor:
#      x y z
#    x 1.571480 0.000000 0.033280 
#    y 0.000000 1.542230 0.000000 
#    z 0.033280 0.000000 1.532850 
# 
# From -- ./inp_files/54945.got.cif
#   From: 2010.05.17/outbox.ucp.g08.bks.cvg/sg10_28_cif.got.tgz:54945.got - 2010.06.11 11:31:16.
