data_PCOD9155644
_publ_section_title
;
Structure prediction by ZEFSAII (Michael W. Deem and Ramdas Pophale) SiO2 
 PCOD9155644
Probable space group: P 2/M
;
_chemical_formula_sum "Si O2"
_cell_formula_units_Z 28
_cell_length_a 15.000000
_cell_length_b 9.000000
_cell_length_c 12.000000
_cell_angle_alpha 90.000000
_cell_angle_beta 60.000000
_cell_angle_gamma 90.000000
_cell_volume 1402.961154
_symmetry_space_group_name_H-M "P 2/M"
_symmetry_group_IT_number 10
_symmetry_cell_setting 'monoclinic'
loop_
_space_group_symop_operation_xyz
x,y,z
-x,y,-z
-x,-y,-z
x,-y,z
loop_
_atom_site_type_symbol
_atom_site_label
_atom_site_fract_x
_atom_site_fract_y
_atom_site_fract_z
Si Si1 0.019239 0.175155 0.117428
Si Si2 0.558000 0.829186 0.080264
Si Si3 0.507896 0.323440 0.664765
Si Si4 0.843716 0.675847 0.357532
Si Si5 0.218943 0.824257 0.131720
Si Si6 0.350133 0.176258 0.607390
Si Si7 0.119320 0.321826 0.412188
O O1 0.136148 0.191461 0.084840
O O2 0.954460 0.278011 0.241443
O O3 0.991447 0.000000 0.149670
O O4 0.000000 0.212711 0.000000
O O5 0.496715 0.729587 0.206032
O O6 0.565773 0.000000 0.119013
O O7 0.500000 0.834404 0.000000
O O8 0.671636 0.769449 0.981732
O O9 0.521094 0.500000 0.644471
O O10 0.401861 0.266504 0.675500
O O11 0.592319 0.236351 0.539266
O O12 0.825368 0.500000 0.353892
O O13 0.766380 0.775844 0.335207
O O14 0.832567 0.708786 0.496159
O O15 0.176576 0.750452 0.271519
O O16 0.231517 0.000000 0.147771
O O17 0.363793 0.000000 0.611651
O O18 0.118878 0.500000 0.396444
O O19 0.000000 0.272997 0.500000
#
# Coordination Sequence:
#
# PCOD9155644 Si02
#       7
#     4   4   4   4   4   4   4
#     4  10  22  39  59  88 123 163 207 253 307 370
#     4  10  23  42  62  89 125 167 213 256 305 368
#     4  11  23  42  65  93 125 158 204 257 311 368
#     4  11  23  39  61  92 124 158 202 254 309 368
#     4  10  22  39  61  88 119 160 210 258 302 360
#     4  11  23  41  66  92 122 162 203 252 311 369
#     4  10  21  39  60  85 121 160 197 246 307 366
#
# _framework density 19.957787
#
# number of rings (size 3 to 8) (size 9 to 14) (size 15 to 20)
#    0.000    1.571    1.429    3.857    4.000    2.571 
#    0.000    0.000    0.000    0.000    0.000    0.000 
#    0.000    0.000    0.000    0.000    0.000    0.000 
#
# Total GULP energy -156408.497436 kJ/mol
# GULP energy per Si atom -5586.017766 kJ/mol
# Density = 1.991236 g / cm^3
# Si number density = 19.957787 Si / 1000 Ang^3
#
#
#
# Elastic Constant Matrix: (Units=GPa)
#
#
# Indices 1 2 3 4 5 6 
#
# 1 40.4258 0.2732 -9.8532 0.0000 0.0832 0.0000
# 2 0.2732 59.2133 9.7181 0.0000 8.5412 0.0000
# 3 -9.8532 9.7181 42.7494 0.0000 29.1278 0.0000
# 4 0.0000 0.0000 0.0000 20.2216 0.0000 9.6651
# 5 0.0832 8.5412 29.1278 0.0000 22.9988 0.0000
# 6 0.0000 0.0000 0.0000 9.6651 0.0000 16.4985
#
#
#
# Elastic Compliance Matrix: (Units=1/GPa)
#
#
# Indices 1 2 3 4 5 6 
#
# 1 0.042639 0.001242 0.072703 0.000000 -0.092693 0.000000
# 2 0.001242 0.017946 0.005477 0.000000 -0.013606 0.000000
# 3 0.072703 0.005477 0.295261 0.000000 -0.376244 0.000000
# 4 0.000000 0.000000 0.000000 0.068683 0.000000 -0.040236
# 5 -0.092693 -0.013606 -0.376244 0.000000 0.525379 0.000000
# 6 0.000000 0.000000 0.000000 -0.040236 0.000000 0.084182
#
#
# Mechanical properties :
#
#
# Convention : Reuss Voigt Hill
#
# Bulk Modulus (GPa) = 1.94292 15.85165 8.89728
# Shear Modulus (GPa) = 4.77641 21.42713 13.10177
#
# Velocity S-wave (km/s) = 1.54869 3.28017 2.56495
# Velocity P-wave (km/s) = 2.04293 4.72291 3.63864
#
# Compressibility (1/GPa) = 0.51468938
#
# Stress axis : x y z
#
# Youngs Moduli (GPa) = 23.45257 55.72262 3.38683
#
# Poissons Ratio (x) = -0.06919 -0.24623
# Poissons Ratio (y) = -0.02912 -0.01855
# Poissons Ratio (z) = -1.70507 -0.30519
#
# Static dielectric constant tensor:
#      x y z
#    x 1.759360 0.000000 -0.015570 
#    y 0.000000 1.678600 0.000000 
#    z -0.015570 0.000000 1.676550 
# 
# From -- ./inp_files/49561.got.cif
#   From: 2010.05.17/outbox.ucp.g08.bks.cvg/sg10_25_cif.got.tgz:49561.got - 2010.06.11 11:31:16.
