data_PCOD9155225
_publ_section_title
;
Structure prediction by ZEFSAII (Michael W. Deem and Ramdas Pophale) SiO2 
 PCOD9155225
Probable space group: P 2/M
;
_chemical_formula_sum "Si O2"
_cell_formula_units_Z 28
_cell_length_a 30.000000
_cell_length_b 9.000000
_cell_length_c 30.000000
_cell_angle_alpha 90.000000
_cell_angle_beta 170.000000
_cell_angle_gamma 90.000000
_cell_volume 1406.550239
_symmetry_space_group_name_H-M "P 2/M"
_symmetry_group_IT_number 10
_symmetry_cell_setting 'monoclinic'
loop_
_space_group_symop_operation_xyz
x,y,z
-x,y,-z
-x,-y,-z
x,-y,z
loop_
_atom_site_type_symbol
_atom_site_label
_atom_site_fract_x
_atom_site_fract_y
_atom_site_fract_z
Si Si1 0.766365 0.332692 0.736139
Si Si2 0.694233 0.825459 0.576352
Si Si3 0.937313 0.678594 0.540444
Si Si4 0.785999 0.675670 0.940005
Si Si5 0.537409 0.318427 0.986244
Si Si6 0.682327 0.825862 0.927830
Si Si7 0.843218 0.173111 0.540237
O O1 0.500000 0.328408 0.500000
O O2 0.791648 0.500000 0.740938
O O3 0.761938 0.209157 0.694095
O O4 0.000000 0.312871 0.000000
O O5 0.419882 0.749778 0.296154
O O6 0.683274 0.000000 0.555653
O O7 0.931732 0.748678 0.784643
O O8 0.939060 0.500000 0.540785
O O9 0.694419 0.731373 0.273076
O O10 0.915018 0.729672 0.568847
O O11 0.196176 0.732293 0.772171
O O12 0.800110 0.500000 0.946659
O O13 0.675352 0.717927 0.879188
O O14 0.538150 0.500000 0.987215
O O15 0.500000 0.269938 0.000000
O O16 0.947743 0.805327 0.215289
O O17 0.664711 0.000000 0.896203
O O18 0.441121 0.795440 0.722010
O O19 0.853479 0.000000 0.537327
#
# Coordination Sequence:
#
# PCOD9155225 Si02
#       7
#     4   4   4   4   4   4   4
#     4  10  21  38  61  89 123 161 201 250 305 355
#     4  12  25  42  65  93 127 165 205 250 300 362
#     4  10  19  31  51  76 101 133 175 222 268 322
#     4  12  25  42  65  93 124 159 202 253 306 356
#     4   9  17  30  49  74 102 133 172 219 270 322
#     4  10  21  38  58  81 110 148 190 230 282 345
#     4  10  21  36  55  78 109 146 181 224 279 340
#
# _framework density 19.906860999999999
#
# number of rings (size 3 to 8) (size 9 to 14) (size 15 to 20)
#    0.000    1.571    0.000    5.571    0.000    5.714 
#    0.000    0.000    0.000    2.571    0.000    0.000 
#    0.000    0.000    0.000    0.000    0.000    0.000 
#
# Total GULP energy -156467.951710 kJ/mol
# GULP energy per Si atom -5588.141132 kJ/mol
# Density = 1.986155 g / cm^3
# Si number density = 19.906861 Si / 1000 Ang^3
#
#
#
# Elastic Constant Matrix: (Units=GPa)
#
#
# Indices 1 2 3 4 5 6 
#
# 1 53.3870 26.8407 8.2162 0.0000 0.6698 0.0000
# 2 26.8407 64.7842 19.4467 0.0000 0.7009 0.0000
# 3 8.2162 19.4467 83.1341 0.0000 2.3060 0.0000
# 4 0.0000 0.0000 0.0000 7.9506 0.0000 -25.0353
# 5 0.6698 0.7009 2.3060 0.0000 19.9560 0.0000
# 6 0.0000 0.0000 0.0000 -25.0353 0.0000 44.0146
#
#
#
# Elastic Compliance Matrix: (Units=1/GPa)
#
#
# Indices 1 2 3 4 5 6 
#
# 1 0.023663 -0.009788 -0.000037 0.000000 -0.000446 0.000000
# 2 -0.009788 0.020651 -0.003865 0.000000 0.000050 0.000000
# 3 -0.000037 -0.003865 0.012974 0.000000 -0.001362 0.000000
# 4 0.000000 0.000000 0.000000 -0.159000 0.000000 -0.090438
# 5 -0.000446 0.000050 -0.001362 0.000000 0.050281 0.000000
# 6 0.000000 0.000000 0.000000 -0.090438 0.000000 -0.028721
#
#
# Mechanical properties :
#
#
# Convention : Reuss Voigt Hill
#
# Bulk Modulus (GPa) = 33.43420 34.47916 33.95668
# Shear Modulus (GPa) = -116.81317 24.17102 -46.32107
#
# Velocity S-wave (km/s) = -7.66859 3.48833 -4.82902
# Velocity P-wave (km/s) = 7.84716 5.79503 3.74136
#
# Compressibility (1/GPa) = 0.02990949
#
# Stress axis : x y z
#
# Youngs Moduli (GPa) = 42.25924 48.42452 77.07614
#
# Poissons Ratio (x) = 0.47399 0.00283
# Poissons Ratio (y) = 0.41364 0.29787
# Poissons Ratio (z) = 0.00155 0.18714
#
# Static dielectric constant tensor:
#      x y z
#    x 1.698910 0.000000 -0.001090 
#    y 0.000000 1.682510 0.000000 
#    z -0.001090 0.000000 1.697030 
# 
# From -- ./inp_files/96002.got.cif
#   From: 2010.05.17/outbox.ucp.g08.bks.cvg/sg10_49_cif.got.tgz:96002.got - 2010.06.11 11:31:16.
