data_PCOD9155727
_publ_section_title
;
Structure prediction by ZEFSAII (Michael W. Deem and Ramdas Pophale) SiO2 
 PCOD9155727
Probable space group: P 21/M
;
_chemical_formula_sum "Si O2"
_cell_formula_units_Z 26
_cell_length_a 8.798779
_cell_length_b 21.401938
_cell_length_c 14.884434
_cell_angle_alpha 90.000000
_cell_angle_beta 157.119812
_cell_angle_gamma 90.000000
_cell_volume 1089.783225
_symmetry_space_group_name_H-M "P 21/M"
_symmetry_group_IT_number 11
_symmetry_cell_setting 'monoclinic'
loop_
_space_group_symop_operation_xyz
x,y,z
-x,1/2+y,-z
-x,-y,-z
x,1/2-y,z
loop_
_atom_site_type_symbol
_atom_site_label
_atom_site_fract_x
_atom_site_fract_y
_atom_site_fract_z
Si Si1 0.631624 0.821609 0.974121
Si Si2 0.320317 0.090401 0.169209
Si Si3 0.360795 0.146701 0.820323
Si Si4 0.294058 0.176519 0.319315
Si Si5 0.666079 0.750000 0.327257
Si Si6 0.446460 0.044137 0.731631
Si Si7 0.278492 0.350978 0.511661
O O1 0.756472 0.750000 0.029431
O O2 0.728140 0.867673 0.945676
O O3 0.155529 0.821288 0.719103
O O4 0.754136 0.845812 0.139156
O O5 0.444608 0.133092 0.321001
O O6 0.586093 0.030153 0.291365
O O7 0.904251 0.061990 0.971102
O O8 0.159337 0.195421 0.644133
O O9 0.331197 0.078291 0.761553
O O10 0.817444 0.169830 0.061477
O O11 0.379320 0.250000 0.354722
O O12 0.416006 0.153151 0.484583
O O13 0.487115 0.805103 0.295423
O O14 0.265650 0.080782 0.547980
#
# Coordination Sequence:
#
# PCOD9155727 Si02
#       7
#     4   4   4   4   2   4   4
#     4  11  20  36  54  87 108 145 168 236 283 334
#     4  10  22  37  56  75 123 142 188 220 280 320
#     4   9  17  31  59  76 107 137 191 216 274 324
#     4  10  17  33  53  83 103 150 177 223 269 348
#     4  10  14  30  52  80 100 132 170 238 242 324
#     4   9  21  39  55  84 100 159 188 226 254 330
#     4  10  19  33  60  78 107 135 195 222 268 321
#
# _framework density 23.857956999999999
#
# number of rings (size 3 to 8) (size 9 to 14) (size 15 to 20)
#    0.000    2.154    3.077    1.385    0.000    1.846 
#    1.385    3.077    0.000    0.000    0.000    0.000 
#    0.000    0.000    0.000    0.000    0.000    0.000 
#
# Total GULP energy -144978.082428 kJ/mol
# GULP energy per Si atom -5576.080093 kJ/mol
# Density = 2.380366 g / cm^3
# Si number density = 23.857957 Si / 1000 Ang^3
#
#
#
# Elastic Constant Matrix: (Units=GPa)
#
#
# Indices 1 2 3 4 5 6 
#
# 1 168.0088 114.1594 37.9522 0.0000 -51.2725 0.0000
# 2 114.1594 206.5958 39.5996 0.0000 -38.7726 0.0000
# 3 37.9522 39.5996 51.8919 0.0000 -15.1548 0.0000
# 4 0.0000 0.0000 0.0000 28.9546 0.0000 10.0562
# 5 -51.2725 -38.7726 -15.1548 0.0000 55.5701 0.0000
# 6 0.0000 0.0000 0.0000 10.0562 0.0000 17.3168
#
#
#
# Elastic Compliance Matrix: (Units=1/GPa)
#
#
# Indices 1 2 3 4 5 6 
#
# 1 0.011974 -0.004720 -0.003141 0.000000 0.006898 0.000000
# 2 -0.004720 0.008037 -0.002516 0.000000 0.000567 0.000000
# 3 -0.003141 -0.002516 0.024044 0.000000 0.001904 0.000000
# 4 0.000000 0.000000 0.000000 0.043262 0.000000 -0.025123
# 5 0.006898 0.000567 0.001904 0.000000 0.025275 0.000000
# 6 0.000000 0.000000 0.000000 -0.025123 0.000000 0.072337
#
#
# Mechanical properties :
#
#
# Convention : Reuss Voigt Hill
#
# Bulk Modulus (GPa) = 42.91551 89.99099 66.45325
# Shear Modulus (GPa) = 23.42485 36.02066 29.72275
#
# Velocity S-wave (km/s) = 3.13684 3.88983 3.53345
# Velocity P-wave (km/s) = 5.58092 7.61418 6.67542
#
# Compressibility (1/GPa) = 0.02330160
#
# Stress axis : x y z
#
# Youngs Moduli (GPa) = 83.51643 124.42549 41.59077
#
# Poissons Ratio (x) = 0.58725 0.13063
# Poissons Ratio (y) = 0.39417 0.10463
# Poissons Ratio (z) = 0.26232 0.31302
#
# Static dielectric constant tensor:
#      x y z
#    x 1.955540 0.000000 0.039700 
#    y 0.000000 1.874130 0.000000 
#    z 0.039700 0.000000 2.153050 
# 
# From -- ./inp_files/13472.got.cif
#   From: 2010.05.17/outbox.cif.g08.bks.cpg/sg11_7_cif.got.tgz:13472.got - 2010.06.03 12:22:45.
