data_PCOD9155969
_publ_section_title
;
Structure prediction by ZEFSAII (Michael W. Deem and Ramdas Pophale) SiO2 
 PCOD9155969
Probable space group: P 21/M
;
_chemical_formula_sum "Si O2"
_cell_formula_units_Z 32
_cell_length_a 9.920164
_cell_length_b 8.655520
_cell_length_c 22.546005
_cell_angle_alpha 90.000000
_cell_angle_beta 69.494482
_cell_angle_gamma 90.000000
_cell_volume 1813.232943
_symmetry_space_group_name_H-M "P 21/M"
_symmetry_group_IT_number 11
_symmetry_cell_setting 'monoclinic'
loop_
_space_group_symop_operation_xyz
x,y,z
-x,1/2+y,-z
-x,-y,-z
x,1/2-y,z
loop_
_atom_site_type_symbol
_atom_site_label
_atom_site_fract_x
_atom_site_fract_y
_atom_site_fract_z
Si Si1 0.690153 0.435388 0.726599
Si Si2 0.537275 0.435491 0.930026
Si Si3 0.593000 0.064301 0.166553
Si Si4 0.337850 0.564417 0.517545
Si Si5 0.314833 0.937503 0.650386
Si Si6 0.163205 0.564510 0.176067
Si Si7 0.146193 0.936231 0.792109
Si Si8 0.651561 0.565015 0.607632
O O1 0.683040 0.250000 0.725928
O O2 0.536468 0.499955 0.772771
O O3 0.801643 0.481503 0.761261
O O4 0.720699 0.500658 0.656890
O O5 0.530573 0.250000 0.931034
O O6 0.432487 0.499926 0.895148
O O7 0.698137 0.481955 0.884168
O O8 0.500000 0.500000 0.000000
O O9 0.583566 0.250000 0.167732
O O10 0.743843 0.018199 0.172858
O O11 0.500000 0.500000 0.500000
O O12 0.341733 0.750000 0.513333
O O13 0.266018 0.519021 0.591384
O O14 0.282961 0.496906 0.464024
O O15 0.315835 0.750000 0.652197
O O16 0.215470 0.992410 0.719206
O O17 0.481865 0.984255 0.634207
O O18 0.155380 0.750000 0.175797
O O19 0.014370 0.496272 0.176987
O O20 0.143514 0.750000 0.790910
O O21 0.655366 0.750000 0.607075
#
# Coordination Sequence:
#
# PCOD9155969 Si02
#       8
#     4   4   4   4   4   4   4   4
#     4  10  19  32  50  74 103 136 177 221 267 313
#     4  10  21  39  61  84 110 139 175 212 253 302
#     4  10  19  33  55  82 110 138 173 215 257 302
#     4   9  16  26  41  64  97 133 170 215 268 317
#     4   8  15  28  44  67 100 133 166 212 262 306
#     4   9  21  37  52  77 110 137 167 214 259 304
#     4  10  19  33  53  78 107 140 175 211 256 312
#     4  10  17  28  46  69 100 131 171 224 271 314
#
# _framework density 17.648036999999999
#
# number of rings (size 3 to 8) (size 9 to 14) (size 15 to 20)
#    0.000    2.500    1.250    3.375    0.000    4.000 
#    0.000    1.875    0.000    0.750    0.000    0.000 
#    0.000    0.000    0.000    0.000    0.000    0.000 
#
# Total GULP energy -178392.772378 kJ/mol
# GULP energy per Si atom -5574.774137 kJ/mol
# Density = 1.760787 g / cm^3
# Si number density = 17.648037 Si / 1000 Ang^3
#
#
#
# Elastic Constant Matrix: (Units=GPa)
#
#
# Indices 1 2 3 4 5 6 
#
# 1 111.4125 29.0222 58.5311 0.0000 14.9365 0.0000
# 2 29.0222 44.8512 33.0077 0.0000 9.8871 0.0000
# 3 58.5311 33.0077 134.0320 0.0000 30.6238 0.0000
# 4 0.0000 0.0000 0.0000 26.0270 0.0000 3.9421
# 5 14.9365 9.8871 30.6238 0.0000 21.8404 0.0000
# 6 0.0000 0.0000 0.0000 3.9421 0.0000 24.1649
#
#
#
# Elastic Compliance Matrix: (Units=1/GPa)
#
#
# Indices 1 2 3 4 5 6 
#
# 1 0.012498 -0.004937 -0.004119 0.000000 -0.000536 0.000000
# 2 -0.004937 0.029459 -0.004154 0.000000 -0.004135 0.000000
# 3 -0.004119 -0.004154 0.013551 0.000000 -0.014303 0.000000
# 4 0.000000 0.000000 0.000000 0.039395 0.000000 -0.006427
# 5 -0.000536 -0.004135 -0.014303 0.000000 0.068080 0.000000
# 6 0.000000 0.000000 0.000000 -0.006427 0.000000 0.042431
#
#
# Mechanical properties :
#
#
# Convention : Reuss Voigt Hill
#
# Bulk Modulus (GPa) = 34.38017 59.04638 46.71328
# Shear Modulus (GPa) = 20.70133 25.72209 23.21171
#
# Velocity S-wave (km/s) = 3.42864 3.82187 3.63058
# Velocity P-wave (km/s) = 5.93274 7.28052 6.64091
#
# Compressibility (1/GPa) = 0.02908653
#
# Stress axis : x y z
#
# Youngs Moduli (GPa) = 80.01432 33.94505 73.79712
#
# Poissons Ratio (x) = 0.16760 0.30400
# Poissons Ratio (y) = 0.39505 0.30655
# Poissons Ratio (z) = 0.32961 0.14101
#
# Static dielectric constant tensor:
#      x y z
#    x 1.590870 0.000000 0.021580 
#    y 0.000000 1.593190 0.000000 
#    z 0.021580 0.000000 1.617900 
# 
# From -- ./inp_files/67778.got.cif
#   From: 2010.05.17/outbox.cif.g08.bks.cpg/sg11_34_cif.got.tgz:67778.got - 2010.06.03 12:22:45.
