data_PCOD9155528
_publ_section_title
;
Structure prediction by ZEFSAII (Michael W. Deem and Ramdas Pophale) SiO2 
 PCOD9155528
Probable space group: P 2/M
;
_chemical_formula_sum "Si O2"
_cell_formula_units_Z 28
_cell_length_a 12.000000
_cell_length_b 9.000000
_cell_length_c 15.000000
_cell_angle_alpha 90.000000
_cell_angle_beta 120.000000
_cell_angle_gamma 90.000000
_cell_volume 1402.961154
_symmetry_space_group_name_H-M "P 2/M"
_symmetry_group_IT_number 10
_symmetry_cell_setting 'monoclinic'
loop_
_space_group_symop_operation_xyz
x,y,z
-x,y,-z
-x,-y,-z
x,-y,z
loop_
_atom_site_type_symbol
_atom_site_label
_atom_site_fract_x
_atom_site_fract_y
_atom_site_fract_z
Si Si1 0.270811 0.329862 0.790178
Si Si2 0.570115 0.326019 0.613597
Si Si3 0.132670 0.332475 0.314300
Si Si4 0.475596 0.327495 0.209739
Si Si5 0.939926 0.671617 0.072940
Si Si6 0.021841 0.175511 0.609417
Si Si7 0.319491 0.173771 0.990332
O O1 0.241016 0.500000 0.801343
O O2 0.374461 0.327350 0.753273
O O3 0.142972 0.249552 0.706714
O O4 0.335417 0.253678 0.901708
O O5 0.500000 0.258646 0.500000
O O6 0.526496 0.500000 0.602240
O O7 0.720721 0.324252 0.655730
O O8 0.545221 0.261348 0.700933
O O9 0.106653 0.500000 0.337741
O O10 0.044817 0.310272 0.192253
O O11 0.098247 0.217861 0.377240
O O12 0.429646 0.500000 0.189884
O O13 0.403240 0.241511 0.102985
O O14 0.891657 0.500000 0.057951
O O15 0.827070 0.787161 0.043515
O O16 0.000000 0.691432 0.000000
O O17 0.000000 0.229971 0.500000
O O18 0.042412 0.000000 0.614845
O O19 0.342223 0.000000 0.990166
#
# Coordination Sequence:
#
# PCOD9155528 Si02
#       7
#     4   4   4   4   4   4   4
#     4  11  23  40  65  94 121 157 207 258 305 359
#     4   9  19  37  63  94 123 153 198 255 307 352
#     4  10  20  36  63  92 120 157 200 248 299 359
#     4  10  22  40  63  91 123 160 205 256 306 361
#     4  10  20  36  60  89 121 160 204 251 302 356
#     4  11  25  42  61  88 125 166 202 247 308 366
#     4  12  24  38  59  89 126 165 202 246 306 372
#
# _framework density 19.957787
#
# number of rings (size 3 to 8) (size 9 to 14) (size 15 to 20)
#    0.000    1.571    1.429    3.429    2.000    6.571 
#    0.000    2.143    0.000    0.857    0.000    0.000 
#    0.000    0.000    0.000    0.000    0.000    0.000 
#
# Total GULP energy -156367.724073 kJ/mol
# GULP energy per Si atom -5584.561574 kJ/mol
# Density = 1.991236 g / cm^3
# Si number density = 19.957787 Si / 1000 Ang^3
#
#
#
# Elastic Constant Matrix: (Units=GPa)
#
#
# Indices 1 2 3 4 5 6 
#
# 1 63.8356 23.9568 58.5890 0.0000 -9.1627 0.0000
# 2 23.9568 65.0376 35.6466 0.0000 -13.9028 0.0000
# 3 58.5890 35.6466 98.9647 0.0000 -39.1465 0.0000
# 4 0.0000 0.0000 0.0000 57.9713 0.0000 58.5948
# 5 -9.1627 -13.9028 -39.1465 0.0000 22.8496 0.0000
# 6 0.0000 0.0000 0.0000 58.5948 0.0000 109.0117
#
#
#
# Elastic Compliance Matrix: (Units=1/GPa)
#
#
# Indices 1 2 3 4 5 6 
#
# 1 0.421901 -0.020025 -0.559882 0.000000 -0.802208 0.000000
# 2 -0.020025 0.020110 0.019470 0.000000 0.037562 0.000000
# 3 -0.559882 0.019470 0.776975 0.000000 1.118468 0.000000
# 4 0.000000 0.000000 0.000000 0.037770 0.000000 -0.020302
# 5 -0.802208 0.037562 1.118468 0.000000 1.661124 0.000000
# 6 0.000000 0.000000 0.000000 -0.020302 0.000000 0.020086
#
#
# Mechanical properties :
#
#
# Convention : Reuss Voigt Hill
#
# Bulk Modulus (GPa) = 10.19259 51.58028 30.88644
# Shear Modulus (GPa) = 1.22203 45.27621 23.24912
#
# Velocity S-wave (km/s) = 0.78335 4.76815 3.41679
# Velocity P-wave (km/s) = 2.43646 7.49763 5.57453
#
# Compressibility (1/GPa) = 0.09811046
#
# Stress axis : x y z
#
# Youngs Moduli (GPa) = 2.37022 49.72577 1.28704
#
# Poissons Ratio (x) = 0.99577 0.72059
# Poissons Ratio (y) = 0.04746 -0.02506
# Poissons Ratio (z) = 1.32705 -0.96814
#
# Static dielectric constant tensor:
#      x y z
#    x 1.796350 0.000000 -0.049960 
#    y 0.000000 1.696130 0.000000 
#    z -0.049960 0.000000 1.701930 
# 
# From -- ./inp_files/49537.got.cif
#   From: 2010.05.17/outbox.ucp.g08.bks.cvg/sg10_25_cif.got.tgz:49537.got - 2010.06.11 11:31:16.
