data_PCOD9155441
_publ_section_title
;
Structure prediction by ZEFSAII (Michael W. Deem and Ramdas Pophale) SiO2 
 PCOD9155441
Probable space group: P 2/M
;
_chemical_formula_sum "Si O2"
_cell_formula_units_Z 32
_cell_length_a 12.000000
_cell_length_b 9.000000
_cell_length_c 21.000000
_cell_angle_alpha 90.000000
_cell_angle_beta 130.000000
_cell_angle_gamma 90.000000
_cell_volume 1737.388797
_symmetry_space_group_name_H-M "P 2/M"
_symmetry_group_IT_number 10
_symmetry_cell_setting 'monoclinic'
loop_
_space_group_symop_operation_xyz
x,y,z
-x,y,-z
-x,-y,-z
x,-y,z
loop_
_atom_site_type_symbol
_atom_site_label
_atom_site_fract_x
_atom_site_fract_y
_atom_site_fract_z
Si Si1 0.807884 0.827400 0.378297
Si Si2 0.479663 0.829602 0.215807
Si Si3 0.625823 0.820773 0.681536
Si Si4 0.954663 0.822325 0.761788
Si Si5 0.252003 0.679424 0.898030
Si Si6 0.489468 0.323004 0.091351
Si Si7 0.037852 0.325928 0.370728
Si Si8 0.329676 0.673365 0.548727
O O1 0.655094 0.824162 0.284634
O O2 0.756141 0.753672 0.425181
O O3 0.935044 0.739933 0.388623
O O4 0.849094 0.000000 0.402369
O O5 0.409545 0.784620 0.257409
O O6 0.441908 0.730145 0.142571
O O7 0.437055 0.000000 0.188788
O O8 0.487019 0.747553 0.594900
O O9 0.790183 0.776057 0.722594
O O10 0.614787 0.000000 0.670444
O O11 0.094461 0.752391 0.848360
O O12 0.982265 0.768103 0.700090
O O13 0.959571 0.000000 0.768418
O O14 0.233983 0.500000 0.889192
O O15 0.349079 0.728098 0.872077
O O16 0.363934 0.719044 0.995482
O O17 0.498257 0.500000 0.092743
O O18 0.000528 0.500000 0.348058
O O19 0.209763 0.317456 0.449517
O O20 0.352190 0.500000 0.572862
#
# Coordination Sequence:
#
# PCOD9155441 Si02
#       8
#     4   4   4   4   4   4   4   4
#     4  10  20  34  54  81 112 143 176 216 263 315
#     4   9  18  33  53  77 104 135 173 216 259 305
#     4   9  21  40  56  73 103 141 180 223 267 314
#     4  11  23  38  56  77 102 138 183 223 265 317
#     4   9  19  36  55  78 111 142 167 207 262 315
#     4   9  18  33  55  82 109 138 170 205 255 318
#     4  11  23  36  52  78 110 140 174 220 271 321
#     4  10  21  36  55  79 106 139 178 219 267 318
#
# _framework density 18.418444999999998
#
# number of rings (size 3 to 8) (size 9 to 14) (size 15 to 20)
#    0.000    2.250    0.000    4.125    0.000   10.500 
#    0.000    4.375    0.000    3.750    0.000    0.000 
#    0.000    0.000    0.000    0.000    0.000    0.000 
#
# Total GULP energy -178364.690400 kJ/mol
# GULP energy per Si atom -5573.896575 kJ/mol
# Density = 1.837652 g / cm^3
# Si number density = 18.418445 Si / 1000 Ang^3
#
#
#
# Elastic Constant Matrix: (Units=GPa)
#
#
# Indices 1 2 3 4 5 6 
#
# 1 81.6638 25.7900 31.9258 0.0000 41.0228 0.0000
# 2 25.7900 48.5314 26.0242 0.0000 13.8861 0.0000
# 3 31.9258 26.0242 49.4707 0.0000 14.8878 0.0000
# 4 0.0000 0.0000 0.0000 29.1858 0.0000 7.7366
# 5 41.0228 13.8861 14.8878 0.0000 26.8641 0.0000
# 6 0.0000 0.0000 0.0000 7.7366 0.0000 29.7059
#
#
#
# Elastic Compliance Matrix: (Units=1/GPa)
#
#
# Indices 1 2 3 4 5 6 
#
# 1 0.058952 -0.000885 -0.012752 0.000000 -0.082499 0.000000
# 2 -0.000885 0.030130 -0.013200 0.000000 -0.006908 0.000000
# 3 -0.012752 -0.013200 0.032973 0.000000 0.008023 0.000000
# 4 0.000000 0.000000 0.000000 0.036804 0.000000 -0.009585
# 5 -0.082499 -0.006908 0.008023 0.000000 0.162329 0.000000
# 6 0.000000 0.000000 0.000000 -0.009585 0.000000 0.036160
#
#
# Mechanical properties :
#
#
# Convention : Reuss Voigt Hill
#
# Bulk Modulus (GPa) = 14.62383 38.57178 26.59780
# Shear Modulus (GPa) = 11.52561 23.54620 17.53591
#
# Velocity S-wave (km/s) = 2.50424 3.57936 3.08893
# Velocity P-wave (km/s) = 4.03964 6.17007 5.21481
#
# Compressibility (1/GPa) = 0.06838155
#
# Stress axis : x y z
#
# Youngs Moduli (GPa) = 16.96288 33.18908 30.32771
#
# Poissons Ratio (x) = 0.02936 0.38674
# Poissons Ratio (y) = 0.01501 0.40034
# Poissons Ratio (z) = 0.21631 0.43811
#
# Static dielectric constant tensor:
#      x y z
#    x 1.603240 0.000000 -0.009430 
#    y 0.000000 1.627620 0.000000 
#    z -0.009430 0.000000 1.690020 
# 
# From -- ./inp_files/58293.got.cif
#   From: 2010.05.17/outbox.ucp.g08.bks.cvg/sg10_30_cif.got.tgz:58293.got - 2010.06.11 11:31:16.
