data_PCOD9155516
_publ_section_title
;
Structure prediction by ZEFSAII (Michael W. Deem and Ramdas Pophale) SiO2 
 PCOD9155516
Probable space group: P 2/M
;
_chemical_formula_sum "Si O2"
_cell_formula_units_Z 28
_cell_length_a 27.000000
_cell_length_b 9.000000
_cell_length_c 9.000000
_cell_angle_alpha 90.000000
_cell_angle_beta 40.000000
_cell_angle_gamma 90.000000
_cell_volume 1405.776502
_symmetry_space_group_name_H-M "P 2/M"
_symmetry_group_IT_number 10
_symmetry_cell_setting 'monoclinic'
loop_
_space_group_symop_operation_xyz
x,y,z
-x,y,-z
-x,-y,-z
x,-y,z
loop_
_atom_site_type_symbol
_atom_site_label
_atom_site_fract_x
_atom_site_fract_y
_atom_site_fract_z
Si Si1 0.573102 0.825304 0.501201
Si Si2 0.162609 0.318530 0.427410
Si Si3 0.673536 0.679564 0.500887
Si Si4 0.569926 0.668942 0.011633
Si Si5 0.672647 0.331037 0.047852
Si Si6 0.996635 0.681137 0.679258
Si Si7 0.154923 0.680229 0.787579
O O1 0.648290 0.772595 0.418228
O O2 0.498588 0.760245 0.755882
O O3 0.599481 0.754026 0.285583
O O4 0.565063 0.000000 0.506781
O O5 0.167671 0.500000 0.413523
O O6 0.079586 0.275715 0.554330
O O7 0.159915 0.269968 0.605135
O O8 0.239797 0.270002 0.160273
O O9 0.668662 0.500000 0.493923
O O10 0.761620 0.715678 0.336338
O O11 0.607143 0.721278 0.772784
O O12 0.540495 0.500000 0.064568
O O13 0.645985 0.660929 0.938780
O O14 0.673905 0.500000 0.106556
O O15 0.993788 0.500000 0.688677
O O16 0.000000 0.727635 0.500000
O O17 0.920828 0.731257 0.946256
O O18 0.149629 0.500000 0.796713
#
# Coordination Sequence:
#
# PCOD9155516 Si02
#       7
#     4   4   4   4   4   4   4
#     4  12  26  38  52  79 114 149 184 226 286 338
#     4   9  16  29  49  76 110 145 180 220 268 321
#     4  10  20  36  59  83 108 144 189 233 274 322
#     4  10  20  38  60  83 107 139 190 236 277 326
#     4  10  20  36  59  83 108 144 189 233 274 322
#     4   9  17  25  41  77 119 150 171 206 266 328
#     4   9  16  29  49  76 110 145 180 220 268 321
#
# _framework density 19.917818
#
# number of rings (size 3 to 8) (size 9 to 14) (size 15 to 20)
#    0.000    2.143    1.429    2.571    2.000    6.286 
#    0.000    0.000    0.000    0.000    0.000    2.000 
#    0.000    2.286    0.000    0.000    0.000    0.000 
#
# Total GULP energy -155938.225333 kJ/mol
# GULP energy per Si atom -5569.222333 kJ/mol
# Density = 1.987248 g / cm^3
# Si number density = 19.917818 Si / 1000 Ang^3
#
#
#
# Elastic Constant Matrix: (Units=GPa)
#
#
# Indices 1 2 3 4 5 6 
#
# 1 75.6753 2.7891 -2.1757 0.0000 -17.8952 0.0000
# 2 2.7891 15.9672 3.0014 0.0000 -12.4506 0.0000
# 3 -2.1757 3.0014 66.0237 0.0000 -40.4148 0.0000
# 4 0.0000 0.0000 0.0000 -1.3030 0.0000 -5.4891
# 5 -17.8952 -12.4506 -40.4148 0.0000 30.4325 0.0000
# 6 0.0000 0.0000 0.0000 -5.4891 0.0000 -54.2643
#
#
#
# Elastic Compliance Matrix: (Units=1/GPa)
#
#
# Indices 1 2 3 4 5 6 
#
# 1 0.003505 -0.029211 -0.024644 0.000000 -0.042617 0.000000
# 2 -0.029211 -0.009463 -0.071712 0.000000 -0.116284 0.000000
# 3 -0.024644 -0.071712 -0.049365 0.000000 -0.109388 0.000000
# 4 0.000000 0.000000 0.000000 -1.337259 0.000000 0.135269
# 5 -0.042617 -0.116284 -0.109388 0.000000 -0.185043 0.000000
# 6 0.000000 0.000000 0.000000 0.135269 0.000000 -0.032111
#
#
# Mechanical properties :
#
#
# Convention : Reuss Voigt Hill
#
# Bulk Modulus (GPa) = -3.26310 18.32176 7.52933
# Shear Modulus (GPa) = -3.42289 5.24312 0.91011
#
# Velocity S-wave (km/s) = -1.31234 1.62422 0.67670
# Velocity P-wave (km/s) = 1.98448 3.56877 2.09737
#
# Compressibility (1/GPa) = -0.30645716
#
# Stress axis : x y z
#
# Youngs Moduli (GPa) = 285.34026 -105.67925 -20.25728
#
# Poissons Ratio (x) = -3.08700 -0.49921
# Poissons Ratio (y) = 8.33508 -1.45270
# Poissons Ratio (z) = 7.03181 -7.57852
#
# Static dielectric constant tensor:
#      x y z
#    x 1.850570 0.000000 0.083390 
#    y 0.000000 1.678580 0.000000 
#    z 0.083390 0.000000 1.707150 
# 
# From -- ./inp_files/37059.got.cif
#   From: 2010.05.17/outbox.ucp.g08.bks.cvg/sg10_19_cif.got.tgz:37059.got - 2010.06.11 11:31:16.
