data_PCOD9155331
_publ_section_title
;
Structure prediction by ZEFSAII (Michael W. Deem and Ramdas Pophale) SiO2 
 PCOD9155331
Probable space group: P 2/M
;
_chemical_formula_sum "Si O2"
_cell_formula_units_Z 28
_cell_length_a 30.000000
_cell_length_b 9.000000
_cell_length_c 30.000000
_cell_angle_alpha 90.000000
_cell_angle_beta 10.000000
_cell_angle_gamma 90.000000
_cell_volume 1406.550239
_symmetry_space_group_name_H-M "P 2/M"
_symmetry_group_IT_number 10
_symmetry_cell_setting 'monoclinic'
loop_
_space_group_symop_operation_xyz
x,y,z
-x,y,-z
-x,-y,-z
x,-y,z
loop_
_atom_site_type_symbol
_atom_site_label
_atom_site_fract_x
_atom_site_fract_y
_atom_site_fract_z
Si Si1 0.571403 0.319845 0.030373
Si Si2 0.729475 0.670076 0.241308
Si Si3 0.680290 0.822030 0.478572
Si Si4 0.953232 0.681886 0.495668
Si Si5 0.290284 0.321905 0.005662
Si Si6 0.158633 0.177795 0.958868
Si Si7 0.229371 0.175709 0.510214
O O1 0.568693 0.500000 0.030120
O O2 0.313327 0.265291 0.261876
O O3 0.600361 0.284881 0.053278
O O4 0.816207 0.267176 0.762237
O O5 0.500000 0.713003 0.500000
O O6 0.680914 0.500000 0.273923
O O7 0.754031 0.779352 0.176026
O O8 0.000000 0.671955 0.000000
O O9 0.390817 0.764361 0.761025
O O10 0.809262 0.801774 0.399155
O O11 0.654696 0.000000 0.497210
O O12 0.879144 0.760386 0.246523
O O13 0.949969 0.500000 0.498488
O O14 0.000000 0.727974 0.500000
O O15 0.291361 0.500000 0.998448
O O16 0.001795 0.261155 0.286071
O O17 0.491333 0.241833 0.775436
O O18 0.138615 0.000000 0.983128
O O19 0.222606 0.000000 0.507024
#
# Coordination Sequence:
#
# PCOD9155331 Si02
#       7
#     4   4   4   4   4   4   4
#     4   9  17  28  43  66 101 140 170 212 277 329
#     4  10  21  36  52  73 105 140 169 203 253 308
#     4   9  19  35  55  78 105 136 171 220 273 314
#     4   9  15  24  40  64  96 135 176 214 261 327
#     4  11  22  37  56  82 117 150 183 229 286 337
#     4  10  19  34  56  79 101 130 172 217 262 310
#     4  11  22  39  61  83 111 150 193 231 276 336
#
# _framework density 19.906860999999999
#
# number of rings (size 3 to 8) (size 9 to 14) (size 15 to 20)
#    0.000    2.143    0.000    3.857    0.000    6.857 
#    0.000    4.286    0.000    0.000    0.000    0.000 
#    0.000   40.000    0.000    0.000    0.000    0.000 
#
# Total GULP energy -156125.044412 kJ/mol
# GULP energy per Si atom -5575.894443 kJ/mol
# Density = 1.986155 g / cm^3
# Si number density = 19.906861 Si / 1000 Ang^3
#
#
#
# Elastic Constant Matrix: (Units=GPa)
#
#
# Indices 1 2 3 4 5 6 
#
# 1 18.6272 9.0275 29.3224 0.0000 -7.3492 0.0000
# 2 9.0275 19.0600 1.8999 0.0000 0.4043 0.0000
# 3 29.3224 1.8999 81.9318 0.0000 8.9714 0.0000
# 4 0.0000 0.0000 0.0000 20.2744 0.0000 -2.7590
# 5 -7.3492 0.4043 8.9714 0.0000 33.5774 0.0000
# 6 0.0000 0.0000 0.0000 -2.7590 0.0000 7.3926
#
#
#
# Elastic Compliance Matrix: (Units=1/GPa)
#
#
# Indices 1 2 3 4 5 6 
#
# 1 1.008781 -0.446230 -0.386763 0.000000 0.329505 0.000000
# 2 -0.446230 0.249978 0.169898 0.000000 -0.146072 0.000000
# 3 -0.386763 0.169898 0.160883 0.000000 -0.129683 0.000000
# 4 0.000000 0.000000 0.000000 0.051962 0.000000 0.019393
# 5 0.329505 -0.146072 -0.129683 0.000000 0.138310 0.000000
# 6 0.000000 0.000000 0.000000 0.019393 0.000000 0.142507
#
#
# Mechanical properties :
#
#
# Convention : Reuss Voigt Hill
#
# Bulk Modulus (GPa) = 10.70053 22.23538 16.46796
# Shear Modulus (GPa) = 1.60784 17.54018 9.57401
#
# Velocity S-wave (km/s) = 0.89969 2.97157 2.19541
# Velocity P-wave (km/s) = 2.54288 4.79245 3.83626
#
# Compressibility (1/GPa) = 0.09345331
#
# Stress axis : x y z
#
# Youngs Moduli (GPa) = 0.99130 4.00035 6.21568
#
# Poissons Ratio (x) = 1.78507 2.40400
# Poissons Ratio (y) = 0.44235 -1.05603
# Poissons Ratio (z) = 0.38340 -0.67965
#
# Static dielectric constant tensor:
#      x y z
#    x 1.738630 0.000000 -0.008350 
#    y 0.000000 1.670750 0.000000 
#    z -0.008350 0.000000 1.718870 
# 
# From -- ./inp_files/13546.got.cif
#   From: 2010.05.17/outbox.ucp.g08.bks.cvg/sg10_7_cif.got.tgz:13546.got - 2010.06.11 11:31:16.
