data_PCOD9155723
_publ_section_title
;
Structure prediction by ZEFSAII (Michael W. Deem and Ramdas Pophale) SiO2 
 PCOD9155723
Probable space group: P 21/M
;
_chemical_formula_sum "Si O2"
_cell_formula_units_Z 16
_cell_length_a 9.477226
_cell_length_b 19.916517
_cell_length_c 6.656811
_cell_angle_alpha 90.000000
_cell_angle_beta 35.148300
_cell_angle_gamma 90.000000
_cell_volume 723.357717
_symmetry_space_group_name_H-M "P 21/M"
_symmetry_group_IT_number 11
_symmetry_cell_setting 'monoclinic'
loop_
_space_group_symop_operation_xyz
x,y,z
-x,1/2+y,-z
-x,-y,-z
x,1/2-y,z
loop_
_atom_site_type_symbol
_atom_site_label
_atom_site_fract_x
_atom_site_fract_y
_atom_site_fract_z
Si Si1 0.030251 0.823430 0.839751
Si Si2 0.530249 0.323430 0.339754
Si Si3 0.442622 0.527203 0.795849
Si Si4 0.057378 0.972797 0.704151
O O1 0.058077 0.750000 0.707146
O O2 0.750002 0.824833 0.249999
O O3 0.250002 0.826899 0.749996
O O4 0.051598 0.892430 0.695865
O O5 0.558076 0.250000 0.207147
O O6 0.551598 0.392430 0.195865
O O7 0.500000 0.500000 0.500000
O O8 0.669165 0.496797 0.649965
O O9 0.169165 0.503203 0.149965
O O10 0.000000 0.000000 0.000000
#
# Coordination Sequence:
#
# PCOD9155723 Si02
#       4
#     4   4   4   4
#     4  10  16  20  24  30  36  40  44  50  56  60
#     4  10  16  20  24  30  36  40  44  50  56  60
#     4  10  14  20  26  30  34  40  46  50  54  60
#     4  10  14  20  26  30  34  40  46  50  54  60
#
# _framework density 22.119071999999999
#
# number of rings (size 3 to 8) (size 9 to 14) (size 15 to 20)
#    0.000    2.000   10.000    0.000    0.000    0.000 
#    0.000    0.000    0.000    0.000    0.000    0.000 
#    0.000    0.000    0.000    0.000    0.000    0.000 
#
# Total GULP energy -89169.313700 kJ/mol
# GULP energy per Si atom -5573.082106 kJ/mol
# Density = 2.206873 g / cm^3
# Si number density = 22.119072 Si / 1000 Ang^3
#
#
#
# Elastic Constant Matrix: (Units=GPa)
#
#
# Indices 1 2 3 4 5 6 
#
# 1 79.0160 20.7027 53.7865 0.0000 -38.2207 0.0000
# 2 20.7027 292.3836 64.3806 0.0000 -32.4174 0.0000
# 3 53.7865 64.3806 204.8568 0.0000 -51.1958 0.0000
# 4 0.0000 0.0000 0.0000 32.9693 0.0000 -31.2643
# 5 -38.2207 -32.4174 -51.1958 0.0000 50.6732 0.0000
# 6 0.0000 0.0000 0.0000 -31.2643 0.0000 1.9753
#
#
#
# Elastic Compliance Matrix: (Units=1/GPa)
#
#
# Indices 1 2 3 4 5 6 
#
# 1 0.020616 0.000535 -0.002153 0.000000 0.013717 0.000000
# 2 0.000535 0.003786 -0.000835 0.000000 0.001982 0.000000
# 3 -0.002153 -0.000835 0.006916 0.000000 0.004829 0.000000
# 4 0.000000 0.000000 0.000000 -0.002165 0.000000 -0.034269
# 5 0.013717 0.001982 0.004829 0.000000 0.036227 0.000000
# 6 0.000000 0.000000 0.000000 -0.034269 0.000000 -0.036137
#
#
# Mechanical properties :
#
#
# Convention : Reuss Voigt Hill
#
# Bulk Modulus (GPa) = 37.86120 94.88842 66.37481
# Shear Modulus (GPa) = 116.40707 46.28268 81.34487
#
# Velocity S-wave (km/s) = 7.26235 4.57927 6.07089
# Velocity P-wave (km/s) = 9.35288 8.42328 8.90023
#
# Compressibility (1/GPa) = 0.02641227
#
# Stress axis : x y z
#
# Youngs Moduli (GPa) = 48.50584 264.13948 144.59131
#
# Poissons Ratio (x) = -0.14136 0.31131
# Poissons Ratio (y) = -0.02596 0.12073
# Poissons Ratio (z) = 0.10444 0.22055
#
# Static dielectric constant tensor:
#      x y z
#    x 1.816660 0.000000 0.028610 
#    y 0.000000 1.789620 0.000000 
#    z 0.028610 0.000000 1.813130 
# 
# From -- ./inp_files/18469.got.cif
#   From: 2010.05.17/outbox.cif.g08.bks.cpg/sg11_10_cif.got.tgz:18469.got - 2010.06.03 12:22:45.
