data_PCOD9155120
_publ_section_title
;
Structure prediction by ZEFSAII (Michael W. Deem and Ramdas Pophale) SiO2 
 PCOD9155120
Probable space group: P 2/M
;
_chemical_formula_sum "Si O2"
_cell_formula_units_Z 32
_cell_length_a 18.000000
_cell_length_b 9.000000
_cell_length_c 30.000000
_cell_angle_alpha 90.000000
_cell_angle_beta 20.000000
_cell_angle_gamma 90.000000
_cell_volume 1662.217897
_symmetry_space_group_name_H-M "P 2/M"
_symmetry_group_IT_number 10
_symmetry_cell_setting 'monoclinic'
loop_
_space_group_symop_operation_xyz
x,y,z
-x,y,-z
-x,-y,-z
x,-y,z
loop_
_atom_site_type_symbol
_atom_site_label
_atom_site_fract_x
_atom_site_fract_y
_atom_site_fract_z
Si Si1 0.551363 0.826347 0.324130
Si Si2 0.404631 0.160526 0.004538
Si Si3 0.118270 0.323219 0.594490
Si Si4 0.255929 0.667824 0.864461
Si Si5 0.111084 0.169082 0.693293
Si Si6 0.894204 0.820561 0.207494
Si Si7 0.666303 0.677999 0.075960
Si Si8 0.300847 0.672945 0.222092
O O1 0.337576 0.728965 0.448232
O O2 0.650127 0.791454 0.220656
O O3 0.726870 0.781222 0.262771
O O4 0.502853 0.000000 0.357788
O O5 0.508462 0.298591 0.921091
O O6 0.467148 0.000000 0.948173
O O7 0.500000 0.160771 0.000000
O O8 0.147601 0.164434 0.152503
O O9 0.097578 0.500000 0.608530
O O10 0.135492 0.260865 0.634808
O O11 0.913326 0.263214 0.681052
O O12 0.339739 0.500000 0.807089
O O13 0.302987 0.701354 0.889116
O O14 0.000000 0.663773 0.000000
O O15 0.196141 0.226297 0.692976
O O16 0.190836 0.000000 0.640867
O O17 0.913808 0.000000 0.197902
O O18 0.130689 0.754120 0.063278
O O19 0.679016 0.500000 0.060597
O O20 0.428057 0.731158 0.193892
O O21 0.255145 0.500000 0.255677
#
# Coordination Sequence:
#
# PCOD9155120 Si02
#       8
#     4   4   4   4   4   4   4   4
#     4  11  24  41  61  84 113 150 192 236 284 340
#     4  10  18  29  50  79 110 147 188 231 277 326
#     4  11  24  40  57  79 113 158 201 235 275 331
#     4  10  20  37  63  92 117 144 180 229 288 345
#     4  10  20  35  55  82 116 152 191 233 283 334
#     4  10  21  36  57  86 117 148 185 233 285 338
#     4  10  20  35  58  89 120 146 179 230 289 340
#     4  10  21  35  54  82 115 151 190 233 279 330
#
# _framework density 19.251387000000001
#
# number of rings (size 3 to 8) (size 9 to 14) (size 15 to 20)
#    0.000    1.750    3.750    0.750    0.000    3.500 
#    0.000    3.125    0.000    3.750    0.000    0.000 
#    0.000    0.000    0.000    0.000    0.000    0.000 
#
# Total GULP energy -178314.829951 kJ/mol
# GULP energy per Si atom -5572.338436 kJ/mol
# Density = 1.920757 g / cm^3
# Si number density = 19.251387 Si / 1000 Ang^3
#
#
#
# Elastic Constant Matrix: (Units=GPa)
#
#
# Indices 1 2 3 4 5 6 
#
# 1 75.5677 21.4448 -3.9620 0.0000 26.6747 0.0000
# 2 21.4448 13.2204 8.0442 0.0000 3.2204 0.0000
# 3 -3.9620 8.0442 28.5496 0.0000 15.8174 0.0000
# 4 0.0000 0.0000 0.0000 29.9396 0.0000 7.2353
# 5 26.6747 3.2204 15.8174 0.0000 -6.7451 0.0000
# 6 0.0000 0.0000 0.0000 7.2353 0.0000 33.3554
#
#
#
# Elastic Compliance Matrix: (Units=1/GPa)
#
#
# Indices 1 2 3 4 5 6 
#
# 1 0.010914 -0.020007 -0.004988 0.000000 0.021912 0.000000
# 2 -0.020007 0.127151 -0.012353 0.000000 -0.047380 0.000000
# 3 -0.004988 -0.012353 0.022622 0.000000 0.027423 0.000000
# 4 0.000000 0.000000 0.000000 0.035248 0.000000 -0.007646
# 5 0.021912 -0.047380 0.027423 0.000000 -0.019913 0.000000
# 6 0.000000 0.000000 0.000000 -0.007646 0.000000 0.031639
#
#
# Mechanical properties :
#
#
# Convention : Reuss Voigt Hill
#
# Bulk Modulus (GPa) = 11.62906 18.71018 15.16962
# Shear Modulus (GPa) = 16.07610 17.43070 16.75340
#
# Velocity S-wave (km/s) = 2.89288 3.01229 2.95319
# Velocity P-wave (km/s) = 4.14874 4.67317 4.41874
#
# Compressibility (1/GPa) = 0.08599150
#
# Stress axis : x y z
#
# Youngs Moduli (GPa) = 91.62321 7.86466 44.20515
#
# Poissons Ratio (x) = 0.15734 0.22052
# Poissons Ratio (y) = 1.83306 0.54606
# Poissons Ratio (z) = 0.45706 0.09715
#
# Static dielectric constant tensor:
#      x y z
#    x 1.733100 0.000000 -0.012400 
#    y 0.000000 1.695890 0.000000 
#    z -0.012400 0.000000 1.658190 
# 
# From -- ./inp_files/95478.got.cif
#   From: 2010.05.17/outbox.ucp.g08.bks.cvg/sg10_48_cif.got.tgz:95478.got - 2010.06.11 11:31:16.
