data_PCOD9155936
_publ_section_title
;
Structure prediction by ZEFSAII (Michael W. Deem and Ramdas Pophale) SiO2 
 PCOD9155936
Probable space group: P 21/M
;
_chemical_formula_sum "Si O2"
_cell_formula_units_Z 32
_cell_length_a 15.107001
_cell_length_b 8.179788
_cell_length_c 24.390913
_cell_angle_alpha 90.000000
_cell_angle_beta 151.475762
_cell_angle_gamma 90.000000
_cell_volume 1439.293837
_symmetry_space_group_name_H-M "P 21/M"
_symmetry_group_IT_number 11
_symmetry_cell_setting 'monoclinic'
loop_
_space_group_symop_operation_xyz
x,y,z
-x,1/2+y,-z
-x,-y,-z
x,1/2-y,z
loop_
_atom_site_type_symbol
_atom_site_label
_atom_site_fract_x
_atom_site_fract_y
_atom_site_fract_z
Si Si1 0.217971 0.549968 0.698587
Si Si2 0.083723 0.052175 0.945778
Si Si3 0.706546 0.945437 0.773787
Si Si4 0.463899 0.055302 0.542571
Si Si5 0.526865 0.949753 0.787497
Si Si6 0.932268 0.945785 0.631963
Si Si7 0.499553 0.569377 0.940314
Si Si8 0.930128 0.934187 0.177729
O O1 0.205725 0.750000 0.688086
O O2 0.324075 0.498377 0.700309
O O3 0.031178 0.495652 0.629251
O O4 0.374213 0.488821 0.826861
O O5 0.089171 0.250000 0.944110
O O6 0.010044 0.983244 0.846575
O O7 0.288786 0.999051 0.077280
O O8 0.916192 0.007252 0.894778
O O9 0.709299 0.750000 0.776102
O O10 0.573802 0.001010 0.751372
O O11 0.621987 0.006877 0.670954
O O12 0.449332 0.250000 0.532623
O O13 0.271429 0.989312 0.463893
O O14 0.500000 0.000000 0.500000
O O15 0.527194 0.750000 0.790652
O O16 0.923008 0.750000 0.622186
O O17 0.045841 0.984451 0.749999
O O18 0.418862 0.750000 0.899791
O O19 0.714185 0.579215 0.044419
O O20 0.500000 0.500000 0.000000
O O21 0.008597 0.750000 0.225553
#
# Coordination Sequence:
#
# PCOD9155936 Si02
#       8
#     4   4   4   4   4   4   4   4
#     4   9  16  31  53  78 110 146 183 222 267 326
#     4  10  19  34  56  82 113 151 189 228 275 329
#     4  11  23  38  58  84 111 145 189 234 278 328
#     4  11  24  43  64  86 111 142 182 231 283 332
#     4   9  18  34  57  83 113 149 188 225 271 334
#     4  10  21  35  56  82 108 142 186 232 276 323
#     4  10  17  27  46  72 107 147 181 214 261 321
#     4  10  19  29  48  80 113 145 179 217 268 329
#
# _framework density 22.233125000000001
#
# number of rings (size 3 to 8) (size 9 to 14) (size 15 to 20)
#    0.000    2.000    2.500    1.875    0.000    3.500 
#    0.000    1.250    0.000    3.750    0.000    0.000 
#    0.000    0.000    0.000    0.000    0.000    0.000 
#
# Total GULP energy -178168.016204 kJ/mol
# GULP energy per Si atom -5567.750506 kJ/mol
# Density = 2.218252 g / cm^3
# Si number density = 22.233125 Si / 1000 Ang^3
#
#
#
# Elastic Constant Matrix: (Units=GPa)
#
#
# Indices 1 2 3 4 5 6 
#
# 1 187.4375 15.7043 41.7967 0.0000 16.7161 0.0000
# 2 15.7043 9.3052 1.0134 0.0000 4.2619 0.0000
# 3 41.7967 1.0134 55.2604 0.0000 14.6538 0.0000
# 4 0.0000 0.0000 0.0000 13.5198 0.0000 2.7682
# 5 16.7161 4.2619 14.6538 0.0000 38.7475 0.0000
# 6 0.0000 0.0000 0.0000 2.7682 0.0000 21.2293
#
#
#
# Elastic Compliance Matrix: (Units=1/GPa)
#
#
# Indices 1 2 3 4 5 6 
#
# 1 0.007589 -0.012284 -0.005562 0.000000 0.000181 0.000000
# 2 -0.012284 0.133146 0.010368 0.000000 -0.013266 0.000000
# 3 -0.005562 0.010368 0.024207 0.000000 -0.007895 0.000000
# 4 0.000000 0.000000 0.000000 0.075994 0.000000 -0.009909
# 5 0.000181 -0.013266 -0.007895 0.000000 0.030175 0.000000
# 6 0.000000 0.000000 0.000000 -0.009909 0.000000 0.048397
#
#
# Mechanical properties :
#
#
# Convention : Reuss Voigt Hill
#
# Bulk Modulus (GPa) = 6.66741 41.00355 23.83548
# Shear Modulus (GPa) = 13.00524 27.59856 20.30190
#
# Velocity S-wave (km/s) = 2.42120 3.52707 3.02509
# Velocity P-wave (km/s) = 3.28962 5.92195 4.79015
#
# Compressibility (1/GPa) = 0.14998321
#
# Stress axis : x y z
#
# Youngs Moduli (GPa) = 131.77730 7.51056 41.31052
#
# Poissons Ratio (x) = 0.09226 0.22979
# Poissons Ratio (y) = 1.61879 -0.42829
# Poissons Ratio (z) = 0.73300 -0.07787
#
# Static dielectric constant tensor:
#      x y z
#    x 1.952010 0.000000 0.099430 
#    y 0.000000 1.811240 0.000000 
#    z 0.099430 0.000000 1.643980 
# 
# From -- ./inp_files/69171.got.cif
#   From: 2010.05.17/outbox.cif.g08.bks.cpg/sg11_35_cif.got.tgz:69171.got - 2010.06.03 12:22:45.
