data_PCOD9155878
_publ_section_title
;
Structure prediction by ZEFSAII (Michael W. Deem and Ramdas Pophale) SiO2 
 PCOD9155878
Probable space group: P 21/M
;
_chemical_formula_sum "Si O2"
_cell_formula_units_Z 32
_cell_length_a 13.868003
_cell_length_b 8.757646
_cell_length_c 24.739185
_cell_angle_alpha 90.000000
_cell_angle_beta 134.815230
_cell_angle_gamma 90.000000
_cell_volume 2131.413583
_symmetry_space_group_name_H-M "P 21/M"
_symmetry_group_IT_number 11
_symmetry_cell_setting 'monoclinic'
loop_
_space_group_symop_operation_xyz
x,y,z
-x,1/2+y,-z
-x,-y,-z
x,1/2-y,z
loop_
_atom_site_type_symbol
_atom_site_label
_atom_site_fract_x
_atom_site_fract_y
_atom_site_fract_z
Si Si1 0.225014 0.564061 0.444379
Si Si2 0.572299 0.427789 0.319679
Si Si3 0.089756 0.432878 0.164256
Si Si4 0.864045 0.064832 0.471996
Si Si5 0.478738 0.428708 0.407696
Si Si6 0.889015 0.066250 0.997379
Si Si7 0.187822 0.568675 0.312280
Si Si8 0.312820 0.567753 0.169325
O O1 0.228113 0.750000 0.446456
O O2 0.156308 0.516005 0.473412
O O3 0.383887 0.517221 0.508442
O O4 0.156484 0.516614 0.361214
O O5 0.573119 0.250000 0.304149
O O6 0.727744 0.482871 0.385693
O O7 0.515500 0.434820 0.358641
O O8 0.465748 0.515827 0.240681
O O9 0.100820 0.250000 0.168531
O O10 0.106654 0.492179 0.231455
O O11 0.212805 0.496388 0.175417
O O12 0.947846 0.479409 0.079060
O O13 0.866376 0.250000 0.472369
O O14 0.000000 0.000000 0.500000
O O15 0.452628 0.250000 0.410713
O O16 0.346031 0.526735 0.365971
O O17 0.894092 0.250000 0.998188
O O18 0.746978 0.021623 0.913257
O O19 0.000000 0.000000 0.000000
O O20 0.170206 0.750000 0.302011
O O21 0.303488 0.750000 0.170783
#
# Coordination Sequence:
#
# PCOD9155878 Si02
#       8
#     4   4   4   4   4   4   4   4
#     4   8  17  31  44  59  82 111 138 170 214 253
#     4   9  17  28  43  62  86 114 139 167 213 259
#     4  10  18  28  39  53  81 119 148 171 211 251
#     4   9  18  34  51  65  84 110 138 171 213 258
#     4   9  16  28  42  55  79 114 143 167 205 249
#     4   8  16  27  38  53  76 109 144 177 209 243
#     4  11  19  26  39  60  84 110 145 181 204 234
#     4  10  17  26  41  61  82 105 144 186 209 238
#
# _framework density 15.013510999999999
#
# number of rings (size 3 to 8) (size 9 to 14) (size 15 to 20)
#    0.000    2.750    1.250    3.000    0.000    1.500 
#    0.000    3.750    0.000    0.000    0.000    0.000 
#    0.000    1.000    0.000    2.250    0.000    4.000 
#
# Total GULP energy -178142.541190 kJ/mol
# GULP energy per Si atom -5566.954412 kJ/mol
# Density = 1.497934 g / cm^3
# Si number density = 15.013511 Si / 1000 Ang^3
#
#
#
# Elastic Constant Matrix: (Units=GPa)
#
#
# Indices 1 2 3 4 5 6 
#
# 1 46.3083 13.3837 51.3492 0.0000 1.0513 0.0000
# 2 13.3837 24.5023 35.7953 0.0000 -1.6190 0.0000
# 3 51.3492 35.7953 163.2225 0.0000 -14.1932 0.0000
# 4 0.0000 0.0000 0.0000 17.4756 0.0000 2.0538
# 5 1.0513 -1.6190 -14.1932 0.0000 17.7844 0.0000
# 6 0.0000 0.0000 0.0000 2.0538 0.0000 14.5532
#
#
#
# Elastic Compliance Matrix: (Units=1/GPa)
#
#
# Indices 1 2 3 4 5 6 
#
# 1 0.035517 -0.003494 -0.011409 0.000000 -0.011523 0.000000
# 2 -0.003494 0.060886 -0.012630 0.000000 -0.004330 0.000000
# 3 -0.011409 -0.012630 0.013372 0.000000 0.010197 0.000000
# 4 0.000000 0.000000 0.000000 0.058188 0.000000 -0.008211
# 5 -0.011523 -0.004330 0.010197 0.000000 0.064654 0.000000
# 6 0.000000 0.000000 0.000000 -0.008211 0.000000 0.069872
#
#
# Mechanical properties :
#
#
# Convention : Reuss Voigt Hill
#
# Bulk Modulus (GPa) = 18.27848 48.34328 33.31088
# Shear Modulus (GPa) = 13.30526 18.86295 16.08410
#
# Velocity S-wave (km/s) = 2.98017 3.54842 3.27664
# Velocity P-wave (km/s) = 4.90337 7.00415 6.04571
#
# Compressibility (1/GPa) = 0.05470916
#
# Stress axis : x y z
#
# Youngs Moduli (GPa) = 28.15546 16.42423 74.78085
#
# Poissons Ratio (x) = 0.05738 0.85320
# Poissons Ratio (y) = 0.09837 0.94447
# Poissons Ratio (z) = 0.32124 0.20744
#
# Static dielectric constant tensor:
#      x y z
#    x 1.465700 0.000000 -0.020890 
#    y 0.000000 1.509590 0.000000 
#    z -0.020890 0.000000 1.554220 
# 
# From -- ./inp_files/71520.got.cif
#   From: 2010.05.17/outbox.cif.g08.bks.cpg/sg11_36_cif.got.tgz:71520.got - 2010.06.03 12:22:45.
