data_PCOD9155292
_publ_section_title
;
Structure prediction by ZEFSAII (Michael W. Deem and Ramdas Pophale) SiO2 
 PCOD9155292
Probable space group: P 2/M
;
_chemical_formula_sum "Si O2"
_cell_formula_units_Z 28
_cell_length_a 27.000000
_cell_length_b 9.000000
_cell_length_c 9.000000
_cell_angle_alpha 90.000000
_cell_angle_beta 40.000000
_cell_angle_gamma 90.000000
_cell_volume 1405.776502
_symmetry_space_group_name_H-M "P 2/M"
_symmetry_group_IT_number 10
_symmetry_cell_setting 'monoclinic'
loop_
_space_group_symop_operation_xyz
x,y,z
-x,y,-z
-x,-y,-z
x,-y,z
loop_
_atom_site_type_symbol
_atom_site_label
_atom_site_fract_x
_atom_site_fract_y
_atom_site_fract_z
Si Si1 0.849526 0.334945 0.700417
Si Si2 0.576636 0.675554 0.902302
Si Si3 0.557199 0.166468 0.249457
Si Si4 0.138779 0.666348 0.964824
Si Si5 0.710278 0.826805 0.419165
Si Si6 0.993214 0.165651 0.334501
Si Si7 0.288319 0.163072 0.927284
O O1 0.867785 0.500000 0.609068
O O2 0.907788 0.218083 0.498746
O O3 0.856198 0.331324 0.865744
O O4 0.763722 0.283176 0.872625
O O5 0.577359 0.500000 0.889083
O O6 0.652071 0.738157 0.652798
O O7 0.500000 0.735593 0.000000
O O8 0.570271 0.729853 0.082759
O O9 0.500000 0.233639 0.500000
O O10 0.635713 0.148240 0.155664
O O11 0.528812 0.000000 0.270757
O O12 0.154611 0.500000 0.878772
O O13 0.202258 0.777205 0.758040
O O14 0.053491 0.720396 0.128671
O O15 0.693966 0.794775 0.282846
O O16 0.700233 0.000000 0.468308
O O17 0.000000 0.168856 0.500000
O O18 0.010643 0.000000 0.246110
O O19 0.248130 0.000000 0.010908
#
# Coordination Sequence:
#
# PCOD9155292 Si02
#       7
#     4   4   4   4   4   4   4
#     4   9  16  25  40  64  96 134 171 209 257 307
#     4  11  24  39  55  78 107 137 170 210 257 308
#     4  10  21  38  59  81 104 133 171 213 257 307
#     4   9  16  26  41  65  99 134 169 211 258 306
#     4  10  19  33  54  77 103 137 175 214 258 307
#     4   9  15  23  37  60  93 132 173 214 255 300
#     4   9  18  32  51  76 104 134 171 215 260 307
#
# _framework density 19.917818
#
# number of rings (size 3 to 8) (size 9 to 14) (size 15 to 20)
#    0.000    2.429    0.000    3.000    0.000    8.857 
#    0.000    0.000    0.000    0.000    0.000    1.000 
#    0.000    8.000    0.000    0.000    0.000    0.000 
#
# Total GULP energy -155912.811393 kJ/mol
# GULP energy per Si atom -5568.314693 kJ/mol
# Density = 1.987248 g / cm^3
# Si number density = 19.917818 Si / 1000 Ang^3
#
#
#
# Elastic Constant Matrix: (Units=GPa)
#
#
# Indices 1 2 3 4 5 6 
#
# 1 21.3178 30.0380 42.6873 0.0000 -12.4898 0.0000
# 2 30.0380 12.2975 23.8529 0.0000 -6.8956 0.0000
# 3 42.6873 23.8529 64.5765 0.0000 -15.6106 0.0000
# 4 0.0000 0.0000 0.0000 74.5632 0.0000 -20.1550
# 5 -12.4898 -6.8956 -15.6106 0.0000 -5.5402 0.0000
# 6 0.0000 0.0000 0.0000 -20.1550 0.0000 19.2519
#
#
#
# Elastic Compliance Matrix: (Units=1/GPa)
#
#
# Indices 1 2 3 4 5 6 
#
# 1 -0.015460 0.062004 -0.013630 0.000000 -0.003916 0.000000
# 2 0.062004 0.027279 -0.055356 0.000000 -0.017759 0.000000
# 3 -0.013630 -0.055356 0.041059 0.000000 -0.016065 0.000000
# 4 0.000000 0.000000 0.000000 0.018705 0.000000 0.019582
# 5 -0.003916 -0.017759 -0.016065 0.000000 -0.104301 0.000000
# 6 0.000000 0.000000 0.000000 0.019582 0.000000 0.072444
#
#
# Mechanical properties :
#
#
# Convention : Reuss Voigt Hill
#
# Bulk Modulus (GPa) = 25.69748 32.37204 29.03476
# Shear Modulus (GPa) = 75.00819 17.76255 46.38537
#
# Velocity S-wave (km/s) = 6.14334 2.98953 4.83104
# Velocity P-wave (km/s) = 7.95302 5.31079 6.76221
#
# Compressibility (1/GPa) = 0.03891431
#
# Stress axis : x y z
#
# Youngs Moduli (GPa) = -64.68256 36.65869 24.35538
#
# Poissons Ratio (x) = -2.27299 0.33196
# Poissons Ratio (y) = 4.01058 1.34821
# Poissons Ratio (z) = -0.88160 2.02927
#
# Static dielectric constant tensor:
#      x y z
#    x 1.697840 0.000000 -0.016370 
#    y 0.000000 1.694540 0.000000 
#    z -0.016370 0.000000 1.616420 
# 
# From -- ./inp_files/37086.got.cif
#   From: 2010.05.17/outbox.ucp.g08.bks.cvg/sg10_19_cif.got.tgz:37086.got - 2010.06.11 11:31:16.
