data_PCOD9155781
_publ_section_title
;
Structure prediction by ZEFSAII (Michael W. Deem and Ramdas Pophale) SiO2 
 PCOD9155781
Probable space group: P 21/M
;
_chemical_formula_sum "Si O2"
_cell_formula_units_Z 30
_cell_length_a 18.488787
_cell_length_b 12.006885
_cell_length_c 6.653315
_cell_angle_alpha 90.000000
_cell_angle_beta 129.504023
_cell_angle_gamma 90.000000
_cell_volume 1139.613991
_symmetry_space_group_name_H-M "P 21/M"
_symmetry_group_IT_number 11
_symmetry_cell_setting 'monoclinic'
loop_
_space_group_symop_operation_xyz
x,y,z
-x,1/2+y,-z
-x,-y,-z
x,1/2-y,z
loop_
_atom_site_type_symbol
_atom_site_label
_atom_site_fract_x
_atom_site_fract_y
_atom_site_fract_z
Si Si1 0.530575 0.866118 0.512830
Si Si2 0.531895 0.375941 0.130798
Si Si3 0.339543 0.547658 0.135834
Si Si4 0.794844 0.876928 0.267868
Si Si5 0.006600 0.041517 0.282101
Si Si6 0.741222 0.419775 0.610345
Si Si7 0.109634 0.750000 0.084325
Si Si8 0.144786 0.376433 0.096561
O O1 0.575723 0.750000 0.542581
O O2 0.507027 0.868872 0.708167
O O3 0.429786 0.881587 0.227481
O O4 0.605991 0.961019 0.620049
O O5 0.505453 0.250000 0.006165
O O6 0.644408 0.383923 0.341442
O O7 0.500000 0.500000 0.000000
O O8 0.271556 0.610482 0.170519
O O9 0.285099 0.472262 0.880666
O O10 0.765302 0.750000 0.268356
O O11 0.885834 0.919808 0.547405
O O12 0.826840 0.872276 0.089907
O O13 0.945803 0.151098 0.135768
O O14 0.000000 0.000000 0.500000
O O15 0.955447 0.939747 0.073819
O O16 0.826937 0.346347 0.688123
O O17 0.773067 0.547810 0.665121
O O18 0.136294 0.250000 0.151518
#
# Coordination Sequence:
#
# PCOD9155781 Si02
#       8
#     4   4   4   4   4   4   2   4
#     4   9  18  33  48  65  94 128 166 203 242 296
#     4  10  20  35  53  73  96 124 161 210 261 300
#     4   9  17  28  44  68  90 125 163 193 231 285
#     4   9  14  23  35  56  86 120 158 190 220 268
#     4   9  16  23  34  56  86 126 161 191 224 268
#     4   9  17  29  48  68  91 130 166 192 237 296
#     4  10  16  28  44  60  94 134 166 200 228 292
#     4   8  15  24  35  56  87 118 154 192 220 269
#
# _framework density 26.324705999999999
#
# number of rings (size 3 to 8) (size 9 to 14) (size 15 to 20)
#    0.000    2.933    1.333    1.200    1.867    1.067 
#    0.000    7.333    0.000    0.000    0.000    0.000 
#    0.000    4.267    4.533    0.400    0.000    0.133 
#
# Total GULP energy -167115.983560 kJ/mol
# GULP energy per Si atom -5570.532785 kJ/mol
# Density = 2.626479 g / cm^3
# Si number density = 26.324706 Si / 1000 Ang^3
#
#
#
# Elastic Constant Matrix: (Units=GPa)
#
#
# Indices 1 2 3 4 5 6 
#
# 1 73.9471 11.1816 5.2545 0.0000 1.8821 0.0000
# 2 11.1816 218.0912 42.8583 0.0000 -1.6213 0.0000
# 3 5.2545 42.8583 137.9079 0.0000 0.0418 0.0000
# 4 0.0000 0.0000 0.0000 18.4711 0.0000 -3.6551
# 5 1.8821 -1.6213 0.0418 0.0000 36.9340 0.0000
# 6 0.0000 0.0000 0.0000 -3.6551 0.0000 20.2497
#
#
#
# Elastic Compliance Matrix: (Units=1/GPa)
#
#
# Indices 1 2 3 4 5 6 
#
# 1 0.013662 -0.000643 -0.000321 0.000000 -0.000724 0.000000
# 2 -0.000643 0.004915 -0.001503 0.000000 0.000250 0.000000
# 3 -0.000321 -0.001503 0.007731 0.000000 -0.000058 0.000000
# 4 0.000000 0.000000 0.000000 0.056144 0.000000 0.010134
# 5 -0.000724 0.000250 -0.000058 0.000000 0.027123 0.000000
# 6 0.000000 0.000000 0.000000 0.010134 0.000000 0.051213
#
#
# Mechanical properties :
#
#
# Convention : Reuss Voigt Hill
#
# Bulk Modulus (GPa) = 46.78462 60.94835 53.86648
# Shear Modulus (GPa) = 28.92754 39.84107 34.38430
#
# Velocity S-wave (km/s) = 3.31852 3.89453 3.61801
# Velocity P-wave (km/s) = 5.70037 6.58983 6.16117
#
# Compressibility (1/GPa) = 0.02137455
#
# Stress axis : x y z
#
# Youngs Moduli (GPa) = 73.19795 203.44002 129.35605
#
# Poissons Ratio (x) = 0.13078 0.04146
# Poissons Ratio (y) = 0.04705 0.19445
# Poissons Ratio (z) = 0.02346 0.30581
#
# Static dielectric constant tensor:
#      x y z
#    x 2.194080 0.000000 -0.039260 
#    y 0.000000 2.162780 0.000000 
#    z -0.039260 0.000000 2.090430 
# 
# From -- ./inp_files/45412.got.cif
#   From: 2010.05.17/outbox.cif.g08.bks.cpg/sg11_23_cif.got.tgz:45412.got - 2010.06.03 12:22:45.
