data_PCOD9155158
_publ_section_title
;
Structure prediction by ZEFSAII (Michael W. Deem and Ramdas Pophale) SiO2 
 PCOD9155158
Probable space group: P 2/M
;
_chemical_formula_sum "Si O2"
_cell_formula_units_Z 32
_cell_length_a 12.000000
_cell_length_b 9.000000
_cell_length_c 30.000000
_cell_angle_alpha 90.000000
_cell_angle_beta 150.000000
_cell_angle_gamma 90.000000
_cell_volume 1620.000000
_symmetry_space_group_name_H-M "P 2/M"
_symmetry_group_IT_number 10
_symmetry_cell_setting 'monoclinic'
loop_
_space_group_symop_operation_xyz
x,y,z
-x,y,-z
-x,-y,-z
x,-y,z
loop_
_atom_site_type_symbol
_atom_site_label
_atom_site_fract_x
_atom_site_fract_y
_atom_site_fract_z
Si Si1 0.455299 0.327633 0.815550
Si Si2 0.972127 0.677805 0.386495
Si Si3 0.751035 0.175604 0.850585
Si Si4 0.897601 0.324512 0.084420
Si Si5 0.436228 0.318965 0.576983
Si Si6 0.586754 0.672736 0.093711
Si Si7 0.072093 0.676881 0.241715
Si Si8 0.624145 0.323251 0.340663
O O1 0.476319 0.500000 0.807792
O O2 0.215991 0.270743 0.713760
O O3 0.657036 0.237158 0.864353
O O4 0.457505 0.325947 0.869040
O O5 0.989744 0.500000 0.385701
O O6 0.855196 0.700583 0.394181
O O7 0.226019 0.735135 0.474862
O O8 0.563508 0.233487 0.750827
O O9 0.983415 0.243283 0.914831
O O10 0.762402 0.000000 0.854608
O O11 0.879644 0.500000 0.068405
O O12 0.054477 0.309542 0.182124
O O13 0.645780 0.269849 0.007408
O O14 0.442423 0.500000 0.575454
O O15 0.690902 0.265241 0.658140
O O16 0.375816 0.285301 0.607461
O O17 0.608550 0.500000 0.085821
O O18 0.832813 0.740972 0.173527
O O19 0.070746 0.500000 0.252285
O O20 0.573607 0.500000 0.319910
#
# Coordination Sequence:
#
# PCOD9155158 Si02
#       8
#     4   4   4   4   4   4   4   4
#     4   9  18  34  51  69  98 133 167 198 235 284
#     4   8  14  23  41  68  99 131 161 190 230 286
#     4  11  21  32  49  74 102 128 158 201 249 291
#     4  10  18  32  53  75  98 126 160 199 248 295
#     4   9  14  22  42  74 102 126 156 194 239 286
#     4   9  18  31  50  73  96 127 167 207 239 279
#     4   9  16  27  47  77 104 122 156 206 247 281
#     4   9  15  27  46  70  99 131 162 192 236 290
#
# _framework density 19.753086
#
# number of rings (size 3 to 8) (size 9 to 14) (size 15 to 20)
#    0.000    2.750    1.250    2.625    0.000    3.500 
#    0.000    3.750    0.000   12.000    0.000    0.000 
#    0.000    4.000    0.000    0.000    0.000    0.000 
#
# Total GULP energy -178234.019468 kJ/mol
# GULP energy per Si atom -5569.813108 kJ/mol
# Density = 1.970813 g / cm^3
# Si number density = 19.753086 Si / 1000 Ang^3
#
#
#
# Elastic Constant Matrix: (Units=GPa)
#
#
# Indices 1 2 3 4 5 6 
#
# 1 50.4492 25.3359 21.1661 0.0000 22.5871 0.0000
# 2 25.3359 27.0021 12.2466 0.0000 9.1764 0.0000
# 3 21.1661 12.2466 79.6681 0.0000 36.0439 0.0000
# 4 0.0000 0.0000 0.0000 1.8458 0.0000 -1.1515
# 5 22.5871 9.1764 36.0439 0.0000 33.5210 0.0000
# 6 0.0000 0.0000 0.0000 -1.1515 0.0000 -3.8942
#
#
#
# Elastic Compliance Matrix: (Units=1/GPa)
#
#
# Indices 1 2 3 4 5 6 
#
# 1 0.050914 -0.040424 0.006235 0.000000 -0.029946 0.000000
# 2 -0.040424 0.073160 -0.007339 0.000000 0.015102 0.000000
# 3 0.006235 -0.007339 0.025346 0.000000 -0.029446 0.000000
# 4 0.000000 0.000000 0.000000 0.457391 0.000000 -0.135250
# 5 -0.029946 0.015102 -0.029446 0.000000 0.077538 0.000000
# 6 0.000000 0.000000 0.000000 -0.135250 0.000000 -0.216798
#
#
# Mechanical properties :
#
#
# Convention : Reuss Voigt Hill
#
# Bulk Modulus (GPa) = 15.06829 30.51297 22.79063
# Shear Modulus (GPa) = 8.73016 12.85257 10.79136
#
# Velocity S-wave (km/s) = 2.10458 2.55357 2.33987
# Velocity P-wave (km/s) = 3.68110 4.91681 4.34313
#
# Compressibility (1/GPa) = 0.06636452
#
# Stress axis : x y z
#
# Youngs Moduli (GPa) = 19.64087 13.66873 39.45448
#
# Poissons Ratio (x) = 0.55254 -0.24601
# Poissons Ratio (y) = 0.79396 0.28956
# Poissons Ratio (z) = -0.12247 0.10032
#
# Static dielectric constant tensor:
#      x y z
#    x 1.741410 0.000000 0.022290 
#    y 0.000000 1.648750 0.000000 
#    z 0.022290 0.000000 1.749750 
# 
# From -- ./inp_files/95091.got.cif
#   From: 2010.05.17/outbox.ucp.g08.bks.cvg/sg10_48_cif.got.tgz:95091.got - 2010.06.11 11:31:16.
