data_PCOD9155459
_publ_section_title
;
Structure prediction by ZEFSAII (Michael W. Deem and Ramdas Pophale) SiO2 
 PCOD9155459
Probable space group: P 2/M
;
_chemical_formula_sum "Si O2"
_cell_formula_units_Z 32
_cell_length_a 15.000000
_cell_length_b 9.000000
_cell_length_c 15.000000
_cell_angle_alpha 90.000000
_cell_angle_beta 120.000000
_cell_angle_gamma 90.000000
_cell_volume 1753.701443
_symmetry_space_group_name_H-M "P 2/M"
_symmetry_group_IT_number 10
_symmetry_cell_setting 'monoclinic'
loop_
_space_group_symop_operation_xyz
x,y,z
-x,y,-z
-x,-y,-z
x,-y,z
loop_
_atom_site_type_symbol
_atom_site_label
_atom_site_fract_x
_atom_site_fract_y
_atom_site_fract_z
Si Si1 0.177748 0.179116 0.836572
Si Si2 0.890409 0.321257 0.489360
Si Si3 0.788640 0.178784 0.764692
Si Si4 0.519082 0.677057 0.787537
Si Si5 0.579540 0.322860 0.614639
Si Si6 0.944493 0.820822 0.696357
Si Si7 0.706938 0.320653 0.264589
Si Si8 0.269677 0.178774 0.068616
O O1 0.259196 0.251506 0.811455
O O2 0.062955 0.227860 0.753354
O O3 0.182364 0.000000 0.831678
O O4 0.202769 0.220941 0.950248
O O5 0.889627 0.500000 0.497149
O O6 0.885868 0.248219 0.583624
O O7 0.794429 0.276797 0.379889
O O8 0.000000 0.278213 0.500000
O O9 0.688109 0.240999 0.665326
O O10 0.889435 0.223262 0.760722
O O11 0.779557 0.229978 0.862437
O O12 0.784762 0.000000 0.763124
O O13 0.527659 0.500000 0.806388
O O14 0.531718 0.703755 0.688249
O O15 0.407211 0.726221 0.764127
O O16 0.615627 0.756895 0.880869
O O17 0.500000 0.273456 0.500000
O O18 0.596110 0.500000 0.613157
O O19 0.942358 0.000000 0.689224
O O20 0.708312 0.500000 0.260089
O O21 0.275993 0.000000 0.074394
#
# Coordination Sequence:
#
# PCOD9155459 Si02
#       8
#     4   4   4   4   4   4   4   4
#     4  10  21  36  55  78 104 137 177 219 262 308
#     4  10  20  35  55  77 105 141 176 214 259 309
#     4   9  19  35  53  76 106 137 172 213 259 310
#     4   9  19  35  53  76 105 136 173 215 261 311
#     4   9  18  32  52  76 102 135 174 215 257 305
#     4  10  21  35  53  80 109 138 174 215 261 311
#     4  10  21  36  54  78 107 139 175 213 259 314
#     4   9  19  37  57  76 103 138 175 218 263 308
#
# _framework density 18.247119999999999
#
# number of rings (size 3 to 8) (size 9 to 14) (size 15 to 20)
#    0.000    2.500    1.250    0.000    1.750    3.500 
#    0.000    5.000    0.000    0.000    0.000    5.250 
#    0.000    0.000    0.000    0.000    0.000    0.000 
#
# Total GULP energy -178461.206550 kJ/mol
# GULP energy per Si atom -5576.912705 kJ/mol
# Density = 1.820559 g / cm^3
# Si number density = 18.247120 Si / 1000 Ang^3
#
#
#
# Elastic Constant Matrix: (Units=GPa)
#
#
# Indices 1 2 3 4 5 6 
#
# 1 75.3581 9.3446 -9.0002 0.0000 -15.2731 0.0000
# 2 9.3446 -7.8715 6.4931 0.0000 -5.6588 0.0000
# 3 -9.0002 6.4931 58.5525 0.0000 -14.3653 0.0000
# 4 0.0000 0.0000 0.0000 -13.5088 0.0000 -19.8035
# 5 -15.2731 -5.6588 -14.3653 0.0000 3.3210 0.0000
# 6 0.0000 0.0000 0.0000 -19.8035 0.0000 11.2825
#
#
#
# Elastic Compliance Matrix: (Units=1/GPa)
#
#
# Indices 1 2 3 4 5 6 
#
# 1 -0.004889 0.024200 -0.019032 0.000000 -0.063573 0.000000
# 2 0.024200 -0.106034 0.025211 0.000000 0.039671 0.000000
# 3 -0.019032 0.025211 -0.006899 0.000000 -0.074414 0.000000
# 4 0.000000 0.000000 0.000000 -0.020717 0.000000 -0.036364
# 5 -0.063573 0.039671 -0.074414 0.000000 -0.245550 0.000000
# 6 0.000000 0.000000 0.000000 -0.036364 0.000000 0.024805
#
#
# Mechanical properties :
#
#
# Convention : Reuss Voigt Hill
#
# Bulk Modulus (GPa) = -17.52390 15.52377 -1.00006
# Shear Modulus (GPa) = -11.38788 8.16571 -1.61108
#
# Velocity S-wave (km/s) = -2.50089 2.11773 -0.94066
# Velocity P-wave (km/s) = 4.23837 3.80863 1.31493
#
# Compressibility (1/GPa) = -0.05706492
#
# Stress axis : x y z
#
# Youngs Moduli (GPa) = -204.55752 -9.43092 -144.94115
#
# Poissons Ratio (x) = 0.22823 -2.75854
# Poissons Ratio (y) = 4.95023 3.65412
# Poissons Ratio (z) = -3.89316 0.23776
#
# Static dielectric constant tensor:
#      x y z
#    x 1.615840 0.000000 -0.012860 
#    y 0.000000 1.612780 0.000000 
#    z -0.012860 0.000000 1.613770 
# 
# From -- ./inp_files/66486.got.cif
#   From: 2010.05.17/outbox.ucp.g08.bks.cvg/sg10_34_cif.got.tgz:66486.got - 2010.06.11 11:31:16.
