data_PCOD9155397
_publ_section_title
;
Structure prediction by ZEFSAII (Michael W. Deem and Ramdas Pophale) SiO2 
 PCOD9155397
Probable space group: P 2/M
;
_chemical_formula_sum "Si O2"
_cell_formula_units_Z 32
_cell_length_a 12.000000
_cell_length_b 9.000000
_cell_length_c 30.000000
_cell_angle_alpha 90.000000
_cell_angle_beta 30.000000
_cell_angle_gamma 90.000000
_cell_volume 1620.000000
_symmetry_space_group_name_H-M "P 2/M"
_symmetry_group_IT_number 10
_symmetry_cell_setting 'monoclinic'
loop_
_space_group_symop_operation_xyz
x,y,z
-x,y,-z
-x,-y,-z
x,-y,z
loop_
_atom_site_type_symbol
_atom_site_label
_atom_site_fract_x
_atom_site_fract_y
_atom_site_fract_z
Si Si1 0.536950 0.322203 0.786183
Si Si2 0.062514 0.324525 0.610551
Si Si3 0.945740 0.677761 0.885620
Si Si4 0.641326 0.178597 0.561792
Si Si5 0.776718 0.824081 0.355474
Si Si6 0.574967 0.179582 0.270913
Si Si7 0.777198 0.825730 0.857076
Si Si8 0.642808 0.821964 0.062503
O O1 0.495738 0.500000 0.799009
O O2 0.486481 0.250164 0.755496
O O3 0.400932 0.246216 0.873608
O O4 0.798405 0.297730 0.706531
O O5 0.101003 0.500000 0.595951
O O6 0.149301 0.251933 0.534826
O O7 0.190392 0.256620 0.608873
O O8 0.963516 0.500000 0.880686
O O9 0.796254 0.729442 0.895205
O O10 0.185846 0.755178 0.797513
O O11 0.840698 0.741486 0.967509
O O12 0.430887 0.222437 0.603318
O O13 0.591972 0.217350 0.630323
O O14 0.660394 0.000000 0.553129
O O15 0.998749 0.802746 0.249192
O O16 0.752989 0.000000 0.372815
O O17 0.586319 0.000000 0.263639
O O18 0.572468 0.795450 0.894840
O O19 0.765562 0.000000 0.874357
O O20 0.677055 0.000000 0.053511
#
# Coordination Sequence:
#
# PCOD9155397 Si02
#       8
#     4   4   4   4   4   4   4   4
#     4  11  25  44  63  90 126 162 204 258 316 368
#     4  11  24  39  60  92 130 164 199 248 310 376
#     4  12  25  40  63  95 131 165 198 250 315 374
#     4  10  22  40  64  91 122 160 206 257 303 358
#     4  10  19  37  63  91 124 162 205 252 302 358
#     4  11  24  45  68  90 118 160 215 262 303 361
#     4  10  20  38  64  93 126 164 208 252 300 362
#     4  11  23  41  67  94 123 165 211 255 300 361
#
# _framework density 19.753086
#
# number of rings (size 3 to 8) (size 9 to 14) (size 15 to 20)
#    0.000    1.250    2.500    3.375    0.000    8.500 
#    0.000    5.000    0.000    0.000    0.000    0.000 
#    0.000    0.000    0.000    0.000    0.000    0.000 
#
# Total GULP energy -178978.716602 kJ/mol
# GULP energy per Si atom -5593.084894 kJ/mol
# Density = 1.970813 g / cm^3
# Si number density = 19.753086 Si / 1000 Ang^3
#
#
#
# Elastic Constant Matrix: (Units=GPa)
#
#
# Indices 1 2 3 4 5 6 
#
# 1 93.4495 39.9905 10.6088 0.0000 40.7391 0.0000
# 2 39.9905 77.5858 34.6697 0.0000 25.3804 0.0000
# 3 10.6088 34.6697 80.1919 0.0000 38.6089 0.0000
# 4 0.0000 0.0000 0.0000 28.8364 0.0000 0.9343
# 5 40.7391 25.3804 38.6089 0.0000 38.4910 0.0000
# 6 0.0000 0.0000 0.0000 0.9343 0.0000 11.0056
#
#
#
# Elastic Compliance Matrix: (Units=1/GPa)
#
#
# Indices 1 2 3 4 5 6 
#
# 1 0.046393 -0.015660 0.037330 0.000000 -0.076221 0.000000
# 2 -0.015660 0.022292 -0.016378 0.000000 0.018304 0.000000
# 3 0.037330 -0.016378 0.054993 0.000000 -0.083872 0.000000
# 4 0.000000 0.000000 0.000000 0.034774 0.000000 -0.002952
# 5 -0.076221 0.018304 -0.083872 0.000000 0.178712 0.000000
# 6 0.000000 0.000000 0.000000 -0.002952 0.000000 0.091114
#
#
# Mechanical properties :
#
#
# Convention : Reuss Voigt Hill
#
# Bulk Modulus (GPa) = 7.44819 46.86282 27.15551
# Shear Modulus (GPa) = 10.81202 26.73048 18.77125
#
# Velocity S-wave (km/s) = 2.34211 3.68262 3.08603
# Velocity P-wave (km/s) = 3.33058 6.46978 5.14543
#
# Compressibility (1/GPa) = 0.13426080
#
# Stress axis : x y z
#
# Youngs Moduli (GPa) = 21.55506 44.86004 18.18401
#
# Poissons Ratio (x) = 0.70250 -0.67880
# Poissons Ratio (y) = 0.33755 0.29783
# Poissons Ratio (z) = -0.80465 0.73474
#
# Static dielectric constant tensor:
#      x y z
#    x 1.672650 0.000000 -0.017520 
#    y 0.000000 1.658900 0.000000 
#    z -0.017520 0.000000 1.711850 
# 
# From -- ./inp_files/94953.got.cif
#   From: 2010.05.17/outbox.ucp.g08.bks.cvg/sg10_48_cif.got.tgz:94953.got - 2010.06.11 11:31:16.
