data_PCOD9155420
_publ_section_title
;
Structure prediction by ZEFSAII (Michael W. Deem and Ramdas Pophale) SiO2 
 PCOD9155420
Probable space group: P 2/M
;
_chemical_formula_sum "Si O2"
_cell_formula_units_Z 32
_cell_length_a 21.000000
_cell_length_b 9.000000
_cell_length_c 27.000000
_cell_angle_alpha 90.000000
_cell_angle_beta 20.000000
_cell_angle_gamma 90.000000
_cell_volume 1745.328791
_symmetry_space_group_name_H-M "P 2/M"
_symmetry_group_IT_number 10
_symmetry_cell_setting 'monoclinic'
loop_
_space_group_symop_operation_xyz
x,y,z
-x,y,-z
-x,-y,-z
x,-y,z
loop_
_atom_site_type_symbol
_atom_site_label
_atom_site_fract_x
_atom_site_fract_y
_atom_site_fract_z
Si Si1 0.937479 0.168366 0.836221
Si Si2 0.807825 0.324483 0.667837
Si Si3 0.566033 0.829584 0.041138
Si Si4 0.173597 0.823776 0.569295
Si Si5 0.179246 0.168961 0.832432
Si Si6 0.818732 0.325197 0.778456
Si Si7 0.080565 0.325761 0.050375
Si Si8 0.428240 0.322566 0.728169
O O1 0.919002 0.286322 0.892777
O O2 0.107544 0.198205 0.674465
O O3 0.958073 0.000000 0.841281
O O4 0.746849 0.171149 0.944223
O O5 0.787041 0.500000 0.671430
O O6 0.612562 0.241083 0.800871
O O7 0.819709 0.307512 0.718625
O O8 0.000000 0.274823 0.500000
O O9 0.522048 0.000000 0.060078
O O10 0.643431 0.743587 0.936187
O O11 0.371281 0.751902 0.412594
O O12 0.006357 0.751859 0.660563
O O13 0.179105 0.000000 0.556473
O O14 0.335755 0.265606 0.744822
O O15 0.093203 0.240677 0.846637
O O16 0.242685 0.000000 0.779166
O O17 0.000000 0.167521 0.000000
O O18 0.822313 0.500000 0.787218
O O19 0.059760 0.500000 0.055732
O O20 0.275781 0.279754 0.881621
O O21 0.447004 0.500000 0.714643
#
# Coordination Sequence:
#
# PCOD9155420 Si02
#       8
#     4   4   4   4   4   4   4   4
#     4   9  20  37  54  76 106 138 174 217 263 312
#     4  10  22  38  55  79 111 142 174 217 266 313
#     4  10  21  37  57  80 106 139 179 219 261 313
#     4  10  21  37  56  79 107 139 177 220 265 312
#     4   9  17  31  52  76 104 140 178 216 261 312
#     4  10  20  36  58  80 104 139 179 216 260 315
#     4  10  20  33  53  80 107 138 176 218 263 313
#     4  10  20  34  53  79 109 139 175 218 263 314
#
# _framework density 18.334654
#
# number of rings (size 3 to 8) (size 9 to 14) (size 15 to 20)
#    0.000    2.250    0.000    3.375    0.000    9.750 
#    0.000    4.375    0.000    3.750    0.000    0.000 
#    0.000    0.000    0.000    0.000    0.000    0.000 
#
# Total GULP energy -178446.624876 kJ/mol
# GULP energy per Si atom -5576.457027 kJ/mol
# Density = 1.829292 g / cm^3
# Si number density = 18.334654 Si / 1000 Ang^3
#
#
#
# Elastic Constant Matrix: (Units=GPa)
#
#
# Indices 1 2 3 4 5 6 
#
# 1 18.6241 5.9632 -39.6643 0.0000 2.5977 0.0000
# 2 5.9632 37.3873 -22.3590 0.0000 12.3818 0.0000
# 3 -39.6643 -22.3590 -46.8129 0.0000 10.5218 0.0000
# 4 0.0000 0.0000 0.0000 44.4783 0.0000 -9.3208
# 5 2.5977 12.3818 10.5218 0.0000 17.5348 0.0000
# 6 0.0000 0.0000 0.0000 -9.3208 0.0000 20.6004
#
#
#
# Elastic Compliance Matrix: (Units=1/GPa)
#
#
# Indices 1 2 3 4 5 6 
#
# 1 0.029534 -0.017743 -0.012968 0.000000 0.015935 0.000000
# 2 -0.017743 0.032712 -0.004574 0.000000 -0.017725 0.000000
# 3 -0.012968 -0.004574 -0.006196 0.000000 0.008869 0.000000
# 4 0.000000 0.000000 0.000000 0.024838 0.000000 0.011238
# 5 0.015935 -0.017725 0.008869 0.000000 0.061863 0.000000
# 6 0.000000 0.000000 0.000000 0.011238 0.000000 0.053627
#
#
# Mechanical properties :
#
#
# Convention : Reuss Voigt Hill
#
# Bulk Modulus (GPa) = -68.86758 -11.43578 -40.15168
# Shear Modulus (GPa) = 19.07605 20.87330 19.97468
#
# Velocity S-wave (km/s) = 3.22908 3.37777 3.30426
# Velocity P-wave (km/s) = 4.87241 2.99360 2.71834
#
# Compressibility (1/GPa) = -0.01452062
#
# Stress axis : x y z
#
# Youngs Moduli (GPa) = 33.85914 30.57010 -161.39828
#
# Poissons Ratio (x) = 0.54241 -2.09300
# Poissons Ratio (y) = 0.60077 -0.73826
# Poissons Ratio (z) = 0.43908 0.13983
#
# Static dielectric constant tensor:
#      x y z
#    x 1.651310 0.000000 -0.003640 
#    y 0.000000 1.632090 0.000000 
#    z -0.003640 0.000000 1.600000 
# 
# From -- ./inp_files/86828.got.cif
#   From: 2010.05.17/outbox.ucp.g08.bks.cvg/sg10_44_cif.got.tgz:86828.got - 2010.06.11 11:31:16.
