data_PCOD9156284
_publ_section_title
;
Structure prediction by ZEFSAII (Michael W. Deem and Ramdas Pophale) SiO2 
 PCOD9156284
Probable space group: P 21/M
;
_chemical_formula_sum "Si O2"
_cell_formula_units_Z 32
_cell_length_a 29.989872
_cell_length_b 8.490264
_cell_length_c 23.992232
_cell_angle_alpha 90.000000
_cell_angle_beta 163.086761
_cell_angle_gamma 90.000000
_cell_volume 1777.235261
_symmetry_space_group_name_H-M "P 21/M"
_symmetry_group_IT_number 11
_symmetry_cell_setting 'monoclinic'
loop_
_space_group_symop_operation_xyz
x,y,z
-x,1/2+y,-z
-x,-y,-z
x,1/2-y,z
loop_
_atom_site_type_symbol
_atom_site_label
_atom_site_fract_x
_atom_site_fract_y
_atom_site_fract_z
Si Si1 0.434447 0.441257 0.099661
Si Si2 0.341479 0.060252 0.114336
Si Si3 0.640805 0.058839 0.531319
Si Si4 0.226961 0.561751 0.520870
Si Si5 0.104749 0.437597 0.674637
Si Si6 0.974396 0.064436 0.298959
Si Si7 0.882801 0.939336 0.728357
Si Si8 0.121147 0.939638 0.099077
O O1 0.436948 0.250000 0.100903
O O2 0.412478 0.482343 0.138561
O O3 0.597071 0.496034 0.271148
O O4 0.281586 0.495794 0.885143
O O5 0.324769 0.250000 0.095755
O O6 0.466546 0.011774 0.309799
O O7 0.173524 0.986451 0.914457
O O8 0.647275 0.250000 0.534533
O O9 0.714764 0.011826 0.679258
O O10 0.751446 0.990473 0.615423
O O11 0.226498 0.750000 0.526654
O O12 0.152120 0.517856 0.372121
O O13 0.126894 0.486808 0.449741
O O14 0.108702 0.250000 0.675783
O O15 0.042353 0.483920 0.660871
O O16 0.000000 0.500000 0.500000
O O17 0.970716 0.250000 0.302581
O O18 0.880083 0.750000 0.719292
O O19 0.046403 0.989265 0.951154
O O20 0.118639 0.750000 0.095966
O O21 0.000000 0.000000 0.000000
#
# Coordination Sequence:
#
# PCOD9156284 Si02
#       8
#     4   4   4   4   4   4   4   4
#     4   8  16  31  54  80 104 132 173 215 250 294
#     4   9  16  31  52  75 100 134 178 222 262 312
#     4   9  15  27  47  69  96 134 179 219 260 315
#     4  11  20  35  55  76 103 142 180 217 260 311
#     4  10  20  39  63  87 111 140 173 208 248 301
#     4  11  23  37  53  80 111 140 171 214 264 312
#     4  10  18  27  42  71 106 136 169 217 271 315
#     4   8  15  25  39  63  97 133 169 214 265 313
#
# _framework density 18.005493999999999
#
# number of rings (size 3 to 8) (size 9 to 14) (size 15 to 20)
#    0.000    2.500    1.250    3.000    0.000    1.000 
#    0.000    2.500    0.000    0.750    0.000    0.000 
#    0.000    0.000    0.000    0.000    0.000    0.000 
#
# Total GULP energy -178332.971950 kJ/mol
# GULP energy per Si atom -5572.905373 kJ/mol
# Density = 1.796451 g / cm^3
# Si number density = 18.005494 Si / 1000 Ang^3
#
#
#
# Elastic Constant Matrix: (Units=GPa)
#
#
# Indices 1 2 3 4 5 6 
#
# 1 44.4268 1.6951 51.9614 0.0000 4.2768 0.0000
# 2 1.6951 26.0510 20.7358 0.0000 -1.7058 0.0000
# 3 51.9614 20.7358 159.9697 0.0000 -11.8749 0.0000
# 4 0.0000 0.0000 0.0000 20.8083 0.0000 -4.1993
# 5 4.2768 -1.7058 -11.8749 0.0000 29.3728 0.0000
# 6 0.0000 0.0000 0.0000 -4.1993 0.0000 18.6415
#
#
#
# Elastic Compliance Matrix: (Units=1/GPa)
#
#
# Indices 1 2 3 4 5 6 
#
# 1 0.041392 0.008846 -0.015465 0.000000 -0.011765 0.000000
# 2 0.008846 0.044695 -0.008835 0.000000 -0.002264 0.000000
# 3 -0.015465 -0.008835 0.012937 0.000000 0.006969 0.000000
# 4 0.000000 0.000000 0.000000 0.050346 0.000000 0.011341
# 5 -0.011765 -0.002264 0.006969 0.000000 0.038444 0.000000
# 6 0.000000 0.000000 0.000000 0.011341 0.000000 0.056198
#
#
# Mechanical properties :
#
#
# Convention : Reuss Voigt Hill
#
# Bulk Modulus (GPa) = 14.68092 42.13691 28.40891
# Shear Modulus (GPa) = 16.79966 24.16822 20.48394
#
# Velocity S-wave (km/s) = 3.05787 3.66767 3.37656
# Velocity P-wave (km/s) = 4.54298 6.43341 5.56900
#
# Compressibility (1/GPa) = 0.06811564
#
# Stress axis : x y z
#
# Youngs Moduli (GPa) = 24.15947 22.37402 77.29774
#
# Poissons Ratio (x) = -0.19792 1.19540
# Poissons Ratio (y) = -0.21371 0.68291
# Poissons Ratio (z) = 0.37362 0.19767
#
# Static dielectric constant tensor:
#      x y z
#    x 1.579880 0.000000 -0.010330 
#    y 0.000000 1.608360 0.000000 
#    z -0.010330 0.000000 1.664950 
# 
# From -- ./inp_files/67243.got.cif
#   From: 2010.05.17/outbox.cif.g08.bks.cpg/sg11_34_cif.got.tgz:67243.got - 2010.06.03 12:22:45.
