data_PCOD9156219
_publ_section_title
;
Structure prediction by ZEFSAII (Michael W. Deem and Ramdas Pophale) SiO2 
 PCOD9156219
Probable space group: P 21/M
;
_chemical_formula_sum "Si O2"
_cell_formula_units_Z 16
_cell_length_a 16.678084
_cell_length_b 5.760678
_cell_length_c 9.543681
_cell_angle_alpha 90.000000
_cell_angle_beta 139.212802
_cell_angle_gamma 90.000000
_cell_volume 598.985145
_symmetry_space_group_name_H-M "P 21/M"
_symmetry_group_IT_number 11
_symmetry_cell_setting 'monoclinic'
loop_
_space_group_symop_operation_xyz
x,y,z
-x,1/2+y,-z
-x,-y,-z
x,1/2-y,z
loop_
_atom_site_type_symbol
_atom_site_label
_atom_site_fract_x
_atom_site_fract_y
_atom_site_fract_z
Si Si1 0.898085 0.999283 0.242061
Si Si2 0.789129 0.750000 0.567710
Si Si3 0.357877 0.250000 0.336287
Si Si4 0.702228 0.750000 0.134670
Si Si5 0.462150 0.750000 0.884609
Si Si6 0.207397 0.750000 0.406365
Si Si7 0.346650 0.750000 0.294208
O O1 0.914445 0.750000 0.187219
O O2 0.775842 0.968921 0.173770
O O3 0.903259 0.250000 0.175952
O O4 0.000000 0.000000 0.500000
O O5 0.691609 0.750000 0.567887
O O6 0.722370 0.750000 0.328829
O O7 0.857374 0.500900 0.668057
O O8 0.311887 0.487850 0.204818
O O9 0.505639 0.250000 0.528792
O O10 0.563273 0.750000 0.894903
O O11 0.319630 0.750000 0.665657
O O12 0.500000 0.500000 0.000000
O O13 0.286954 0.750000 0.369404
#
# Coordination Sequence:
#
# PCOD9156219 Si02
#       7
#     4   2   2   2   2   2   2
#     4   8  16  28  41  55  69  90 127 159 196 232
#     4  10  18  26  40  53  77  97 128 157 191 225
#     4   8  14  24  36  56  64  89 122 157 189 225
#     4  10  20  26  44  52  78 106 126 160 195 216
#     4  12  22  30  37  54  81 110 139 160 179 216
#     4  10  18  30  35  52  74 105 133 160 177 214
#     4   8  14  24  40  47  68  91 124 158 189 210
#
# _framework density 26.711849000000001
#
# number of rings (size 3 to 8) (size 9 to 14) (size 15 to 20)
#    0.750    2.000    2.500    0.000    3.500    0.000 
#    0.000    0.000    0.000    0.000    0.000    0.000 
#    0.000    0.000    0.000    2.250    0.000    0.000 
#
# Total GULP energy -89102.017186 kJ/mol
# GULP energy per Si atom -5568.876074 kJ/mol
# Density = 2.665105 g / cm^3
# Si number density = 26.711849 Si / 1000 Ang^3
#
#
#
# Elastic Constant Matrix: (Units=GPa)
#
#
# Indices 1 2 3 4 5 6 
#
# 1 75.3273 33.8629 36.0065 0.0000 -15.6305 0.0000
# 2 33.8629 367.5785 29.6091 0.0000 0.5283 0.0000
# 3 36.0065 29.6091 34.9286 0.0000 -19.1746 0.0000
# 4 0.0000 0.0000 0.0000 35.6577 0.0000 7.2987
# 5 -15.6305 0.5283 -19.1746 0.0000 26.8818 0.0000
# 6 0.0000 0.0000 0.0000 7.2987 0.0000 41.4322
#
#
#
# Elastic Compliance Matrix: (Units=1/GPa)
#
#
# Indices 1 2 3 4 5 6 
#
# 1 0.026910 0.000075 -0.031581 0.000000 -0.006882 0.000000
# 2 0.000075 0.003075 -0.004426 0.000000 -0.003174 0.000000
# 3 -0.031581 -0.004426 0.090241 0.000000 0.046092 0.000000
# 4 0.000000 0.000000 0.000000 0.029093 0.000000 -0.005125
# 5 -0.006882 -0.003174 0.046092 0.000000 0.066138 0.000000
# 6 0.000000 0.000000 0.000000 -0.005125 0.000000 0.025039
#
#
# Mechanical properties :
#
#
# Convention : Reuss Voigt Hill
#
# Bulk Modulus (GPa) = 20.67815 75.19906 47.93860
# Shear Modulus (GPa) = 15.22160 46.01808 30.61984
#
# Velocity S-wave (km/s) = 2.38973 4.15512 3.38938
# Velocity P-wave (km/s) = 3.92077 7.15773 5.77085
#
# Compressibility (1/GPa) = 0.04836022
#
# Stress axis : x y z
#
# Youngs Moduli (GPa) = 37.16117 325.23575 11.08146
#
# Poissons Ratio (x) = -0.02432 0.34997
# Poissons Ratio (y) = -0.00278 0.04905
# Poissons Ratio (z) = 1.17360 1.43946
#
# Static dielectric constant tensor:
#      x y z
#    x 2.114760 0.000000 0.062810 
#    y 0.000000 2.335230 0.000000 
#    z 0.062810 0.000000 2.186000 
# 
# From -- ./inp_files/33280.got.cif
#   From: 2010.05.17/outbox.cif.g08.bks.cpg/sg11_17_cif.got.tgz:33280.got - 2010.06.03 12:22:45.
