data_PCOD9156520
_publ_section_title
;
Structure prediction by ZEFSAII (Michael W. Deem and Ramdas Pophale) SiO2 
 PCOD9156520
Probable space group: P 21/M
;
_chemical_formula_sum "Si O2"
_cell_formula_units_Z 32
_cell_length_a 15.982697
_cell_length_b 7.506861
_cell_length_c 28.605476
_cell_angle_alpha 90.000000
_cell_angle_beta 151.886948
_cell_angle_gamma 90.000000
_cell_volume 1617.240896
_symmetry_space_group_name_H-M "P 21/M"
_symmetry_group_IT_number 11
_symmetry_cell_setting 'monoclinic'
loop_
_space_group_symop_operation_xyz
x,y,z
-x,1/2+y,-z
-x,-y,-z
x,1/2-y,z
loop_
_atom_site_type_symbol
_atom_site_label
_atom_site_fract_x
_atom_site_fract_y
_atom_site_fract_z
Si Si1 0.968269 0.952240 0.862455
Si Si2 0.713810 0.033649 0.559797
Si Si3 0.350178 0.541169 0.634222
Si Si4 0.298852 0.034707 0.715890
Si Si5 0.062692 0.532206 0.416841
Si Si6 0.247562 0.546301 0.155700
Si Si7 0.681132 0.542250 0.650870
Si Si8 0.301516 0.968695 0.077160
O O1 0.001743 0.750000 0.862488
O O2 0.831399 0.037586 0.758412
O O3 0.865858 0.947770 0.861446
O O4 0.160118 0.031301 0.969300
O O5 0.708408 0.250000 0.558615
O O6 0.865065 0.978486 0.598168
O O7 0.519930 0.970346 0.446152
O O8 0.735780 0.970710 0.623629
O O9 0.377968 0.750000 0.638632
O O10 0.279611 0.518546 0.652186
O O11 0.207015 0.474493 0.526564
O O12 0.544602 0.456191 0.727932
O O13 0.299634 0.250000 0.717108
O O14 0.494492 0.975797 0.828614
O O15 0.132615 0.972166 0.664345
O O16 0.060824 0.750000 0.416732
O O17 0.185348 0.750000 0.124568
O O18 0.242393 0.475068 0.100253
O O19 0.665426 0.750000 0.656890
O O20 0.298482 0.750000 0.076247
#
# Coordination Sequence:
#
# PCOD9156520 Si02
#       8
#     4   4   4   4   4   4   4   4
#     4  10  18  30  48  67  89 119 153 185 224 271
#     4   9  17  31  48  66  88 114 145 180 223 272
#     4  10  18  29  45  67  95 125 154 182 220 266
#     4   9  17  31  47  66  93 121 153 189 222 258
#     4   9  17  29  48  69  90 120 154 187 222 266
#     4  10  19  30  44  67  96 122 152 187 222 261
#     4   9  18  31  47  67  90 114 142 181 226 271
#     4   8  16  29  45  65  90 121 153 185 219 260
#
# _framework density 19.786785999999999
#
# number of rings (size 3 to 8) (size 9 to 14) (size 15 to 20)
#    0.000    2.750    0.000    3.000    0.000    2.500 
#    0.000    7.500    0.000    0.750    0.000    0.000 
#    0.000    0.000    0.000    0.000    0.000    0.000 
#
# Total GULP energy -178577.892088 kJ/mol
# GULP energy per Si atom -5580.559128 kJ/mol
# Density = 1.974175 g / cm^3
# Si number density = 19.786786 Si / 1000 Ang^3
#
#
#
# Elastic Constant Matrix: (Units=GPa)
#
#
# Indices 1 2 3 4 5 6 
#
# 1 62.4116 -11.0292 32.4258 0.0000 16.2253 0.0000
# 2 -11.0292 56.5827 -1.6640 0.0000 -1.1968 0.0000
# 3 32.4258 -1.6640 122.2474 0.0000 -9.4091 0.0000
# 4 0.0000 0.0000 0.0000 3.3658 0.0000 0.3989
# 5 16.2253 -1.1968 -9.4091 0.0000 15.8876 0.0000
# 6 0.0000 0.0000 0.0000 0.3989 0.0000 16.8035
#
#
#
# Elastic Compliance Matrix: (Units=1/GPa)
#
#
# Indices 1 2 3 4 5 6 
#
# 1 0.034156 0.005417 -0.012195 0.000000 -0.041697 0.000000
# 2 0.005417 0.018576 -0.001574 0.000000 -0.005065 0.000000
# 3 -0.012195 -0.001574 0.012932 0.000000 0.019995 0.000000
# 4 0.000000 0.000000 0.000000 0.297948 0.000000 -0.007073
# 5 -0.041697 -0.005065 0.019995 0.000000 0.116985 0.000000
# 6 0.000000 0.000000 0.000000 -0.007073 0.000000 0.059679
#
#
# Mechanical properties :
#
#
# Convention : Reuss Voigt Hill
#
# Bulk Modulus (GPa) = 20.42480 31.18968 25.80724
# Shear Modulus (GPa) = 8.72142 21.97863 15.35002
#
# Velocity S-wave (km/s) = 2.10173 3.33644 2.78829
# Velocity P-wave (km/s) = 4.02921 5.53530 4.84118
#
# Compressibility (1/GPa) = 0.04896010
#
# Stress axis : x y z
#
# Youngs Moduli (GPa) = 29.27743 53.83360 77.32471
#
# Poissons Ratio (x) = -0.29163 0.94300
# Poissons Ratio (y) = -0.15860 0.12170
# Poissons Ratio (z) = 0.35705 0.08473
#
# Static dielectric constant tensor:
#      x y z
#    x 1.657660 0.000000 0.007270 
#    y 0.000000 1.738700 0.000000 
#    z 0.007270 0.000000 1.719790 
# 
# From -- ./inp_files/51715.got.cif
#   From: 2010.05.17/outbox.cif.g08.bks.cpg/sg11_26_cif.got.tgz:51715.got - 2010.06.03 12:22:45.
