data_PCOD9156384
_publ_section_title
;
Structure prediction by ZEFSAII (Michael W. Deem and Ramdas Pophale) SiO2 
 PCOD9156384
Probable space group: P 21/M
;
_chemical_formula_sum "Si O2"
_cell_formula_units_Z 32
_cell_length_a 30.680815
_cell_length_b 7.495470
_cell_length_c 24.524550
_cell_angle_alpha 90.000000
_cell_angle_beta 163.403487
_cell_angle_gamma 90.000000
_cell_volume 1610.907843
_symmetry_space_group_name_H-M "P 21/M"
_symmetry_group_IT_number 11
_symmetry_cell_setting 'monoclinic'
loop_
_space_group_symop_operation_xyz
x,y,z
-x,1/2+y,-z
-x,-y,-z
x,1/2-y,z
loop_
_atom_site_type_symbol
_atom_site_label
_atom_site_fract_x
_atom_site_fract_y
_atom_site_fract_z
Si Si1 0.436023 0.542323 0.093742
Si Si2 0.360737 0.036241 0.127776
Si Si3 0.627249 0.040877 0.519636
Si Si4 0.226196 0.469384 0.514943
Si Si5 0.104122 0.535708 0.676616
Si Si6 0.981318 0.462126 0.307046
Si Si7 0.882039 0.966426 0.733984
Si Si8 0.128738 0.963486 0.108522
O O1 0.440080 0.750000 0.082884
O O2 0.419738 0.532479 0.139902
O O3 0.599254 0.467092 0.272498
O O4 0.277897 0.465843 0.880861
O O5 0.374523 0.250000 0.142357
O O6 0.469419 0.967133 0.306420
O O7 0.182837 0.990178 0.918132
O O8 0.601598 0.250000 0.499914
O O9 0.714407 0.964832 0.677259
O O10 0.749114 0.026317 0.616116
O O11 0.227550 0.250000 0.516302
O O12 0.156440 0.523716 0.373052
O O13 0.118445 0.531418 0.434627
O O14 0.116423 0.750000 0.697085
O O15 0.034328 0.467431 0.650034
O O16 0.000000 0.500000 0.500000
O O17 0.004580 0.250000 0.339209
O O18 0.880688 0.750000 0.733707
O O19 0.045890 0.027533 0.954236
O O20 0.146194 0.750000 0.124658
O O21 0.000000 0.000000 0.000000
#
# Coordination Sequence:
#
# PCOD9156384 Si02
#       8
#     4   4   4   4   4   4   4   4
#     4   9  17  31  51  73  94 119 152 189 227 265
#     4  10  18  28  44  67  93 124 158 192 230 271
#     4   9  16  25  38  60  92 122 149 187 233 275
#     4   9  16  29  50  72  93 117 153 196 231 267
#     4   9  18  32  51  71  93 122 150 180 220 265
#     4   9  19  34  50  69  93 122 153 188 230 270
#     4   9  15  24  43  66  86 115 153 191 229 267
#     4   8  14  23  35  57  87 116 148 186 228 271
#
# _framework density 19.864574000000001
#
# number of rings (size 3 to 8) (size 9 to 14) (size 15 to 20)
#    0.000    3.000    1.250    1.125    0.000    2.500 
#    0.000    1.875    0.000    0.750    0.000    0.000 
#    0.000    0.000    0.000    0.000    0.000    0.125 
#
# Total GULP energy -178284.245538 kJ/mol
# GULP energy per Si atom -5571.382673 kJ/mol
# Density = 1.981936 g / cm^3
# Si number density = 19.864574 Si / 1000 Ang^3
#
#
#
# Elastic Constant Matrix: (Units=GPa)
#
#
# Indices 1 2 3 4 5 6 
#
# 1 80.1809 2.5142 95.7118 0.0000 6.0958 0.0000
# 2 2.5142 53.0558 0.8173 0.0000 -1.7825 0.0000
# 3 95.7118 0.8173 194.0965 0.0000 -10.1522 0.0000
# 4 0.0000 0.0000 0.0000 5.7333 0.0000 -7.7325
# 5 6.0958 -1.7825 -10.1522 0.0000 32.7455 0.0000
# 6 0.0000 0.0000 0.0000 -7.7325 0.0000 -0.0929
#
#
#
# Elastic Compliance Matrix: (Units=1/GPa)
#
#
# Indices 1 2 3 4 5 6 
#
# 1 0.034460 -0.001764 -0.017611 0.000000 -0.011971 0.000000
# 2 -0.001764 0.018973 0.000875 0.000000 0.001633 0.000000
# 3 -0.017611 0.000875 0.014238 0.000000 0.007740 0.000000
# 4 0.000000 0.000000 0.000000 0.001541 0.000000 -0.128182
# 5 -0.011971 0.001633 0.007740 0.000000 0.035256 0.000000
# 6 0.000000 0.000000 0.000000 -0.128182 0.000000 -0.095041
#
#
# Mechanical properties :
#
#
# Convention : Reuss Voigt Hill
#
# Bulk Modulus (GPa) = 32.60444 58.37997 45.49221
# Shear Modulus (GPa) = 88.26123 22.89649 55.57886
#
# Velocity S-wave (km/s) = 6.67293 3.39872 5.29525
# Velocity P-wave (km/s) = 8.70744 6.69735 7.76769
#
# Compressibility (1/GPa) = 0.03067067
#
# Stress axis : x y z
#
# Youngs Moduli (GPa) = 29.01916 52.70639 70.23603
#
# Poissons Ratio (x) = 0.09297 1.23696
# Poissons Ratio (y) = 0.05119 -0.06148
# Poissons Ratio (z) = 0.51107 -0.04613
#
# Static dielectric constant tensor:
#      x y z
#    x 1.660900 0.000000 -0.016780 
#    y 0.000000 1.720460 0.000000 
#    z -0.016780 0.000000 1.742560 
# 
# From -- ./inp_files/67244.got.cif
#   From: 2010.05.17/outbox.cif.g08.bks.cpg/sg11_34_cif.got.tgz:67244.got - 2010.06.03 12:22:45.
