data_PCOD9156611
_publ_section_title
;
Structure prediction by ZEFSAII (Michael W. Deem and Ramdas Pophale) SiO2 
 PCOD9156611
Probable space group: P 21/M
;
_chemical_formula_sum "Si O2"
_cell_formula_units_Z 32
_cell_length_a 12.251864
_cell_length_b 7.826378
_cell_length_c 27.849922
_cell_angle_alpha 90.000000
_cell_angle_beta 152.735329
_cell_angle_gamma 90.000000
_cell_volume 1223.344352
_symmetry_space_group_name_H-M "P 21/M"
_symmetry_group_IT_number 11
_symmetry_cell_setting 'monoclinic'
loop_
_space_group_symop_operation_xyz
x,y,z
-x,1/2+y,-z
-x,-y,-z
x,1/2-y,z
loop_
_atom_site_type_symbol
_atom_site_label
_atom_site_fract_x
_atom_site_fract_y
_atom_site_fract_z
Si Si1 0.696000 0.552750 0.219302
Si Si2 0.139059 0.045577 0.482611
Si Si3 0.238119 0.051254 0.421760
Si Si4 0.181792 0.047018 0.188688
Si Si5 0.183598 0.543300 0.029740
Si Si6 0.714756 0.558204 0.116229
Si Si7 0.663190 0.545325 0.338523
Si Si8 0.239550 0.446682 0.316049
O O1 0.740030 0.750000 0.252399
O O2 0.949543 0.459972 0.314667
O O3 0.625782 0.561755 0.135706
O O4 0.451460 0.480092 0.145291
O O5 0.165199 0.250000 0.492523
O O6 0.233679 0.976428 0.570174
O O7 0.289091 0.979215 0.495455
O O8 0.855518 0.007692 0.373806
O O9 0.296980 0.250000 0.442739
O O10 0.301922 0.975398 0.393983
O O11 0.153128 0.250000 0.185142
O O12 0.941628 0.982761 0.069035
O O13 0.269333 0.972375 0.274422
O O14 0.394859 0.017929 0.234327
O O15 0.203885 0.750000 0.035109
O O16 0.000000 0.500000 0.000000
O O17 0.791895 0.750000 0.133475
O O18 0.950047 0.446021 0.204745
O O19 0.500000 0.500000 0.000000
O O20 0.659990 0.750000 0.338175
O O21 0.316018 0.250000 0.346148
#
# Coordination Sequence:
#
# PCOD9156611 Si02
#       8
#     4   4   4   4   4   4   4   4
#     4   9  19  34  49  71 103 136 172 216 266 310
#     4   9  19  37  58  82 112 139 173 223 275 321
#     4   9  18  33  57  83 107 138 178 221 266 319
#     4  10  21  38  57  76 109 148 179 218 271 325
#     4  10  22  37  51  71 103 142 180 219 264 314
#     4  10  18  29  48  71  98 133 175 222 266 308
#     4  10  21  36  57  83 109 142 181 222 266 319
#     4   9  18  34  54  77 104 139 179 217 266 323
#
# _framework density 26.157803000000001
#
# number of rings (size 3 to 8) (size 9 to 14) (size 15 to 20)
#    0.000    2.500    0.000    1.500    1.750    5.000 
#    0.000    1.875    0.000    0.000    0.000    0.000 
#    0.000    0.000    0.000    0.000    0.000    0.000 
#
# Total GULP energy -178760.008897 kJ/mol
# GULP energy per Si atom -5586.250278 kJ/mol
# Density = 2.609827 g / cm^3
# Si number density = 26.157803 Si / 1000 Ang^3
#
#
#
# Elastic Constant Matrix: (Units=GPa)
#
#
# Indices 1 2 3 4 5 6 
#
# 1 180.8546 15.5463 7.5953 0.0000 0.0658 0.0000
# 2 15.5463 75.2766 36.6450 0.0000 6.8290 0.0000
# 3 7.5953 36.6450 37.9376 0.0000 -7.9106 0.0000
# 4 0.0000 0.0000 0.0000 26.6721 0.0000 10.1722
# 5 0.0658 6.8290 -7.9106 0.0000 57.1227 0.0000
# 6 0.0000 0.0000 0.0000 10.1722 0.0000 27.5629
#
#
#
# Elastic Compliance Matrix: (Units=1/GPa)
#
#
# Indices 1 2 3 4 5 6 
#
# 1 0.005630 -0.001213 0.000076 0.000000 0.000149 0.000000
# 2 -0.001213 0.027958 -0.028276 0.000000 -0.007257 0.000000
# 3 0.000076 -0.028276 0.055977 0.000000 0.011132 0.000000
# 4 0.000000 0.000000 0.000000 0.043634 0.000000 -0.016103
# 5 0.000149 -0.007257 0.011132 0.000000 0.019915 0.000000
# 6 0.000000 0.000000 0.000000 -0.016103 0.000000 0.042224
#
#
# Mechanical properties :
#
#
# Convention : Reuss Voigt Hill
#
# Bulk Modulus (GPa) = 32.53144 45.96022 39.24583
# Shear Modulus (GPa) = 18.90995 37.89035 28.40015
#
# Velocity S-wave (km/s) = 2.69163 3.81008 3.29861
# Velocity P-wave (km/s) = 4.70356 6.07982 5.43542
#
# Compressibility (1/GPa) = 0.03073949
#
# Stress axis : x y z
#
# Youngs Moduli (GPa) = 177.60875 35.76801 17.86434
#
# Poissons Ratio (x) = 0.04339 -0.00135
# Poissons Ratio (y) = 0.21547 0.50513
# Poissons Ratio (z) = -0.01344 1.01136
#
# Static dielectric constant tensor:
#      x y z
#    x 2.006310 0.000000 -0.156290 
#    y 0.000000 1.959250 0.000000 
#    z -0.156290 0.000000 2.113680 
# 
# From -- ./inp_files/45217.got.cif
#   From: 2010.05.17/outbox.cif.g08.bks.cpg/sg11_23_cif.got.tgz:45217.got - 2010.06.03 12:22:45.
