data_PCOD9156608
_publ_section_title
;
Structure prediction by ZEFSAII (Michael W. Deem and Ramdas Pophale) SiO2 
 PCOD9156608
Probable space group: P 21/M
;
_chemical_formula_sum "Si O2"
_cell_formula_units_Z 32
_cell_length_a 25.541368
_cell_length_b 8.687914
_cell_length_c 20.588590
_cell_angle_alpha 90.000000
_cell_angle_beta 22.822336
_cell_angle_gamma 90.000000
_cell_volume 1772.058221
_symmetry_space_group_name_H-M "P 21/M"
_symmetry_group_IT_number 11
_symmetry_cell_setting 'monoclinic'
loop_
_space_group_symop_operation_xyz
x,y,z
-x,1/2+y,-z
-x,-y,-z
x,1/2-y,z
loop_
_atom_site_type_symbol
_atom_site_label
_atom_site_fract_x
_atom_site_fract_y
_atom_site_fract_z
Si Si1 0.641584 0.065781 0.132933
Si Si2 0.341146 0.434203 0.529125
Si Si3 0.869335 0.566098 0.344308
Si Si4 0.413836 0.565381 0.951695
Si Si5 0.289330 0.566696 0.355978
Si Si6 0.649223 0.566133 0.845447
Si Si7 0.837336 0.932535 0.014629
Si Si8 0.350823 0.932862 0.657872
O O1 0.662891 0.250000 0.115631
O O2 0.492804 0.031390 0.331520
O O3 0.639996 0.028782 0.058378
O O4 0.751814 0.977391 0.048619
O O5 0.333808 0.250000 0.549295
O O6 0.236434 0.472715 0.591954
O O7 0.312579 0.522105 0.628297
O O8 0.865072 0.750000 0.358445
O O9 0.819907 0.485147 0.466581
O O10 0.017592 0.512352 0.155222
O O11 0.422040 0.750000 0.948985
O O12 0.565626 0.499248 0.785821
O O13 0.325059 0.496492 0.111743
O O14 0.298801 0.750000 0.340650
O O15 0.262955 0.496921 0.314618
O O16 0.646352 0.750000 0.848245
O O17 0.500000 0.500000 0.000000
O O18 0.852774 0.750000 0.001627
O O19 0.752039 0.994482 0.173177
O O20 0.354162 0.750000 0.662717
O O21 0.500000 0.000000 0.500000
#
# Coordination Sequence:
#
# PCOD9156608 Si02
#       8
#     4   4   4   4   4   4   4   4
#     4  10  20  37  61  87 117 154 195 240 291 347
#     4  10  21  39  64  90 116 151 195 240 291 348
#     4  11  23  42  63  86 119 157 194 241 293 348
#     4  10  18  32  54  83 116 151 194 243 292 342
#     4  11  20  32  53  82 117 155 194 238 289 347
#     4  10  18  29  47  77 115 153 193 239 291 342
#     4  12  26  42  61  88 119 155 196 240 288 350
#     4  12  24  40  63  89 118 154 193 241 293 345
#
# _framework density 18.058097
#
# number of rings (size 3 to 8) (size 9 to 14) (size 15 to 20)
#    0.000    1.250    2.500    6.750    0.000    2.500 
#    0.000    0.000    0.000    0.750    0.000    0.000 
#    0.000    0.000    0.000    0.000    0.000    0.000 
#
# Total GULP energy -178829.897148 kJ/mol
# GULP energy per Si atom -5588.434286 kJ/mol
# Density = 1.801700 g / cm^3
# Si number density = 18.058097 Si / 1000 Ang^3
#
#
#
# Elastic Constant Matrix: (Units=GPa)
#
#
# Indices 1 2 3 4 5 6 
#
# 1 72.8349 36.8064 23.8287 0.0000 24.8031 0.0000
# 2 36.8064 93.9813 18.6632 0.0000 12.0084 0.0000
# 3 23.8287 18.6632 69.7169 0.0000 10.6022 0.0000
# 4 0.0000 0.0000 0.0000 28.7393 0.0000 6.4139
# 5 24.8031 12.0084 10.6022 0.0000 35.6486 0.0000
# 6 0.0000 0.0000 0.0000 6.4139 0.0000 30.7662
#
#
#
# Elastic Compliance Matrix: (Units=1/GPa)
#
#
# Indices 1 2 3 4 5 6 
#
# 1 0.022499 -0.006429 -0.004103 0.000000 -0.012268 0.000000
# 2 -0.006429 0.013396 -0.001448 0.000000 0.000391 0.000000
# 3 -0.004103 -0.001448 0.016366 0.000000 -0.001525 0.000000
# 4 0.000000 0.000000 0.000000 0.036493 0.000000 -0.007608
# 5 -0.012268 0.000391 -0.001525 0.000000 0.036909 0.000000
# 6 0.000000 0.000000 0.000000 -0.007608 0.000000 0.034089
#
#
# Mechanical properties :
#
#
# Convention : Reuss Voigt Hill
#
# Bulk Modulus (GPa) = 35.33642 43.90332 39.61987
# Shear Modulus (GPa) = 25.88728 29.51314 27.70021
#
# Velocity S-wave (km/s) = 3.79034 4.04709 3.92082
# Velocity P-wave (km/s) = 6.22625 6.79732 6.51805
#
# Compressibility (1/GPa) = 0.02829942
#
# Stress axis : x y z
#
# Youngs Moduli (GPa) = 44.44740 74.65028 61.10338
#
# Poissons Ratio (x) = 0.47992 0.25072
# Poissons Ratio (y) = 0.28575 0.08849
# Poissons Ratio (z) = 0.18238 0.10811
#
# Static dielectric constant tensor:
#      x y z
#    x 1.628560 0.000000 0.021360 
#    y 0.000000 1.597200 0.000000 
#    z 0.021360 0.000000 1.603440 
# 
# From -- ./inp_files/66927.got.cif
#   From: 2010.05.17/outbox.cif.g08.bks.cpg/sg11_34_cif.got.tgz:66927.got - 2010.06.03 12:22:45.
