data_PCOD9156003
_publ_section_title
;
Structure prediction by ZEFSAII (Michael W. Deem and Ramdas Pophale) SiO2 
 PCOD9156003
Probable space group: P 21/M
;
_chemical_formula_sum "Si O2"
_cell_formula_units_Z 32
_cell_length_a 11.992977
_cell_length_b 16.378903
_cell_length_c 16.394750
_cell_angle_alpha 90.000000
_cell_angle_beta 156.604913
_cell_angle_gamma 90.000000
_cell_volume 1278.741630
_symmetry_space_group_name_H-M "P 21/M"
_symmetry_group_IT_number 11
_symmetry_cell_setting 'monoclinic'
loop_
_space_group_symop_operation_xyz
x,y,z
-x,1/2+y,-z
-x,-y,-z
x,1/2-y,z
loop_
_atom_site_type_symbol
_atom_site_label
_atom_site_fract_x
_atom_site_fract_y
_atom_site_fract_z
Si Si1 0.662164 0.163684 0.491551
Si Si2 0.429025 0.157667 0.805791
Si Si3 0.142340 0.649312 0.034340
Si Si4 0.088809 0.891988 0.750236
Si Si5 0.160439 0.426169 0.762006
Si Si6 0.438766 0.843514 0.846944
Si Si7 0.826323 0.658045 0.966609
Si Si8 0.348073 0.413266 0.411858
O O1 0.811991 0.250000 0.582290
O O2 0.387561 0.166461 0.252324
O O3 0.571489 0.149422 0.523136
O O4 0.847929 0.093233 0.579240
O O5 0.315006 0.250000 0.729865
O O6 0.222348 0.092903 0.709522
O O7 0.710766 0.157022 0.052677
O O8 0.553824 0.135129 0.801692
O O9 0.103180 0.750000 0.002560
O O10 0.091152 0.623044 0.094151
O O11 0.922682 0.599243 0.830077
O O12 0.143349 0.864733 0.693165
O O13 0.785694 0.895594 0.589646
O O14 0.212185 0.983696 0.828999
O O15 0.349612 0.360963 0.936881
O O16 0.408789 0.750000 0.801398
O O17 0.627975 0.883753 0.901569
O O18 0.899997 0.750000 0.044912
O O19 0.500000 0.500000 0.500000
#
# Coordination Sequence:
#
# PCOD9156003 Si02
#       8
#     4   4   4   4   4   4   4   4
#     4  10  19  32  52  74  96 127 166 203 243 286
#     4   9  16  27  46  71  94 122 165 204 236 282
#     4   8  15  28  48  68  89 122 165 203 233 275
#     4  10  19  30  47  70 102 130 157 198 249 287
#     4  11  19  30  48  74 105 125 154 201 252 291
#     4  10  19  32  52  75  98 128 166 201 240 287
#     4   8  16  31  50  71  95 126 165 204 235 280
#     4  10  17  29  46  69  95 126 160 199 240 283
#
# _framework density 25.024602000000002
#
# number of rings (size 3 to 8) (size 9 to 14) (size 15 to 20)
#    0.000    2.500    1.250    4.875    0.000    1.500 
#    0.000    0.625    0.000   13.500    0.000    3.500 
#    0.000    0.000    0.000    0.000    0.000    0.000 
#
# Total GULP energy -178249.994751 kJ/mol
# GULP energy per Si atom -5570.312336 kJ/mol
# Density = 2.496764 g / cm^3
# Si number density = 25.024602 Si / 1000 Ang^3
#
#
#
# Elastic Constant Matrix: (Units=GPa)
#
#
# Indices 1 2 3 4 5 6 
#
# 1 258.0703 6.5486 24.6360 0.0000 44.6207 0.0000
# 2 6.5486 34.0310 -4.8622 0.0000 10.3291 0.0000
# 3 24.6360 -4.8622 34.2277 0.0000 0.8742 0.0000
# 4 0.0000 0.0000 0.0000 9.6826 0.0000 13.6341
# 5 44.6207 10.3291 0.8742 0.0000 46.9630 0.0000
# 6 0.0000 0.0000 0.0000 13.6341 0.0000 27.8987
#
#
#
# Elastic Compliance Matrix: (Units=1/GPa)
#
#
# Indices 1 2 3 4 5 6 
#
# 1 0.005022 -0.000041 -0.003501 0.000000 -0.004698 0.000000
# 2 -0.000041 0.032245 0.004792 0.000000 -0.007143 0.000000
# 3 -0.003501 0.004792 0.032374 0.000000 0.001669 0.000000
# 4 0.000000 0.000000 0.000000 0.331169 0.000000 -0.161842
# 5 -0.004698 -0.007143 0.001669 0.000000 0.027297 0.000000
# 6 0.000000 0.000000 0.000000 -0.161842 0.000000 0.114937
#
#
# Mechanical properties :
#
#
# Convention : Reuss Voigt Hill
#
# Bulk Modulus (GPa) = 13.86125 42.10819 27.98472
# Shear Modulus (GPa) = 8.85599 36.90930 22.88264
#
# Velocity S-wave (km/s) = 1.88324 3.84464 3.02720
# Velocity P-wave (km/s) = 3.20622 6.04744 4.84001
#
# Compressibility (1/GPa) = 0.07214359
#
# Stress axis : x y z
#
# Youngs Moduli (GPa) = 199.10860 31.01211 30.88901
#
# Poissons Ratio (x) = 0.00126 0.10813
# Poissons Ratio (y) = 0.00812 -0.14803
# Poissons Ratio (z) = 0.69703 -0.14862
#
# Static dielectric constant tensor:
#      x y z
#    x 2.134690 0.000000 0.066310 
#    y 0.000000 1.928010 0.000000 
#    z 0.066310 0.000000 2.077410 
# 
# From -- ./inp_files/35883.got.cif
#   From: 2010.05.17/outbox.cif.g08.bks.cpg/sg11_18_cif.got.tgz:35883.got - 2010.06.03 12:22:45.
