data_PCOD9156415
_publ_section_title
;
Structure prediction by ZEFSAII (Michael W. Deem and Ramdas Pophale) SiO2 
 PCOD9156415
Probable space group: P 21/M
;
_chemical_formula_sum "Si O2"
_cell_formula_units_Z 32
_cell_length_a 21.665178
_cell_length_b 8.666765
_cell_length_c 31.132197
_cell_angle_alpha 90.000000
_cell_angle_beta 19.783690
_cell_angle_gamma 90.000000
_cell_volume 1978.560463
_symmetry_space_group_name_H-M "P 21/M"
_symmetry_group_IT_number 11
_symmetry_cell_setting 'monoclinic'
loop_
_space_group_symop_operation_xyz
x,y,z
-x,1/2+y,-z
-x,-y,-z
x,1/2-y,z
loop_
_atom_site_type_symbol
_atom_site_label
_atom_site_fract_x
_atom_site_fract_y
_atom_site_fract_z
Si Si1 0.784940 0.064884 0.546562
Si Si2 0.206409 0.934369 0.695187
Si Si3 0.148699 0.433939 0.935527
Si Si4 0.111935 0.435540 0.386194
Si Si5 0.145743 0.934699 0.032661
Si Si6 0.468141 0.064147 0.454162
Si Si7 0.519741 0.565242 0.653415
Si Si8 0.439249 0.436602 0.225221
O O1 0.776335 0.250000 0.548167
O O2 0.992003 0.016845 0.423607
O O3 0.700477 0.987026 0.560034
O O4 0.657849 0.012841 0.669921
O O5 0.192780 0.750000 0.704023
O O6 0.348150 0.980238 0.640407
O O7 0.300458 0.991619 0.589929
O O8 0.011809 0.006723 0.832864
O O9 0.139410 0.250000 0.941777
O O10 0.347160 0.489379 0.789970
O O11 0.114766 0.495856 0.005635
O O12 0.000000 0.500000 0.000000
O O13 0.103791 0.250000 0.392321
O O14 0.319915 0.478842 0.261181
O O15 0.000000 0.500000 0.500000
O O16 0.139294 0.750000 0.033920
O O17 0.349280 0.980020 0.914385
O O18 0.453352 0.250000 0.465990
O O19 0.477062 0.019183 0.398616
O O20 0.500188 0.750000 0.668820
O O21 0.428984 0.250000 0.237393
#
# Coordination Sequence:
#
# PCOD9156415 Si02
#       8
#     4   4   4   4   4   4   4   4
#     4  10  18  28  45  70 100 131 165 206 246 290
#     4  10  20  35  55  75  96 124 163 211 255 294
#     4  12  24  36  50  70 100 134 169 203 244 296
#     4   8  15  27  43  65  93 128 166 201 241 287
#     4  11  21  33  51  74 102 134 167 202 245 295
#     4   9  20  37  54  71  93 125 165 208 250 296
#     4  11  21  34  51  72 101 134 167 202 247 299
#     4   9  17  30  47  67  97 134 168 201 241 294
#
# _framework density 16.173375
#
# number of rings (size 3 to 8) (size 9 to 14) (size 15 to 20)
#    0.000    2.000    1.250    3.375    0.000    3.500 
#    0.000    0.000    0.000    0.000    0.000    0.875 
#    0.000    0.000    0.000    0.000    0.000    0.000 
#
# Total GULP energy -178483.378124 kJ/mol
# GULP energy per Si atom -5577.605566 kJ/mol
# Density = 1.613656 g / cm^3
# Si number density = 16.173375 Si / 1000 Ang^3
#
#
#
# Elastic Constant Matrix: (Units=GPa)
#
#
# Indices 1 2 3 4 5 6 
#
# 1 29.6077 4.7773 11.0725 0.0000 -10.7451 0.0000
# 2 4.7773 33.0741 18.6211 0.0000 -0.8709 0.0000
# 3 11.0725 18.6211 69.8078 0.0000 -10.4874 0.0000
# 4 0.0000 0.0000 0.0000 19.8049 0.0000 -0.2735
# 5 -10.7451 -0.8709 -10.4874 0.0000 26.1593 0.0000
# 6 0.0000 0.0000 0.0000 -0.2735 0.0000 23.4519
#
#
#
# Elastic Compliance Matrix: (Units=1/GPa)
#
#
# Indices 1 2 3 4 5 6 
#
# 1 0.041209 -0.003737 -0.003208 0.000000 0.015516 0.000000
# 2 -0.003737 0.036110 -0.009672 0.000000 -0.004211 0.000000
# 3 -0.003208 -0.009672 0.018268 0.000000 0.005684 0.000000
# 4 0.000000 0.000000 0.000000 0.050501 0.000000 0.000589
# 5 0.015516 -0.004211 0.005684 0.000000 0.046739 0.000000
# 6 0.000000 0.000000 0.000000 0.000589 0.000000 0.042647
#
#
# Mechanical properties :
#
#
# Convention : Reuss Voigt Hill
#
# Bulk Modulus (GPa) = 16.03825 22.38127 19.20976
# Shear Modulus (GPa) = 17.27160 20.41780 18.84470
#
# Velocity S-wave (km/s) = 3.27142 3.55693 3.41716
# Velocity P-wave (km/s) = 4.92012 5.54413 5.24142
#
# Compressibility (1/GPa) = 0.06235094
#
# Stress axis : x y z
#
# Youngs Moduli (GPa) = 24.26658 27.69351 54.74110
#
# Poissons Ratio (x) = 0.10350 0.17563
# Poissons Ratio (y) = 0.09069 0.52945
# Poissons Ratio (z) = 0.07786 0.26785
#
# Static dielectric constant tensor:
#      x y z
#    x 1.553020 0.000000 -0.040800 
#    y 0.000000 1.543950 0.000000 
#    z -0.040800 0.000000 1.531310 
# 
# From -- ./inp_files/40685.got.cif
#   From: 2010.05.17/outbox.cif.g08.bks.cpg/sg11_21_cif.got.tgz:40685.got - 2010.06.03 12:22:45.
