data_PCOD9156695
_publ_section_title
;
Structure prediction by ZEFSAII (Michael W. Deem and Ramdas Pophale) SiO2 
 PCOD9156695
Probable space group: P 21/M
;
_chemical_formula_sum "Si O2"
_cell_formula_units_Z 32
_cell_length_a 14.343085
_cell_length_b 8.754228
_cell_length_c 16.780729
_cell_angle_alpha 90.000000
_cell_angle_beta 94.332700
_cell_angle_gamma 90.000000
_cell_volume 2101.011051
_symmetry_space_group_name_H-M "P 21/M"
_symmetry_group_IT_number 11
_symmetry_cell_setting 'monoclinic'
loop_
_space_group_symop_operation_xyz
x,y,z
-x,1/2+y,-z
-x,-y,-z
x,1/2-y,z
loop_
_atom_site_type_symbol
_atom_site_label
_atom_site_fract_x
_atom_site_fract_y
_atom_site_fract_z
Si Si1 0.985159 0.934717 0.268821
Si Si2 0.183656 0.068986 0.226329
Si Si3 0.469676 0.433179 0.583012
Si Si4 0.272292 0.434430 0.520840
Si Si5 0.084708 0.425816 0.902504
Si Si6 0.135264 0.924000 0.062845
Si Si7 0.665844 0.434129 0.647136
Si Si8 0.924003 0.066990 0.433972
O O1 0.987123 0.750000 0.272135
O O2 0.920275 0.980008 0.189048
O O3 0.948755 0.004175 0.348210
O O4 0.089664 0.993876 0.257041
O O5 0.178954 0.250000 0.236740
O O6 0.183901 0.026857 0.132777
O O7 0.271730 0.000506 0.278364
O O8 0.500000 0.500000 0.500000
O O9 0.471074 0.250000 0.578166
O O10 0.360892 0.476069 0.583428
O O11 0.555390 0.476172 0.646190
O O12 0.263802 0.250000 0.516907
O O13 0.296160 0.497172 0.434015
O O14 0.177310 0.507586 0.545708
O O15 0.115876 0.250000 0.906604
O O16 0.975356 0.427346 0.921919
O O17 0.140233 0.519669 0.972365
O O18 0.167221 0.750000 0.073055
O O19 0.674254 0.250000 0.645015
O O20 0.927340 0.250000 0.435423
O O21 0.000000 0.000000 0.500000
#
# Coordination Sequence:
#
# PCOD9156695 Si02
#       8
#     4   4   4   4   4   4   4   4
#     4  10  20  34  48  63  85 116 152 188 222 258
#     4  11  20  29  42  63  91 121 150 181 218 261
#     4   8  16  29  47  66  85 110 141 178 219 263
#     4  10  19  33  49  66  87 114 148 184 222 262
#     4   8  15  27  43  61  82 109 142 179 218 258
#     4   9  16  26  41  61  85 114 145 177 214 257
#     4  10  18  30  46  66  90 116 146 180 220 264
#     4  12  24  36  48  64  87 118 153 188 223 257
#
# _framework density 15.230763
#
# number of rings (size 3 to 8) (size 9 to 14) (size 15 to 20)
#    0.000    2.250    0.000    5.250    0.000    4.500 
#    0.000    0.000    0.000    0.000    0.000    0.000 
#    0.000    1.000    0.000    3.000    0.000    4.250 
#
# Total GULP energy -178307.342971 kJ/mol
# GULP energy per Si atom -5572.104468 kJ/mol
# Density = 1.519610 g / cm^3
# Si number density = 15.230763 Si / 1000 Ang^3
#
#
#
# Elastic Constant Matrix: (Units=GPa)
#
#
# Indices 1 2 3 4 5 6 
#
# 1 95.8391 38.9662 50.9853 0.0000 17.8956 0.0000
# 2 38.9662 84.7426 44.4443 0.0000 9.0661 0.0000
# 3 50.9853 44.4443 109.9307 0.0000 12.3366 0.0000
# 4 0.0000 0.0000 0.0000 25.8900 0.0000 0.9839
# 5 17.8956 9.0661 12.3366 0.0000 18.5539 0.0000
# 6 0.0000 0.0000 0.0000 0.9839 0.0000 17.5277
#
#
#
# Elastic Compliance Matrix: (Units=1/GPa)
#
#
# Indices 1 2 3 4 5 6 
#
# 1 0.016687 -0.003921 -0.004931 0.000000 -0.010900 0.000000
# 2 -0.003921 0.016118 -0.004580 0.000000 -0.001049 0.000000
# 3 -0.004931 -0.004580 0.013454 0.000000 -0.001952 0.000000
# 4 0.000000 0.000000 0.000000 0.038708 0.000000 -0.002173
# 5 -0.010900 -0.001049 -0.001952 0.000000 0.066221 0.000000
# 6 0.000000 0.000000 0.000000 -0.002173 0.000000 0.057174
#
#
# Mechanical properties :
#
#
# Convention : Reuss Voigt Hill
#
# Bulk Modulus (GPa) = 51.55898 62.14489 56.85194
# Shear Modulus (GPa) = 20.68766 22.80210 21.74488
#
# Velocity S-wave (km/s) = 3.68948 3.87345 3.78258
# Velocity P-wave (km/s) = 7.21631 7.80356 7.51567
#
# Compressibility (1/GPa) = 0.01939526
#
# Stress axis : x y z
#
# Youngs Moduli (GPa) = 59.92783 62.04425 74.32554
#
# Poissons Ratio (x) = 0.24325 0.36649
# Poissons Ratio (y) = 0.23495 0.34042
# Poissons Ratio (z) = 0.29550 0.28417
#
# Static dielectric constant tensor:
#      x y z
#    x 1.503490 0.000000 0.022560 
#    y 0.000000 1.530730 0.000000 
#    z 0.022560 0.000000 1.510460 
# 
# From -- ./inp_files/51381.got.cif
#   From: 2010.05.17/outbox.cif.g08.bks.cpg/sg11_26_cif.got.tgz:51381.got - 2010.06.03 12:22:45.
