data_PCOD9156280
_publ_section_title
;
Structure prediction by ZEFSAII (Michael W. Deem and Ramdas Pophale) SiO2 
 PCOD9156280
Probable space group: P 21/M
;
_chemical_formula_sum "Si O2"
_cell_formula_units_Z 32
_cell_length_a 30.139491
_cell_length_b 8.068959
_cell_length_c 24.089838
_cell_angle_alpha 90.000000
_cell_angle_beta 163.214063
_cell_angle_gamma 90.000000
_cell_volume 1691.919540
_symmetry_space_group_name_H-M "P 21/M"
_symmetry_group_IT_number 11
_symmetry_cell_setting 'monoclinic'
loop_
_space_group_symop_operation_xyz
x,y,z
-x,1/2+y,-z
-x,-y,-z
x,1/2-y,z
loop_
_atom_site_type_symbol
_atom_site_label
_atom_site_fract_x
_atom_site_fract_y
_atom_site_fract_z
Si Si1 0.415095 0.555277 0.090380
Si Si2 0.334556 0.055629 0.114065
Si Si3 0.632194 0.048164 0.526528
Si Si4 0.260038 0.555637 0.556691
Si Si5 0.913202 0.447243 0.340807
Si Si6 0.994319 0.949522 0.315885
Si Si7 0.872383 0.948829 0.717816
Si Si8 0.120246 0.949409 0.096039
O O1 0.398920 0.750000 0.083898
O O2 0.409837 0.462275 0.143045
O O3 0.574706 0.527625 0.250953
O O4 0.265935 0.500119 0.876957
O O5 0.317080 0.250000 0.105793
O O6 0.460069 0.987045 0.307483
O O7 0.162993 0.984572 0.901266
O O8 0.630788 0.250000 0.523760
O O9 0.715204 0.993943 0.683171
O O10 0.743193 0.990830 0.609273
O O11 0.286402 0.750000 0.597755
O O12 0.173388 0.531660 0.394398
O O13 0.146484 0.488116 0.467832
O O14 0.916270 0.250000 0.342363
O O15 0.987020 0.512058 0.372181
O O16 0.000000 0.500000 0.500000
O O17 0.992187 0.750000 0.307268
O O18 0.873831 0.750000 0.712170
O O19 0.037056 0.005954 0.940037
O O20 0.124609 0.750000 0.098543
O O21 0.000000 0.000000 0.000000
#
# Coordination Sequence:
#
# PCOD9156280 Si02
#       8
#     4   4   4   4   4   4   4   4
#     4  10  20  33  52  79 106 131 165 206 246 291
#     4   9  16  29  50  73  97 128 166 211 259 301
#     4   9  15  25  44  68  93 123 166 211 259 311
#     4  11  21  33  50  73 103 138 173 210 251 297
#     4  10  21  38  61  85 108 135 164 198 241 292
#     4   9  20  36  53  76 105 135 170 209 249 295
#     4  10  18  27  42  65  97 132 166 209 261 304
#     4   8  15  25  37  60  92 125 161 207 257 306
#
# _framework density 18.913430999999999
#
# number of rings (size 3 to 8) (size 9 to 14) (size 15 to 20)
#    0.000    2.500    1.250    1.500    0.000    3.000 
#    0.000    0.625    0.000    0.750    0.000    0.000 
#    0.000    0.000    0.000    0.000    0.000    0.750 
#
# Total GULP energy -178323.241690 kJ/mol
# GULP energy per Si atom -5572.601303 kJ/mol
# Density = 1.887038 g / cm^3
# Si number density = 18.913431 Si / 1000 Ang^3
#
#
#
# Elastic Constant Matrix: (Units=GPa)
#
#
# Indices 1 2 3 4 5 6 
#
# 1 52.4958 -6.5509 41.9776 0.0000 8.0503 0.0000
# 2 -6.5509 16.7279 -1.7361 0.0000 1.1557 0.0000
# 3 41.9776 -1.7361 115.8237 0.0000 -10.7321 0.0000
# 4 0.0000 0.0000 0.0000 18.9100 0.0000 0.0959
# 5 8.0503 1.1557 -10.7321 0.0000 25.9145 0.0000
# 6 0.0000 0.0000 0.0000 0.0959 0.0000 10.5424
#
#
#
# Elastic Compliance Matrix: (Units=1/GPa)
#
#
# Indices 1 2 3 4 5 6 
#
# 1 0.034359 0.013194 -0.013829 0.000000 -0.016989 0.000000
# 2 0.013194 0.065083 -0.004633 0.000000 -0.008920 0.000000
# 3 -0.013829 -0.004633 0.014552 0.000000 0.010529 0.000000
# 4 0.000000 0.000000 0.000000 0.052885 0.000000 -0.000481
# 5 -0.016989 -0.008920 0.010529 0.000000 0.048624 0.000000
# 6 0.000000 0.000000 0.000000 -0.000481 0.000000 0.094859
#
#
# Mechanical properties :
#
#
# Convention : Reuss Voigt Hill
#
# Bulk Modulus (GPa) = 9.66573 28.04763 18.85668
# Shear Modulus (GPa) = 14.06928 21.16384 17.61656
#
# Velocity S-wave (km/s) = 2.73037 3.34875 3.05525
# Velocity P-wave (km/s) = 3.88092 5.46021 4.73684
#
# Compressibility (1/GPa) = 0.10345825
#
# Stress axis : x y z
#
# Youngs Moduli (GPa) = 29.10425 15.36505 68.71888
#
# Poissons Ratio (x) = -0.20273 0.95032
# Poissons Ratio (y) = -0.38401 0.31837
# Poissons Ratio (z) = 0.40249 0.07118
#
# Static dielectric constant tensor:
#      x y z
#    x 1.665170 0.000000 -0.018220 
#    y 0.000000 1.659910 0.000000 
#    z -0.018220 0.000000 1.726070 
# 
# From -- ./inp_files/67241.got.cif
#   From: 2010.05.17/outbox.cif.g08.bks.cpg/sg11_34_cif.got.tgz:67241.got - 2010.06.03 12:22:45.
