data_PCOD9156742
_publ_section_title
;
Structure prediction by ZEFSAII (Michael W. Deem and Ramdas Pophale) SiO2 
 PCOD9156742
Probable space group: P 21/M
;
_chemical_formula_sum "Si O2"
_cell_formula_units_Z 32
_cell_length_a 14.849584
_cell_length_b 10.481890
_cell_length_c 26.473132
_cell_angle_alpha 90.000000
_cell_angle_beta 28.774174
_cell_angle_gamma 90.000000
_cell_volume 1983.480676
_symmetry_space_group_name_H-M "P 21/M"
_symmetry_group_IT_number 11
_symmetry_cell_setting 'monoclinic'
loop_
_space_group_symop_operation_xyz
x,y,z
-x,1/2+y,-z
-x,-y,-z
x,1/2-y,z
loop_
_atom_site_type_symbol
_atom_site_label
_atom_site_fract_x
_atom_site_fract_y
_atom_site_fract_z
Si Si1 0.311158 0.105819 0.806951
Si Si2 0.882409 0.609090 0.494040
Si Si3 0.357542 0.604545 0.549003
Si Si4 0.602468 0.101456 0.150126
Si Si5 0.960309 0.396443 0.907560
Si Si6 0.542849 0.997985 0.603433
Si Si7 0.156665 0.603967 0.745618
Si Si8 0.174497 0.104925 0.357233
O O1 0.325647 0.250000 0.820178
O O2 0.457230 0.087379 0.689167
O O3 0.107389 0.089634 0.881648
O O4 0.349846 0.997745 0.829077
O O5 0.962837 0.750000 0.446585
O O6 0.692987 0.592742 0.555812
O O7 0.833175 0.597109 0.577702
O O8 0.029213 0.498757 0.408888
O O9 0.500000 0.500000 0.500000
O O10 0.425783 0.750000 0.522223
O O11 0.351235 0.574500 0.492917
O O12 0.180250 0.592206 0.673388
O O13 0.614159 0.250000 0.162172
O O14 0.389587 0.080748 0.237244
O O15 0.754409 0.086268 0.031324
O O16 0.982017 0.250000 0.878469
O O17 0.020047 0.500132 0.837004
O O18 0.362703 0.926001 0.668176
O O19 0.106405 0.750000 0.782613
O O20 0.123162 0.250000 0.368403
#
# Coordination Sequence:
#
# PCOD9156742 Si02
#       8
#     4   4   4   4   4   4   4   4
#     4  10  19  28  42  68  95 121 155 192 226 266
#     4  10  19  32  48  68  92 123 160 196 234 278
#     4   9  18  31  47  69  97 128 159 192 233 280
#     4  10  19  33  48  63  89 125 159 191 231 277
#     4   9  19  32  46  65  91 123 157 192 231 275
#     4  10  18  30  48  70  96 129 157 188 230 283
#     4   9  18  31  48  70  96 124 156 192 229 274
#     4   9  19  33  47  65  90 123 159 197 236 276
#
# _framework density 16.133254000000001
#
# number of rings (size 3 to 8) (size 9 to 14) (size 15 to 20)
#    0.000    2.500    1.250    1.125    0.000    7.500 
#    0.000    0.000    0.000    0.000    0.000    0.875 
#    0.000    0.000    0.000    0.000    0.000    0.000 
#
# Total GULP energy -178225.140595 kJ/mol
# GULP energy per Si atom -5569.535644 kJ/mol
# Density = 1.609653 g / cm^3
# Si number density = 16.133254 Si / 1000 Ang^3
#
#
#
# Elastic Constant Matrix: (Units=GPa)
#
#
# Indices 1 2 3 4 5 6 
#
# 1 17.2898 17.1926 23.7451 0.0000 3.1112 0.0000
# 2 17.1926 97.1006 59.0527 0.0000 2.5876 0.0000
# 3 23.7451 59.0527 94.6305 0.0000 -4.1836 0.0000
# 4 0.0000 0.0000 0.0000 18.3199 0.0000 -0.2322
# 5 3.1112 2.5876 -4.1836 0.0000 17.4778 0.0000
# 6 0.0000 0.0000 0.0000 -0.2322 0.0000 16.8502
#
#
#
# Elastic Compliance Matrix: (Units=1/GPa)
#
#
# Indices 1 2 3 4 5 6 
#
# 1 0.097004 -0.001858 -0.024188 0.000000 -0.022782 0.000000
# 2 -0.001858 0.017075 -0.010396 0.000000 -0.004686 0.000000
# 3 -0.024188 -0.010396 0.023633 0.000000 0.011502 0.000000
# 4 0.000000 0.000000 0.000000 0.054595 0.000000 0.000752
# 5 -0.022782 -0.004686 0.011502 0.000000 0.064718 0.000000
# 6 0.000000 0.000000 0.000000 0.000752 0.000000 0.059357
#
#
# Mechanical properties :
#
#
# Convention : Reuss Voigt Hill
#
# Bulk Modulus (GPa) = 15.42576 45.44463 30.43520
# Shear Modulus (GPa) = 12.16912 17.79829 14.98370
#
# Velocity S-wave (km/s) = 2.74941 3.32506 3.05084
# Velocity P-wave (km/s) = 4.43410 6.55521 5.59607
#
# Compressibility (1/GPa) = 0.06482663
#
# Stress axis : x y z
#
# Youngs Moduli (GPa) = 10.30885 58.56474 42.31356
#
# Poissons Ratio (x) = 0.10881 1.02350
# Poissons Ratio (y) = 0.01915 0.43991
# Poissons Ratio (z) = 0.24935 0.60886
#
# Static dielectric constant tensor:
#      x y z
#    x 1.527220 0.000000 0.012190 
#    y 0.000000 1.553160 0.000000 
#    z 0.012190 0.000000 1.549680 
# 
# From -- ./inp_files/71611.got.cif
#   From: 2010.05.17/outbox.cif.g08.bks.cpg/sg11_36_cif.got.tgz:71611.got - 2010.06.03 12:22:45.
