data_PCOD9156635
_publ_section_title
;
Structure prediction by ZEFSAII (Michael W. Deem and Ramdas Pophale) SiO2 
 PCOD9156635
Probable space group: P 21/M
;
_chemical_formula_sum "Si O2"
_cell_formula_units_Z 32
_cell_length_a 14.732780
_cell_length_b 8.986158
_cell_length_c 26.874365
_cell_angle_alpha 90.000000
_cell_angle_beta 144.864870
_cell_angle_gamma 90.000000
_cell_volume 2047.610790
_symmetry_space_group_name_H-M "P 21/M"
_symmetry_group_IT_number 11
_symmetry_cell_setting 'monoclinic'
loop_
_space_group_symop_operation_xyz
x,y,z
-x,1/2+y,-z
-x,-y,-z
x,1/2-y,z
loop_
_atom_site_type_symbol
_atom_site_label
_atom_site_fract_x
_atom_site_fract_y
_atom_site_fract_z
Si Si1 0.447383 0.582290 0.131513
Si Si2 0.784736 0.577108 0.228905
Si Si3 0.247624 0.927149 0.598146
Si Si4 0.811259 0.924972 0.045071
Si Si5 0.325018 0.926797 0.919344
Si Si6 0.566976 0.075731 0.756510
Si Si7 0.053005 0.429007 0.600131
Si Si8 0.926798 0.429849 0.917028
O O1 0.383897 0.750000 0.093074
O O2 0.618058 0.573833 0.183276
O O3 0.456487 0.564333 0.194487
O O4 0.334155 0.461651 0.056639
O O5 0.815322 0.750000 0.228845
O O6 0.761274 0.479909 0.169505
O O7 0.910398 0.526815 0.326807
O O8 0.252254 0.750000 0.605909
O O9 0.121490 0.963749 0.498293
O O10 0.422038 0.988936 0.667408
O O11 0.173907 0.997531 0.615343
O O12 0.816803 0.750000 0.059221
O O13 0.965285 0.966220 0.082144
O O14 0.774730 0.016441 0.078274
O O15 0.344089 0.750000 0.929208
O O16 0.500000 0.000000 0.000000
O O17 0.556519 0.250000 0.738371
O O18 0.745679 0.023301 0.827448
O O19 0.076247 0.250000 0.607993
O O20 0.927543 0.250000 0.923693
O O21 0.000000 0.500000 0.000000
#
# Coordination Sequence:
#
# PCOD9156635 Si02
#       8
#     4   4   4   4   4   4   4   4
#     4  10  18  29  49  70  97 135 169 198 242 291
#     4  10  19  33  51  71  97 132 168 201 243 293
#     4  10  19  29  47  74 101 130 167 204 239 290
#     4  11  22  35  50  71  99 130 169 211 246 286
#     4  12  24  36  51  72  98 130 167 205 248 294
#     4  10  19  33  49  69 101 138 168 198 245 295
#     4   9  18  33  49  69 100 134 163 199 250 297
#     4  10  21  34  51  74  99 132 171 208 246 292
#
# _framework density 15.627971000000001
#
# number of rings (size 3 to 8) (size 9 to 14) (size 15 to 20)
#    0.000    1.750    3.750    1.875    0.000    2.500 
#    0.000    0.000    0.000    0.000    0.000    0.875 
#    0.000    0.000    0.000    0.000    0.000    0.000 
#
# Total GULP energy -178527.826170 kJ/mol
# GULP energy per Si atom -5578.994568 kJ/mol
# Density = 1.559240 g / cm^3
# Si number density = 15.627971 Si / 1000 Ang^3
#
#
#
# Elastic Constant Matrix: (Units=GPa)
#
#
# Indices 1 2 3 4 5 6 
#
# 1 91.2423 45.5105 53.8512 0.0000 2.8245 0.0000
# 2 45.5105 59.6352 48.2298 0.0000 -4.4198 0.0000
# 3 53.8512 48.2298 124.1852 0.0000 2.5673 0.0000
# 4 0.0000 0.0000 0.0000 26.1619 0.0000 -1.0173
# 5 2.8245 -4.4198 2.5673 0.0000 21.4192 0.0000
# 6 0.0000 0.0000 0.0000 -1.0173 0.0000 19.3140
#
#
#
# Elastic Compliance Matrix: (Units=1/GPa)
#
#
# Indices 1 2 3 4 5 6 
#
# 1 0.019266 -0.012199 -0.003521 0.000000 -0.004636 0.000000
# 2 -0.012199 0.033021 -0.007728 0.000000 0.009349 0.000000
# 3 -0.003521 -0.007728 0.012635 0.000000 -0.002645 0.000000
# 4 0.000000 0.000000 0.000000 0.038302 0.000000 0.002017
# 5 -0.004636 0.009349 -0.002645 0.000000 0.049545 0.000000
# 6 0.000000 0.000000 0.000000 0.002017 0.000000 0.051882
#
#
# Mechanical properties :
#
#
# Convention : Reuss Voigt Hill
#
# Bulk Modulus (GPa) = 55.47229 63.36064 59.41646
# Shear Modulus (GPa) = 19.41336 21.87710 20.64523
#
# Velocity S-wave (km/s) = 3.52834 3.74554 3.63856
# Velocity P-wave (km/s) = 7.22298 7.70302 7.46686
#
# Compressibility (1/GPa) = 0.01802702
#
# Stress axis : x y z
#
# Youngs Moduli (GPa) = 51.90488 30.28393 79.14414
#
# Poissons Ratio (x) = 0.36943 0.27866
# Poissons Ratio (y) = 0.63318 0.61160
# Poissons Ratio (z) = 0.18275 0.23403
#
# Static dielectric constant tensor:
#      x y z
#    x 1.512500 0.000000 0.002060 
#    y 0.000000 1.542570 0.000000 
#    z 0.002060 0.000000 1.531440 
# 
# From -- ./inp_files/71629.got.cif
#   From: 2010.05.17/outbox.cif.g08.bks.cpg/sg11_36_cif.got.tgz:71629.got - 2010.06.03 12:22:45.
