data_PCOD9156533
_publ_section_title
;
Structure prediction by ZEFSAII (Michael W. Deem and Ramdas Pophale) SiO2 
 PCOD9156533
Probable space group: P 21/M
;
_chemical_formula_sum "Si O2"
_cell_formula_units_Z 32
_cell_length_a 31.128657
_cell_length_b 8.041968
_cell_length_c 17.497931
_cell_angle_alpha 90.000000
_cell_angle_beta 25.644195
_cell_angle_gamma 90.000000
_cell_volume 1895.736005
_symmetry_space_group_name_H-M "P 21/M"
_symmetry_group_IT_number 11
_symmetry_cell_setting 'monoclinic'
loop_
_space_group_symop_operation_xyz
x,y,z
-x,1/2+y,-z
-x,-y,-z
x,1/2-y,z
loop_
_atom_site_type_symbol
_atom_site_label
_atom_site_fract_x
_atom_site_fract_y
_atom_site_fract_z
Si Si1 0.348189 0.051721 0.202303
Si Si2 0.403177 0.547576 0.605495
Si Si3 0.555632 0.048490 0.796317
Si Si4 0.227693 0.552312 0.992117
Si Si5 0.335663 0.552865 0.981115
Si Si6 0.185307 0.553658 0.353250
Si Si7 0.556979 0.057179 0.627391
Si Si8 0.019280 0.554976 0.381674
O O1 0.344397 0.250000 0.201584
O O2 0.373146 0.004413 0.249111
O O3 0.246502 0.980323 0.331944
O O4 0.444087 0.991256 0.999006
O O5 0.500000 0.500000 0.500000
O O6 0.402401 0.750000 0.605470
O O7 0.302667 0.486133 0.807639
O O8 0.410872 0.484851 0.505842
O O9 0.552556 0.250000 0.798998
O O10 0.586442 0.985788 0.663006
O O11 0.217108 0.750000 0.992387
O O12 0.285647 0.536857 0.979058
O O13 0.118145 0.480783 0.183676
O O14 0.356052 0.750000 0.961299
O O15 0.258418 0.492967 0.168574
O O16 0.437770 0.455081 0.819746
O O17 0.172535 0.750000 0.363094
O O18 0.078066 0.475489 0.512763
O O19 0.588222 0.250000 0.576922
O O20 0.037993 0.750000 0.358106
O O21 0.000000 0.500000 0.500000
#
# Coordination Sequence:
#
# PCOD9156533 Si02
#       8
#     4   4   4   4   4   4   4   4
#     4  10  19  31  48  70  95 126 161 195 237 287
#     4  10  19  31  48  69  95 127 162 196 233 278
#     4   9  18  31  45  67  99 127 156 195 237 283
#     4   9  18  33  47  65  95 129 162 198 236 277
#     4  10  18  29  46  66  95 131 162 192 233 280
#     4  11  21  33  48  70  97 129 164 197 240 285
#     4  10  19  30  46  71  97 126 163 198 233 275
#     4  11  21  34  50  69  95 128 166 203 239 282
#
# _framework density 16.879988000000001
#
# number of rings (size 3 to 8) (size 9 to 14) (size 15 to 20)
#    0.000    2.000    3.750    1.125    0.000    1.500 
#    0.000    1.250    0.000    0.000    0.000    0.875 
#    0.000    0.000    0.000    0.000    0.000    0.000 
#
# Total GULP energy -178417.640670 kJ/mol
# GULP energy per Si atom -5575.551271 kJ/mol
# Density = 1.684157 g / cm^3
# Si number density = 16.879988 Si / 1000 Ang^3
#
#
#
# Elastic Constant Matrix: (Units=GPa)
#
#
# Indices 1 2 3 4 5 6 
#
# 1 85.9232 0.3596 59.1223 0.0000 16.4777 0.0000
# 2 0.3596 14.4440 4.8613 0.0000 3.8970 0.0000
# 3 59.1223 4.8613 117.8270 0.0000 13.3745 0.0000
# 4 0.0000 0.0000 0.0000 12.3557 0.0000 -4.0452
# 5 16.4777 3.8970 13.3745 0.0000 24.1614 0.0000
# 6 0.0000 0.0000 0.0000 -4.0452 0.0000 20.0438
#
#
#
# Elastic Compliance Matrix: (Units=1/GPa)
#
#
# Indices 1 2 3 4 5 6 
#
# 1 0.019553 0.005009 -0.008977 0.000000 -0.009174 0.000000
# 2 0.005009 0.074014 -0.004081 0.000000 -0.013095 0.000000
# 3 -0.008977 -0.004081 0.013221 0.000000 -0.000538 0.000000
# 4 0.000000 0.000000 0.000000 0.086660 0.000000 0.017490
# 5 -0.009174 -0.013095 -0.000538 0.000000 0.050055 0.000000
# 6 0.000000 0.000000 0.000000 0.017490 0.000000 0.053420
#
#
# Mechanical properties :
#
#
# Convention : Reuss Voigt Hill
#
# Bulk Modulus (GPa) = 11.02627 38.54229 24.78428
# Shear Modulus (GPa) = 14.56660 21.56892 18.06776
#
# Velocity S-wave (km/s) = 2.94079 3.57848 3.27519
# Velocity P-wave (km/s) = 4.25174 6.32114 5.38675
#
# Compressibility (1/GPa) = 0.09069248
#
# Stress axis : x y z
#
# Youngs Moduli (GPa) = 51.14217 13.51087 75.63891
#
# Poissons Ratio (x) = -0.06768 0.67898
# Poissons Ratio (y) = -0.25619 0.30867
# Poissons Ratio (z) = 0.45909 0.05514
#
# Static dielectric constant tensor:
#      x y z
#    x 1.572990 0.000000 0.021570 
#    y 0.000000 1.607590 0.000000 
#    z 0.021570 0.000000 1.588730 
# 
# From -- ./inp_files/56169.got.cif
#   From: 2010.05.17/outbox.cif.g08.bks.cpg/sg11_29_cif.got.tgz:56169.got - 2010.06.03 12:22:45.
