data_PCOD9156025
_publ_section_title
;
Structure prediction by ZEFSAII (Michael W. Deem and Ramdas Pophale) SiO2 
 PCOD9156025
Probable space group: P 21/M
;
_chemical_formula_sum "Si O2"
_cell_formula_units_Z 28
_cell_length_a 9.113683
_cell_length_b 19.254049
_cell_length_c 11.435258
_cell_angle_alpha 90.000000
_cell_angle_beta 61.658376
_cell_angle_gamma 90.000000
_cell_volume 1766.078971
_symmetry_space_group_name_H-M "P 21/M"
_symmetry_group_IT_number 11
_symmetry_cell_setting 'monoclinic'
loop_
_space_group_symop_operation_xyz
x,y,z
-x,1/2+y,-z
-x,-y,-z
x,1/2-y,z
loop_
_atom_site_type_symbol
_atom_site_label
_atom_site_fract_x
_atom_site_fract_y
_atom_site_fract_z
Si Si1 0.862866 0.980622 0.211926
Si Si2 0.758547 0.517362 0.993333
Si Si3 0.904740 0.590468 0.428075
Si Si4 0.607870 0.429670 0.444224
Si Si5 0.613769 0.830925 0.631346
Si Si6 0.440158 0.435306 0.141182
Si Si7 0.749503 0.042504 0.625056
O O1 0.857937 0.920932 0.311053
O O2 0.762508 0.045967 0.304702
O O3 0.781852 0.960411 0.119120
O O4 0.056090 0.000088 0.120604
O O5 0.668082 0.568325 0.935999
O O6 0.632837 0.451602 0.042400
O O7 0.804535 0.654030 0.520690
O O8 0.831837 0.522620 0.523657
O O9 0.102275 0.585260 0.371199
O O10 0.500000 0.500000 0.500000
O O11 0.501549 0.371742 0.418625
O O12 0.663179 0.413240 0.555388
O O13 0.577521 0.750000 0.650218
O O14 0.583883 0.870377 0.765104
O O15 0.371328 0.503692 0.237873
#
# Coordination Sequence:
#
# PCOD9156025 Si02
#       7
#     4   4   4   4   4   4   4
#     4  10  17  29  49  83 105 128 167 228 250 300
#     4  10  19  27  50  83 106 127 169 214 261 293
#     4   9  17  30  50  76 102 130 166 213 269 300
#     4  11  17  31  54  79 103 133 176 221 270 303
#     4  11  22  35  53  76 108 140 170 217 277 326
#     4  10  18  32  49  81 104 135 173 218 260 309
#     4   9  16  28  52  76 101 127 166 224 258 295
#
# _framework density 15.854331999999999
#
# number of rings (size 3 to 8) (size 9 to 14) (size 15 to 20)
#    0.000    2.000    7.143    0.000    2.000    0.000 
#    0.000    0.714    0.000    1.714    0.000    0.000 
#    0.000    0.000    0.000    0.000    0.000    0.000 
#
# Total GULP energy -155913.560426 kJ/mol
# GULP energy per Si atom -5568.341444 kJ/mol
# Density = 1.581825 g / cm^3
# Si number density = 15.854332 Si / 1000 Ang^3
#
#
#
# Elastic Constant Matrix: (Units=GPa)
#
#
# Indices 1 2 3 4 5 6 
#
# 1 112.2816 38.5215 37.3483 0.0000 10.4119 0.0000
# 2 38.5215 77.8822 26.9316 0.0000 4.6183 0.0000
# 3 37.3483 26.9316 72.4287 0.0000 2.0385 0.0000
# 4 0.0000 0.0000 0.0000 10.2703 0.0000 0.9817
# 5 10.4119 4.6183 2.0385 0.0000 40.8739 0.0000
# 6 0.0000 0.0000 0.0000 0.9817 0.0000 12.3559
#
#
#
# Elastic Compliance Matrix: (Units=1/GPa)
#
#
# Indices 1 2 3 4 5 6 
#
# 1 0.012118 -0.004263 -0.004597 0.000000 -0.002376 0.000000
# 2 -0.004263 0.016314 -0.003852 0.000000 -0.000565 0.000000
# 3 -0.004597 -0.003852 0.017589 0.000000 0.000729 0.000000
# 4 0.000000 0.000000 0.000000 0.098114 0.000000 -0.007795
# 5 -0.002376 -0.000565 0.000729 0.000000 0.025098 0.000000
# 6 0.000000 0.000000 0.000000 -0.007795 0.000000 0.081552
#
#
# Mechanical properties :
#
#
# Convention : Reuss Voigt Hill
#
# Bulk Modulus (GPa) = 48.55018 52.02170 50.28594
# Shear Modulus (GPa) = 17.66321 23.35278 20.50799
#
# Velocity S-wave (km/s) = 3.34142 3.84208 3.60046
# Velocity P-wave (km/s) = 6.75100 7.25021 7.00505
#
# Compressibility (1/GPa) = 0.02059724
#
# Stress axis : x y z
#
# Youngs Moduli (GPa) = 82.52080 61.29666 56.85472
#
# Poissons Ratio (x) = 0.26133 0.26134
# Poissons Ratio (y) = 0.35182 0.21899
# Poissons Ratio (z) = 0.37932 0.23610
#
# Static dielectric constant tensor:
#      x y z
#    x 1.586980 0.000000 0.001110 
#    y 0.000000 1.479550 0.000000 
#    z 0.001110 0.000000 1.575220 
# 
# From -- ./inp_files/32474.got.cif
#   From: 2010.05.17/outbox.cif.g08.bks.cpg/sg11_17_cif.got.tgz:32474.got - 2010.06.03 12:22:45.
