data_PCOD9156865
_publ_section_title
;
Structure prediction by ZEFSAII (Michael W. Deem and Ramdas Pophale) SiO2 
 PCOD9156865
Probable space group: P 21/M
;
_chemical_formula_sum "Si O2"
_cell_formula_units_Z 20
_cell_length_a 10.472745
_cell_length_b 8.665779
_cell_length_c 22.049038
_cell_angle_alpha 90.000000
_cell_angle_beta 35.581398
_cell_angle_gamma 90.000000
_cell_volume 1164.328439
_symmetry_space_group_name_H-M "P 21/M"
_symmetry_group_IT_number 11
_symmetry_cell_setting 'monoclinic'
loop_
_space_group_symop_operation_xyz
x,y,z
-x,1/2+y,-z
-x,-y,-z
x,1/2-y,z
loop_
_atom_site_type_symbol
_atom_site_label
_atom_site_fract_x
_atom_site_fract_y
_atom_site_fract_z
Si Si1 0.960652 0.064367 0.222516
Si Si2 0.964400 0.064968 0.446953
Si Si3 0.231227 0.564284 0.233605
Si Si4 0.498774 0.065142 0.568622
Si Si5 0.634194 0.564457 0.005385
O O1 0.952185 0.250000 0.229833
O O2 0.115598 0.018486 0.105598
O O3 0.717321 0.997895 0.314901
O O4 0.079956 0.001519 0.237374
O O5 0.976060 0.250000 0.443134
O O6 0.723886 0.019912 0.514736
O O7 0.141260 0.000384 0.331091
O O8 0.000000 0.000000 0.500000
O O9 0.214230 0.750000 0.239626
O O10 0.483932 0.519152 0.120574
O O11 0.488957 0.250000 0.569502
O O12 0.500000 0.000000 0.500000
O O13 0.630284 0.750000 0.004746
O O14 0.500000 0.500000 0.000000
#
# Coordination Sequence:
#
# PCOD9156865 Si02
#       5
#     4   4   4   4   4
#     4  10  18  30  50  78 110 139 174 217 262 312
#     4  11  24  39  55  77 106 141 180 221 267 320
#     4  10  18  31  52  76 106 141 177 217 263 312
#     4  11  22  35  54  79 108 140 176 219 268 317
#     4   8  16  28  45  73 105 137 171 213 261 308
#
# _framework density 17.177282999999999
#
# number of rings (size 3 to 8) (size 9 to 14) (size 15 to 20)
#    0.000    2.000    2.000    2.400    0.000    4.000 
#    0.000    0.000    0.000    1.200    0.000    0.000 
#    0.000    0.000    0.000    0.000    0.000    0.000 
#
# Total GULP energy -111504.632221 kJ/mol
# GULP energy per Si atom -5575.231611 kJ/mol
# Density = 1.713819 g / cm^3
# Si number density = 17.177283 Si / 1000 Ang^3
#
#
#
# Elastic Constant Matrix: (Units=GPa)
#
#
# Indices 1 2 3 4 5 6 
#
# 1 84.1770 32.8205 71.2736 0.0000 6.3593 0.0000
# 2 32.8205 42.1344 47.3853 0.0000 -0.0237 0.0000
# 3 71.2736 47.3853 217.6277 0.0000 1.9015 0.0000
# 4 0.0000 0.0000 0.0000 29.2113 0.0000 -1.2801
# 5 6.3593 -0.0237 1.9015 0.0000 19.6316 0.0000
# 6 0.0000 0.0000 0.0000 -1.2801 0.0000 21.5812
#
#
#
# Elastic Compliance Matrix: (Units=1/GPa)
#
#
# Indices 1 2 3 4 5 6 
#
# 1 0.020159 -0.011047 -0.004143 0.000000 -0.006142 0.000000
# 2 -0.011047 0.037493 -0.004581 0.000000 0.004067 0.000000
# 3 -0.004143 -0.004581 0.006944 0.000000 0.000664 0.000000
# 4 0.000000 0.000000 0.000000 0.034323 0.000000 0.002036
# 5 -0.006142 0.004067 0.000664 0.000000 0.052869 0.000000
# 6 0.000000 0.000000 0.000000 0.002036 0.000000 0.046457
#
#
# Mechanical properties :
#
#
# Convention : Reuss Voigt Hill
#
# Bulk Modulus (GPa) = 39.91514 71.87754 55.89634
# Shear Modulus (GPa) = 20.31389 26.91548 23.61469
#
# Velocity S-wave (km/s) = 3.44263 3.96273 3.71180
# Velocity P-wave (km/s) = 6.25219 7.92925 7.14013
#
# Compressibility (1/GPa) = 0.02505315
#
# Stress axis : x y z
#
# Youngs Moduli (GPa) = 49.60593 26.67175 144.01749
#
# Poissons Ratio (x) = 0.29463 0.59669
# Poissons Ratio (y) = 0.54798 0.65978
# Poissons Ratio (z) = 0.20553 0.12219
#
# Static dielectric constant tensor:
#      x y z
#    x 1.534020 0.000000 -0.009890 
#    y 0.000000 1.576570 0.000000 
#    z -0.009890 0.000000 1.639010 
# 
# From -- ./inp_files/15921.got.cif
#   From: 2010.05.17/outbox.cif.g08.bks.cpg/sg11_8_cif.got.tgz:15921.got - 2010.06.03 12:22:45.
