data_PCOD9156092
_publ_section_title
;
Structure prediction by ZEFSAII (Michael W. Deem and Ramdas Pophale) SiO2 
 PCOD9156092
Probable space group: P 21/M
;
_chemical_formula_sum "Si O2"
_cell_formula_units_Z 32
_cell_length_a 15.556059
_cell_length_b 7.804518
_cell_length_c 32.044027
_cell_angle_alpha 90.000000
_cell_angle_beta 28.598966
_cell_angle_gamma 90.000000
_cell_volume 1862.234733
_symmetry_space_group_name_H-M "P 21/M"
_symmetry_group_IT_number 11
_symmetry_cell_setting 'monoclinic'
loop_
_space_group_symop_operation_xyz
x,y,z
-x,1/2+y,-z
-x,-y,-z
x,1/2-y,z
loop_
_atom_site_type_symbol
_atom_site_label
_atom_site_fract_x
_atom_site_fract_y
_atom_site_fract_z
Si Si1 0.940949 0.050243 0.932255
Si Si2 0.284087 0.955584 0.389383
Si Si3 0.264893 0.451842 0.059326
Si Si4 0.374608 0.049107 0.872189
Si Si5 0.250343 0.539926 0.248740
Si Si6 0.677068 0.457367 0.873693
Si Si7 0.964359 0.044074 0.581314
Si Si8 0.324289 0.039747 0.799303
O O1 0.940846 0.250000 0.943436
O O2 0.140260 0.981908 0.856218
O O3 0.875641 0.031447 0.912656
O O4 0.791024 0.968116 0.025893
O O5 0.289400 0.750000 0.383677
O O6 0.488899 0.016619 0.301292
O O7 0.175123 0.019610 0.394888
O O8 0.162030 0.998552 0.481124
O O9 0.265324 0.250000 0.050632
O O10 0.233057 0.482573 0.121792
O O11 0.468179 0.516305 0.963636
O O12 0.411165 0.250000 0.850203
O O13 0.556877 0.980631 0.815287
O O14 0.330506 0.981542 0.844967
O O15 0.251417 0.750000 0.247515
O O16 0.235774 0.485568 0.206907
O O17 0.099931 0.484420 0.345915
O O18 0.674389 0.250000 0.875838
O O19 0.951547 0.250000 0.586861
O O20 0.322799 0.250000 0.799016
#
# Coordination Sequence:
#
# PCOD9156092 Si02
#       8
#     4   4   4   4   4   4   4   4
#     4  11  21  31  44  67  94 123 160 197 225 259
#     4   9  16  29  46  64  89 122 155 187 223 265
#     4  10  19  32  48  66  89 121 154 187 231 275
#     4  10  17  31  48  64  90 127 163 188 218 267
#     4   9  15  27  48  69  90 122 154 179 221 280
#     4   9  17  30  48  68  89 116 152 189 226 273
#     4   9  16  27  46  68  90 117 151 188 225 268
#     4   9  18  31  48  65  89 128 165 189 221 270
#
# _framework density 17.183655000000002
#
# number of rings (size 3 to 8) (size 9 to 14) (size 15 to 20)
#    0.000    2.500    2.500    1.125    0.000    0.500 
#    0.000    3.750    0.000    0.000    0.000    0.875 
#    0.000    0.000    0.000    0.000    0.000    0.000 
#
# Total GULP energy -178415.007071 kJ/mol
# GULP energy per Si atom -5575.468971 kJ/mol
# Density = 1.714454 g / cm^3
# Si number density = 17.183655 Si / 1000 Ang^3
#
#
#
# Elastic Constant Matrix: (Units=GPa)
#
#
# Indices 1 2 3 4 5 6 
#
# 1 91.5126 -6.5334 69.6710 0.0000 9.5520 0.0000
# 2 -6.5334 14.4155 -6.5217 0.0000 0.1622 0.0000
# 3 69.6710 -6.5217 124.7691 0.0000 15.6300 0.0000
# 4 0.0000 0.0000 0.0000 17.7942 0.0000 3.9160
# 5 9.5520 0.1622 15.6300 0.0000 24.8399 0.0000
# 6 0.0000 0.0000 0.0000 3.9160 0.0000 12.2743
#
#
#
# Elastic Compliance Matrix: (Units=1/GPa)
#
#
# Indices 1 2 3 4 5 6 
#
# 1 0.019243 0.004014 -0.010427 0.000000 -0.000865 0.000000
# 2 0.004014 0.072099 0.001932 0.000000 -0.003230 0.000000
# 3 -0.010427 0.001932 0.014587 0.000000 -0.005182 0.000000
# 4 0.000000 0.000000 0.000000 0.060442 0.000000 -0.019284
# 5 -0.000865 -0.003230 -0.005182 0.000000 0.043872 0.000000
# 6 0.000000 0.000000 0.000000 -0.019284 0.000000 0.087624
#
#
# Mechanical properties :
#
#
# Convention : Reuss Voigt Hill
#
# Bulk Modulus (GPa) = 10.31279 38.21431 24.26355
# Shear Modulus (GPa) = 14.74267 22.58709 18.66488
#
# Velocity S-wave (km/s) = 2.93225 3.62947 3.29933
# Velocity P-wave (km/s) = 4.18075 6.31277 5.35396
#
# Compressibility (1/GPa) = 0.09696701
#
# Stress axis : x y z
#
# Youngs Moduli (GPa) = 51.96813 13.86972 68.55281
#
# Poissons Ratio (x) = -0.05567 0.71479
# Poissons Ratio (y) = -0.20859 -0.13244
# Poissons Ratio (z) = 0.54187 -0.02680
#
# Static dielectric constant tensor:
#      x y z
#    x 1.576020 0.000000 0.007220 
#    y 0.000000 1.633890 0.000000 
#    z 0.007220 0.000000 1.582640 
# 
# From -- ./inp_files/51206.got.cif
#   From: 2010.05.17/outbox.cif.g08.bks.cpg/sg11_26_cif.got.tgz:51206.got - 2010.06.03 12:22:45.
