data_PCOD9156355
_publ_section_title
;
Structure prediction by ZEFSAII (Michael W. Deem and Ramdas Pophale) SiO2 
 PCOD9156355
Probable space group: P 21/M
;
_chemical_formula_sum "Si O2"
_cell_formula_units_Z 32
_cell_length_a 21.659002
_cell_length_b 7.477579
_cell_length_c 26.110736
_cell_angle_alpha 90.000000
_cell_angle_beta 159.646307
_cell_angle_gamma 90.000000
_cell_volume 1470.842398
_symmetry_space_group_name_H-M "P 21/M"
_symmetry_group_IT_number 11
_symmetry_cell_setting 'monoclinic'
loop_
_space_group_symop_operation_xyz
x,y,z
-x,1/2+y,-z
-x,-y,-z
x,1/2-y,z
loop_
_atom_site_type_symbol
_atom_site_label
_atom_site_fract_x
_atom_site_fract_y
_atom_site_fract_z
Si Si1 0.965453 0.036240 0.033344
Si Si2 0.170495 0.547696 0.845959
Si Si3 0.239274 0.043562 0.784322
Si Si4 0.208452 0.031006 0.469756
Si Si5 0.416241 0.542320 0.276950
Si Si6 0.144797 0.034324 0.537936
Si Si7 0.448410 0.030096 0.851769
Si Si8 0.346998 0.462919 0.340396
O O1 0.955265 0.250000 0.033130
O O2 0.148533 0.971951 0.201546
O O3 0.767023 0.964507 0.888898
O O4 0.000000 0.000000 0.000000
O O5 0.161006 0.750000 0.858795
O O6 0.204442 0.553761 0.810718
O O7 0.974623 0.466706 0.698991
O O8 0.354248 0.467431 0.009038
O O9 0.272841 0.250000 0.822852
O O10 0.390082 0.974378 0.863509
O O11 0.054223 0.034641 0.608821
O O12 0.202436 0.250000 0.461978
O O13 0.393599 0.966024 0.590762
O O14 0.197408 0.984029 0.520946
O O15 0.421924 0.750000 0.265314
O O16 0.396005 0.536812 0.322626
O O17 0.136588 0.250000 0.534172
O O18 0.295702 0.973190 0.694139
O O19 0.451336 0.250000 0.854575
O O20 0.500000 0.500000 0.500000
O O21 0.333875 0.250000 0.323855
#
# Coordination Sequence:
#
# PCOD9156355 Si02
#       8
#     4   4   4   4   4   4   4   4
#     4   8  15  27  45  67  92 117 146 179 215 255
#     4   9  17  31  47  65  90 121 152 186 226 274
#     4  10  18  28  43  66  90 116 150 189 231 278
#     4   8  15  28  48  68  87 115 153 186 220 265
#     4   9  16  30  50  71  92 118 151 188 221 262
#     4   9  17  31  47  64  87 117 149 187 229 272
#     4   9  17  28  45  67  90 114 148 191 235 276
#     4  10  19  31  47  72 100 126 150 180 222 264
#
# _framework density 21.756238
#
# number of rings (size 3 to 8) (size 9 to 14) (size 15 to 20)
#    0.000    3.000    0.000    2.250    0.000    0.500 
#    0.000    5.625    0.000    6.000    0.000    3.500 
#    0.000    0.000    0.000    0.000    0.000    0.000 
#
# Total GULP energy -178399.484980 kJ/mol
# GULP energy per Si atom -5574.983906 kJ/mol
# Density = 2.170672 g / cm^3
# Si number density = 21.756238 Si / 1000 Ang^3
#
#
#
# Elastic Constant Matrix: (Units=GPa)
#
#
# Indices 1 2 3 4 5 6 
#
# 1 22.7735 -3.8939 37.0931 0.0000 19.3789 0.0000
# 2 -3.8939 69.7183 2.1893 0.0000 4.2017 0.0000
# 3 37.0931 2.1893 207.0312 0.0000 27.2223 0.0000
# 4 0.0000 0.0000 0.0000 10.1743 0.0000 -0.0217
# 5 19.3789 4.2017 27.2223 0.0000 43.1105 0.0000
# 6 0.0000 0.0000 0.0000 -0.0217 0.0000 8.6604
#
#
#
# Elastic Compliance Matrix: (Units=1/GPa)
#
#
# Indices 1 2 3 4 5 6 
#
# 1 0.096754 0.007988 -0.012649 0.000000 -0.036284 0.000000
# 2 0.007988 0.015088 -0.001009 0.000000 -0.004424 0.000000
# 3 -0.012649 -0.001009 0.006921 0.000000 0.001414 0.000000
# 4 0.000000 0.000000 0.000000 0.098288 0.000000 0.000246
# 5 -0.036284 -0.004424 0.001414 0.000000 0.039045 0.000000
# 6 0.000000 0.000000 0.000000 0.000246 0.000000 0.115468
#
#
# Mechanical properties :
#
#
# Convention : Reuss Voigt Hill
#
# Bulk Modulus (GPa) = 9.30892 41.14442 25.22667
# Shear Modulus (GPa) = 11.94139 29.99801 20.96970
#
# Velocity S-wave (km/s) = 2.34534 3.71728 3.10796
# Velocity P-wave (km/s) = 3.40914 6.11366 4.94970
#
# Compressibility (1/GPa) = 0.10742380
#
# Stress axis : x y z
#
# Youngs Moduli (GPa) = 10.33547 66.27833 144.48394
#
# Poissons Ratio (x) = -0.52942 1.82752
# Poissons Ratio (y) = -0.08256 0.14578
# Poissons Ratio (z) = 0.13073 0.06687
#
# Static dielectric constant tensor:
#      x y z
#    x 1.737410 0.000000 0.009240 
#    y 0.000000 1.865640 0.000000 
#    z 0.009240 0.000000 1.879720 
# 
# From -- ./inp_files/72192.got.cif
#   From: 2010.05.17/outbox.cif.g08.bks.cpg/sg11_37_cif.got.tgz:72192.got - 2010.06.03 12:22:45.
