data_PCOD9156499
_publ_section_title
;
Structure prediction by ZEFSAII (Michael W. Deem and Ramdas Pophale) SiO2 
 PCOD9156499
Probable space group: P 21/M
;
_chemical_formula_sum "Si O2"
_cell_formula_units_Z 32
_cell_length_a 32.457816
_cell_length_b 9.052332
_cell_length_c 20.882978
_cell_angle_alpha 90.000000
_cell_angle_beta 160.998034
_cell_angle_gamma 90.000000
_cell_volume 1997.824765
_symmetry_space_group_name_H-M "P 21/M"
_symmetry_group_IT_number 11
_symmetry_cell_setting 'monoclinic'
loop_
_space_group_symop_operation_xyz
x,y,z
-x,1/2+y,-z
-x,-y,-z
x,1/2-y,z
loop_
_atom_site_type_symbol
_atom_site_label
_atom_site_fract_x
_atom_site_fract_y
_atom_site_fract_z
Si Si1 0.648723 0.421147 0.967429
Si Si2 0.418381 0.580284 0.796852
Si Si3 0.054374 0.929877 0.400876
Si Si4 0.889438 0.070836 0.796250
Si Si5 0.092709 0.071807 0.689658
Si Si6 0.863459 0.429955 0.611180
Si Si7 0.605505 0.079535 0.393610
Si Si8 0.329500 0.578884 0.846470
O O1 0.660208 0.250000 0.965433
O O2 0.509628 0.484685 0.747959
O O3 0.764952 0.515430 0.111278
O O4 0.661453 0.428570 0.063346
O O5 0.431220 0.750000 0.835519
O O6 0.281200 0.522093 0.616774
O O7 0.407440 0.578683 0.702925
O O8 0.546652 0.495602 0.000500
O O9 0.054465 0.750000 0.402019
O O10 0.045250 0.974363 0.312979
O O11 0.193210 0.982445 0.627153
O O12 0.956308 0.973597 0.311645
O O13 0.895703 0.250000 0.807261
O O14 0.897988 0.024337 0.733914
O O15 0.749545 0.028816 0.616598
O O16 0.000000 0.000000 0.000000
O O17 0.085583 0.250000 0.673359
O O18 0.000000 0.000000 0.500000
O O19 0.858201 0.250000 0.604825
O O20 0.592445 0.250000 0.394945
O O21 0.330765 0.750000 0.829841
#
# Coordination Sequence:
#
# PCOD9156499 Si02
#       8
#     4   4   4   4   4   4   4   4
#     4  10  18  29  44  65  91 120 156 197 237 268
#     4   8  14  25  41  60  82 113 150 183 215 254
#     4   9  17  29  43  60  85 119 157 192 226 266
#     4   9  17  30  51  76  99 122 148 179 222 276
#     4  11  20  31  46  64  87 120 162 204 239 269
#     4   8  15  29  46  63  88 120 151 182 218 270
#     4   8  15  28  44  66  93 121 150 181 222 272
#     4   9  16  26  39  58  84 116 152 188 223 259
#
# _framework density 16.017422
#
# number of rings (size 3 to 8) (size 9 to 14) (size 15 to 20)
#    0.000    3.000    1.250    2.250    0.000    1.500 
#    0.000    1.875    0.000    3.750    0.000    0.875 
#    0.000    0.000    0.000    0.000    0.000    0.000 
#
# Total GULP energy -178182.958681 kJ/mol
# GULP energy per Si atom -5568.217459 kJ/mol
# Density = 1.598097 g / cm^3
# Si number density = 16.017422 Si / 1000 Ang^3
#
#
#
# Elastic Constant Matrix: (Units=GPa)
#
#
# Indices 1 2 3 4 5 6 
#
# 1 89.0245 29.2244 54.0546 0.0000 23.1673 0.0000
# 2 29.2244 36.9587 36.2820 0.0000 10.1171 0.0000
# 3 54.0546 36.2820 111.0731 0.0000 12.5649 0.0000
# 4 0.0000 0.0000 0.0000 27.7377 0.0000 2.0838
# 5 23.1673 10.1171 12.5649 0.0000 23.8011 0.0000
# 6 0.0000 0.0000 0.0000 2.0838 0.0000 8.6568
#
#
#
# Elastic Compliance Matrix: (Units=1/GPa)
#
#
# Indices 1 2 3 4 5 6 
#
# 1 0.020987 -0.006241 -0.006556 0.000000 -0.014315 0.000000
# 2 -0.006241 0.044424 -0.010662 0.000000 -0.007180 0.000000
# 3 -0.006556 -0.010662 0.015359 0.000000 0.002805 0.000000
# 4 0.000000 0.000000 0.000000 0.036716 0.000000 -0.008838
# 5 -0.014315 -0.007180 0.002805 0.000000 0.057520 0.000000
# 6 0.000000 0.000000 0.000000 -0.008838 0.000000 0.117644
#
#
# Mechanical properties :
#
#
# Convention : Reuss Voigt Hill
#
# Bulk Modulus (GPa) = 29.53914 52.90870 41.22392
# Shear Modulus (GPa) = 14.25106 19.87215 17.06160
#
# Velocity S-wave (km/s) = 2.98606 3.52612 3.26727
# Velocity P-wave (km/s) = 5.51096 7.04853 6.32662
#
# Compressibility (1/GPa) = 0.03385338
#
# Stress axis : x y z
#
# Youngs Moduli (GPa) = 47.64766 22.51027 65.10935
#
# Poissons Ratio (x) = 0.14049 0.42684
# Poissons Ratio (y) = 0.29738 0.69417
# Poissons Ratio (z) = 0.31236 0.24000
#
# Static dielectric constant tensor:
#      x y z
#    x 1.564970 0.000000 0.009750 
#    y 0.000000 1.542310 0.000000 
#    z 0.009750 0.000000 1.530460 
# 
# From -- ./inp_files/51208.got.cif
#   From: 2010.05.17/outbox.cif.g08.bks.cpg/sg11_26_cif.got.tgz:51208.got - 2010.06.03 12:22:45.
