data_PCOD9156997
_publ_section_title
;
Structure prediction by ZEFSAII (Michael W. Deem and Ramdas Pophale) SiO2 
 PCOD9156997
Probable space group: P 21/M
;
_chemical_formula_sum "Si O2"
_cell_formula_units_Z 20
_cell_length_a 10.539536
_cell_length_b 8.564365
_cell_length_c 22.197459
_cell_angle_alpha 90.000000
_cell_angle_beta 144.649222
_cell_angle_gamma 90.000000
_cell_volume 1159.268032
_symmetry_space_group_name_H-M "P 21/M"
_symmetry_group_IT_number 11
_symmetry_cell_setting 'monoclinic'
loop_
_space_group_symop_operation_xyz
x,y,z
-x,1/2+y,-z
-x,-y,-z
x,1/2-y,z
loop_
_atom_site_type_symbol
_atom_site_label
_atom_site_fract_x
_atom_site_fract_y
_atom_site_fract_z
Si Si1 0.035307 0.563054 0.717748
Si Si2 0.643281 0.437519 0.499343
Si Si3 0.243619 0.439690 0.271810
Si Si4 0.957432 0.061215 0.049964
Si Si5 0.502280 0.937078 0.069011
O O1 0.041419 0.750000 0.720024
O O2 0.279000 0.496796 0.813797
O O3 0.883669 0.505223 0.604091
O O4 0.912977 0.512862 0.732774
O O5 0.500000 0.500000 0.500000
O O6 0.653019 0.250000 0.505364
O O7 0.493565 0.485197 0.384303
O O8 0.239354 0.250000 0.269971
O O9 0.139182 0.493280 0.168910
O O10 0.962105 0.250000 0.050845
O O11 0.719459 0.012971 0.983028
O O12 0.000000 0.000000 0.000000
O O13 0.504221 0.750000 0.067361
O O14 0.500000 0.000000 0.000000
#
# Coordination Sequence:
#
# PCOD9156997 Si02
#       5
#     4   4   4   4   4
#     4  10  18  31  50  75 107 136 169 216 264 311
#     4   9  16  27  46  73 103 136 170 210 263 314
#     4   8  15  30  49  70 103 137 166 209 260 305
#     4  10  21  37  53  75 106 141 175 214 259 312
#     4  11  21  34  54  78 107 138 174 218 265 314
#
# _framework density 17.252264
#
# number of rings (size 3 to 8) (size 9 to 14) (size 15 to 20)
#    0.000    2.400    2.000    3.000    0.000    1.600 
#    0.000    2.000    0.000    1.200    0.000    0.000 
#    0.000    0.000    0.000    0.000    0.000    0.000 
#
# Total GULP energy -111462.159678 kJ/mol
# GULP energy per Si atom -5573.107984 kJ/mol
# Density = 1.721300 g / cm^3
# Si number density = 17.252264 Si / 1000 Ang^3
#
#
#
# Elastic Constant Matrix: (Units=GPa)
#
#
# Indices 1 2 3 4 5 6 
#
# 1 86.5637 21.9636 73.4901 0.0000 -4.2676 0.0000
# 2 21.9636 36.0111 36.4543 0.0000 3.2217 0.0000
# 3 73.4901 36.4543 214.5697 0.0000 0.9314 0.0000
# 4 0.0000 0.0000 0.0000 30.4492 0.0000 0.0663
# 5 -4.2676 3.2217 0.9314 0.0000 19.2237 0.0000
# 6 0.0000 0.0000 0.0000 0.0663 0.0000 20.9063
#
#
#
# Elastic Compliance Matrix: (Units=1/GPa)
#
#
# Indices 1 2 3 4 5 6 
#
# 1 0.017623 -0.006134 -0.005016 0.000000 0.005183 0.000000
# 2 -0.006134 0.036231 -0.004023 0.000000 -0.007239 0.000000
# 3 -0.005016 -0.004023 0.007065 0.000000 -0.000782 0.000000
# 4 0.000000 0.000000 0.000000 0.032842 0.000000 -0.000104
# 5 0.005183 -0.007239 -0.000782 0.000000 0.054421 0.000000
# 6 0.000000 0.000000 0.000000 -0.000104 0.000000 0.047833
#
#
# Mechanical properties :
#
#
# Convention : Reuss Voigt Hill
#
# Bulk Modulus (GPa) = 32.70956 66.77340 49.74148
# Shear Modulus (GPa) = 21.13707 27.79827 24.46767
#
# Velocity S-wave (km/s) = 3.50405 4.01843 3.77002
# Velocity P-wave (km/s) = 5.94743 7.76650 6.91702
#
# Compressibility (1/GPa) = 0.03057210
#
# Stress axis : x y z
#
# Youngs Moduli (GPa) = 56.74514 27.60099 141.53496
#
# Poissons Ratio (x) = 0.16931 0.70995
# Poissons Ratio (y) = 0.34808 0.56940
# Poissons Ratio (z) = 0.28464 0.11104
#
# Static dielectric constant tensor:
#      x y z
#    x 1.545110 0.000000 -0.000370 
#    y 0.000000 1.587830 0.000000 
#    z -0.000370 0.000000 1.630230 
# 
# From -- ./inp_files/23896.got.cif
#   From: 2010.05.17/outbox.cif.g08.bks.cpg/sg11_12_cif.got.tgz:23896.got - 2010.06.03 12:22:45.
