data_PCOD9156193
_publ_section_title
;
Structure prediction by ZEFSAII (Michael W. Deem and Ramdas Pophale) SiO2 
 PCOD9156193
Probable space group: P 21/M
;
_chemical_formula_sum "Si O2"
_cell_formula_units_Z 22
_cell_length_a 7.808643
_cell_length_b 20.878710
_cell_length_c 5.627682
_cell_angle_alpha 90.000000
_cell_angle_beta 120.472828
_cell_angle_gamma 90.000000
_cell_volume 790.770431
_symmetry_space_group_name_H-M "P 21/M"
_symmetry_group_IT_number 11
_symmetry_cell_setting 'monoclinic'
loop_
_space_group_symop_operation_xyz
x,y,z
-x,1/2+y,-z
-x,-y,-z
x,1/2-y,z
loop_
_atom_site_type_symbol
_atom_site_label
_atom_site_fract_x
_atom_site_fract_y
_atom_site_fract_z
Si Si1 0.542023 0.250000 0.189905
Si Si2 0.070935 0.400978 0.826380
Si Si3 0.139233 0.113415 0.387879
Si Si4 0.631106 0.059243 0.516462
Si Si5 0.797570 0.750000 0.674217
Si Si6 0.069718 0.750000 0.235432
Si Si7 0.656263 0.120364 0.031926
O O1 0.334051 0.250000 0.180942
O O2 0.709935 0.250000 0.512412
O O3 0.578303 0.188717 0.057470
O O4 0.184486 0.420801 0.666800
O O5 0.872510 0.443819 0.697989
O O6 0.008845 0.323994 0.758711
O O7 0.188129 0.407704 0.154994
O O8 0.897643 0.116424 0.207742
O O9 0.225723 0.184604 0.474421
O O10 0.593561 0.077820 0.216230
O O11 0.500000 0.000000 0.500000
O O12 0.594570 0.106534 0.717062
O O13 0.026175 0.750000 0.925550
#
# Coordination Sequence:
#
# PCOD9156193 Si02
#       7
#     2   4   4   4   2   2   4
#     4  12  21  38  60  94 135 155 203 253 326 374
#     4   9  17  29  56  76 105 158 183 244 300 339
#     4   9  16  32  50  73 110 146 198 223 285 360
#     4  10  19  34  56  90 119 156 218 254 299 372
#     4  10  22  32  58  90 119 173 197 243 310 390
#     4  10  17  36  56  78 128 150 202 240 308 370
#     4  10  21  35  60  86 124 166 192 264 316 356
#
# _framework density 27.820969999999999
#
# number of rings (size 3 to 8) (size 9 to 14) (size 15 to 20)
#    0.000    2.182    3.636    1.636    0.000    2.909 
#    0.000    7.273    0.000    0.000    0.000   48.364 
#    0.000    0.000    0.000    0.000    0.000    0.000 
#
# Total GULP energy -123083.140973 kJ/mol
# GULP energy per Si atom -5594.688226 kJ/mol
# Density = 2.775765 g / cm^3
# Si number density = 27.820970 Si / 1000 Ang^3
#
#
#
# Elastic Constant Matrix: (Units=GPa)
#
#
# Indices 1 2 3 4 5 6 
#
# 1 110.4324 20.5659 48.0648 0.0000 -23.5437 0.0000
# 2 20.5659 69.2816 22.1990 0.0000 6.7206 0.0000
# 3 48.0648 22.1990 194.8953 0.0000 -15.2227 0.0000
# 4 0.0000 0.0000 0.0000 20.1788 0.0000 -8.8686
# 5 -23.5437 6.7206 -15.2227 0.0000 59.6303 0.0000
# 6 0.0000 0.0000 0.0000 -8.8686 0.0000 37.3919
#
#
#
# Elastic Compliance Matrix: (Units=1/GPa)
#
#
# Indices 1 2 3 4 5 6 
#
# 1 0.011500 -0.003151 -0.002137 0.000000 0.004350 0.000000
# 2 -0.003151 0.016123 -0.001325 0.000000 -0.003399 0.000000
# 3 -0.002137 -0.001325 0.005872 0.000000 0.000804 0.000000
# 4 0.000000 0.000000 0.000000 0.055324 0.000000 0.013122
# 5 0.004350 -0.003399 0.000804 0.000000 0.019076 0.000000
# 6 0.000000 0.000000 0.000000 0.013122 0.000000 0.029856
#
#
# Mechanical properties :
#
#
# Convention : Reuss Voigt Hill
#
# Bulk Modulus (GPa) = 49.33707 61.80763 55.57235
# Shear Modulus (GPa) = 31.69902 42.35884 37.02893
#
# Velocity S-wave (km/s) = 3.37915 3.90622 3.65221
# Velocity P-wave (km/s) = 5.74432 6.52757 6.14843
#
# Compressibility (1/GPa) = 0.02026874
#
# Stress axis : x y z
#
# Youngs Moduli (GPa) = 86.95841 62.02153 170.30447
#
# Poissons Ratio (x) = 0.19541 0.36401
# Poissons Ratio (y) = 0.27398 0.22565
# Poissons Ratio (z) = 0.18587 0.08218
#
# Static dielectric constant tensor:
#      x y z
#    x 2.172450 0.000000 0.013380 
#    y 0.000000 2.190190 0.000000 
#    z 0.013380 0.000000 2.152070 
# 
# From -- ./inp_files/2798.got.cif
#   From: 2010.05.17/outbox.cif.g08.bks.cpg/sg11_2_cif.got.tgz:2798.got - 2010.06.03 12:22:45.
