data_PCOD9156551
_publ_section_title
;
Structure prediction by ZEFSAII (Michael W. Deem and Ramdas Pophale) SiO2 
 PCOD9156551
Probable space group: P 21/M
;
_chemical_formula_sum "Si O2"
_cell_formula_units_Z 32
_cell_length_a 18.130454
_cell_length_b 8.734366
_cell_length_c 24.499548
_cell_angle_alpha 90.000000
_cell_angle_beta 30.160034
_cell_angle_gamma 90.000000
_cell_volume 1949.227046
_symmetry_space_group_name_H-M "P 21/M"
_symmetry_group_IT_number 11
_symmetry_cell_setting 'monoclinic'
loop_
_space_group_symop_operation_xyz
x,y,z
-x,1/2+y,-z
-x,-y,-z
x,1/2-y,z
loop_
_atom_site_type_symbol
_atom_site_label
_atom_site_fract_x
_atom_site_fract_y
_atom_site_fract_z
Si Si1 0.825209 0.433782 0.833124
Si Si2 0.451001 0.568313 0.473122
Si Si3 0.621509 0.566848 0.880257
Si Si4 0.947412 0.934015 0.137540
Si Si5 0.584075 0.932415 0.071040
Si Si6 0.683534 0.432896 0.240177
Si Si7 0.711107 0.434408 0.097170
Si Si8 0.137776 0.066397 0.683588
O O1 0.806751 0.250000 0.844337
O O2 0.771587 0.503857 0.810106
O O3 0.992066 0.469484 0.742357
O O4 0.718261 0.500601 0.948558
O O5 0.500000 0.500000 0.500000
O O6 0.462546 0.750000 0.468524
O O7 0.559090 0.506312 0.357527
O O8 0.283962 0.516531 0.570569
O O9 0.618605 0.750000 0.882874
O O10 0.564835 0.503277 0.858905
O O11 0.500000 0.500000 0.000000
O O12 0.935785 0.750000 0.139275
O O13 0.894839 0.974135 0.232330
O O14 0.840302 0.011988 0.162870
O O15 0.117539 0.975412 0.021245
O O16 0.581536 0.750000 0.066888
O O17 0.615363 0.983686 0.112495
O O18 0.675770 0.250000 0.249756
O O19 0.668656 0.473887 0.186128
O O20 0.699542 0.250000 0.097417
O O21 0.160456 0.250000 0.667088
#
# Coordination Sequence:
#
# PCOD9156551 Si02
#       8
#     4   4   4   4   4   4   4   4
#     4  10  18  32  51  73 105 137 169 211 258 308
#     4  12  24  38  56  74 100 133 175 222 263 307
#     4  10  18  29  46  70 103 138 172 208 250 305
#     4  10  19  34  54  75 104 138 172 211 259 307
#     4  11  20  30  48  74 104 139 175 209 251 306
#     4  11  23  37  55  76 101 135 177 218 261 309
#     4  10  21  37  53  74 105 140 174 212 258 309
#     4  10  20  34  55  78 103 136 172 214 261 308
#
# _framework density 16.416764000000001
#
# number of rings (size 3 to 8) (size 9 to 14) (size 15 to 20)
#    0.000    1.500    2.500    6.000    0.000    2.500 
#    0.000    0.000    0.000    0.000    0.000    0.875 
#    0.000    0.000    0.000    0.000    0.000    0.000 
#
# Total GULP energy -178704.149125 kJ/mol
# GULP energy per Si atom -5584.504660 kJ/mol
# Density = 1.637940 g / cm^3
# Si number density = 16.416764 Si / 1000 Ang^3
#
#
#
# Elastic Constant Matrix: (Units=GPa)
#
#
# Indices 1 2 3 4 5 6 
#
# 1 160.2693 70.1112 45.8900 0.0000 -6.4789 0.0000
# 2 70.1112 86.8610 30.1668 0.0000 -2.5599 0.0000
# 3 45.8900 30.1668 48.4118 0.0000 7.5901 0.0000
# 4 0.0000 0.0000 0.0000 20.6582 0.0000 -3.4277
# 5 -6.4789 -2.5599 7.5901 0.0000 18.9814 0.0000
# 6 0.0000 0.0000 0.0000 -3.4277 0.0000 30.6870
#
#
#
# Elastic Compliance Matrix: (Units=1/GPa)
#
#
# Indices 1 2 3 4 5 6 
#
# 1 0.011569 -0.006384 -0.007972 0.000000 0.006275 0.000000
# 2 -0.006384 0.018890 -0.006163 0.000000 0.002833 0.000000
# 3 -0.007972 -0.006163 0.034791 0.000000 -0.017464 0.000000
# 4 0.000000 0.000000 0.000000 0.049321 0.000000 0.005509
# 5 0.006275 0.002833 -0.017464 0.000000 0.062190 0.000000
# 6 0.000000 0.000000 0.000000 0.005509 0.000000 0.033202
#
#
# Mechanical properties :
#
#
# Convention : Reuss Voigt Hill
#
# Bulk Modulus (GPa) = 41.30321 65.31979 53.31150
# Shear Modulus (GPa) = 19.29968 24.02359 21.66164
#
# Velocity S-wave (km/s) = 3.43243 3.82954 3.63641
# Velocity P-wave (km/s) = 6.39708 7.70900 7.08347
#
# Compressibility (1/GPa) = 0.02421119
#
# Stress axis : x y z
#
# Youngs Moduli (GPa) = 86.44154 52.93868 28.74311
#
# Poissons Ratio (x) = 0.33797 0.22913
# Poissons Ratio (y) = 0.55186 0.17715
# Poissons Ratio (z) = 0.68907 0.32627
#
# Static dielectric constant tensor:
#      x y z
#    x 1.574190 0.000000 -0.008270 
#    y 0.000000 1.551000 0.000000 
#    z -0.008270 0.000000 1.528090 
# 
# From -- ./inp_files/69437.got.cif
#   From: 2010.05.17/outbox.cif.g08.bks.cpg/sg11_35_cif.got.tgz:69437.got - 2010.06.03 12:22:45.
