data_PCOD9156516
_publ_section_title
;
Structure prediction by ZEFSAII (Michael W. Deem and Ramdas Pophale) SiO2 
 PCOD9156516
Probable space group: P 21/M
;
_chemical_formula_sum "Si O2"
_cell_formula_units_Z 32
_cell_length_a 21.415414
_cell_length_b 8.744244
_cell_length_c 32.489638
_cell_angle_alpha 90.000000
_cell_angle_beta 159.929150
_cell_angle_gamma 90.000000
_cell_volume 2087.939715
_symmetry_space_group_name_H-M "P 21/M"
_symmetry_group_IT_number 11
_symmetry_cell_setting 'monoclinic'
loop_
_space_group_symop_operation_xyz
x,y,z
-x,1/2+y,-z
-x,-y,-z
x,1/2-y,z
loop_
_atom_site_type_symbol
_atom_site_label
_atom_site_fract_x
_atom_site_fract_y
_atom_site_fract_z
Si Si1 0.710319 0.076180 0.819485
Si Si2 0.044457 0.074215 0.091926
Si Si3 0.063041 0.434361 0.495349
Si Si4 0.229242 0.935140 0.753150
Si Si5 0.538548 0.068940 0.270139
Si Si6 0.247166 0.565440 0.025610
Si Si7 0.299851 0.934090 0.885931
Si Si8 0.649007 0.566065 0.997369
O O1 0.643916 0.250000 0.776114
O O2 0.792824 0.020626 0.827422
O O3 0.559692 0.971182 0.747572
O O4 0.880693 0.073958 0.956864
O O5 0.102049 0.250000 0.132861
O O6 0.943032 0.018848 0.070273
O O7 0.062213 0.250000 0.496263
O O8 0.264225 0.493645 0.610236
O O9 0.000000 0.500000 0.500000
O O10 0.920122 0.486937 0.371902
O O11 0.231057 0.750000 0.753081
O O12 0.190505 0.977011 0.776766
O O13 0.435128 0.982285 0.868500
O O14 0.551177 0.250000 0.272265
O O15 0.409872 0.999690 0.154678
O O16 0.255438 0.750000 0.031734
O O17 0.269994 0.502885 0.994021
O O18 0.306323 0.750000 0.892985
O O19 0.251618 0.005033 0.900056
O O20 0.500000 0.000000 0.000000
O O21 0.654483 0.750000 0.999893
#
# Coordination Sequence:
#
# PCOD9156516 Si02
#       8
#     4   4   4   4   4   4   4   4
#     4   9  16  27  43  61  81 110 147 181 215 258
#     4   8  15  26  40  60  85 111 141 177 217 258
#     4  11  21  34  48  64  87 117 154 191 224 258
#     4   8  17  31  46  61  82 113 148 185 220 255
#     4  11  21  32  44  61  87 119 152 187 224 260
#     4  10  19  30  44  64  89 119 151 181 216 262
#     4   9  16  29  46  64  84 110 144 181 222 264
#     4  10  18  29  45  67  91 115 143 178 223 269
#
# _framework density 15.326114
#
# number of rings (size 3 to 8) (size 9 to 14) (size 15 to 20)
#    0.000    2.500    0.000    5.250    0.000    4.500 
#    0.000    6.875    0.000    0.000    0.000    0.000 
#    0.000    1.000    0.000    3.000    0.000    4.250 
#
# Total GULP energy -178274.130586 kJ/mol
# GULP energy per Si atom -5571.066581 kJ/mol
# Density = 1.529123 g / cm^3
# Si number density = 15.326114 Si / 1000 Ang^3
#
#
#
# Elastic Constant Matrix: (Units=GPa)
#
#
# Indices 1 2 3 4 5 6 
#
# 1 145.4082 40.5499 47.8972 0.0000 -11.8307 0.0000
# 2 40.5499 66.6601 21.2790 0.0000 -3.1576 0.0000
# 3 47.8972 21.2790 52.1162 0.0000 -11.5217 0.0000
# 4 0.0000 0.0000 0.0000 14.9705 0.0000 0.6065
# 5 -11.8307 -3.1576 -11.5217 0.0000 21.4167 0.0000
# 6 0.0000 0.0000 0.0000 0.6065 0.0000 29.3337
#
#
#
# Elastic Compliance Matrix: (Units=1/GPa)
#
#
# Indices 1 2 3 4 5 6 
#
# 1 0.010682 -0.003896 -0.008001 0.000000 0.001022 0.000000
# 2 -0.003896 0.018708 -0.004454 0.000000 -0.001790 0.000000
# 3 -0.008001 -0.004454 0.030914 0.000000 0.011555 0.000000
# 4 0.000000 0.000000 0.000000 0.066854 0.000000 -0.001382
# 5 0.001022 -0.001790 0.011555 0.000000 0.053209 0.000000
# 6 0.000000 0.000000 0.000000 -0.001382 0.000000 0.034119
#
#
# Mechanical properties :
#
#
# Convention : Reuss Voigt Hill
#
# Bulk Modulus (GPa) = 36.22723 53.73739 44.98231
# Shear Modulus (GPa) = 19.50159 23.44139 21.47149
#
# Velocity S-wave (km/s) = 3.57100 3.91513 3.74702
# Velocity P-wave (km/s) = 6.37900 7.45496 6.93787
#
# Compressibility (1/GPa) = 0.02760355
#
# Stress axis : x y z
#
# Youngs Moduli (GPa) = 93.61361 53.45238 32.34779
#
# Poissons Ratio (x) = 0.20823 0.25881
# Poissons Ratio (y) = 0.36469 0.14408
# Poissons Ratio (z) = 0.74899 0.23807
#
# Static dielectric constant tensor:
#      x y z
#    x 1.537530 0.000000 -0.008740 
#    y 0.000000 1.521390 0.000000 
#    z -0.008740 0.000000 1.490680 
# 
# From -- ./inp_files/51184.got.cif
#   From: 2010.05.17/outbox.cif.g08.bks.cpg/sg11_26_cif.got.tgz:51184.got - 2010.06.03 12:22:45.
