data_PCOD9156229
_publ_section_title
;
Structure prediction by ZEFSAII (Michael W. Deem and Ramdas Pophale) SiO2 
 PCOD9156229
Probable space group: P 21/M
;
_chemical_formula_sum "Si O2"
_cell_formula_units_Z 28
_cell_length_a 32.627249
_cell_length_b 8.752831
_cell_length_c 9.977790
_cell_angle_alpha 90.000000
_cell_angle_beta 145.689893
_cell_angle_gamma 90.000000
_cell_volume 1606.163085
_symmetry_space_group_name_H-M "P 21/M"
_symmetry_group_IT_number 11
_symmetry_cell_setting 'monoclinic'
loop_
_space_group_symop_operation_xyz
x,y,z
-x,1/2+y,-z
-x,-y,-z
x,1/2-y,z
loop_
_atom_site_type_symbol
_atom_site_label
_atom_site_fract_x
_atom_site_fract_y
_atom_site_fract_z
Si Si1 0.815732 0.932196 0.834424
Si Si2 0.099841 0.065464 0.370486
Si Si3 0.419775 0.931936 0.794480
Si Si4 0.055321 0.567792 0.962499
Si Si5 0.262319 0.063909 0.872110
Si Si6 0.313365 0.434215 0.720110
Si Si7 0.696261 0.565031 0.723199
O O1 0.826047 0.750000 0.861607
O O2 0.759961 0.969813 0.562152
O O3 0.771260 0.973770 0.847895
O O4 0.892504 0.009361 0.013643
O O5 0.101427 0.250000 0.363931
O O6 0.178022 0.015255 0.635634
O O7 0.085506 0.000348 0.183718
O O8 0.029826 0.023171 0.270967
O O9 0.422444 0.750000 0.799820
O O10 0.379532 0.989465 0.820413
O O11 0.369318 0.992390 0.536927
O O12 0.500000 0.000000 0.000000
O O13 0.059132 0.750000 0.979241
O O14 0.262104 0.250000 0.871938
O O15 0.302329 0.017099 0.843555
O O16 0.298523 0.015805 0.108825
O O17 0.321956 0.250000 0.737979
O O18 0.689052 0.750000 0.696622
#
# Coordination Sequence:
#
# PCOD9156229 Si02
#       7
#     4   4   4   4   4   4   4
#     4   9  16  29  48  70 100 134 174 215 254 304
#     4   9  17  30  46  68  98 134 173 217 264 303
#     4  11  22  38  59  82 108 135 165 204 246 299
#     4  10  18  26  43  70  99 132 176 222 260 299
#     4   9  16  32  56  77 101 135 176 215 255 307
#     4   9  17  32  56  81 102 133 174 213 251 300
#     4   9  19  35  56  79 102 135 173 210 255 306
#
# _framework density 17.432850999999999
#
# number of rings (size 3 to 8) (size 9 to 14) (size 15 to 20)
#    0.000    2.571    1.429    2.571    0.000    2.857 
#    0.000    2.857    0.000    0.000    0.000    0.000 
#    0.000    0.000    0.000    0.000    0.000    0.000 
#
# Total GULP energy -156109.702554 kJ/mol
# GULP energy per Si atom -5575.346520 kJ/mol
# Density = 1.739317 g / cm^3
# Si number density = 17.432851 Si / 1000 Ang^3
#
#
#
# Elastic Constant Matrix: (Units=GPa)
#
#
# Indices 1 2 3 4 5 6 
#
# 1 146.4811 41.8909 83.5405 0.0000 5.2351 0.0000
# 2 41.8909 31.0400 28.9419 0.0000 6.0227 0.0000
# 3 83.5405 28.9419 89.8268 0.0000 4.1377 0.0000
# 4 0.0000 0.0000 0.0000 17.7220 0.0000 6.6796
# 5 5.2351 6.0227 4.1377 0.0000 35.1516 0.0000
# 6 0.0000 0.0000 0.0000 6.6796 0.0000 27.5700
#
#
#
# Elastic Compliance Matrix: (Units=1/GPa)
#
#
# Indices 1 2 3 4 5 6 
#
# 1 0.017135 -0.012017 -0.012107 0.000000 0.000932 0.000000
# 2 -0.012017 0.055853 -0.006496 0.000000 -0.007015 0.000000
# 3 -0.012107 -0.006496 0.024484 0.000000 0.000034 0.000000
# 4 0.000000 0.000000 0.000000 0.062097 0.000000 -0.015045
# 5 0.000932 -0.007015 0.000034 0.000000 0.029507 0.000000
# 6 0.000000 0.000000 0.000000 -0.015045 0.000000 0.039916
#
#
# Mechanical properties :
#
#
# Convention : Reuss Voigt Hill
#
# Bulk Modulus (GPa) = 27.60068 64.01052 45.80560
# Shear Modulus (GPa) = 16.53928 23.62037 20.07983
#
# Velocity S-wave (km/s) = 3.08351 3.68494 3.39756
# Velocity P-wave (km/s) = 5.34269 7.40966 6.45939
#
# Compressibility (1/GPa) = 0.03623099
#
# Stress axis : x y z
#
# Youngs Moduli (GPa) = 58.36016 17.90406 40.84376
#
# Poissons Ratio (x) = 0.21516 0.49449
# Poissons Ratio (y) = 0.70134 0.26533
# Poissons Ratio (z) = 0.70655 0.11631
#
# Static dielectric constant tensor:
#      x y z
#    x 1.606760 0.000000 0.001460 
#    y 0.000000 1.586540 0.000000 
#    z 0.001460 0.000000 1.571740 
# 
# From -- ./inp_files/29099.got.cif
#   From: 2010.05.17/outbox.cif.g08.bks.cpg/sg11_15_cif.got.tgz:29099.got - 2010.06.03 12:22:45.
