data_PCOD9156565
_publ_section_title
;
Structure prediction by ZEFSAII (Michael W. Deem and Ramdas Pophale) SiO2 
 PCOD9156565
Probable space group: P 21/M
;
_chemical_formula_sum "Si O2"
_cell_formula_units_Z 28
_cell_length_a 10.250016
_cell_length_b 9.210096
_cell_length_c 24.376331
_cell_angle_alpha 90.000000
_cell_angle_beta 47.548932
_cell_angle_gamma 90.000000
_cell_volume 1697.960166
_symmetry_space_group_name_H-M "P 21/M"
_symmetry_group_IT_number 11
_symmetry_cell_setting 'monoclinic'
loop_
_space_group_symop_operation_xyz
x,y,z
-x,1/2+y,-z
-x,-y,-z
x,1/2-y,z
loop_
_atom_site_type_symbol
_atom_site_label
_atom_site_fract_x
_atom_site_fract_y
_atom_site_fract_z
Si Si1 0.093853 0.079789 0.313743
Si Si2 0.084474 0.582000 0.141573
Si Si3 0.819561 0.421372 0.290468
Si Si4 0.636764 0.575820 0.003098
Si Si5 0.065484 0.423253 0.536249
Si Si6 0.358765 0.583116 0.167028
Si Si7 0.529131 0.923571 0.549830
O O1 0.104603 0.250000 0.323818
O O2 0.943908 0.061173 0.309114
O O3 0.036413 0.988549 0.382604
O O4 0.275471 0.021706 0.235662
O O5 0.060792 0.750000 0.133496
O O6 0.223819 0.577417 0.153213
O O7 0.908657 0.510424 0.216169
O O8 0.175721 0.492200 0.066656
O O9 0.819869 0.250000 0.276815
O O10 0.623978 0.468016 0.364143
O O11 0.636328 0.750000 0.995001
O O12 0.550573 0.547198 0.087157
O O13 0.500000 0.500000 0.000000
O O14 0.041085 0.250000 0.540401
O O15 0.273989 0.453100 0.485326
O O16 0.000000 0.500000 0.500000
O O17 0.358923 0.750000 0.186358
O O18 0.509953 0.750000 0.547554
O O19 0.500000 0.000000 0.500000
#
# Coordination Sequence:
#
# PCOD9156565 Si02
#       7
#     4   4   4   4   4   4   4
#     4  10  18  29  47  68  92 122 159 200 243 290
#     4   9  16  24  36  57  86 120 155 191 235 283
#     4   9  17  29  45  67  93 121 157 198 241 288
#     4   9  15  23  35  53  81 118 156 192 233 281
#     4  11  23  37  53  72  99 131 164 204 250 296
#     4   8  15  25  37  56  84 118 156 193 233 282
#     4  10  20  34  53  75  97 126 163 206 249 294
#
# _framework density 16.490376000000001
#
# number of rings (size 3 to 8) (size 9 to 14) (size 15 to 20)
#    0.000    2.571    1.429    2.571    0.000    5.714 
#    0.000    0.000    0.000    0.000    0.000    0.000 
#    0.000    1.143    0.000    3.429    0.000    5.571 
#
# Total GULP energy -155995.586174 kJ/mol
# GULP energy per Si atom -5571.270935 kJ/mol
# Density = 1.645284 g / cm^3
# Si number density = 16.490376 Si / 1000 Ang^3
#
#
#
# Elastic Constant Matrix: (Units=GPa)
#
#
# Indices 1 2 3 4 5 6 
#
# 1 41.8767 43.2304 46.4099 0.0000 -9.1377 0.0000
# 2 43.2304 95.1523 85.9747 0.0000 -12.3204 0.0000
# 3 46.4099 85.9747 157.4918 0.0000 -36.5761 0.0000
# 4 0.0000 0.0000 0.0000 35.1823 0.0000 -1.6409
# 5 -9.1377 -12.3204 -36.5761 0.0000 15.7656 0.0000
# 6 0.0000 0.0000 0.0000 -1.6409 0.0000 12.6313
#
#
#
# Elastic Compliance Matrix: (Units=1/GPa)
#
#
# Indices 1 2 3 4 5 6 
#
# 1 0.046899 -0.018875 -0.001364 0.000000 0.009268 0.000000
# 2 -0.018875 0.032486 -0.019117 0.000000 -0.029904 0.000000
# 3 -0.001364 -0.019117 0.029346 0.000000 0.052352 0.000000
# 4 0.000000 0.000000 0.000000 0.028597 0.000000 0.003715
# 5 0.009268 -0.029904 0.052352 0.000000 0.166888 0.000000
# 6 0.000000 0.000000 0.000000 0.003715 0.000000 0.079651
#
#
# Mechanical properties :
#
#
# Convention : Reuss Voigt Hill
#
# Bulk Modulus (GPa) = 33.31285 71.75010 52.53148
# Shear Modulus (GPa) = 10.58012 20.64289 15.61151
#
# Velocity S-wave (km/s) = 2.53572 3.54194 3.08019
# Velocity P-wave (km/s) = 5.36828 7.76736 6.67646
#
# Compressibility (1/GPa) = 0.03001844
#
# Stress axis : x y z
#
# Youngs Moduli (GPa) = 21.32258 30.78246 34.07647
#
# Poissons Ratio (x) = 0.58102 0.04648
# Poissons Ratio (y) = 0.40246 0.65144
# Poissons Ratio (z) = 0.02908 0.58847
#
# Static dielectric constant tensor:
#      x y z
#    x 1.533930 0.000000 -0.028000 
#    y 0.000000 1.325500 0.000000 
#    z -0.028000 0.000000 1.571960 
# 
# From -- ./inp_files/64144.got.cif
#   From: 2010.05.17/outbox.cif.g08.bks.cpg/sg11_33_cif.got.tgz:64144.got - 2010.06.03 12:22:45.
