data_PCOD9156882
_publ_section_title
;
Structure prediction by ZEFSAII (Michael W. Deem and Ramdas Pophale) SiO2 
 PCOD9156882
Probable space group: P 21/M
;
_chemical_formula_sum "Si O2"
_cell_formula_units_Z 32
_cell_length_a 21.587171
_cell_length_b 9.267454
_cell_length_c 27.275784
_cell_angle_alpha 90.000000
_cell_angle_beta 161.523432
_cell_angle_gamma 90.000000
_cell_volume 1729.333175
_symmetry_space_group_name_H-M "P 21/M"
_symmetry_group_IT_number 11
_symmetry_cell_setting 'monoclinic'
loop_
_space_group_symop_operation_xyz
x,y,z
-x,1/2+y,-z
-x,-y,-z
x,1/2-y,z
loop_
_atom_site_type_symbol
_atom_site_label
_atom_site_fract_x
_atom_site_fract_y
_atom_site_fract_z
Si Si1 0.062472 0.583885 0.998316
Si Si2 0.268461 0.919949 0.556800
Si Si3 0.695358 0.584107 0.260847
Si Si4 0.587701 0.580197 0.883576
Si Si5 0.507364 0.582544 0.357700
Si Si6 0.003415 0.418879 0.855502
Si Si7 0.565930 0.419443 0.500217
Si Si8 0.979496 0.083538 0.407718
O O1 0.999697 0.750000 0.954153
O O2 0.298057 0.579476 0.173683
O O3 0.984670 0.508717 0.891176
O O4 0.000000 0.500000 0.000000
O O5 0.238756 0.750000 0.525810
O O6 0.443411 0.934310 0.728325
O O7 0.337866 0.001545 0.560343
O O8 0.079846 0.993732 0.439626
O O9 0.661696 0.750000 0.221858
O O10 0.506882 0.510836 0.143703
O O11 0.859746 0.583305 0.427511
O O12 0.789286 0.493132 0.287285
O O13 0.589844 0.750000 0.898211
O O14 0.804950 0.535262 0.030718
O O15 0.559549 0.750000 0.405154
O O16 0.483347 0.499594 0.390834
O O17 0.033033 0.250000 0.890954
O O18 0.801730 0.429783 0.674943
O O19 0.500000 0.500000 0.500000
O O20 0.513380 0.250000 0.462241
O O21 0.944469 0.250000 0.368171
#
# Coordination Sequence:
#
# PCOD9156882 Si02
#       8
#     4   4   4   4   4   4   4   4
#     4  11  23  36  55  80 106 136 173 217 267 323
#     4  10  18  30  51  76 104 139 177 219 268 316
#     4   9  16  25  40  66 101 139 178 215 255 309
#     4   9  17  30  49  73 103 137 172 216 268 316
#     4  11  23  38  55  79 109 141 178 220 268 322
#     4  10  21  38  57  79 106 138 177 222 270 322
#     4  11  24  41  60  80 106 140 180 224 272 324
#     4   9  16  26  41  65 102 142 177 215 260 309
#
# _framework density 18.504242999999999
#
# number of rings (size 3 to 8) (size 9 to 14) (size 15 to 20)
#    0.000    2.000    1.250    3.000    0.000    9.500 
#    0.000    0.000    0.000    0.000    0.000    0.875 
#    0.000    0.000    0.000    0.000    0.000    0.000 
#
# Total GULP energy -178670.786430 kJ/mol
# GULP energy per Si atom -5583.462076 kJ/mol
# Density = 1.846213 g / cm^3
# Si number density = 18.504243 Si / 1000 Ang^3
#
#
#
# Elastic Constant Matrix: (Units=GPa)
#
#
# Indices 1 2 3 4 5 6 
#
# 1 71.1895 44.6378 7.3640 0.0000 23.9067 0.0000
# 2 44.6378 121.1001 17.7258 0.0000 14.2028 0.0000
# 3 7.3640 17.7258 33.6737 0.0000 9.9993 0.0000
# 4 0.0000 0.0000 0.0000 19.3177 0.0000 6.5379
# 5 23.9067 14.2028 9.9993 0.0000 31.2123 0.0000
# 6 0.0000 0.0000 0.0000 6.5379 0.0000 36.1256
#
#
#
# Elastic Compliance Matrix: (Units=1/GPa)
#
#
# Indices 1 2 3 4 5 6 
#
# 1 0.023621 -0.007348 0.003406 0.000000 -0.015840 0.000000
# 2 -0.007348 0.011465 -0.005029 0.000000 0.002022 0.000000
# 3 0.003406 -0.005029 0.035026 0.000000 -0.011542 0.000000
# 4 0.000000 0.000000 0.000000 0.055143 0.000000 -0.009980
# 5 -0.015840 0.002022 -0.011542 0.000000 0.046949 0.000000
# 6 0.000000 0.000000 0.000000 -0.009980 0.000000 0.029487
#
#
# Mechanical properties :
#
#
# Convention : Reuss Voigt Hill
#
# Bulk Modulus (GPa) = 19.16754 40.60208 29.88481
# Shear Modulus (GPa) = 21.09493 27.74683 24.42088
#
# Velocity S-wave (km/s) = 3.38006 3.87652 3.63677
# Velocity P-wave (km/s) = 5.06103 6.48276 5.81551
#
# Compressibility (1/GPa) = 0.05217153
#
# Stress axis : x y z
#
# Youngs Moduli (GPa) = 42.33467 87.22255 28.54991
#
# Poissons Ratio (x) = 0.64088 -0.09724
# Poissons Ratio (y) = 0.31106 0.14357
# Poissons Ratio (z) = -0.14418 0.43862
#
# Static dielectric constant tensor:
#      x y z
#    x 1.607560 0.000000 0.015450 
#    y 0.000000 1.625950 0.000000 
#    z 0.015450 0.000000 1.642070 
# 
# From -- ./inp_files/72165.got.cif
#   From: 2010.05.17/outbox.cif.g08.bks.cpg/sg11_37_cif.got.tgz:72165.got - 2010.06.03 12:22:45.
