data_PCOD9156387
_publ_section_title
;
Structure prediction by ZEFSAII (Michael W. Deem and Ramdas Pophale) SiO2 
 PCOD9156387
Probable space group: P 21/M
;
_chemical_formula_sum "Si O2"
_cell_formula_units_Z 32
_cell_length_a 22.560188
_cell_length_b 8.825370
_cell_length_c 18.758006
_cell_angle_alpha 90.000000
_cell_angle_beta 30.638349
_cell_angle_gamma 90.000000
_cell_volume 1903.297002
_symmetry_space_group_name_H-M "P 21/M"
_symmetry_group_IT_number 11
_symmetry_cell_setting 'monoclinic'
loop_
_space_group_symop_operation_xyz
x,y,z
-x,1/2+y,-z
-x,-y,-z
x,1/2-y,z
loop_
_atom_site_type_symbol
_atom_site_label
_atom_site_fract_x
_atom_site_fract_y
_atom_site_fract_z
Si Si1 0.148405 0.423823 0.412736
Si Si2 0.144133 0.065874 0.575456
Si Si3 0.749557 0.928625 0.391702
Si Si4 0.133546 0.922291 0.283645
Si Si5 0.972154 0.422384 0.102709
Si Si6 0.626681 0.069347 0.381547
Si Si7 0.117073 0.431650 0.151782
Si Si8 0.770344 0.577708 0.103720
O O1 0.186625 0.250000 0.365093
O O2 0.182364 0.480825 0.456195
O O3 0.182582 0.516665 0.307536
O O4 0.007156 0.422858 0.562133
O O5 0.132410 0.250000 0.588300
O O6 0.240275 0.024423 0.535682
O O7 0.013890 0.999289 0.723329
O O8 0.724680 0.750000 0.413166
O O9 0.881062 0.967084 0.233100
O O10 0.674085 0.011459 0.409269
O O11 0.169586 0.750000 0.233227
O O12 0.156225 0.022030 0.190489
O O13 0.925092 0.250000 0.144794
O O14 0.000000 0.500000 0.000000
O O15 0.094364 0.412651 0.015187
O O16 0.623440 0.250000 0.385110
O O17 0.500000 0.000000 0.500000
O O18 0.706076 0.013159 0.232777
O O19 0.107977 0.250000 0.155021
O O20 0.213083 0.483708 0.993856
O O21 0.722140 0.750000 0.152676
#
# Coordination Sequence:
#
# PCOD9156387 Si02
#       8
#     4   4   4   4   4   4   4   4
#     4   8  14  25  38  56  85 125 166 197 231 275
#     4   9  18  29  44  67  96 128 162 201 240 284
#     4  11  21  34  52  74 102 129 162 205 247 294
#     4   9  16  25  37  57  87 126 166 199 233 279
#     4  11  20  31  48  73 100 128 160 199 245 294
#     4  12  26  42  59  73  93 126 165 205 250 298
#     4  10  18  28  44  67  96 128 161 201 241 284
#     4  10  21  35  51  73 101 128 163 205 246 292
#
# _framework density 16.812930000000001
#
# number of rings (size 3 to 8) (size 9 to 14) (size 15 to 20)
#    0.000    2.000    2.500    3.375    0.000    5.000 
#    0.000    0.000    0.000    0.000    0.000    0.000 
#    0.000    1.000    0.000    3.000    0.000    4.250 
#
# Total GULP energy -178138.984136 kJ/mol
# GULP energy per Si atom -5566.843254 kJ/mol
# Density = 1.677466 g / cm^3
# Si number density = 16.812930 Si / 1000 Ang^3
#
#
#
# Elastic Constant Matrix: (Units=GPa)
#
#
# Indices 1 2 3 4 5 6 
#
# 1 138.8823 46.6231 50.0474 0.0000 30.5075 0.0000
# 2 46.6231 64.3746 20.4491 0.0000 10.2647 0.0000
# 3 50.0474 20.4491 31.6364 0.0000 2.6471 0.0000
# 4 0.0000 0.0000 0.0000 17.4322 0.0000 0.1248
# 5 30.5075 10.2647 2.6471 0.0000 23.6157 0.0000
# 6 0.0000 0.0000 0.0000 0.1248 0.0000 20.2060
#
#
#
# Elastic Compliance Matrix: (Units=1/GPa)
#
#
# Indices 1 2 3 4 5 6 
#
# 1 0.033729 -0.003266 -0.048172 0.000000 -0.036753 0.000000
# 2 -0.003266 0.021137 -0.008157 0.000000 -0.004054 0.000000
# 3 -0.048172 -0.008157 0.108603 0.000000 0.053602 0.000000
# 4 0.000000 0.000000 0.000000 0.057368 0.000000 -0.000354
# 5 -0.036753 -0.004054 0.053602 0.000000 0.085578 0.000000
# 6 0.000000 0.000000 0.000000 -0.000354 0.000000 0.049492
#
#
# Mechanical properties :
#
#
# Convention : Reuss Voigt Hill
#
# Bulk Modulus (GPa) = 22.58398 52.12583 37.35491
# Shear Modulus (GPa) = 10.20709 20.10236 15.15473
#
# Velocity S-wave (km/s) = 2.46661 3.46157 3.00555
# Velocity P-wave (km/s) = 4.64477 6.85910 5.85752
#
# Compressibility (1/GPa) = 0.04427917
#
# Stress axis : x y z
#
# Youngs Moduli (GPa) = 29.64795 47.31072 9.20789
#
# Poissons Ratio (x) = 0.15450 0.44356
# Poissons Ratio (y) = 0.09682 0.07511
# Poissons Ratio (z) = 1.42820 0.38592
#
# Static dielectric constant tensor:
#      x y z
#    x 1.647230 0.000000 0.012330 
#    y 0.000000 1.571090 0.000000 
#    z 0.012330 0.000000 1.618680 
# 
# From -- ./inp_files/66640.got.cif
#   From: 2010.05.17/outbox.cif.g08.bks.cpg/sg11_34_cif.got.tgz:66640.got - 2010.06.03 12:22:45.
