data_PCOD9156058
_publ_section_title
;
Structure prediction by ZEFSAII (Michael W. Deem and Ramdas Pophale) SiO2 
 PCOD9156058
Probable space group: P 21/M
;
_chemical_formula_sum "Si O2"
_cell_formula_units_Z 32
_cell_length_a 12.422490
_cell_length_b 13.522312
_cell_length_c 12.606182
_cell_angle_alpha 90.000000
_cell_angle_beta 75.041037
_cell_angle_gamma 90.000000
_cell_volume 2045.833033
_symmetry_space_group_name_H-M "P 21/M"
_symmetry_group_IT_number 11
_symmetry_cell_setting 'monoclinic'
loop_
_space_group_symop_operation_xyz
x,y,z
-x,1/2+y,-z
-x,-y,-z
x,1/2-y,z
loop_
_atom_site_type_symbol
_atom_site_label
_atom_site_fract_x
_atom_site_fract_y
_atom_site_fract_z
Si Si1 0.612135 0.133576 0.301358
Si Si2 0.560480 0.132703 0.079642
Si Si3 0.984242 0.496390 0.630346
Si Si4 0.803897 0.862904 0.757562
Si Si5 0.356129 0.136088 0.409455
Si Si6 0.222400 0.632593 0.347562
Si Si7 0.766613 0.025429 0.427984
Si Si8 0.649693 0.483612 0.861205
O O1 0.621426 0.250000 0.323191
O O2 0.628720 0.121657 0.171270
O O3 0.483225 0.104514 0.356259
O O4 0.696655 0.075153 0.353022
O O5 0.528365 0.250000 0.080173
O O6 0.455537 0.058155 0.117496
O O7 0.626462 0.094358 0.960325
O O8 0.920289 0.593972 0.686742
O O9 0.895813 0.407621 0.669074
O O10 0.000000 0.500000 0.500000
O O11 0.109596 0.494861 0.640360
O O12 0.809808 0.750000 0.791583
O O13 0.718692 0.867781 0.678558
O O14 0.752396 0.940763 0.853169
O O15 0.358709 0.250000 0.441810
O O16 0.297769 0.069375 0.511130
O O17 0.231507 0.750000 0.338451
O O18 0.227133 0.596562 0.468974
O O19 0.317201 0.577467 0.253355
#
# Coordination Sequence:
#
# PCOD9156058 Si02
#       8
#     4   4   4   4   4   4   4   4
#     4  10  20  32  48  71 100 135 167 196 239 298
#     4  10  19  32  51  74 100 131 167 202 244 295
#     4   9  18  30  44  71  99 126 164 205 249 288
#     4  10  17  30  50  70  98 129 164 205 244 293
#     4  10  18  30  49  71  98 135 167 195 239 293
#     4  10  19  31  47  72 101 128 159 207 257 292
#     4  11  19  33  48  73 102 132 166 205 241 295
#     4  10  18  31  50  74  98 124 164 207 247 287
#
# _framework density 15.641550000000001
#
# number of rings (size 3 to 8) (size 9 to 14) (size 15 to 20)
#    0.000    2.000    5.000    1.500    0.000    3.000 
#    0.000    0.000    0.000    6.750    0.000    1.750 
#    0.000    0.000    0.000    0.000    0.000    0.000 
#
# Total GULP energy -178147.637743 kJ/mol
# GULP energy per Si atom -5567.113679 kJ/mol
# Density = 1.560595 g / cm^3
# Si number density = 15.641550 Si / 1000 Ang^3
#
#
#
# Elastic Constant Matrix: (Units=GPa)
#
#
# Indices 1 2 3 4 5 6 
#
# 1 73.6195 28.3634 35.2170 0.0000 3.6575 0.0000
# 2 28.3634 106.5388 38.9669 0.0000 0.4573 0.0000
# 3 35.2170 38.9669 62.2105 0.0000 -6.1005 0.0000
# 4 0.0000 0.0000 0.0000 20.0448 0.0000 3.1999
# 5 3.6575 0.4573 -6.1005 0.0000 15.8104 0.0000
# 6 0.0000 0.0000 0.0000 3.1999 0.0000 19.3255
#
#
#
# Elastic Compliance Matrix: (Units=1/GPa)
#
#
# Indices 1 2 3 4 5 6 
#
# 1 0.019948 -0.001061 -0.011513 0.000000 -0.009026 0.000000
# 2 -0.001061 0.012413 -0.007468 0.000000 -0.002995 0.000000
# 3 -0.011513 -0.007468 0.028636 0.000000 0.013929 0.000000
# 4 0.000000 0.000000 0.000000 0.051243 0.000000 -0.008485
# 5 -0.009026 -0.002995 0.013929 0.000000 0.070799 0.000000
# 6 0.000000 0.000000 0.000000 -0.008485 0.000000 0.053150
#
#
# Mechanical properties :
#
#
# Convention : Reuss Voigt Hill
#
# Bulk Modulus (GPa) = 47.81902 49.71813 48.76857
# Shear Modulus (GPa) = 17.65264 20.35758 19.00511
#
# Velocity S-wave (km/s) = 3.36307 3.61155 3.48952
# Velocity P-wave (km/s) = 6.76154 7.01755 6.89074
#
# Compressibility (1/GPa) = 0.02091218
#
# Stress axis : x y z
#
# Youngs Moduli (GPa) = 50.13033 80.55979 34.92137
#
# Poissons Ratio (x) = 0.08547 0.40205
# Poissons Ratio (y) = 0.05319 0.26080
# Poissons Ratio (z) = 0.57715 0.60165
#
# Static dielectric constant tensor:
#      x y z
#    x 1.529300 0.000000 -0.019140 
#    y 0.000000 1.534970 0.000000 
#    z -0.019140 0.000000 1.529730 
# 
# From -- ./inp_files/35501.got.cif
#   From: 2010.05.17/outbox.cif.g08.bks.cpg/sg11_18_cif.got.tgz:35501.got - 2010.06.03 12:22:45.
