data_PCOD9156741
_publ_section_title
;
Structure prediction by ZEFSAII (Michael W. Deem and Ramdas Pophale) SiO2 
 PCOD9156741
Probable space group: P 21/M
;
_chemical_formula_sum "Si O2"
_cell_formula_units_Z 30
_cell_length_a 15.609642
_cell_length_b 14.940162
_cell_length_c 11.264759
_cell_angle_alpha 90.000000
_cell_angle_beta 152.882635
_cell_angle_gamma 90.000000
_cell_volume 1197.452984
_symmetry_space_group_name_H-M "P 21/M"
_symmetry_group_IT_number 11
_symmetry_cell_setting 'monoclinic'
loop_
_space_group_symop_operation_xyz
x,y,z
-x,1/2+y,-z
-x,-y,-z
x,1/2-y,z
loop_
_atom_site_type_symbol
_atom_site_label
_atom_site_fract_x
_atom_site_fract_y
_atom_site_fract_z
Si Si1 0.938170 0.750000 0.424363
Si Si2 0.715009 0.580032 0.262656
Si Si3 0.985466 0.417705 0.636553
Si Si4 0.585058 0.982217 0.877911
Si Si5 0.743017 0.350481 0.952370
Si Si6 0.511257 0.151968 0.424502
Si Si7 0.853678 0.642393 0.655215
Si Si8 0.088337 0.353606 0.006479
O O1 0.812682 0.671225 0.337099
O O2 0.042406 0.828261 0.472946
O O3 0.853373 0.495226 0.426465
O O4 0.549967 0.554797 0.966951
O O5 0.693917 0.596919 0.378073
O O6 0.204531 0.441672 0.888049
O O7 0.967742 0.402229 0.756801
O O8 0.457767 0.930255 0.625234
O O9 0.630848 0.083067 0.896614
O O10 0.752087 0.250000 0.015414
O O11 0.644432 0.349603 0.702618
O O12 0.955875 0.375235 0.184020
O O13 0.528782 0.250000 0.386255
O O14 0.301306 0.147935 0.219159
O O15 0.822528 0.750000 0.625154
O O16 0.892458 0.609899 0.836473
O O17 0.023424 0.250000 0.935323
#
# Coordination Sequence:
#
# PCOD9156741 Si02
#       8
#     2   4   4   4   4   4   4   4
#     4  10  18  30  48  70 110 136 166 220 258 312
#     4  11  21  31  49  81 108 139 173 218 272 309
#     4  10  19  31  49  77 103 141 174 211 267 311
#     4  10  19  31  51  75 106 130 177 216 256 309
#     4  10  20  34  51  78 108 137 171 217 272 307
#     4   9  19  34  55  77 101 138 179 214 261 305
#     4  10  20  33  53  80 112 137 170 218 272 311
#     4   9  18  35  54  77 106 142 177 217 256 311
#
# _framework density 25.053176000000001
#
# number of rings (size 3 to 8) (size 9 to 14) (size 15 to 20)
#    0.000    2.133    2.667    2.000    5.600    0.533 
#    0.000    0.000    0.000    0.800    0.000    0.000 
#    0.000    0.000    0.000    0.000    0.000    0.000 
#
# Total GULP energy -167212.632447 kJ/mol
# GULP energy per Si atom -5573.754415 kJ/mol
# Density = 2.499615 g / cm^3
# Si number density = 25.053176 Si / 1000 Ang^3
#
#
#
# Elastic Constant Matrix: (Units=GPa)
#
#
# Indices 1 2 3 4 5 6 
#
# 1 109.4878 44.2621 32.2213 0.0000 -33.3637 0.0000
# 2 44.2621 118.2024 20.1434 0.0000 -16.8411 0.0000
# 3 32.2213 20.1434 60.2415 0.0000 -14.8694 0.0000
# 4 0.0000 0.0000 0.0000 26.1518 0.0000 -16.2514
# 5 -33.3637 -16.8411 -14.8694 0.0000 41.3907 0.0000
# 6 0.0000 0.0000 0.0000 -16.2514 0.0000 5.1053
#
#
#
# Elastic Compliance Matrix: (Units=1/GPa)
#
#
# Indices 1 2 3 4 5 6 
#
# 1 0.014471 -0.003424 -0.004455 0.000000 0.008671 0.000000
# 2 -0.003424 0.010093 -0.001329 0.000000 0.000869 0.000000
# 3 -0.004455 -0.001329 0.020198 0.000000 0.003125 0.000000
# 4 0.000000 0.000000 0.000000 -0.039093 0.000000 -0.124441
# 5 0.008671 0.000869 0.003125 0.000000 0.032626 0.000000
# 6 0.000000 0.000000 0.000000 -0.124441 0.000000 -0.200252
#
#
# Mechanical properties :
#
#
# Convention : Reuss Voigt Hill
#
# Bulk Modulus (GPa) = 37.95627 53.46505 45.71066
# Shear Modulus (GPa) = -37.10315 27.28320 -4.90997
#
# Velocity S-wave (km/s) = -3.85252 3.30360 -1.40145
# Velocity P-wave (km/s) = 2.14617 5.99488 3.95807
#
# Compressibility (1/GPa) = 0.02634611
#
# Stress axis : x y z
#
# Youngs Moduli (GPa) = 69.10352 99.08300 49.50953
#
# Poissons Ratio (x) = 0.33928 0.22056
# Poissons Ratio (y) = 0.23663 0.06578
# Poissons Ratio (z) = 0.30785 0.13165
#
# Static dielectric constant tensor:
#      x y z
#    x 2.056160 0.000000 -0.040750 
#    y 0.000000 1.962260 0.000000 
#    z -0.040750 0.000000 2.117160 
# 
# From -- ./inp_files/41595.got.cif
#   From: 2010.05.17/outbox.cif.g08.bks.cpg/sg11_21_cif.got.tgz:41595.got - 2010.06.03 12:22:45.
