data_PCOD9156240
_publ_section_title
;
Structure prediction by ZEFSAII (Michael W. Deem and Ramdas Pophale) SiO2 
 PCOD9156240
Probable space group: P 21/M
;
_chemical_formula_sum "Si O2"
_cell_formula_units_Z 32
_cell_length_a 37.687400
_cell_length_b 7.494059
_cell_length_c 22.018344
_cell_angle_alpha 90.000000
_cell_angle_beta 163.432434
_cell_angle_gamma 90.000000
_cell_volume 1773.229587
_symmetry_space_group_name_H-M "P 21/M"
_symmetry_group_IT_number 11
_symmetry_cell_setting 'monoclinic'
loop_
_space_group_symop_operation_xyz
x,y,z
-x,1/2+y,-z
-x,-y,-z
x,1/2-y,z
loop_
_atom_site_type_symbol
_atom_site_label
_atom_site_fract_x
_atom_site_fract_y
_atom_site_fract_z
Si Si1 0.279269 0.541492 0.890494
Si Si2 0.198024 0.461178 0.301232
Si Si3 0.419805 0.963112 0.928175
Si Si4 0.958842 0.034230 0.838160
Si Si5 0.121159 0.039068 0.740296
Si Si6 0.475022 0.030889 0.769813
Si Si7 0.864735 0.468295 0.553097
Si Si8 0.957080 0.468749 0.575640
O O1 0.283206 0.750000 0.881551
O O2 0.237023 0.527998 0.891077
O O3 0.166583 0.469289 0.663822
O O4 0.413900 0.471645 0.092547
O O5 0.205203 0.250000 0.301088
O O6 0.144094 0.485156 0.280578
O O7 0.337631 0.532954 0.526936
O O8 0.091387 0.532772 0.081208
O O9 0.410464 0.750000 0.919224
O O10 0.486017 0.026780 0.098343
O O11 0.278235 0.028569 0.689022
O O12 0.500000 0.000000 0.000000
O O13 0.963525 0.250000 0.844495
O O14 0.921399 0.972039 0.709940
O O15 0.137160 0.250000 0.770632
O O16 0.077833 0.972108 0.735320
O O17 0.000000 0.000000 0.500000
O O18 0.469810 0.250000 0.761249
O O19 0.863438 0.250000 0.551725
O O20 0.942384 0.522444 0.621100
O O21 0.957373 0.250000 0.574320
#
# Coordination Sequence:
#
# PCOD9156240 Si02
#       8
#     4   4   4   4   4   4   4   4
#     4   9  15  26  42  58  78 106 137 165 197 237
#     4   9  17  29  43  59  80 105 136 171 205 242
#     4  10  18  27  40  56  78 107 136 162 195 240
#     4   9  17  28  43  61  79 102 135 175 208 232
#     4   9  16  25  40  60  82 108 135 162 197 238
#     4   9  16  27  43  59  78 109 140 163 197 247
#     4   9  15  25  41  59  78 103 135 165 194 234
#     4   8  13  23  39  57  77 102 131 159 190 233
#
# _framework density 18.046167000000001
#
# number of rings (size 3 to 8) (size 9 to 14) (size 15 to 20)
#    0.000    3.000    1.250    1.875    0.000    0.000 
#    0.000    1.250    0.000    3.750    0.000    0.875 
#    0.000    0.000    0.000    0.000    0.000    0.000 
#
# Total GULP energy -178318.023075 kJ/mol
# GULP energy per Si atom -5572.438221 kJ/mol
# Density = 1.800509 g / cm^3
# Si number density = 18.046167 Si / 1000 Ang^3
#
#
#
# Elastic Constant Matrix: (Units=GPa)
#
#
# Indices 1 2 3 4 5 6 
#
# 1 95.6333 -14.7049 60.0618 0.0000 24.2917 0.0000
# 2 -14.7049 43.9661 0.5501 0.0000 -0.4113 0.0000
# 3 60.0618 0.5501 106.3188 0.0000 20.2658 0.0000
# 4 0.0000 0.0000 0.0000 0.1910 0.0000 5.8770
# 5 24.2917 -0.4113 20.2658 0.0000 25.9560 0.0000
# 6 0.0000 0.0000 0.0000 5.8770 0.0000 16.4319
#
#
#
# Elastic Compliance Matrix: (Units=1/GPa)
#
#
# Indices 1 2 3 4 5 6 
#
# 1 0.020280 0.006790 -0.009275 0.000000 -0.011630 0.000000
# 2 0.006790 0.025026 -0.003324 0.000000 -0.003362 0.000000
# 3 -0.009275 -0.003324 0.015294 0.000000 -0.003314 0.000000
# 4 0.000000 0.000000 0.000000 -0.523310 0.000000 0.187166
# 5 -0.011630 -0.003362 -0.003314 0.000000 0.051945 0.000000
# 6 0.000000 0.000000 0.000000 0.187166 0.000000 -0.006084
#
#
# Mechanical properties :
#
#
# Convention : Reuss Voigt Hill
#
# Bulk Modulus (GPa) = 20.41586 37.52580 28.97083
# Shear Modulus (GPa) = -12.85667 21.84987 4.49660
#
# Velocity S-wave (km/s) = -2.67204 3.48340 1.58023
# Velocity P-wave (km/s) = 1.34832 6.08426 4.40660
#
# Compressibility (1/GPa) = 0.04898152
#
# Stress axis : x y z
#
# Youngs Moduli (GPa) = 49.31021 39.95856 65.38494
#
# Poissons Ratio (x) = -0.27132 0.60643
# Poissons Ratio (y) = -0.33482 0.21736
# Poissons Ratio (z) = 0.45734 0.13284
#
# Static dielectric constant tensor:
#      x y z
#    x 1.629180 0.000000 0.016290 
#    y 0.000000 1.687490 0.000000 
#    z 0.016290 0.000000 1.609980 
# 
# From -- ./inp_files/43050.got.cif
#   From: 2010.05.17/outbox.cif.g08.bks.cpg/sg11_22_cif.got.tgz:43050.got - 2010.06.03 12:22:45.
