data_PCOD9156309
_publ_section_title
;
Structure prediction by ZEFSAII (Michael W. Deem and Ramdas Pophale) SiO2 
 PCOD9156309
Probable space group: P 21/M
;
_chemical_formula_sum "Si O2"
_cell_formula_units_Z 32
_cell_length_a 9.722144
_cell_length_b 14.489591
_cell_length_c 11.840920
_cell_angle_alpha 90.000000
_cell_angle_beta 64.677258
_cell_angle_gamma 90.000000
_cell_volume 1507.752939
_symmetry_space_group_name_H-M "P 21/M"
_symmetry_group_IT_number 11
_symmetry_cell_setting 'monoclinic'
loop_
_space_group_symop_operation_xyz
x,y,z
-x,1/2+y,-z
-x,-y,-z
x,1/2-y,z
loop_
_atom_site_type_symbol
_atom_site_label
_atom_site_fract_x
_atom_site_fract_y
_atom_site_fract_z
Si Si1 0.391202 0.522806 0.704156
Si Si2 0.249664 0.501228 0.976409
Si Si3 0.203916 0.647162 0.414449
Si Si4 0.159010 0.357214 0.450347
Si Si5 0.769915 0.513713 0.763703
Si Si6 0.526071 0.354748 0.517139
Si Si7 0.973007 0.642954 0.063381
Si Si8 0.112408 0.044652 0.692665
O O1 0.385894 0.517416 0.840011
O O2 0.443930 0.427036 0.628434
O O3 0.473862 0.604741 0.609187
O O4 0.215220 0.525665 0.726552
O O5 0.148356 0.413251 0.970691
O O6 0.300001 0.487628 0.087627
O O7 0.132964 0.587794 0.006701
O O8 0.220670 0.750000 0.359889
O O9 0.266237 0.572795 0.304369
O O10 0.302118 0.643916 0.493551
O O11 0.025079 0.632839 0.499689
O O12 0.191097 0.250000 0.458262
O O13 0.242054 0.397381 0.311648
O O14 0.187100 0.420004 0.550842
O O15 0.950233 0.499657 0.724853
O O16 0.470183 0.250000 0.543848
O O17 0.985886 0.750000 0.028774
O O18 0.915502 0.630163 0.212833
#
# Coordination Sequence:
#
# PCOD9156309 Si02
#       8
#     4   4   4   4   4   4   4   4
#     4  10  20  36  53  73 102 130 161 210 254 293
#     4   9  20  32  46  74 103 134 169 193 242 305
#     4   9  18  33  52  73  96 127 168 208 244 283
#     4  10  18  27  46  75 103 131 161 198 243 289
#     4  10  18  31  49  73 105 133 159 194 238 297
#     4  10  21  36  55  75  93 124 171 214 253 292
#     4   9  17  30  48  71 104 138 165 199 240 295
#     4   9  17  31  51  75 101 130 163 202 250 295
#
# _framework density 21.223637
#
# number of rings (size 3 to 8) (size 9 to 14) (size 15 to 20)
#    0.000    2.500    0.000    4.125    0.000    6.500 
#    0.000    1.875    0.000    0.000    0.000    0.000 
#    0.000    0.000    0.000    0.000    0.000    0.000 
#
# Total GULP energy -178669.600995 kJ/mol
# GULP energy per Si atom -5583.425031 kJ/mol
# Density = 2.117533 g / cm^3
# Si number density = 21.223637 Si / 1000 Ang^3
#
#
#
# Elastic Constant Matrix: (Units=GPa)
#
#
# Indices 1 2 3 4 5 6 
#
# 1 53.6586 -4.8017 6.6284 0.0000 10.9021 0.0000
# 2 -4.8017 81.6797 28.7364 0.0000 10.0798 0.0000
# 3 6.6284 28.7364 160.4926 0.0000 19.0233 0.0000
# 4 0.0000 0.0000 0.0000 19.2675 0.0000 3.3860
# 5 10.9021 10.0798 19.0233 0.0000 24.0868 0.0000
# 6 0.0000 0.0000 0.0000 3.3860 0.0000 12.9117
#
#
#
# Elastic Compliance Matrix: (Units=1/GPa)
#
#
# Indices 1 2 3 4 5 6 
#
# 1 0.021013 0.002561 -0.000080 0.000000 -0.010520 0.000000
# 2 0.002561 0.013736 -0.001927 0.000000 -0.005386 0.000000
# 3 -0.000080 -0.001927 0.007148 0.000000 -0.004803 0.000000
# 4 0.000000 0.000000 0.000000 0.054408 0.000000 -0.014268
# 5 -0.010520 -0.005386 -0.004803 0.000000 0.052325 0.000000
# 6 0.000000 0.000000 0.000000 -0.014268 0.000000 0.081191
#
#
# Mechanical properties :
#
#
# Convention : Reuss Voigt Hill
#
# Bulk Modulus (GPa) = 23.25178 39.66190 31.45684
# Shear Modulus (GPa) = 20.57211 28.93774 24.75492
#
# Velocity S-wave (km/s) = 3.11674 3.69652 3.41894
# Velocity P-wave (km/s) = 4.89198 6.07842 5.51719
#
# Compressibility (1/GPa) = 0.04300746
#
# Stress axis : x y z
#
# Youngs Moduli (GPa) = 47.59014 72.80095 139.89029
#
# Poissons Ratio (x) = -0.18648 0.01113
# Poissons Ratio (y) = -0.12190 0.26955
# Poissons Ratio (z) = 0.00379 0.14028
#
# Static dielectric constant tensor:
#      x y z
#    x 1.835910 0.000000 -0.015450 
#    y 0.000000 1.753090 0.000000 
#    z -0.015450 0.000000 1.790180 
# 
# From -- ./inp_files/35505.got.cif
#   From: 2010.05.17/outbox.cif.g08.bks.cpg/sg11_18_cif.got.tgz:35505.got - 2010.06.03 12:22:45.
