data_PCOD9156480
_publ_section_title
;
Structure prediction by ZEFSAII (Michael W. Deem and Ramdas Pophale) SiO2 
 PCOD9156480
Probable space group: P 21/M
;
_chemical_formula_sum "Si O2"
_cell_formula_units_Z 32
_cell_length_a 29.830530
_cell_length_b 8.774579
_cell_length_c 20.372253
_cell_angle_alpha 90.000000
_cell_angle_beta 156.550171
_cell_angle_gamma 90.000000
_cell_volume 2122.024267
_symmetry_space_group_name_H-M "P 21/M"
_symmetry_group_IT_number 11
_symmetry_cell_setting 'monoclinic'
loop_
_space_group_symop_operation_xyz
x,y,z
-x,1/2+y,-z
-x,-y,-z
x,1/2-y,z
loop_
_atom_site_type_symbol
_atom_site_label
_atom_site_fract_x
_atom_site_fract_y
_atom_site_fract_z
Si Si1 0.337697 0.072487 0.250778
Si Si2 0.553961 0.068105 0.733000
Si Si3 0.237016 0.934287 0.901448
Si Si4 0.067020 0.427713 0.894734
Si Si5 0.661306 0.067722 0.606432
Si Si6 0.106768 0.566530 0.604574
Si Si7 0.022134 0.434741 0.691143
Si Si8 0.078996 0.568416 0.050448
O O1 0.371646 0.250000 0.293615
O O2 0.388964 0.982980 0.258705
O O3 0.368683 0.000744 0.362401
O O4 0.201914 0.064800 0.064508
O O5 0.542316 0.250000 0.718908
O O6 0.431308 0.992529 0.568603
O O7 0.642189 0.019255 0.907761
O O8 0.230344 0.750000 0.897456
O O9 0.211554 0.978419 0.791496
O O10 0.136358 0.001825 0.811083
O O11 0.037430 0.250000 0.864525
O O12 0.013051 0.485222 0.754337
O O13 0.042673 0.515967 0.928880
O O14 0.657611 0.250000 0.605126
O O15 0.789986 0.019865 0.764721
O O16 0.102082 0.750000 0.599562
O O17 0.082303 0.521353 0.496530
O O18 0.000000 0.500000 0.500000
O O19 0.031547 0.250000 0.704747
O O20 0.075742 0.750000 0.049628
O O21 0.000000 0.500000 0.000000
#
# Coordination Sequence:
#
# PCOD9156480 Si02
#       8
#     4   4   4   4   4   4   4   4
#     4  10  18  29  43  59  84 115 146 180 214 246
#     4  11  20  28  40  59  86 118 150 181 211 246
#     4   9  17  26  37  56  84 118 151 182 214 246
#     4   9  17  28  44  66  88 113 145 178 212 253
#     4  10  21  34  46  62  82 107 141 175 212 255
#     4   8  14  24  37  54  79 112 148 182 213 245
#     4   9  15  25  41  60  83 113 149 183 213 247
#     4  10  21  36  53  68  84 107 134 172 218 264
#
# _framework density 15.079940000000001
#
# number of rings (size 3 to 8) (size 9 to 14) (size 15 to 20)
#    0.000    2.500    1.250    1.875    0.000    3.000 
#    0.000    0.000    0.000    0.000    0.000    0.000 
#    0.000    1.000    0.000    2.000    0.000    2.625 
#
# Total GULP energy -178243.402543 kJ/mol
# GULP energy per Si atom -5570.106329 kJ/mol
# Density = 1.504562 g / cm^3
# Si number density = 15.079940 Si / 1000 Ang^3
#
#
#
# Elastic Constant Matrix: (Units=GPa)
#
#
# Indices 1 2 3 4 5 6 
#
# 1 80.6783 17.6284 57.8740 0.0000 -19.0116 0.0000
# 2 17.6284 21.2360 22.2132 0.0000 -6.4280 0.0000
# 3 57.8740 22.2132 109.6010 0.0000 -35.0023 0.0000
# 4 0.0000 0.0000 0.0000 17.9243 0.0000 0.4258
# 5 -19.0116 -6.4280 -35.0023 0.0000 24.8034 0.0000
# 6 0.0000 0.0000 0.0000 0.4258 0.0000 18.3951
#
#
#
# Elastic Compliance Matrix: (Units=1/GPa)
#
#
# Indices 1 2 3 4 5 6 
#
# 1 0.020835 -0.007391 -0.009130 0.000000 0.001170 0.000000
# 2 -0.007391 0.062497 -0.009831 0.000000 -0.003342 0.000000
# 3 -0.009130 -0.009831 0.023463 0.000000 0.023566 0.000000
# 4 0.000000 0.000000 0.000000 0.055821 0.000000 -0.001292
# 5 0.001170 -0.003342 0.023566 0.000000 0.073603 0.000000
# 6 0.000000 0.000000 0.000000 -0.001292 0.000000 0.054392
#
#
# Mechanical properties :
#
#
# Convention : Reuss Voigt Hill
#
# Bulk Modulus (GPa) = 18.48736 45.21629 31.85183
# Shear Modulus (GPa) = 13.83713 19.81120 16.82416
#
# Velocity S-wave (km/s) = 3.03245 3.62849 3.34378
# Velocity P-wave (km/s) = 4.95451 6.89957 6.00630
#
# Compressibility (1/GPa) = 0.05409100
#
# Stress axis : x y z
#
# Youngs Moduli (GPa) = 47.99609 16.00076 42.61941
#
# Poissons Ratio (x) = 0.11826 0.38912
# Poissons Ratio (y) = 0.35475 0.41899
# Poissons Ratio (z) = 0.43821 0.15730
#
# Static dielectric constant tensor:
#      x y z
#    x 1.481180 0.000000 -0.042600 
#    y 0.000000 1.506780 0.000000 
#    z -0.042600 0.000000 1.542940 
# 
# From -- ./inp_files/58689.got.cif
#   From: 2010.05.17/outbox.cif.g08.bks.cpg/sg11_30_cif.got.tgz:58689.got - 2010.06.03 12:22:45.
