data_PCOD9156068
_publ_section_title
;
Structure prediction by ZEFSAII (Michael W. Deem and Ramdas Pophale) SiO2 
 PCOD9156068
Probable space group: P 21/M
;
_chemical_formula_sum "Si O2"
_cell_formula_units_Z 32
_cell_length_a 11.597753
_cell_length_b 18.219688
_cell_length_c 22.433262
_cell_angle_alpha 90.000000
_cell_angle_beta 159.813315
_cell_angle_gamma 90.000000
_cell_volume 1635.788405
_symmetry_space_group_name_H-M "P 21/M"
_symmetry_group_IT_number 11
_symmetry_cell_setting 'monoclinic'
loop_
_space_group_symop_operation_xyz
x,y,z
-x,1/2+y,-z
-x,-y,-z
x,1/2-y,z
loop_
_atom_site_type_symbol
_atom_site_label
_atom_site_fract_x
_atom_site_fract_y
_atom_site_fract_z
Si Si1 0.314730 0.493802 0.347815
Si Si2 0.574714 0.668794 0.628871
Si Si3 0.525370 0.382962 0.292866
Si Si4 0.303537 0.964903 0.216028
Si Si5 0.222085 0.334693 0.776387
Si Si6 0.453765 0.086504 0.135293
Si Si7 0.272802 0.068277 0.688644
Si Si8 0.361766 0.075990 0.958767
O O1 0.500000 0.500000 0.500000
O O2 0.241703 0.406505 0.302118
O O3 0.481244 0.521616 0.366654
O O4 0.010535 0.549465 0.207190
O O5 0.686797 0.750000 0.662441
O O6 0.567952 0.668541 0.697699
O O7 0.184557 0.658202 0.420644
O O8 0.273768 0.452152 0.176393
O O9 0.525107 0.357591 0.224264
O O10 0.891317 0.415704 0.485595
O O11 0.510768 0.922519 0.266362
O O12 0.940432 0.931866 0.050899
O O13 0.302980 0.250000 0.808514
O O14 0.354447 0.379089 0.783605
O O15 0.360942 0.366010 0.905379
O O16 0.658006 0.013336 0.253053
O O17 0.522828 0.101930 0.099344
O O18 0.500000 0.000000 0.000000
#
# Coordination Sequence:
#
# PCOD9156068 Si02
#       8
#     4   4   4   4   4   4   4   4
#     4  10  19  33  55  81 108 142 189 224 265 326
#     4   9  18  34  55  79 107 139 183 232 274 322
#     4   9  17  28  48  77 101 134 171 212 266 316
#     4   9  18  28  48  75 107 130 164 217 266 304
#     4  10  20  35  55  78 107 145 183 225 278 332
#     4  10  18  30  50  75 107 136 167 216 267 311
#     4  10  17  30  52  75 101 132 178 222 260 309
#     4  11  21  34  54  79 112 146 181 229 269 324
#
# _framework density 19.562432000000001
#
# number of rings (size 3 to 8) (size 9 to 14) (size 15 to 20)
#    0.000    2.250    2.500    3.000    0.000    1.000 
#    0.000    1.250    0.000    3.750    0.000    1.750 
#    0.000    0.000    0.000    0.000    0.000    0.000 
#
# Total GULP energy -178165.264045 kJ/mol
# GULP energy per Si atom -5567.664501 kJ/mol
# Density = 1.951791 g / cm^3
# Si number density = 19.562432 Si / 1000 Ang^3
#
#
#
# Elastic Constant Matrix: (Units=GPa)
#
#
# Indices 1 2 3 4 5 6 
#
# 1 143.4008 22.6440 27.0579 0.0000 -46.1872 0.0000
# 2 22.6440 63.4528 -3.8426 0.0000 -9.0667 0.0000
# 3 27.0579 -3.8426 34.2026 0.0000 -20.2755 0.0000
# 4 0.0000 0.0000 0.0000 6.8687 0.0000 -2.1513
# 5 -46.1872 -9.0667 -20.2755 0.0000 43.1330 0.0000
# 6 0.0000 0.0000 0.0000 -2.1513 0.0000 19.1318
#
#
#
# Elastic Compliance Matrix: (Units=1/GPa)
#
#
# Indices 1 2 3 4 5 6 
#
# 1 0.011221 -0.002800 -0.003351 0.000000 0.009852 0.000000
# 2 -0.002800 0.017681 0.006415 0.000000 0.003734 0.000000
# 3 -0.003351 0.006415 0.043366 0.000000 0.018145 0.000000
# 4 0.000000 0.000000 0.000000 0.150903 0.000000 0.016969
# 5 0.009852 0.003734 0.018145 0.000000 0.043048 0.000000
# 6 0.000000 0.000000 0.000000 0.016969 0.000000 0.054177
#
#
# Mechanical properties :
#
#
# Convention : Reuss Voigt Hill
#
# Bulk Modulus (GPa) = 13.73713 36.97496 25.35604
# Shear Modulus (GPa) = 14.52927 26.83982 20.68455
#
# Velocity S-wave (km/s) = 2.72823 3.70808 3.25524
# Velocity P-wave (km/s) = 4.11847 6.10534 5.20754
#
# Compressibility (1/GPa) = 0.07279543
#
# Stress axis : x y z
#
# Youngs Moduli (GPa) = 89.11888 56.55826 23.05958
#
# Poissons Ratio (x) = 0.15834 0.07728
# Poissons Ratio (y) = 0.24950 -0.14792
# Poissons Ratio (z) = 0.29867 -0.36281
#
# Static dielectric constant tensor:
#      x y z
#    x 1.755680 0.000000 -0.030970 
#    y 0.000000 1.656780 0.000000 
#    z -0.030970 0.000000 1.735350 
# 
# From -- ./inp_files/41827.got.cif
#   From: 2010.05.17/outbox.cif.g08.bks.cpg/sg11_21_cif.got.tgz:41827.got - 2010.06.03 12:22:45.
