data_PCOD9156414
_publ_section_title
;
Structure prediction by ZEFSAII (Michael W. Deem and Ramdas Pophale) SiO2 
 PCOD9156414
Probable space group: P 21/M
;
_chemical_formula_sum "Si O2"
_cell_formula_units_Z 28
_cell_length_a 11.390026
_cell_length_b 8.629733
_cell_length_c 21.956491
_cell_angle_alpha 90.000000
_cell_angle_beta 129.157189
_cell_angle_gamma 90.000000
_cell_volume 1673.478195
_symmetry_space_group_name_H-M "P 21/M"
_symmetry_group_IT_number 11
_symmetry_cell_setting 'monoclinic'
loop_
_space_group_symop_operation_xyz
x,y,z
-x,1/2+y,-z
-x,-y,-z
x,1/2-y,z
loop_
_atom_site_type_symbol
_atom_site_label
_atom_site_fract_x
_atom_site_fract_y
_atom_site_fract_z
Si Si1 0.017857 0.062784 0.598043
Si Si2 0.508575 0.063521 0.265113
Si Si3 0.239925 0.563946 0.566017
Si Si4 0.862427 0.934961 0.036350
Si Si5 0.793659 0.435063 0.883999
Si Si6 0.728621 0.935937 0.231463
Si Si7 0.340700 0.934083 0.924246
O O1 0.025158 0.250000 0.594396
O O2 0.101906 0.024362 0.688549
O O3 0.846550 0.014067 0.524247
O O4 0.125740 0.988259 0.582129
O O5 0.502358 0.250000 0.261713
O O6 0.596792 0.011303 0.355656
O O7 0.342409 0.995467 0.201876
O O8 0.610269 0.005753 0.241441
O O9 0.247049 0.750000 0.566801
O O10 0.847453 0.750000 0.036907
O O11 0.040282 0.974136 0.087768
O O12 0.785194 0.015157 0.068257
O O13 0.784514 0.989866 0.948061
O O14 0.784390 0.250000 0.887359
O O15 0.712314 0.750000 0.226641
O O16 0.696711 0.998978 0.154321
O O17 0.350230 0.750000 0.923954
O O18 0.500000 0.000000 0.000000
#
# Coordination Sequence:
#
# PCOD9156414 Si02
#       7
#     4   4   4   4   4   4   4
#     4   8  14  25  41  61  88 122 156 189 226 271
#     4  10  18  28  45  70 100 129 158 192 230 274
#     4   8  14  24  39  62  91 122 154 188 227 269
#     4  10  21  37  54  71  92 120 156 194 233 275
#     4  10  20  34  52  72  95 122 153 191 233 277
#     4  10  19  31  47  68  96 128 161 194 232 277
#     4  12  24  37  52  70  95 124 156 192 231 276
#
# _framework density 16.731618999999998
#
# number of rings (size 3 to 8) (size 9 to 14) (size 15 to 20)
#    0.000    2.286    0.000    3.857    0.000    2.857 
#    0.000    0.000    0.000    0.000    0.000    1.000 
#    0.000    0.000    0.000    0.000    0.000    0.000 
#
# Total GULP energy -156014.533553 kJ/mol
# GULP energy per Si atom -5571.947627 kJ/mol
# Density = 1.669354 g / cm^3
# Si number density = 16.731619 Si / 1000 Ang^3
#
#
#
# Elastic Constant Matrix: (Units=GPa)
#
#
# Indices 1 2 3 4 5 6 
#
# 1 29.0079 11.4137 32.1499 0.0000 4.3490 0.0000
# 2 11.4137 38.2860 26.2263 0.0000 3.5976 0.0000
# 3 32.1499 26.2263 156.4644 0.0000 25.3020 0.0000
# 4 0.0000 0.0000 0.0000 20.8024 0.0000 1.1243
# 5 4.3490 3.5976 25.3020 0.0000 23.9984 0.0000
# 6 0.0000 0.0000 0.0000 1.1243 0.0000 23.0568
#
#
#
# Elastic Compliance Matrix: (Units=1/GPa)
#
#
# Indices 1 2 3 4 5 6 
#
# 1 0.046940 -0.008312 -0.008533 0.000000 0.001736 0.000000
# 2 -0.008312 0.030997 -0.003592 0.000000 0.000647 0.000000
# 3 -0.008533 -0.003592 0.010138 0.000000 -0.008604 0.000000
# 4 0.000000 0.000000 0.000000 0.048198 0.000000 -0.002350
# 5 0.001736 0.000647 -0.008604 0.000000 0.050329 0.000000
# 6 0.000000 0.000000 0.000000 -0.002350 0.000000 0.043486
#
#
# Mechanical properties :
#
#
# Convention : Reuss Voigt Hill
#
# Bulk Modulus (GPa) = 21.18564 40.37087 30.77826
# Shear Modulus (GPa) = 17.44003 23.83608 20.63805
#
# Velocity S-wave (km/s) = 3.23203 3.77850 3.51590
# Velocity P-wave (km/s) = 5.15922 6.57396 5.90908
#
# Compressibility (1/GPa) = 0.04720178
#
# Stress axis : x y z
#
# Youngs Moduli (GPa) = 21.30357 32.26104 98.63877
#
# Poissons Ratio (x) = 0.26815 0.84165
# Poissons Ratio (y) = 0.17707 0.35435
# Poissons Ratio (z) = 0.18178 0.11590
#
# Static dielectric constant tensor:
#      x y z
#    x 1.513010 0.000000 0.051930 
#    y 0.000000 1.568160 0.000000 
#    z 0.051930 0.000000 1.598540 
# 
# From -- ./inp_files/42218.got.cif
#   From: 2010.05.17/outbox.cif.g08.bks.cpg/sg11_22_cif.got.tgz:42218.got - 2010.06.03 12:22:45.
