data_PCOD9156301
_publ_section_title
;
Structure prediction by ZEFSAII (Michael W. Deem and Ramdas Pophale) SiO2 
 PCOD9156301
Probable space group: P 21/M
;
_chemical_formula_sum "Si O2"
_cell_formula_units_Z 32
_cell_length_a 12.727370
_cell_length_b 8.727257
_cell_length_c 24.678145
_cell_angle_alpha 90.000000
_cell_angle_beta 46.343482
_cell_angle_gamma 90.000000
_cell_volume 1983.180440
_symmetry_space_group_name_H-M "P 21/M"
_symmetry_group_IT_number 11
_symmetry_cell_setting 'monoclinic'
loop_
_space_group_symop_operation_xyz
x,y,z
-x,1/2+y,-z
-x,-y,-z
x,1/2-y,z
loop_
_atom_site_type_symbol
_atom_site_label
_atom_site_fract_x
_atom_site_fract_y
_atom_site_fract_z
Si Si1 0.185413 0.433541 0.574291
Si Si2 0.333106 0.064679 0.835410
Si Si3 0.781516 0.565365 0.313860
Si Si4 0.446788 0.565794 0.414371
Si Si5 0.639188 0.434297 0.679145
Si Si6 0.905996 0.066330 0.162776
Si Si7 0.951730 0.567863 0.575114
Si Si8 0.880898 0.934468 0.000968
O O1 0.176763 0.250000 0.574283
O O2 0.175831 0.479919 0.640548
O O3 0.338794 0.487052 0.494862
O O4 0.059787 0.505489 0.582344
O O5 0.326089 0.250000 0.832588
O O6 0.497558 0.019602 0.763916
O O7 0.224254 0.996232 0.829114
O O8 0.271130 0.020921 0.916863
O O9 0.786491 0.750000 0.308382
O O10 0.613934 0.519436 0.362790
O O11 0.880882 0.497234 0.231423
O O12 0.437995 0.750000 0.424331
O O13 0.395326 0.530457 0.371578
O O14 0.657295 0.250000 0.676753
O O15 0.787004 0.515024 0.643578
O O16 0.898388 0.250000 0.166184
O O17 0.057714 0.018917 0.079586
O O18 0.962259 0.750000 0.568758
O O19 0.000000 0.500000 0.500000
O O20 0.885937 0.750000 0.000426
O O21 0.000000 0.000000 0.000000
#
# Coordination Sequence:
#
# PCOD9156301 Si02
#       8
#     4   4   4   4   4   4   4   4
#     4  11  23  37  54  73  95 127 170 210 246 291
#     4   9  16  30  49  68  99 135 164 198 242 292
#     4  10  21  36  51  71 100 135 169 199 240 297
#     4  10  19  33  52  73 100 131 165 201 243 291
#     4  10  19  32  53  76  98 129 167 203 243 292
#     4  10  18  27  44  72 103 132 165 201 237 285
#     4  12  24  38  55  72  96 127 164 208 252 293
#     4   8  15  26  42  67  97 131 164 194 235 286
#
# _framework density 16.135697
#
# number of rings (size 3 to 8) (size 9 to 14) (size 15 to 20)
#    0.000    2.000    2.500    2.250    0.000    2.500 
#    0.000    0.000    0.000    0.000    0.000    0.875 
#    0.000    0.000    0.000    0.000    0.000    0.000 
#
# Total GULP energy -178462.501308 kJ/mol
# GULP energy per Si atom -5576.953166 kJ/mol
# Density = 1.609897 g / cm^3
# Si number density = 16.135697 Si / 1000 Ang^3
#
#
#
# Elastic Constant Matrix: (Units=GPa)
#
#
# Indices 1 2 3 4 5 6 
#
# 1 58.9263 23.3708 52.9548 0.0000 13.2550 0.0000
# 2 23.3708 28.3938 40.4475 0.0000 4.6744 0.0000
# 3 52.9548 40.4475 178.8127 0.0000 5.1018 0.0000
# 4 0.0000 0.0000 0.0000 22.3875 0.0000 0.3560
# 5 13.2550 4.6744 5.1018 0.0000 17.4424 0.0000
# 6 0.0000 0.0000 0.0000 0.3560 0.0000 18.8932
#
#
#
# Elastic Compliance Matrix: (Units=1/GPa)
#
#
# Indices 1 2 3 4 5 6 
#
# 1 0.032366 -0.015726 -0.005492 0.000000 -0.018775 0.000000
# 2 -0.015726 0.061613 -0.009227 0.000000 -0.001863 0.000000
# 3 -0.005492 -0.009227 0.009193 0.000000 0.003957 0.000000
# 4 0.000000 0.000000 0.000000 0.044681 0.000000 -0.000842
# 5 -0.018775 -0.001863 0.003957 0.000000 0.070941 0.000000
# 6 0.000000 0.000000 0.000000 -0.000842 0.000000 0.052945
#
#
# Mechanical properties :
#
#
# Convention : Reuss Voigt Hill
#
# Bulk Modulus (GPa) = 23.65013 55.51987 39.58500
# Shear Modulus (GPa) = 14.42073 21.70195 18.06134
#
# Velocity S-wave (km/s) = 2.99275 3.67136 3.34928
# Velocity P-wave (km/s) = 5.16052 7.24255 6.28830
#
# Compressibility (1/GPa) = 0.04228307
#
# Stress axis : x y z
#
# Youngs Moduli (GPa) = 30.89623 16.23039 108.77693
#
# Poissons Ratio (x) = 0.25523 0.59744
# Poissons Ratio (y) = 0.48587 1.00364
# Poissons Ratio (z) = 0.16969 0.14975
#
# Static dielectric constant tensor:
#      x y z
#    x 1.504280 0.000000 -0.004850 
#    y 0.000000 1.545200 0.000000 
#    z -0.004850 0.000000 1.574840 
# 
# From -- ./inp_files/42459.got.cif
#   From: 2010.05.17/outbox.cif.g08.bks.cpg/sg11_22_cif.got.tgz:42459.got - 2010.06.03 12:22:45.
