data_PCOD9156952
_publ_section_title
;
Structure prediction by ZEFSAII (Michael W. Deem and Ramdas Pophale) SiO2 
 PCOD9156952
Probable space group: P 21/M
;
_chemical_formula_sum "Si O2"
_cell_formula_units_Z 32
_cell_length_a 24.497498
_cell_length_b 8.638531
_cell_length_c 12.733996
_cell_angle_alpha 90.000000
_cell_angle_beta 46.506929
_cell_angle_gamma 90.000000
_cell_volume 1954.962258
_symmetry_space_group_name_H-M "P 21/M"
_symmetry_group_IT_number 11
_symmetry_cell_setting 'monoclinic'
loop_
_space_group_symop_operation_xyz
x,y,z
-x,1/2+y,-z
-x,-y,-z
x,1/2-y,z
loop_
_atom_site_type_symbol
_atom_site_label
_atom_site_fract_x
_atom_site_fract_y
_atom_site_fract_z
Si Si1 0.683727 0.064623 0.720869
Si Si2 0.161079 0.062227 0.164159
Si Si3 0.681727 0.935768 0.134782
Si Si4 0.161188 0.064478 0.409298
Si Si5 0.593659 0.436580 0.050704
Si Si6 0.577968 0.935362 0.682244
Si Si7 0.576531 0.434426 0.449902
Si Si8 0.996281 0.435986 0.386095
O O1 0.686105 0.250000 0.714249
O O2 0.767491 0.999369 0.623257
O O3 0.640537 0.001408 0.677039
O O4 0.636488 0.018432 0.887586
O O5 0.162890 0.250000 0.163602
O O6 0.168804 0.012995 0.276285
O O7 0.078161 0.018137 0.232501
O O8 0.233071 0.011174 0.002815
O O9 0.680444 0.750000 0.147359
O O10 0.632354 0.983549 0.099079
O O11 0.644526 0.011587 0.285574
O O12 0.161094 0.250000 0.410428
O O13 0.080787 0.003960 0.556992
O O14 0.599698 0.250000 0.055374
O O15 0.505520 0.476773 0.164998
O O16 0.583040 0.750000 0.672173
O O17 0.584734 0.000985 0.556158
O O18 0.500000 0.500000 0.500000
O O19 0.571825 0.250000 0.458178
O O20 0.991656 0.250000 0.393921
O O21 0.000000 0.500000 0.500000
#
# Coordination Sequence:
#
# PCOD9156952 Si02
#       8
#     4   4   4   4   4   4   4   4
#     4  11  22  35  52  78 108 141 177 217 261 310
#     4   8  16  29  47  73 104 135 171 210 256 307
#     4  11  20  33  55  79 104 140 176 215 263 310
#     4  10  18  31  48  72 104 141 176 211 256 310
#     4  10  21  35  52  76 106 138 176 216 260 312
#     4  11  23  39  56  75 101 138 179 221 264 312
#     4  12  24  39  56  77 102 134 176 223 267 312
#     4   9  16  28  45  70 102 137 172 210 253 309
#
# _framework density 16.368601999999999
#
# number of rings (size 3 to 8) (size 9 to 14) (size 15 to 20)
#    0.000    1.750    2.500    4.125    0.000    1.000 
#    0.000    1.875    0.000    0.000    0.000    0.875 
#    0.000    0.000    0.000    0.000    0.000    0.000 
#
# Total GULP energy -178590.500870 kJ/mol
# GULP energy per Si atom -5580.953152 kJ/mol
# Density = 1.633135 g / cm^3
# Si number density = 16.368602 Si / 1000 Ang^3
#
#
#
# Elastic Constant Matrix: (Units=GPa)
#
#
# Indices 1 2 3 4 5 6 
#
# 1 134.7570 46.2684 74.1418 0.0000 -23.9998 0.0000
# 2 46.2684 57.9272 27.9247 0.0000 -9.7595 0.0000
# 3 74.1418 27.9247 80.1614 0.0000 -29.7517 0.0000
# 4 0.0000 0.0000 0.0000 20.9208 0.0000 0.4697
# 5 -23.9998 -9.7595 -29.7517 0.0000 33.0218 0.0000
# 6 0.0000 0.0000 0.0000 0.4697 0.0000 27.6502
#
#
#
# Elastic Compliance Matrix: (Units=1/GPa)
#
#
# Indices 1 2 3 4 5 6 
#
# 1 0.017535 -0.007403 -0.014605 0.000000 -0.002603 0.000000
# 2 -0.007403 0.023880 -0.001275 0.000000 0.000528 0.000000
# 3 -0.014605 -0.001275 0.033575 0.000000 0.019259 0.000000
# 4 0.000000 0.000000 0.000000 0.047818 0.000000 -0.000812
# 5 -0.002603 0.000528 0.019259 0.000000 0.045899 0.000000
# 6 0.000000 0.000000 0.000000 -0.000812 0.000000 0.036180
#
#
# Mechanical properties :
#
#
# Convention : Reuss Voigt Hill
#
# Bulk Modulus (GPa) = 35.18335 63.27949 49.23142
# Shear Modulus (GPa) = 19.16240 24.61927 21.89084
#
# Velocity S-wave (km/s) = 3.42523 3.88242 3.66097
# Velocity P-wave (km/s) = 6.09787 7.67076 6.92909
#
# Compressibility (1/GPa) = 0.02842253
#
# Stress axis : x y z
#
# Youngs Moduli (GPa) = 57.03014 41.87576 29.78406
#
# Poissons Ratio (x) = 0.31003 0.43499
# Poissons Ratio (y) = 0.42222 0.03798
# Poissons Ratio (z) = 0.83291 0.05341
#
# Static dielectric constant tensor:
#      x y z
#    x 1.520630 0.000000 -0.031130 
#    y 0.000000 1.542280 0.000000 
#    z -0.031130 0.000000 1.556080 
# 
# From -- ./inp_files/42741.got.cif
#   From: 2010.05.17/outbox.cif.g08.bks.cpg/sg11_22_cif.got.tgz:42741.got - 2010.06.03 12:22:45.
