data_PCOD9156210
_publ_section_title
;
Structure prediction by ZEFSAII (Michael W. Deem and Ramdas Pophale) SiO2 
 PCOD9156210
Probable space group: P 21/M
;
_chemical_formula_sum "Si O2"
_cell_formula_units_Z 32
_cell_length_a 20.429968
_cell_length_b 7.732801
_cell_length_c 29.892843
_cell_angle_alpha 90.000000
_cell_angle_beta 156.211525
_cell_angle_gamma 90.000000
_cell_volume 1904.872491
_symmetry_space_group_name_H-M "P 21/M"
_symmetry_group_IT_number 11
_symmetry_cell_setting 'monoclinic'
loop_
_space_group_symop_operation_xyz
x,y,z
-x,1/2+y,-z
-x,-y,-z
x,1/2-y,z
loop_
_atom_site_type_symbol
_atom_site_label
_atom_site_fract_x
_atom_site_fract_y
_atom_site_fract_z
Si Si1 0.253298 0.042570 0.938573
Si Si2 0.900458 0.458724 0.740670
Si Si3 0.602928 0.958596 0.163257
Si Si4 0.605949 0.042057 0.610248
Si Si5 0.056381 0.455770 0.584786
Si Si6 0.072559 0.046091 0.403527
Si Si7 0.730329 0.550267 0.150948
Si Si8 0.312330 0.042166 0.480264
O O1 0.235350 0.250000 0.923943
O O2 0.269040 0.970082 0.897787
O O3 0.085571 0.977662 0.855050
O O4 0.425168 0.006827 0.069151
O O5 0.903247 0.250000 0.745462
O O6 0.784717 0.523209 0.708612
O O7 0.811062 0.501027 0.637767
O O8 0.610744 0.750000 0.166468
O O9 0.626859 0.026696 0.127152
O O10 0.760646 0.019557 0.289365
O O11 0.617199 0.250000 0.621870
O O12 0.491381 0.975481 0.578665
O O13 0.500000 0.000000 0.500000
O O14 0.059609 0.250000 0.591073
O O15 0.937628 0.521586 0.549708
O O16 0.000000 0.500000 0.500000
O O17 0.053972 0.250000 0.382676
O O18 0.229824 0.983034 0.474738
O O19 0.914359 0.955178 0.284097
O O20 0.680057 0.750000 0.115041
O O21 0.325298 0.250000 0.490422
#
# Coordination Sequence:
#
# PCOD9156210 Si02
#       8
#     4   4   4   4   4   4   4   4
#     4  10  18  26  39  59  84 114 148 180 207 243
#     4   9  16  25  38  55  80 116 150 179 212 242
#     4   9  19  31  43  60  81 107 137 171 210 250
#     4   8  14  24  36  52  77 110 146 180 210 241
#     4  10  21  37  53  67  84 106 134 171 215 261
#     4  10  18  27  43  66  87 112 144 176 212 252
#     4   9  17  29  40  55  83 114 146 180 210 242
#     4   9  16  25  38  58  83 111 146 181 209 244
#
# _framework density 16.799023999999999
#
# number of rings (size 3 to 8) (size 9 to 14) (size 15 to 20)
#    0.000    2.750    1.250    1.875    0.000    4.000 
#    0.000    0.000    0.000    0.000    0.000    0.000 
#    0.000    1.000    0.000    2.000    0.000    2.625 
#
# Total GULP energy -178165.719376 kJ/mol
# GULP energy per Si atom -5567.678730 kJ/mol
# Density = 1.676079 g / cm^3
# Si number density = 16.799024 Si / 1000 Ang^3
#
#
#
# Elastic Constant Matrix: (Units=GPa)
#
#
# Indices 1 2 3 4 5 6 
#
# 1 123.4260 2.1324 75.5565 0.0000 34.6686 0.0000
# 2 2.1324 30.3693 4.7030 0.0000 2.4923 0.0000
# 3 75.5565 4.7030 83.5968 0.0000 32.5758 0.0000
# 4 0.0000 0.0000 0.0000 16.1662 0.0000 -0.8453
# 5 34.6686 2.4923 32.5758 0.0000 32.1262 0.0000
# 6 0.0000 0.0000 0.0000 -0.8453 0.0000 8.6286
#
#
#
# Elastic Compliance Matrix: (Units=1/GPa)
#
#
# Indices 1 2 3 4 5 6 
#
# 1 0.018672 0.001425 -0.014981 0.000000 -0.005070 0.000000
# 2 0.001425 0.033351 -0.002574 0.000000 -0.001515 0.000000
# 3 -0.014981 -0.002574 0.031857 0.000000 -0.015937 0.000000
# 4 0.000000 0.000000 0.000000 0.062176 0.000000 0.006091
# 5 -0.005070 -0.001515 -0.015937 0.000000 0.052876 0.000000
# 6 0.000000 0.000000 0.000000 0.006091 0.000000 0.116491
#
#
# Mechanical properties :
#
#
# Convention : Reuss Voigt Hill
#
# Bulk Modulus (GPa) = 19.37187 44.68620 32.02904
# Shear Modulus (GPa) = 13.70280 21.71754 17.71017
#
# Velocity S-wave (km/s) = 2.85913 3.59943 3.25043
# Velocity P-wave (km/s) = 4.73878 6.62818 5.76146
#
# Compressibility (1/GPa) = 0.05162124
#
# Stress axis : x y z
#
# Youngs Moduli (GPa) = 53.55596 29.98423 31.39018
#
# Poissons Ratio (x) = -0.04273 0.47025
# Poissons Ratio (y) = -0.07631 0.08079
# Poissons Ratio (z) = 0.80231 0.07717
#
# Static dielectric constant tensor:
#      x y z
#    x 1.614100 0.000000 0.055570 
#    y 0.000000 1.616800 0.000000 
#    z 0.055570 0.000000 1.577480 
# 
# From -- ./inp_files/52919.got.cif
#   From: 2010.05.17/outbox.cif.g08.bks.cpg/sg11_27_cif.got.tgz:52919.got - 2010.06.03 12:22:45.
