data_PCOD9156605
_publ_section_title
;
Structure prediction by ZEFSAII (Michael W. Deem and Ramdas Pophale) SiO2 
 PCOD9156605
Probable space group: P 21/M
;
_chemical_formula_sum "Si O2"
_cell_formula_units_Z 32
_cell_length_a 10.275932
_cell_length_b 29.689923
_cell_length_c 7.581569
_cell_angle_alpha 90.000000
_cell_angle_beta 34.660096
_cell_angle_gamma 90.000000
_cell_volume 1315.460478
_symmetry_space_group_name_H-M "P 21/M"
_symmetry_group_IT_number 11
_symmetry_cell_setting 'monoclinic'
loop_
_space_group_symop_operation_xyz
x,y,z
-x,1/2+y,-z
-x,-y,-z
x,1/2-y,z
loop_
_atom_site_type_symbol
_atom_site_label
_atom_site_fract_x
_atom_site_fract_y
_atom_site_fract_z
Si Si1 0.279547 0.801565 0.900471
Si Si2 0.905255 0.886174 0.876152
Si Si3 0.433246 0.349890 0.002287
Si Si4 0.218962 0.305332 0.569210
Si Si5 0.720324 0.067228 0.762230
Si Si6 0.186540 0.039565 0.789753
Si Si7 0.835118 0.200881 0.548566
Si Si8 0.439892 0.500263 0.835913
O O1 0.296915 0.750000 0.821598
O O2 0.214925 0.801024 0.183408
O O3 0.039322 0.818473 0.083604
O O4 0.543774 0.818899 0.593246
O O5 0.664931 0.877845 0.050299
O O6 0.052008 0.922129 0.598252
O O7 0.022463 0.838470 0.701946
O O8 0.897721 0.910184 0.073815
O O9 0.255491 0.329047 0.337880
O O10 0.597836 0.384871 0.923290
O O11 0.579762 0.308613 0.763688
O O12 0.224446 0.250000 0.546566
O O13 0.542939 0.036422 0.852278
O O14 0.759337 0.034787 0.884153
O O15 0.346781 0.033258 0.443573
O O16 0.353490 0.027381 0.765901
O O17 0.000000 0.000000 0.000000
O O18 0.927583 0.250000 0.404760
#
# Coordination Sequence:
#
# PCOD9156605 Si02
#       8
#     4   4   4   4   4   4   4   4
#     4   8  13  21  34  55  88 131 170 206 267 336
#     4  11  20  32  55  84 113 147 198 242 287 353
#     4  10  18  29  47  74 113 144 184 232 290 344
#     4   9  15  24  39  63  99 142 176 222 288 346
#     4  10  21  36  53  83 112 153 189 241 286 356
#     4  11  22  38  58  83 112 159 196 245 294 357
#     4   9  18  29  45  74 114 149 181 236 300 349
#     4  10  22  38  57  78 118 152 195 234 306 351
#
# _framework density 24.326083000000001
#
# number of rings (size 3 to 8) (size 9 to 14) (size 15 to 20)
#    0.000    2.250    3.750    1.125    0.000    2.000 
#    0.000    0.000    0.000    0.000    0.000    4.375 
#    0.000    9.000    0.000    0.000    0.000    0.000 
#
# Total GULP energy -178259.921603 kJ/mol
# GULP energy per Si atom -5570.622550 kJ/mol
# Density = 2.427072 g / cm^3
# Si number density = 24.326083 Si / 1000 Ang^3
#
#
#
# Elastic Constant Matrix: (Units=GPa)
#
#
# Indices 1 2 3 4 5 6 
#
# 1 32.0958 7.3511 21.8471 0.0000 -11.1813 0.0000
# 2 7.3511 113.5154 21.4215 0.0000 12.8595 0.0000
# 3 21.8471 21.4215 56.0350 0.0000 -24.3229 0.0000
# 4 0.0000 0.0000 0.0000 28.1656 0.0000 -6.5432
# 5 -11.1813 12.8595 -24.3229 0.0000 35.7279 0.0000
# 6 0.0000 0.0000 0.0000 -6.5432 0.0000 22.1412
#
#
#
# Elastic Compliance Matrix: (Units=1/GPa)
#
#
# Indices 1 2 3 4 5 6 
#
# 1 0.042625 -0.000245 -0.015183 0.000000 0.003092 0.000000
# 2 -0.000245 0.011654 -0.008820 0.000000 -0.010276 0.000000
# 3 -0.015183 -0.008820 0.037548 0.000000 0.023985 0.000000
# 4 0.000000 0.000000 0.000000 0.038121 0.000000 0.011266
# 5 0.003092 -0.010276 0.023985 0.000000 0.048984 0.000000
# 6 0.000000 0.000000 0.000000 0.011266 0.000000 0.048494
#
#
# Mechanical properties :
#
#
# Convention : Reuss Voigt Hill
#
# Bulk Modulus (GPa) = 23.07813 33.65393 28.36603
# Shear Modulus (GPa) = 17.21969 27.27537 22.24753
#
# Velocity S-wave (km/s) = 2.66347 3.35212 3.02744
# Velocity P-wave (km/s) = 4.35504 5.37093 4.88944
#
# Compressibility (1/GPa) = 0.04333107
#
# Stress axis : x y z
#
# Youngs Moduli (GPa) = 23.46054 85.80987 26.63248
#
# Poissons Ratio (x) = 0.02106 0.40435
# Poissons Ratio (y) = 0.00576 0.23489
# Poissons Ratio (z) = 0.35619 0.75681
#
# Static dielectric constant tensor:
#      x y z
#    x 2.074600 0.000000 -0.017680 
#    y 0.000000 1.965340 0.000000 
#    z -0.017680 0.000000 2.007970 
# 
# From -- ./inp_files/19865.got.cif
#   From: 2010.05.17/outbox.cif.g08.bks.cpg/sg11_10_cif.got.tgz:19865.got - 2010.06.03 12:22:45.
