data_PCOD9156843
_publ_section_title
;
Structure prediction by ZEFSAII (Michael W. Deem and Ramdas Pophale) SiO2 
 PCOD9156843
Probable space group: P 21/M
;
_chemical_formula_sum "Si O2"
_cell_formula_units_Z 28
_cell_length_a 15.114886
_cell_length_b 8.627190
_cell_length_c 18.964350
_cell_angle_alpha 90.000000
_cell_angle_beta 141.229329
_cell_angle_gamma 90.000000
_cell_volume 1548.561972
_symmetry_space_group_name_H-M "P 21/M"
_symmetry_group_IT_number 11
_symmetry_cell_setting 'monoclinic'
loop_
_space_group_symop_operation_xyz
x,y,z
-x,1/2+y,-z
-x,-y,-z
x,1/2-y,z
loop_
_atom_site_type_symbol
_atom_site_label
_atom_site_fract_x
_atom_site_fract_y
_atom_site_fract_z
Si Si1 0.736504 0.934762 0.421338
Si Si2 0.568022 0.567796 0.940151
Si Si3 0.867990 0.565289 0.960864
Si Si4 0.004317 0.565619 0.332616
Si Si5 0.863718 0.432868 0.115459
Si Si6 0.575511 0.434852 0.787520
Si Si7 0.729645 0.563761 0.251276
O O1 0.762292 0.750000 0.441646
O O2 0.573963 0.963576 0.342871
O O3 0.745472 0.978460 0.343910
O O4 0.852166 0.021223 0.539001
O O5 0.579688 0.750000 0.960135
O O6 0.567785 0.527795 0.856304
O O7 0.415772 0.505675 0.869583
O O8 0.712233 0.485663 0.053448
O O9 0.860277 0.750000 0.950662
O O10 0.720600 0.489647 0.842912
O O11 0.881875 0.516306 0.051572
O O12 0.000000 0.500000 0.000000
O O13 0.995825 0.750000 0.317152
O O14 0.982378 0.482251 0.244538
O O15 0.871257 0.517666 0.298814
O O16 0.861692 0.250000 0.102598
O O17 0.582044 0.250000 0.807186
O O18 0.715325 0.750000 0.239408
#
# Coordination Sequence:
#
# PCOD9156843 Si02
#       7
#     4   4   4   4   4   4   4
#     4   9  18  33  52  74 103 140 180 219 258 302
#     4  10  18  30  50  74 100 132 173 219 264 310
#     4  11  21  36  60  88 112 133 164 205 253 309
#     4  11  22  34  50  73 103 140 181 223 263 306
#     4  11  22  37  54  74 105 140 172 210 262 317
#     4   9  17  32  53  78 107 137 170 209 255 304
#     4   9  19  34  50  71 101 138 181 225 265 305
#
# _framework density 18.081291
#
# number of rings (size 3 to 8) (size 9 to 14) (size 15 to 20)
#    0.000    2.000    0.000    7.714    0.000    4.571 
#    0.000    0.000    0.000    0.857    0.000    0.000 
#    0.000    0.000    0.000    0.000    0.000    0.000 
#
# Total GULP energy -156305.870209 kJ/mol
# GULP energy per Si atom -5582.352507 kJ/mol
# Density = 1.804014 g / cm^3
# Si number density = 18.081291 Si / 1000 Ang^3
#
#
#
# Elastic Constant Matrix: (Units=GPa)
#
#
# Indices 1 2 3 4 5 6 
#
# 1 90.4736 18.3507 34.8903 0.0000 21.7307 0.0000
# 2 18.3507 58.5502 17.7793 0.0000 3.7470 0.0000
# 3 34.8903 17.7793 96.8486 0.0000 11.1503 0.0000
# 4 0.0000 0.0000 0.0000 29.4142 0.0000 7.0277
# 5 21.7307 3.7470 11.1503 0.0000 21.5110 0.0000
# 6 0.0000 0.0000 0.0000 7.0277 0.0000 23.2866
#
#
#
# Elastic Compliance Matrix: (Units=1/GPa)
#
#
# Indices 1 2 3 4 5 6 
#
# 1 0.016554 -0.003139 -0.003749 0.000000 -0.014233 0.000000
# 2 -0.003139 0.018730 -0.002443 0.000000 0.001175 0.000000
# 3 -0.003749 -0.002443 0.012378 0.000000 -0.002204 0.000000
# 4 0.000000 0.000000 0.000000 0.036639 0.000000 -0.011057
# 5 -0.014233 0.001175 -0.002204 0.000000 0.061804 0.000000
# 6 0.000000 0.000000 0.000000 -0.011057 0.000000 0.046280
#
#
# Mechanical properties :
#
#
# Convention : Reuss Voigt Hill
#
# Bulk Modulus (GPa) = 34.48202 43.10145 38.79173
# Shear Modulus (GPa) = 22.65385 26.49915 24.57650
#
# Velocity S-wave (km/s) = 3.54346 3.83241 3.69076
# Velocity P-wave (km/s) = 5.98777 6.59337 6.29785
#
# Compressibility (1/GPa) = 0.02900062
#
# Stress axis : x y z
#
# Youngs Moduli (GPa) = 60.40861 53.39084 80.78819
#
# Poissons Ratio (x) = 0.16760 0.30285
# Poissons Ratio (y) = 0.18963 0.19735
# Poissons Ratio (z) = 0.22645 0.13042
#
# Static dielectric constant tensor:
#      x y z
#    x 1.638780 0.000000 0.007890 
#    y 0.000000 1.603640 0.000000 
#    z 0.007890 0.000000 1.630580 
# 
# From -- ./inp_files/60137.got.cif
#   From: 2010.05.17/outbox.cif.g08.bks.cpg/sg11_31_cif.got.tgz:60137.got - 2010.06.03 12:22:45.
