data_PCOD9156176
_publ_section_title
;
Structure prediction by ZEFSAII (Michael W. Deem and Ramdas Pophale) SiO2 
 PCOD9156176
Probable space group: P 21/M
;
_chemical_formula_sum "Si O2"
_cell_formula_units_Z 26
_cell_length_a 7.819657
_cell_length_b 15.544462
_cell_length_c 9.700236
_cell_angle_alpha 90.000000
_cell_angle_beta 63.425621
_cell_angle_gamma 90.000000
_cell_volume 1054.521246
_symmetry_space_group_name_H-M "P 21/M"
_symmetry_group_IT_number 11
_symmetry_cell_setting 'monoclinic'
loop_
_space_group_symop_operation_xyz
x,y,z
-x,1/2+y,-z
-x,-y,-z
x,1/2-y,z
loop_
_atom_site_type_symbol
_atom_site_label
_atom_site_fract_x
_atom_site_fract_y
_atom_site_fract_z
Si Si1 0.416992 0.485679 0.763138
Si Si2 0.864809 0.750000 0.577323
Si Si3 0.264853 0.562870 0.549293
Si Si4 0.289859 0.750000 0.516402
Si Si5 0.140124 0.150492 0.960304
Si Si6 0.197397 0.750000 0.248652
Si Si7 0.158314 0.408655 0.262817
Si Si8 0.775158 0.420570 0.933335
O O1 0.285433 0.509370 0.679993
O O2 0.620878 0.478144 0.617505
O O3 0.337138 0.395871 0.848405
O O4 0.383521 0.555031 0.895416
O O5 0.755690 0.837169 0.662034
O O6 0.058303 0.750000 0.602041
O O7 0.974838 0.750000 0.388314
O O8 0.351825 0.657943 0.549709
O O9 0.045052 0.571623 0.592934
O O10 0.323742 0.750000 0.340847
O O11 0.127506 0.250000 0.923646
O O12 0.125440 0.141656 0.129762
O O13 0.970013 0.095959 0.949908
O O14 0.245736 0.833719 0.144021
O O15 0.222637 0.500102 0.174137
#
# Coordination Sequence:
#
# PCOD9156176 Si02
#       8
#     4   2   4   2   4   2   4   4
#     4  10  21  32  53  86 109 131 174 211 281 322
#     4   8  18  33  51  76  93 139 186 210 242 313
#     4  10  18  35  55  79 105 138 176 214 259 330
#     4   8  20  35  52  73 102 142 181 213 246 307
#     4  11  19  31  52  81 113 138 161 218 276 321
#     4  10  22  34  53  77 103 145 193 207 256 312
#     4  10  17  34  56  76 108 136 173 218 269 309
#     4  11  20  33  51  83 109 139 168 226 263 312
#
# _framework density 24.655737999999999
#
# number of rings (size 3 to 8) (size 9 to 14) (size 15 to 20)
#    0.462    1.538    4.615    0.923    1.077    1.231 
#    0.000    0.769    0.000    0.000    8.000    0.000 
#    0.000    0.000    0.000    0.000    0.000    0.000 
#
# Total GULP energy -145195.201585 kJ/mol
# GULP energy per Si atom -5584.430830 kJ/mol
# Density = 2.459962 g / cm^3
# Si number density = 24.655738 Si / 1000 Ang^3
#
#
#
# Elastic Constant Matrix: (Units=GPa)
#
#
# Indices 1 2 3 4 5 6 
#
# 1 20.0088 10.8593 17.3852 0.0000 6.1848 0.0000
# 2 10.8593 179.2833 116.2804 0.0000 -1.6065 0.0000
# 3 17.3852 116.2804 158.6224 0.0000 -11.8279 0.0000
# 4 0.0000 0.0000 0.0000 49.3946 0.0000 2.9481
# 5 6.1848 -1.6065 -11.8279 0.0000 24.7731 0.0000
# 6 0.0000 0.0000 0.0000 2.9481 0.0000 18.4326
#
#
#
# Elastic Compliance Matrix: (Units=1/GPa)
#
#
# Indices 1 2 3 4 5 6 
#
# 1 0.064192 0.002860 -0.010694 0.000000 -0.020946 0.000000
# 2 0.002860 0.011002 -0.008688 0.000000 -0.004149 0.000000
# 3 -0.010694 -0.008688 0.014519 0.000000 0.009039 0.000000
# 4 0.000000 0.000000 0.000000 0.020440 0.000000 -0.003269
# 5 -0.020946 -0.004149 0.009039 0.000000 0.049642 0.000000
# 6 0.000000 0.000000 0.000000 -0.003269 0.000000 0.054775
#
#
# Mechanical properties :
#
#
# Convention : Reuss Voigt Hill
#
# Bulk Modulus (GPa) = 17.64621 71.88492 44.76556
# Shear Modulus (GPa) = 18.76136 32.74605 25.75370
#
# Velocity S-wave (km/s) = 2.76149 3.64831 3.23543
# Velocity P-wave (km/s) = 4.16418 6.85315 5.67036
#
# Compressibility (1/GPa) = 0.05666940
#
# Stress axis : x y z
#
# Youngs Moduli (GPa) = 15.57826 90.88860 68.87310
#
# Poissons Ratio (x) = -0.25995 0.73653
# Poissons Ratio (y) = -0.04456 0.59839
# Poissons Ratio (z) = 0.16659 0.78967
#
# Static dielectric constant tensor:
#      x y z
#    x 2.068930 0.000000 -0.034300 
#    y 0.000000 2.036470 0.000000 
#    z -0.034300 0.000000 1.901970 
# 
# From -- ./inp_files/35430.got.cif
#   From: 2010.05.17/outbox.cif.g08.bks.cpg/sg11_18_cif.got.tgz:35430.got - 2010.06.03 12:22:45.
