data_PCOD9156840
_publ_section_title
;
Structure prediction by ZEFSAII (Michael W. Deem and Ramdas Pophale) SiO2 
 PCOD9156840
Probable space group: P 21/M
;
_chemical_formula_sum "Si O2"
_cell_formula_units_Z 28
_cell_length_a 6.625823
_cell_length_b 14.081082
_cell_length_c 19.154424
_cell_angle_alpha 90.000000
_cell_angle_beta 59.917106
_cell_angle_gamma 90.000000
_cell_volume 1546.365727
_symmetry_space_group_name_H-M "P 21/M"
_symmetry_group_IT_number 11
_symmetry_cell_setting 'monoclinic'
loop_
_space_group_symop_operation_xyz
x,y,z
-x,1/2+y,-z
-x,-y,-z
x,1/2-y,z
loop_
_atom_site_type_symbol
_atom_site_label
_atom_site_fract_x
_atom_site_fract_y
_atom_site_fract_z
Si Si1 0.846561 0.957479 0.892407
Si Si2 0.506104 0.361982 0.946380
Si Si3 0.309975 0.038206 0.844415
Si Si4 0.149767 0.356989 0.733679
Si Si5 0.881636 0.028209 0.448138
Si Si6 0.828871 0.519906 0.739343
Si Si7 0.562970 0.643368 0.450157
O O1 0.888079 0.930942 0.803708
O O2 0.719297 0.062048 0.915924
O O3 0.667701 0.886031 0.959749
O O4 0.090038 0.967889 0.891336
O O5 0.565169 0.250000 0.933842
O O6 0.370159 0.396843 0.900352
O O7 0.230804 0.099731 0.792121
O O8 0.550655 0.985508 0.783841
O O9 0.072000 0.250000 0.755949
O O10 0.368784 0.360280 0.643172
O O11 0.942762 0.416272 0.733856
O O12 0.701580 0.113821 0.490861
O O13 0.052909 0.051208 0.353516
O O14 0.726595 0.936121 0.455575
O O15 0.000000 0.000000 0.500000
O O16 0.612709 0.750000 0.466429
#
# Coordination Sequence:
#
# PCOD9156840 Si02
#       7
#     4   4   4   4   4   4   4
#     4   9  20  36  51  72 102 130 160 202 247 293
#     4  10  20  34  53  75  97 127 165 201 241 290
#     4  10  18  30  50  74 100 128 158 199 247 296
#     4   9  17  29  46  72 102 128 158 200 251 302
#     4  10  19  33  54  77 101 134 175 215 255 300
#     4   9  19  32  48  70  99 133 164 200 248 297
#     4   9  19  34  51  74 104 136 170 210 256 303
#
# _framework density 18.10697
#
# number of rings (size 3 to 8) (size 9 to 14) (size 15 to 20)
#    0.000    2.571    0.000    1.714    0.000    8.000 
#    0.000    3.571    0.000    0.857    0.000    0.000 
#    0.000    0.000    0.000    0.000    0.000    0.000 
#
# Total GULP energy -155958.132418 kJ/mol
# GULP energy per Si atom -5569.933301 kJ/mol
# Density = 1.806576 g / cm^3
# Si number density = 18.106970 Si / 1000 Ang^3
#
#
#
# Elastic Constant Matrix: (Units=GPa)
#
#
# Indices 1 2 3 4 5 6 
#
# 1 75.5714 0.8464 26.1478 0.0000 -9.3719 0.0000
# 2 0.8464 32.9509 10.6759 0.0000 -4.1440 0.0000
# 3 26.1478 10.6759 107.0589 0.0000 -12.0306 0.0000
# 4 0.0000 0.0000 0.0000 15.1486 0.0000 -2.1424
# 5 -9.3719 -4.1440 -12.0306 0.0000 26.7994 0.0000
# 6 0.0000 0.0000 0.0000 -2.1424 0.0000 7.4080
#
#
#
# Elastic Compliance Matrix: (Units=1/GPa)
#
#
# Indices 1 2 3 4 5 6 
#
# 1 0.014846 0.001179 -0.003306 0.000000 0.003890 0.000000
# 2 0.001179 0.031794 -0.003012 0.000000 0.003977 0.000000
# 3 -0.003306 -0.003012 0.010812 0.000000 0.003232 0.000000
# 4 0.000000 0.000000 0.000000 0.068827 0.000000 0.019905
# 5 0.003890 0.003977 0.003232 0.000000 0.040740 0.000000
# 6 0.000000 0.000000 0.000000 0.019905 0.000000 0.140745
#
#
# Mechanical properties :
#
#
# Convention : Reuss Voigt Hill
#
# Bulk Modulus (GPa) = 21.19839 32.32459 26.76149
# Shear Modulus (GPa) = 14.98054 21.73195 18.35624
#
# Velocity S-wave (km/s) = 2.87946 3.46815 3.18742
# Velocity P-wave (km/s) = 4.77366 5.82479 5.32522
#
# Compressibility (1/GPa) = 0.04717340
#
# Stress axis : x y z
#
# Youngs Moduli (GPa) = 67.35957 31.45273 92.49284
#
# Poissons Ratio (x) = -0.03709 0.30581
# Poissons Ratio (y) = -0.07942 0.27855
# Poissons Ratio (z) = 0.22271 0.09472
#
# Static dielectric constant tensor:
#      x y z
#    x 1.615940 0.000000 -0.017280 
#    y 0.000000 1.607650 0.000000 
#    z -0.017280 0.000000 1.678300 
# 
# From -- ./inp_files/7925.got.cif
#   From: 2010.05.17/outbox.cif.g08.bks.cpg/sg11_4_cif.got.tgz:7925.got - 2010.06.03 12:22:45.
