data_PCOD9156700
_publ_section_title
;
Structure prediction by ZEFSAII (Michael W. Deem and Ramdas Pophale) SiO2 
 PCOD9156700
Probable space group: P 21/M
;
_chemical_formula_sum "Si O2"
_cell_formula_units_Z 32
_cell_length_a 31.377437
_cell_length_b 8.751813
_cell_length_c 21.905249
_cell_angle_alpha 90.000000
_cell_angle_beta 160.489884
_cell_angle_gamma 90.000000
_cell_volume 2008.979095
_symmetry_space_group_name_H-M "P 21/M"
_symmetry_group_IT_number 11
_symmetry_cell_setting 'monoclinic'
loop_
_space_group_symop_operation_xyz
x,y,z
-x,1/2+y,-z
-x,-y,-z
x,1/2-y,z
loop_
_atom_site_type_symbol
_atom_site_label
_atom_site_fract_x
_atom_site_fract_y
_atom_site_fract_z
Si Si1 0.546287 0.566452 0.970780
Si Si2 0.366362 0.433141 0.046271
Si Si3 0.779340 0.933621 0.944881
Si Si4 0.019408 0.067447 0.335464
Si Si5 0.452581 0.566279 0.286808
Si Si6 0.614883 0.566444 0.614713
Si Si7 0.295983 0.567780 0.706902
Si Si8 0.918913 0.066501 0.334554
O O1 0.561510 0.750000 0.997921
O O2 0.647789 0.486646 0.152234
O O3 0.571275 0.526490 0.934497
O O4 0.405791 0.526545 0.806103
O O5 0.357624 0.250000 0.038707
O O6 0.445192 0.496763 0.209825
O O7 0.224309 0.502122 0.857275
O O8 0.774705 0.750000 0.944453
O O9 0.740590 0.976456 0.822810
O O10 0.914717 0.994441 0.149677
O O11 0.670812 0.004820 0.842545
O O12 0.012592 0.250000 0.321841
O O13 0.982053 0.024734 0.354761
O O14 0.161154 0.010272 0.513286
O O15 0.444343 0.750000 0.272479
O O16 0.577672 0.521640 0.495565
O O17 0.500000 0.500000 0.500000
O O18 0.608085 0.750000 0.607071
O O19 0.280788 0.750000 0.686429
O O20 0.915830 0.250000 0.334630
O O21 0.000000 0.000000 0.500000
#
# Coordination Sequence:
#
# PCOD9156700 Si02
#       8
#     4   4   4   4   4   4   4   4
#     4   9  20  37  53  72  97 124 160 209 252 285
#     4  11  21  33  50  71  98 130 164 199 240 289
#     4  10  18  30  48  70  96 130 167 197 234 288
#     4  11  22  34  48  70 101 131 160 201 246 285
#     4  10  18  30  46  69 101 131 160 198 241 283
#     4   8  16  28  44  66  94 127 161 196 234 280
#     4  10  20  35  55  74  93 123 165 207 248 293
#     4  11  23  35  47  66  97 131 163 197 239 289
#
# _framework density 15.928489000000001
#
# number of rings (size 3 to 8) (size 9 to 14) (size 15 to 20)
#    0.000    2.000    1.250    3.000    0.000    7.000 
#    0.000    0.000    0.000    0.000    0.000    0.875 
#    0.000    0.000    0.000    0.000    0.000    0.000 
#
# Total GULP energy -178489.448273 kJ/mol
# GULP energy per Si atom -5577.795259 kJ/mol
# Density = 1.589223 g / cm^3
# Si number density = 15.928489 Si / 1000 Ang^3
#
#
#
# Elastic Constant Matrix: (Units=GPa)
#
#
# Indices 1 2 3 4 5 6 
#
# 1 59.7499 23.3430 50.5751 0.0000 -12.1641 0.0000
# 2 23.3430 34.9695 36.0022 0.0000 -4.9401 0.0000
# 3 50.5751 36.0022 123.9707 0.0000 -20.5440 0.0000
# 4 0.0000 0.0000 0.0000 25.2541 0.0000 -3.5761
# 5 -12.1641 -4.9401 -20.5440 0.0000 22.7607 0.0000
# 6 0.0000 0.0000 0.0000 -3.5761 0.0000 21.4863
#
#
#
# Elastic Compliance Matrix: (Units=1/GPa)
#
#
# Indices 1 2 3 4 5 6 
#
# 1 0.028432 -0.010294 -0.007598 0.000000 0.006102 0.000000
# 2 -0.010294 0.044611 -0.009481 0.000000 -0.004377 0.000000
# 3 -0.007598 -0.009481 0.015176 0.000000 0.007579 0.000000
# 4 0.000000 0.000000 0.000000 0.040553 0.000000 0.006750
# 5 0.006102 -0.004377 0.007579 0.000000 0.053088 0.000000
# 6 0.000000 0.000000 0.000000 0.006750 0.000000 0.047665
#
#
# Mechanical properties :
#
#
# Convention : Reuss Voigt Hill
#
# Bulk Modulus (GPa) = 29.87644 48.72561 39.30103
# Shear Modulus (GPa) = 16.92459 21.15154 19.03807
#
# Velocity S-wave (km/s) = 3.26319 3.64800 3.46095
# Velocity P-wave (km/s) = 5.74415 6.95705 6.37949
#
# Compressibility (1/GPa) = 0.03347119
#
# Stress axis : x y z
#
# Youngs Moduli (GPa) = 35.17145 22.41620 65.89557
#
# Poissons Ratio (x) = 0.23076 0.50070
# Poissons Ratio (y) = 0.36207 0.62475
# Poissons Ratio (z) = 0.26724 0.21253
#
# Static dielectric constant tensor:
#      x y z
#    x 1.526710 0.000000 -0.025300 
#    y 0.000000 1.534250 0.000000 
#    z -0.025300 0.000000 1.531890 
# 
# From -- ./inp_files/40666.got.cif
#   From: 2010.05.17/outbox.cif.g08.bks.cpg/sg11_21_cif.got.tgz:40666.got - 2010.06.03 12:22:45.
