data_PCOD9156589
_publ_section_title
;
Structure prediction by ZEFSAII (Michael W. Deem and Ramdas Pophale) SiO2 
 PCOD9156589
Probable space group: P 21/M
;
_chemical_formula_sum "Si O2"
_cell_formula_units_Z 32
_cell_length_a 12.767859
_cell_length_b 8.753274
_cell_length_c 25.473551
_cell_angle_alpha 90.000000
_cell_angle_beta 131.059339
_cell_angle_gamma 90.000000
_cell_volume 2146.676268
_symmetry_space_group_name_H-M "P 21/M"
_symmetry_group_IT_number 11
_symmetry_cell_setting 'monoclinic'
loop_
_space_group_symop_operation_xyz
x,y,z
-x,1/2+y,-z
-x,-y,-z
x,1/2-y,z
loop_
_atom_site_type_symbol
_atom_site_label
_atom_site_fract_x
_atom_site_fract_y
_atom_site_fract_z
Si Si1 0.307730 0.429510 0.289145
Si Si2 0.246333 0.068386 0.156587
Si Si3 0.287825 0.569220 0.058409
Si Si4 0.889189 0.071182 0.698679
Si Si5 0.850282 0.431737 0.170639
Si Si6 0.050968 0.432170 0.908429
Si Si7 0.551539 0.567899 0.072236
Si Si8 0.384513 0.429345 0.424938
O O1 0.263380 0.250000 0.277248
O O2 0.339169 0.461347 0.239320
O O3 0.182227 0.535026 0.268190
O O4 0.416445 0.449542 0.372687
O O5 0.245181 0.250000 0.146273
O O6 0.293853 0.980528 0.120715
O O7 0.092096 0.013484 0.121899
O O8 0.256948 0.750000 0.043912
O O9 0.431814 0.540010 0.075559
O O10 0.166470 0.475958 0.989603
O O11 0.907822 0.250000 0.697314
O O12 0.768763 0.004942 0.621120
O O13 0.034784 0.985123 0.749362
O O14 0.851937 0.250000 0.165734
O O15 0.892125 0.505609 0.128403
O O16 0.697491 0.490905 0.134168
O O17 0.032025 0.250000 0.899605
O O18 0.570498 0.750000 0.073028
O O19 0.500000 0.500000 0.000000
O O20 0.500000 0.500000 0.500000
O O21 0.373705 0.250000 0.431538
#
# Coordination Sequence:
#
# PCOD9156589 Si02
#       8
#     4   4   4   4   4   4   4   4
#     4   8  17  30  45  65  96 130 159 191 231 276
#     4  11  21  35  52  69  96 129 163 201 246 296
#     4  11  24  38  50  68  94 122 160 209 255 297
#     4  10  18  29  47  71  97 130 165 195 238 291
#     4  12  22  34  52  72  98 127 164 211 255 301
#     4  12  22  33  51  71  92 122 162 203 252 304
#     4  11  23  38  55  71  92 124 164 211 260 304
#     4   9  16  28  45  70 104 136 165 196 234 283
#
# _framework density 14.906765
#
# number of rings (size 3 to 8) (size 9 to 14) (size 15 to 20)
#    0.750    0.750    2.500    4.875    0.000    2.000 
#    0.000    0.000    0.000    0.000    0.000    0.000 
#    0.000    1.000    0.000    3.000    0.000    4.625 
#
# Total GULP energy -178309.348039 kJ/mol
# GULP energy per Si atom -5572.167126 kJ/mol
# Density = 1.487284 g / cm^3
# Si number density = 14.906765 Si / 1000 Ang^3
#
#
#
# Elastic Constant Matrix: (Units=GPa)
#
#
# Indices 1 2 3 4 5 6 
#
# 1 51.5373 19.9996 26.1640 0.0000 -1.2865 0.0000
# 2 19.9996 64.3295 30.3215 0.0000 -0.1235 0.0000
# 3 26.1640 30.3215 103.4720 0.0000 5.0805 0.0000
# 4 0.0000 0.0000 0.0000 27.2991 0.0000 0.4925
# 5 -1.2865 -0.1235 5.0805 0.0000 13.6076 0.0000
# 6 0.0000 0.0000 0.0000 0.4925 0.0000 20.9011
#
#
#
# Elastic Compliance Matrix: (Units=1/GPa)
#
#
# Indices 1 2 3 4 5 6 
#
# 1 0.023917 -0.005204 -0.004718 0.000000 0.003976 0.000000
# 2 -0.005204 0.019232 -0.004385 0.000000 0.001319 0.000000
# 3 -0.004718 -0.004385 0.012393 0.000000 -0.005113 0.000000
# 4 0.000000 0.000000 0.000000 0.036647 0.000000 -0.000864
# 5 0.003976 0.001319 -0.005113 0.000000 0.075785 0.000000
# 6 0.000000 0.000000 0.000000 -0.000864 0.000000 0.047865
#
#
# Mechanical properties :
#
#
# Convention : Reuss Voigt Hill
#
# Bulk Modulus (GPa) = 37.13443 41.36767 39.25105
# Shear Modulus (GPa) = 19.72933 21.88514 20.80723
#
# Velocity S-wave (km/s) = 3.64196 3.83578 3.74013
# Velocity P-wave (km/s) = 6.53073 6.88686 6.71115
#
# Compressibility (1/GPa) = 0.02692919
#
# Stress axis : x y z
#
# Youngs Moduli (GPa) = 41.81062 51.99627 80.68848
#
# Poissons Ratio (x) = 0.27061 0.38068
# Poissons Ratio (y) = 0.21760 0.35379
# Poissons Ratio (z) = 0.19726 0.22798
#
# Static dielectric constant tensor:
#      x y z
#    x 1.473350 0.000000 -0.004760 
#    y 0.000000 1.498210 0.000000 
#    z -0.004760 0.000000 1.516120 
# 
# From -- ./inp_files/71183.got.cif
#   From: 2010.05.17/outbox.cif.g08.bks.cpg/sg11_36_cif.got.tgz:71183.got - 2010.06.03 12:22:45.
