data_PCOD9156518
_publ_section_title
;
Structure prediction by ZEFSAII (Michael W. Deem and Ramdas Pophale) SiO2 
 PCOD9156518
Probable space group: P 21/M
;
_chemical_formula_sum "Si O2"
_cell_formula_units_Z 24
_cell_length_a 9.852471
_cell_length_b 16.211056
_cell_length_c 5.682431
_cell_angle_alpha 90.000000
_cell_angle_beta 80.361681
_cell_angle_gamma 90.000000
_cell_volume 894.780653
_symmetry_space_group_name_H-M "P 21/M"
_symmetry_group_IT_number 11
_symmetry_cell_setting 'monoclinic'
loop_
_space_group_symop_operation_xyz
x,y,z
-x,1/2+y,-z
-x,-y,-z
x,1/2-y,z
loop_
_atom_site_type_symbol
_atom_site_label
_atom_site_fract_x
_atom_site_fract_y
_atom_site_fract_z
Si Si1 0.955635 0.094914 0.564548
Si Si2 0.544365 0.094914 0.435448
Si Si3 0.250000 0.418219 0.999998
Si Si4 0.944388 0.153929 0.070945
Si Si5 0.750000 0.911872 0.500002
Si Si6 0.444387 0.846071 0.070950
O O1 0.897929 0.108944 0.843077
O O2 0.108142 0.138192 0.535800
O O3 0.888739 0.127577 0.344191
O O4 0.000000 0.000000 0.500000
O O5 0.391858 0.138192 0.464196
O O6 0.611262 0.127577 0.655804
O O7 0.500000 0.000000 0.500000
O O8 0.602071 0.108944 0.156919
O O9 0.108007 0.367380 0.043639
O O10 0.242563 0.461059 0.748033
O O11 0.391994 0.367380 0.956357
O O12 0.257438 0.461059 0.251962
O O13 0.920499 0.250000 0.044636
O O14 0.420498 0.750000 0.044641
#
# Coordination Sequence:
#
# PCOD9156518 Si02
#       6
#     4   4   4   4   4   4
#     4  10  19  31  46  67  92 119 149 182 218 262
#     4  10  19  31  46  67  92 119 149 182 218 262
#     4   8  15  26  42  64  92 116 137 168 215 274
#     4  10  18  29  45  67  92 119 146 179 221 268
#     4   8  16  28  43  64  89 116 146 174 214 262
#     4  10  18  29  45  67  92 119 146 179 221 268
#
# _framework density 26.822213999999999
#
# number of rings (size 3 to 8) (size 9 to 14) (size 15 to 20)
#    0.000    2.667    0.000    2.500    0.000    0.000 
#    0.000   10.000    0.000    0.000    0.000    7.000 
#    0.000    0.000    0.000    0.000    0.000    0.000 
#
# Total GULP energy -133776.504056 kJ/mol
# GULP energy per Si atom -5574.021002 kJ/mol
# Density = 2.676117 g / cm^3
# Si number density = 26.822214 Si / 1000 Ang^3
#
#
#
# Elastic Constant Matrix: (Units=GPa)
#
#
# Indices 1 2 3 4 5 6 
#
# 1 85.8491 2.3908 46.3867 0.0000 -6.5384 0.0000
# 2 2.3908 128.1404 83.2419 0.0000 19.8107 0.0000
# 3 46.3867 83.2419 416.6769 0.0000 27.4263 0.0000
# 4 0.0000 0.0000 0.0000 33.7265 0.0000 5.0483
# 5 -6.5384 19.8107 27.4263 0.0000 50.3465 0.0000
# 6 0.0000 0.0000 0.0000 5.0483 0.0000 -6.7681
#
#
#
# Elastic Compliance Matrix: (Units=1/GPa)
#
#
# Indices 1 2 3 4 5 6 
#
# 1 0.012717 0.000479 -0.001668 0.000000 0.002371 0.000000
# 2 0.000479 0.009340 -0.001744 0.000000 -0.002663 0.000000
# 3 -0.001668 -0.001744 0.003011 0.000000 -0.001171 0.000000
# 4 0.000000 0.000000 0.000000 0.026672 0.000000 0.019895
# 5 0.002371 -0.002663 -0.001171 0.000000 0.021856 0.000000
# 6 0.000000 0.000000 0.000000 0.019895 0.000000 -0.132912
#
#
# Mechanical properties :
#
#
# Convention : Reuss Voigt Hill
#
# Bulk Modulus (GPa) = 52.07504 99.41168 75.74336
# Shear Modulus (GPa) = -106.26665 48.70410 -28.78127
#
# Velocity S-wave (km/s) = -6.30118 4.26586 -3.27928
# Velocity P-wave (km/s) = 5.78644 7.83626 3.73659
#
# Compressibility (1/GPa) = 0.01920306
#
# Stress axis : x y z
#
# Youngs Moduli (GPa) = 78.63731 107.07177 332.11307
#
# Poissons Ratio (x) = -0.05133 0.55381
# Poissons Ratio (y) = -0.03770 0.57918
# Poissons Ratio (z) = 0.13113 0.18672
#
# Static dielectric constant tensor:
#      x y z
#    x 2.288260 0.000000 0.006400 
#    y 0.000000 1.976930 0.000000 
#    z 0.006400 0.000000 2.138760 
# 
# From -- ./inp_files/6314.got.cif
#   From: 2010.05.17/outbox.cif.g08.bks.cpg/sg11_4_cif.got.tgz:6314.got - 2010.06.03 12:22:45.
