data_PCOD9156933
_publ_section_title
;
Structure prediction by ZEFSAII (Michael W. Deem and Ramdas Pophale) SiO2 
 PCOD9156933
Probable space group: P 21/M
;
_chemical_formula_sum "Si O2"
_cell_formula_units_Z 18
_cell_length_a 14.777618
_cell_length_b 13.943759
_cell_length_c 10.208150
_cell_angle_alpha 90.000000
_cell_angle_beta 28.575206
_cell_angle_gamma 90.000000
_cell_volume 1006.103158
_symmetry_space_group_name_H-M "P 21/M"
_symmetry_group_IT_number 11
_symmetry_cell_setting 'monoclinic'
loop_
_space_group_symop_operation_xyz
x,y,z
-x,1/2+y,-z
-x,-y,-z
x,1/2-y,z
loop_
_atom_site_type_symbol
_atom_site_label
_atom_site_fract_x
_atom_site_fract_y
_atom_site_fract_z
Si Si1 0.506150 0.530036 0.839053
Si Si2 0.908852 0.750000 0.377232
Si Si3 0.048703 0.750000 0.491828
Si Si4 0.123612 0.049752 0.228627
Si Si5 0.471758 0.750000 0.929705
Si Si6 0.933189 0.541235 0.223178
O O1 0.466368 0.644245 0.870527
O O2 0.715615 0.511148 0.521810
O O3 0.500000 0.500000 0.000000
O O4 0.341627 0.470681 0.979430
O O5 0.036260 0.750000 0.347267
O O6 0.688440 0.750000 0.709308
O O7 0.938268 0.655294 0.251235
O O8 0.938303 0.658608 0.683365
O O9 0.267551 0.750000 0.260814
O O10 0.000000 0.000000 0.500000
O O11 0.061477 0.005872 0.171231
O O12 0.000000 0.500000 0.000000
#
# Coordination Sequence:
#
# PCOD9156933 Si02
#       6
#     4   2   2   4   2   4
#     4  11  20  37  60  88 117 155 205 247 294 353
#     4  10  20  37  60  84 116 163 201 237 300 360
#     4  12  20  35  62  94 116 151 207 251 292 344
#     4  12  21  37  62  89 118 155 200 250 290 350
#     4  10  18  30  56  84 112 150 196 242 288 350
#     4  11  24  40  60  89 127 159 196 248 305 358
#
# _framework density 17.890809000000001
#
# number of rings (size 3 to 8) (size 9 to 14) (size 15 to 20)
#    0.000    0.889    6.667    1.333    0.000    1.778 
#    0.000    2.222    0.000    0.000    0.000    0.000 
#    0.000    0.000    0.000    0.000    0.000    0.000 
#
# Total GULP energy -100352.085228 kJ/mol
# GULP energy per Si atom -5575.115846 kJ/mol
# Density = 1.785009 g / cm^3
# Si number density = 17.890809 Si / 1000 Ang^3
#
#
#
# Elastic Constant Matrix: (Units=GPa)
#
#
# Indices 1 2 3 4 5 6 
#
# 1 132.0512 54.4569 72.6705 0.0000 3.6502 0.0000
# 2 54.4569 132.3010 49.4218 0.0000 -0.6872 0.0000
# 3 72.6705 49.4218 129.1606 0.0000 -5.1475 0.0000
# 4 0.0000 0.0000 0.0000 27.6272 0.0000 -3.4483
# 5 3.6502 -0.6872 -5.1475 0.0000 35.4060 0.0000
# 6 0.0000 0.0000 0.0000 -3.4483 0.0000 18.4877
#
#
#
# Elastic Compliance Matrix: (Units=1/GPa)
#
#
# Indices 1 2 3 4 5 6 
#
# 1 0.011934 -0.002781 -0.005735 0.000000 -0.002118 0.000000
# 2 -0.002781 0.009471 -0.002052 0.000000 0.000172 0.000000
# 3 -0.005735 -0.002052 0.011845 0.000000 0.002273 0.000000
# 4 0.000000 0.000000 0.000000 0.037059 0.000000 0.006912
# 5 -0.002118 0.000172 0.002273 0.000000 0.028796 0.000000
# 6 0.000000 0.000000 0.000000 0.006912 0.000000 0.055379
#
#
# Mechanical properties :
#
#
# Convention : Reuss Voigt Hill
#
# Bulk Modulus (GPa) = 82.55331 82.95682 82.75506
# Shear Modulus (GPa) = 27.83053 30.76841 29.29947
#
# Velocity S-wave (km/s) = 3.94836 4.15153 4.05122
# Velocity P-wave (km/s) = 8.18713 8.33363 8.26070
#
# Compressibility (1/GPa) = 0.01211339
#
# Stress axis : x y z
#
# Youngs Moduli (GPa) = 83.79198 105.58807 84.42440
#
# Poissons Ratio (x) = 0.29364 0.48417
# Poissons Ratio (y) = 0.23302 0.17327
# Poissons Ratio (z) = 0.48055 0.21670
#
# Static dielectric constant tensor:
#      x y z
#    x 1.575190 0.000000 -0.036600 
#    y 0.000000 1.605190 0.000000 
#    z -0.036600 0.000000 1.589510 
# 
# From -- ./inp_files/41462.got.cif
#   From: 2010.05.17/outbox.cif.g08.bks.cpg/sg11_21_cif.got.tgz:41462.got - 2010.06.03 12:22:45.
