data_PCOD9156312
_publ_section_title
;
Structure prediction by ZEFSAII (Michael W. Deem and Ramdas Pophale) SiO2 
 PCOD9156312
Probable space group: P 21/M
;
_chemical_formula_sum "Si O2"
_cell_formula_units_Z 32
_cell_length_a 14.658143
_cell_length_b 13.640828
_cell_length_c 9.167547
_cell_angle_alpha 90.000000
_cell_angle_beta 137.165117
_cell_angle_gamma 90.000000
_cell_volume 1246.264252
_symmetry_space_group_name_H-M "P 21/M"
_symmetry_group_IT_number 11
_symmetry_cell_setting 'monoclinic'
loop_
_space_group_symop_operation_xyz
x,y,z
-x,1/2+y,-z
-x,-y,-z
x,1/2-y,z
loop_
_atom_site_type_symbol
_atom_site_label
_atom_site_fract_x
_atom_site_fract_y
_atom_site_fract_z
Si Si1 0.222515 0.136339 0.782582
Si Si2 0.073729 0.630364 0.586228
Si Si3 0.398019 0.473874 0.562106
Si Si4 0.028292 0.638526 0.986787
Si Si5 0.487552 0.636692 0.858262
Si Si6 0.352045 0.636197 0.010219
Si Si7 0.251421 0.358388 0.162813
Si Si8 0.127174 0.516486 0.353922
O O1 0.226799 0.250000 0.737762
O O2 0.368758 0.092493 0.924196
O O3 0.219998 0.133463 0.955761
O O4 0.079435 0.098591 0.559120
O O5 0.073972 0.750000 0.580761
O O6 0.198684 0.599138 0.834194
O O7 0.104519 0.587552 0.462425
O O8 0.435038 0.583147 0.653932
O O9 0.347033 0.440604 0.344188
O O10 0.266126 0.455572 0.510044
O O11 0.529382 0.413972 0.762054
O O12 0.059354 0.750000 0.977169
O O13 0.890487 0.641061 0.919800
O O14 0.991578 0.560278 0.819820
O O15 0.133197 0.588581 0.218908
O O16 0.508803 0.750000 0.848622
O O17 0.392810 0.631022 0.886949
O O18 0.349977 0.750000 0.049955
O O19 0.311747 0.250000 0.260224
#
# Coordination Sequence:
#
# PCOD9156312 Si02
#       8
#     4   4   4   4   4   4   4   4
#     4   9  18  34  55  79 106 136 178 222 267 318
#     4  10  18  32  56  79 102 135 182 231 260 304
#     4  11  21  33  53  78 112 140 177 221 269 321
#     4   9  17  29  45  75 110 138 173 219 270 316
#     4  10  21  35  52  77 109 143 174 219 273 318
#     4  10  21  37  57  80 106 140 183 225 268 315
#     4   9  17  31  53  79 107 139 176 220 266 319
#     4  10  18  27  50  77 102 137 174 222 265 313
#
# _framework density 25.676735999999998
#
# number of rings (size 3 to 8) (size 9 to 14) (size 15 to 20)
#    0.000    2.250    2.500    1.125    0.000    1.500 
#    0.000    0.625    0.000    0.000    0.000    0.875 
#    0.000    0.000    0.000    0.000    0.000    0.000 
#
# Total GULP energy -179053.073564 kJ/mol
# GULP energy per Si atom -5595.408549 kJ/mol
# Density = 2.561829 g / cm^3
# Si number density = 25.676736 Si / 1000 Ang^3
#
#
#
# Elastic Constant Matrix: (Units=GPa)
#
#
# Indices 1 2 3 4 5 6 
#
# 1 59.8987 1.6946 15.9978 0.0000 21.0999 0.0000
# 2 1.6946 119.2266 50.5375 0.0000 -2.2652 0.0000
# 3 15.9978 50.5375 163.1978 0.0000 25.9735 0.0000
# 4 0.0000 0.0000 0.0000 46.1771 0.0000 2.6020
# 5 21.0999 -2.2652 25.9735 0.0000 42.8021 0.0000
# 6 0.0000 0.0000 0.0000 2.6020 0.0000 19.1308
#
#
#
# Elastic Compliance Matrix: (Units=1/GPa)
#
#
# Indices 1 2 3 4 5 6 
#
# 1 0.020243 -0.000339 -0.000319 0.000000 -0.009803 0.000000
# 2 -0.000339 0.009923 -0.003487 0.000000 0.002808 0.000000
# 3 -0.000319 -0.003487 0.008017 0.000000 -0.004892 0.000000
# 4 0.000000 0.000000 0.000000 0.021823 0.000000 -0.002968
# 5 -0.009803 0.002808 -0.004892 0.000000 0.031313 0.000000
# 6 0.000000 0.000000 0.000000 -0.002968 0.000000 0.052675
#
#
# Mechanical properties :
#
#
# Convention : Reuss Voigt Hill
#
# Bulk Modulus (GPa) = 33.45109 53.19810 43.32459
# Shear Modulus (GPa) = 30.81678 39.89489 35.35583
#
# Velocity S-wave (km/s) = 3.46812 3.94602 3.71477
# Velocity P-wave (km/s) = 5.39381 6.44398 5.94214
#
# Compressibility (1/GPa) = 0.02989439
#
# Stress axis : x y z
#
# Youngs Moduli (GPa) = 49.39985 100.77101 124.73232
#
# Poissons Ratio (x) = 0.03412 0.03982
# Poissons Ratio (y) = 0.01673 0.43491
# Poissons Ratio (z) = 0.01577 0.35136
#
# Static dielectric constant tensor:
#      x y z
#    x 2.025290 0.000000 0.025840 
#    y 0.000000 2.025830 0.000000 
#    z 0.025840 0.000000 2.021840 
# 
# From -- ./inp_files/41689.got.cif
#   From: 2010.05.17/outbox.cif.g08.bks.cpg/sg11_21_cif.got.tgz:41689.got - 2010.06.03 12:22:45.
