data_PCOD9156628
_publ_section_title
;
Structure prediction by ZEFSAII (Michael W. Deem and Ramdas Pophale) SiO2 
 PCOD9156628
Probable space group: P 21/M
;
_chemical_formula_sum "Si O2"
_cell_formula_units_Z 28
_cell_length_a 20.126360
_cell_length_b 8.645027
_cell_length_c 10.435790
_cell_angle_alpha 90.000000
_cell_angle_beta 120.967178
_cell_angle_gamma 90.000000
_cell_volume 1556.940106
_symmetry_space_group_name_H-M "P 21/M"
_symmetry_group_IT_number 11
_symmetry_cell_setting 'monoclinic'
loop_
_space_group_symop_operation_xyz
x,y,z
-x,1/2+y,-z
-x,-y,-z
x,1/2-y,z
loop_
_atom_site_type_symbol
_atom_site_label
_atom_site_fract_x
_atom_site_fract_y
_atom_site_fract_z
Si Si1 0.827649 0.436123 0.080252
Si Si2 0.913639 0.565977 0.411096
Si Si3 0.661496 0.565437 0.310022
Si Si4 0.086917 0.936391 0.096338
Si Si5 0.500070 0.934629 0.854767
Si Si6 0.339180 0.935046 0.980739
Si Si7 0.819437 0.064213 0.557850
O O1 0.836873 0.250000 0.104869
O O2 0.874681 0.520057 0.238586
O O3 0.862659 0.480231 0.977941
O O4 0.737023 0.470395 0.012269
O O5 0.914177 0.750000 0.427668
O O6 0.864768 0.489364 0.476457
O O7 0.000000 0.500000 0.500000
O O8 0.658628 0.750000 0.300772
O O9 0.579753 0.500257 0.280625
O O10 0.734194 0.508330 0.464260
O O11 0.671925 0.501372 0.174556
O O12 0.082152 0.750000 0.094396
O O13 0.131240 0.985644 0.269325
O O14 0.000000 0.000000 0.000000
O O15 0.498393 0.750000 0.855193
O O16 0.581935 0.994756 0.883339
O O17 0.500000 0.000000 0.000000
O O18 0.347497 0.750000 0.977902
O O19 0.812709 0.250000 0.551846
#
# Coordination Sequence:
#
# PCOD9156628 Si02
#       7
#     4   4   4   4   4   4   4
#     4  10  21  38  59  82 112 146 185 231 282 335
#     4  12  24  37  56  82 111 143 183 230 283 335
#     4  11  20  32  52  81 114 146 187 229 276 332
#     4  10  23  41  60  82 109 147 190 232 280 338
#     4  10  18  29  48  76 113 149 183 224 274 330
#     4  10  18  31  53  80 113 147 182 227 280 332
#     4  11  22  38  58  82 113 147 186 232 282 333
#
# _framework density 17.983992000000001
#
# number of rings (size 3 to 8) (size 9 to 14) (size 15 to 20)
#    0.000    1.429    1.429    7.286    0.000    4.571 
#    0.000    0.000    0.000    0.857    0.000    0.000 
#    0.000    0.000    0.000    0.000    0.000    0.000 
#
# Total GULP energy -156406.755432 kJ/mol
# GULP energy per Si atom -5585.955551 kJ/mol
# Density = 1.794306 g / cm^3
# Si number density = 17.983992 Si / 1000 Ang^3
#
#
#
# Elastic Constant Matrix: (Units=GPa)
#
#
# Indices 1 2 3 4 5 6 
#
# 1 55.4404 22.0634 26.3694 0.0000 27.8303 0.0000
# 2 22.0634 88.1047 25.5967 0.0000 15.6640 0.0000
# 3 26.3694 25.5967 95.1214 0.0000 22.6517 0.0000
# 4 0.0000 0.0000 0.0000 23.4916 0.0000 16.3642
# 5 27.8303 15.6640 22.6517 0.0000 41.3127 0.0000
# 6 0.0000 0.0000 0.0000 16.3642 0.0000 17.1389
#
#
#
# Elastic Compliance Matrix: (Units=1/GPa)
#
#
# Indices 1 2 3 4 5 6 
#
# 1 0.029310 -0.003438 -0.003231 0.000000 -0.016670 0.000000
# 2 -0.003438 0.013115 -0.002235 0.000000 -0.001431 0.000000
# 3 -0.003231 -0.002235 0.012985 0.000000 -0.004096 0.000000
# 4 0.000000 0.000000 0.000000 0.127111 0.000000 -0.121365
# 5 -0.016670 -0.001431 -0.004096 0.000000 0.038224 0.000000
# 6 0.000000 0.000000 0.000000 -0.121365 0.000000 0.174226
#
#
# Mechanical properties :
#
#
# Convention : Reuss Voigt Hill
#
# Bulk Modulus (GPa) = 26.59341 42.96950 34.78146
# Shear Modulus (GPa) = 11.75606 27.36444 19.56025
#
# Velocity S-wave (km/s) = 2.55952 3.90500 3.30153
# Velocity P-wave (km/s) = 4.85327 6.65410 5.82372
#
# Compressibility (1/GPa) = 0.03760330
#
# Stress axis : x y z
#
# Youngs Moduli (GPa) = 34.11795 76.24931 77.00966
#
# Poissons Ratio (x) = 0.26212 0.24878
# Poissons Ratio (y) = 0.11728 0.17214
# Poissons Ratio (z) = 0.11022 0.17044
#
# Static dielectric constant tensor:
#      x y z
#    x 1.628750 0.000000 0.015740 
#    y 0.000000 1.610790 0.000000 
#    z 0.015740 0.000000 1.608390 
# 
# From -- ./inp_files/42601.got.cif
#   From: 2010.05.17/outbox.cif.g08.bks.cpg/sg11_22_cif.got.tgz:42601.got - 2010.06.03 12:22:45.
