data_PCOD9156410
_publ_section_title
;
Structure prediction by ZEFSAII (Michael W. Deem and Ramdas Pophale) SiO2 
 PCOD9156410
Probable space group: P 21/M
;
_chemical_formula_sum "Si O2"
_cell_formula_units_Z 28
_cell_length_a 30.537963
_cell_length_b 8.733635
_cell_length_c 19.038864
_cell_angle_alpha 90.000000
_cell_angle_beta 20.607335
_cell_angle_gamma 90.000000
_cell_volume 1787.192235
_symmetry_space_group_name_H-M "P 21/M"
_symmetry_group_IT_number 11
_symmetry_cell_setting 'monoclinic'
loop_
_space_group_symop_operation_xyz
x,y,z
-x,1/2+y,-z
-x,-y,-z
x,1/2-y,z
loop_
_atom_site_type_symbol
_atom_site_label
_atom_site_fract_x
_atom_site_fract_y
_atom_site_fract_z
Si Si1 0.004084 0.066313 0.665946
Si Si2 0.003242 0.434324 0.169337
Si Si3 0.875012 0.566830 0.152675
Si Si4 0.749974 0.065840 0.467500
Si Si5 0.502649 0.933909 0.074347
Si Si6 0.746976 0.434267 0.780165
Si Si7 0.123516 0.566044 0.278473
O O1 0.017544 0.250000 0.644620
O O2 0.893212 0.022270 0.777858
O O3 0.131878 0.993010 0.444355
O O4 0.981039 0.009955 0.779018
O O5 0.001581 0.250000 0.179710
O O6 0.869850 0.479017 0.334993
O O7 0.109561 0.474378 0.952461
O O8 0.877039 0.750000 0.154370
O O9 0.766703 0.502381 0.364535
O O10 0.000000 0.500000 0.000000
O O11 0.753551 0.250000 0.456649
O O12 0.622991 0.019819 0.696038
O O13 0.505622 0.750000 0.066586
O O14 0.500000 0.000000 0.000000
O O15 0.623768 0.994764 0.932471
O O16 0.742293 0.250000 0.781875
O O17 0.767241 0.479411 0.831881
O O18 0.118979 0.750000 0.287765
O O19 0.000000 0.500000 0.500000
#
# Coordination Sequence:
#
# PCOD9156410 Si02
#       7
#     4   4   4   4   4   4   4
#     4  10  18  28  45  69  92 117 151 188 225 269
#     4   9  17  29  44  66  93 118 143 178 226 272
#     4   9  17  29  46  65  87 115 148 182 219 265
#     4   9  19  33  46  62  89 120 150 184 220 259
#     4  11  22  34  48  68  93 122 155 188 219 259
#     4  10  19  32  47  63  90 125 154 186 225 264
#     4   8  16  29  44  63  87 115 149 186 225 266
#
# _framework density 15.667033
#
# number of rings (size 3 to 8) (size 9 to 14) (size 15 to 20)
#    0.000    2.571    0.000    3.429    0.000    6.286 
#    0.000    0.000    0.000    0.000    0.000    1.000 
#    0.000    0.000    0.000    0.000    0.000    0.000 
#
# Total GULP energy -155925.406475 kJ/mol
# GULP energy per Si atom -5568.764517 kJ/mol
# Density = 1.563137 g / cm^3
# Si number density = 15.667033 Si / 1000 Ang^3
#
#
#
# Elastic Constant Matrix: (Units=GPa)
#
#
# Indices 1 2 3 4 5 6 
#
# 1 155.7267 38.5042 71.9514 0.0000 14.1834 0.0000
# 2 38.5042 29.9011 31.9188 0.0000 7.1672 0.0000
# 3 71.9514 31.9188 95.8034 0.0000 18.0414 0.0000
# 4 0.0000 0.0000 0.0000 22.9960 0.0000 4.8763
# 5 14.1834 7.1672 18.0414 0.0000 27.2156 0.0000
# 6 0.0000 0.0000 0.0000 4.8763 0.0000 23.7781
#
#
#
# Elastic Compliance Matrix: (Units=1/GPa)
#
#
# Indices 1 2 3 4 5 6 
#
# 1 0.011022 -0.008320 -0.005527 0.000000 0.000111 0.000000
# 2 -0.008320 0.058336 -0.012695 0.000000 -0.002611 0.000000
# 3 -0.005527 -0.012695 0.020164 0.000000 -0.007143 0.000000
# 4 0.000000 0.000000 0.000000 0.045463 0.000000 -0.009323
# 5 0.000111 -0.002611 -0.007143 0.000000 0.042109 0.000000
# 6 0.000000 0.000000 0.000000 -0.009323 0.000000 0.043968
#
#
# Mechanical properties :
#
#
# Convention : Reuss Voigt Hill
#
# Bulk Modulus (GPa) = 27.44479 62.90887 45.17683
# Shear Modulus (GPa) = 17.46476 24.06839 20.76658
#
# Velocity S-wave (km/s) = 3.34240 3.92375 3.64468
# Velocity P-wave (km/s) = 5.69659 7.79542 6.82714
#
# Compressibility (1/GPa) = 0.03643679
#
# Stress axis : x y z
#
# Youngs Moduli (GPa) = 90.72544 17.14221 49.59414
#
# Poissons Ratio (x) = 0.14263 0.27410
# Poissons Ratio (y) = 0.75487 0.62961
# Poissons Ratio (z) = 0.50142 0.21762
#
# Static dielectric constant tensor:
#      x y z
#    x 1.542670 0.000000 0.038880 
#    y 0.000000 1.534010 0.000000 
#    z 0.038880 0.000000 1.407610 
# 
# From -- ./inp_files/56416.got.cif
#   From: 2010.05.17/outbox.cif.g08.bks.cpg/sg11_29_cif.got.tgz:56416.got - 2010.06.03 12:22:45.
