data_PCOD9156322
_publ_section_title
;
Structure prediction by ZEFSAII (Michael W. Deem and Ramdas Pophale) SiO2 
 PCOD9156322
Probable space group: P 21/M
;
_chemical_formula_sum "Si O2"
_cell_formula_units_Z 32
_cell_length_a 14.049736
_cell_length_b 9.071263
_cell_length_c 18.885957
_cell_angle_alpha 90.000000
_cell_angle_beta 68.325588
_cell_angle_gamma 90.000000
_cell_volume 2236.813304
_symmetry_space_group_name_H-M "P 21/M"
_symmetry_group_IT_number 11
_symmetry_cell_setting 'monoclinic'
loop_
_space_group_symop_operation_xyz
x,y,z
-x,1/2+y,-z
-x,-y,-z
x,1/2-y,z
loop_
_atom_site_type_symbol
_atom_site_label
_atom_site_fract_x
_atom_site_fract_y
_atom_site_fract_z
Si Si1 0.025427 0.573165 0.884108
Si Si2 0.619842 0.926154 0.039456
Si Si3 0.594212 0.574876 0.880073
Si Si4 0.229812 0.927727 0.258868
Si Si5 0.072484 0.081327 0.580148
Si Si6 0.839553 0.572752 0.038503
Si Si7 0.019357 0.073244 0.264712
Si Si8 0.845535 0.080847 0.571267
O O1 0.035904 0.750000 0.885838
O O2 0.016456 0.533368 0.804376
O O3 0.117092 0.498172 0.901951
O O4 0.920553 0.532429 0.954315
O O5 0.604875 0.750000 0.053439
O O6 0.725303 0.971271 0.047887
O O7 0.520740 0.012703 0.093829
O O8 0.627621 0.951009 0.952695
O O9 0.597420 0.750000 0.866475
O O10 0.671493 0.490869 0.807349
O O11 0.224086 0.750000 0.255699
O O12 0.225417 0.966924 0.343758
O O13 0.128658 0.998062 0.251147
O O14 0.096066 0.250000 0.591584
O O15 0.959820 0.079583 0.574189
O O16 0.148800 0.017217 0.500234
O O17 0.058571 0.983764 0.653886
O O18 0.841153 0.750000 0.044196
O O19 0.030680 0.250000 0.266000
O O20 0.822455 0.250000 0.558693
#
# Coordination Sequence:
#
# PCOD9156322 Si02
#       8
#     4   4   4   4   4   4   4   4
#     4   9  18  30  43  62  85 109 140 175 210 249
#     4   9  18  32  46  61  84 112 142 175 211 250
#     4  10  19  30  45  64  85 110 141 175 211 251
#     4  10  19  29  42  61  85 112 143 177 209 246
#     4   9  16  25  38  57  80 107 140 173 204 243
#     4   9  17  30  46  61  81 110 141 175 212 247
#     4  10  18  28  42  59  84 115 143 174 210 248
#     4   8  15  26  38  54  78 109 140 168 203 245
#
# _framework density 14.306066
#
# number of rings (size 3 to 8) (size 9 to 14) (size 15 to 20)
#    0.000    2.750    0.000    3.000    0.000    7.500 
#    0.000    2.500    0.000    0.000    0.000    0.000 
#    0.000    1.000    0.000    3.250    0.000    4.250 
#
# Total GULP energy -178283.830838 kJ/mol
# GULP energy per Si atom -5571.369714 kJ/mol
# Density = 1.427351 g / cm^3
# Si number density = 14.306066 Si / 1000 Ang^3
#
#
#
# Elastic Constant Matrix: (Units=GPa)
#
#
# Indices 1 2 3 4 5 6 
#
# 1 85.6736 36.2774 53.6316 0.0000 0.6118 0.0000
# 2 36.2774 53.7914 56.7498 0.0000 -2.2604 0.0000
# 3 53.6316 56.7498 123.4966 0.0000 -5.0115 0.0000
# 4 0.0000 0.0000 0.0000 25.7586 0.0000 -0.6007
# 5 0.6118 -2.2604 -5.0115 0.0000 17.4205 0.0000
# 6 0.0000 0.0000 0.0000 -0.6007 0.0000 20.2315
#
#
#
# Elastic Compliance Matrix: (Units=1/GPa)
#
#
# Indices 1 2 3 4 5 6 
#
# 1 0.017527 -0.007352 -0.004347 0.000000 -0.002820 0.000000
# 2 -0.007352 0.039168 -0.014761 0.000000 0.001094 0.000000
# 3 -0.004347 -0.014761 0.016894 0.000000 0.003097 0.000000
# 4 0.000000 0.000000 0.000000 0.038849 0.000000 0.001153
# 5 -0.002820 0.001094 0.003097 0.000000 0.058536 0.000000
# 6 0.000000 0.000000 0.000000 0.001153 0.000000 0.049462
#
#
# Mechanical properties :
#
#
# Convention : Reuss Voigt Hill
#
# Bulk Modulus (GPa) = 48.38619 61.80881 55.09750
# Shear Modulus (GPa) = 17.84138 20.43563 19.13851
#
# Velocity S-wave (km/s) = 3.53529 3.78360 3.66155
# Velocity P-wave (km/s) = 7.11055 7.89847 7.51485
#
# Compressibility (1/GPa) = 0.02066705
#
# Stress axis : x y z
#
# Youngs Moduli (GPa) = 57.05438 25.53103 59.19170
#
# Poissons Ratio (x) = 0.18772 0.25733
# Poissons Ratio (y) = 0.41949 0.87375
# Poissons Ratio (z) = 0.24804 0.37687
#
# Static dielectric constant tensor:
#      x y z
#    x 1.440890 0.000000 -0.004590 
#    y 0.000000 1.479810 0.000000 
#    z -0.004590 0.000000 1.476330 
# 
# From -- ./inp_files/59863.got.cif
#   From: 2010.05.17/outbox.cif.g08.bks.cpg/sg11_30_cif.got.tgz:59863.got - 2010.06.03 12:22:45.
