data_PCOD9156313
_publ_section_title
;
Structure prediction by ZEFSAII (Michael W. Deem and Ramdas Pophale) SiO2 
 PCOD9156313
Probable space group: P 21/M
;
_chemical_formula_sum "Si O2"
_cell_formula_units_Z 30
_cell_length_a 10.635854
_cell_length_b 7.722849
_cell_length_c 20.226330
_cell_angle_alpha 90.000000
_cell_angle_beta 53.380724
_cell_angle_gamma 90.000000
_cell_volume 1333.445493
_symmetry_space_group_name_H-M "P 21/M"
_symmetry_group_IT_number 11
_symmetry_cell_setting 'monoclinic'
loop_
_space_group_symop_operation_xyz
x,y,z
-x,1/2+y,-z
-x,-y,-z
x,1/2-y,z
loop_
_atom_site_type_symbol
_atom_site_label
_atom_site_fract_x
_atom_site_fract_y
_atom_site_fract_z
Si Si1 0.225505 0.459622 0.323378
Si Si2 0.516882 0.553921 0.404717
Si Si3 0.588685 0.047837 0.242429
Si Si4 0.832644 0.963286 0.368459
Si Si5 0.184713 0.750000 0.222792
Si Si6 0.928044 0.561239 0.818899
Si Si7 0.173253 0.447019 0.487566
Si Si8 0.917198 0.546676 0.094250
O O1 0.200091 0.250000 0.321815
O O2 0.415143 0.482800 0.268845
O O3 0.177501 0.595182 0.282405
O O4 0.158078 0.512895 0.417513
O O5 0.468933 0.750000 0.434597
O O6 0.603164 0.553411 0.306603
O O7 0.649770 0.496707 0.413978
O O8 0.361636 0.445090 0.441023
O O9 0.600023 0.250000 0.255323
O O10 0.733341 0.000594 0.150822
O O11 0.851083 0.750000 0.358346
O O12 0.882252 0.027776 0.425661
O O13 0.929584 0.042591 0.278499
O O14 0.181178 0.597517 0.166580
O O15 0.854316 0.750000 0.834201
O O16 0.001502 0.543884 0.868573
O O17 0.120061 0.250000 0.502858
O O18 0.930138 0.750000 0.102006
O O19 0.000000 0.500000 0.000000
#
# Coordination Sequence:
#
# PCOD9156313 Si02
#       8
#     4   4   4   4   2   4   4   4
#     4   9  21  40  65  93 122 171 225 277 319 369
#     4  10  18  27  50  84 122 164 204 253 321 393
#     4  10  20  36  61  97 131 164 210 259 322 391
#     4  10  19  35  54  81 125 168 211 262 324 392
#     4  12  24  44  68  88 124 172 230 274 318 364
#     4  12  25  43  66  95 128 172 216 261 328 395
#     4   9  19  33  53  81 123 162 214 271 325 376
#     4  12  24  42  69 107 140 168 198 251 323 399
#
# _framework density 22.498107000000001
#
# number of rings (size 3 to 8) (size 9 to 14) (size 15 to 20)
#    0.000    1.600    2.667    3.600    4.667    1.067 
#    0.000    0.667    0.000    0.800    0.000    0.000 
#    0.000    0.000    0.000    0.000    0.000    0.000 
#
# Total GULP energy -167220.635084 kJ/mol
# GULP energy per Si atom -5574.021169 kJ/mol
# Density = 2.244690 g / cm^3
# Si number density = 22.498107 Si / 1000 Ang^3
#
#
#
# Elastic Constant Matrix: (Units=GPa)
#
#
# Indices 1 2 3 4 5 6 
#
# 1 88.6011 39.9011 35.9432 0.0000 25.5034 0.0000
# 2 39.9011 147.1793 23.4846 0.0000 7.2468 0.0000
# 3 35.9432 23.4846 131.9407 0.0000 15.9726 0.0000
# 4 0.0000 0.0000 0.0000 31.0455 0.0000 2.3385
# 5 25.5034 7.2468 15.9726 0.0000 30.5657 0.0000
# 6 0.0000 0.0000 0.0000 2.3385 0.0000 33.8681
#
#
#
# Elastic Compliance Matrix: (Units=1/GPa)
#
#
# Indices 1 2 3 4 5 6 
#
# 1 0.017620 -0.003745 -0.002627 0.000000 -0.012441 0.000000
# 2 -0.003745 0.007822 -0.000561 0.000000 0.001564 0.000000
# 3 -0.002627 -0.000561 0.008661 0.000000 -0.002201 0.000000
# 4 0.000000 0.000000 0.000000 0.032379 0.000000 -0.002236
# 5 -0.012441 0.001564 -0.002201 0.000000 0.043876 0.000000
# 6 0.000000 0.000000 0.000000 -0.002236 0.000000 0.029681
#
#
# Mechanical properties :
#
#
# Convention : Reuss Voigt Hill
#
# Bulk Modulus (GPa) = 49.41692 62.93098 56.17395
# Shear Modulus (GPa) = 31.12303 36.98866 34.05584
#
# Velocity S-wave (km/s) = 3.72339 4.05912 3.89488
# Velocity P-wave (km/s) = 6.36376 7.07114 6.72676
#
# Compressibility (1/GPa) = 0.02023598
#
# Stress axis : x y z
#
# Youngs Moduli (GPa) = 56.75359 127.83907 115.45684
#
# Poissons Ratio (x) = 0.47877 0.30335
# Poissons Ratio (y) = 0.21255 0.06481
# Poissons Ratio (z) = 0.14911 0.07177
#
# Static dielectric constant tensor:
#      x y z
#    x 1.923820 0.000000 -0.014710 
#    y 0.000000 1.588170 0.000000 
#    z -0.014710 0.000000 1.867990 
# 
# From -- ./inp_files/58849.got.cif
#   From: 2010.05.17/outbox.cif.g08.bks.cpg/sg11_30_cif.got.tgz:58849.got - 2010.06.03 12:22:45.
