data_PCOD9156028
_publ_section_title
;
Structure prediction by ZEFSAII (Michael W. Deem and Ramdas Pophale) SiO2 
 PCOD9156028
Probable space group: P 21/M
;
_chemical_formula_sum "Si O2"
_cell_formula_units_Z 24
_cell_length_a 7.550818
_cell_length_b 24.968062
_cell_length_c 5.408100
_cell_angle_alpha 90.000000
_cell_angle_beta 95.193152
_cell_angle_gamma 90.000000
_cell_volume 1015.400095
_symmetry_space_group_name_H-M "P 21/M"
_symmetry_group_IT_number 11
_symmetry_cell_setting 'monoclinic'
loop_
_space_group_symop_operation_xyz
x,y,z
-x,1/2+y,-z
-x,-y,-z
x,1/2-y,z
loop_
_atom_site_type_symbol
_atom_site_label
_atom_site_fract_x
_atom_site_fract_y
_atom_site_fract_z
Si Si1 0.145319 0.810492 0.497141
Si Si2 0.770181 0.630750 0.433400
Si Si3 0.742016 0.688069 0.930059
Si Si4 0.307911 0.495131 0.596187
Si Si5 0.158713 0.661208 0.999202
Si Si6 0.832324 0.036404 0.922934
O O1 0.074961 0.750000 0.495517
O O2 0.251226 0.822368 0.758321
O O3 0.978220 0.851159 0.466873
O O4 0.249915 0.818419 0.258176
O O5 0.692920 0.655082 0.677606
O O6 0.751125 0.566977 0.416780
O O7 0.691298 0.657694 0.176107
O O8 0.686853 0.750000 0.915609
O O9 0.960707 0.686948 0.963637
O O10 0.500000 0.500000 0.500000
O O11 0.301627 0.516818 0.876064
O O12 0.200062 0.528223 0.373728
O O13 0.136164 0.598111 0.015925
O O14 0.000000 0.000000 0.000000
#
# Coordination Sequence:
#
# PCOD9156028 Si02
#       6
#     4   4   4   4   4   4
#     4  10  17  29  50  84 117 146 188 253 312 359
#     4  10  18  32  52  77 112 152 195 241 291 355
#     4  10  18  31  53  88 119 146 189 256 313 355
#     4  12  26  43  61  89 129 174 212 254 313 376
#     4  10  18  29  48  79 113 144 182 240 305 351
#     4  12  23  40  64  91 122 160 210 262 304 362
#
# _framework density 23.636002999999999
#
# number of rings (size 3 to 8) (size 9 to 14) (size 15 to 20)
#    0.000    1.333    0.000   12.000    0.000    0.000 
#    0.000    0.000    0.000    0.000    0.000   39.667 
#    0.000    0.000    0.000    0.000    0.000    0.000 
#
# Total GULP energy -134147.579108 kJ/mol
# GULP energy per Si atom -5589.482463 kJ/mol
# Density = 2.358221 g / cm^3
# Si number density = 23.636003 Si / 1000 Ang^3
#
#
#
# Elastic Constant Matrix: (Units=GPa)
#
#
# Indices 1 2 3 4 5 6 
#
# 1 35.5492 6.7752 -2.2387 0.0000 -15.1893 0.0000
# 2 6.7752 186.6077 52.3202 0.0000 -7.6795 0.0000
# 3 -2.2387 52.3202 218.5348 0.0000 -18.2090 0.0000
# 4 0.0000 0.0000 0.0000 46.2456 0.0000 -4.5966
# 5 -15.1893 -7.6795 -18.2090 0.0000 17.9762 0.0000
# 6 0.0000 0.0000 0.0000 -4.5966 0.0000 1.3946
#
#
#
# Elastic Compliance Matrix: (Units=1/GPa)
#
#
# Indices 1 2 3 4 5 6 
#
# 1 0.047483 -0.001153 0.004439 0.000000 0.044126 0.000000
# 2 -0.001153 0.005795 -0.001391 0.000000 0.000092 0.000000
# 3 0.004439 -0.001391 0.005699 0.000000 0.008929 0.000000
# 4 0.000000 0.000000 0.000000 0.032159 0.000000 0.105993
# 5 0.044126 0.000092 0.008929 0.000000 0.101998 0.000000
# 6 0.000000 0.000000 0.000000 0.105993 0.000000 1.066386
#
#
# Mechanical properties :
#
#
# Convention : Reuss Voigt Hill
#
# Bulk Modulus (GPa) = 15.93209 61.60057 38.76633
# Shear Modulus (GPa) = 3.91650 38.71228 21.31439
#
# Velocity S-wave (km/s) = 1.28864 4.05143 3.00622
# Velocity P-wave (km/s) = 2.99489 6.92851 5.33730
#
# Compressibility (1/GPa) = 0.06276640
#
# Stress axis : x y z
#
# Youngs Moduli (GPa) = 21.06002 172.57442 175.48439
#
# Poissons Ratio (x) = 0.19893 -0.77900
# Poissons Ratio (y) = 0.02428 0.24418
# Poissons Ratio (z) = -0.09349 0.24013
#
# Static dielectric constant tensor:
#      x y z
#    x 1.849800 0.000000 -0.243400 
#    y 0.000000 1.842770 0.000000 
#    z -0.243400 0.000000 1.154610 
# 
# From -- ./inp_files/2733.got.cif
#   From: 2010.05.17/outbox.cif.g08.bks.cpg/sg11_2_cif.got.tgz:2733.got - 2010.06.03 12:22:45.
