data_PCOD9156899
_publ_section_title
;
Structure prediction by ZEFSAII (Michael W. Deem and Ramdas Pophale) SiO2 
 PCOD9156899
Probable space group: P 21/M
;
_chemical_formula_sum "Si O2"
_cell_formula_units_Z 30
_cell_length_a 11.727132
_cell_length_b 9.148985
_cell_length_c 19.989904
_cell_angle_alpha 90.000000
_cell_angle_beta 35.922084
_cell_angle_gamma 90.000000
_cell_volume 1258.288066
_symmetry_space_group_name_H-M "P 21/M"
_symmetry_group_IT_number 11
_symmetry_cell_setting 'monoclinic'
loop_
_space_group_symop_operation_xyz
x,y,z
-x,1/2+y,-z
-x,-y,-z
x,1/2-y,z
loop_
_atom_site_type_symbol
_atom_site_label
_atom_site_fract_x
_atom_site_fract_y
_atom_site_fract_z
Si Si1 0.579249 0.250000 0.951138
Si Si2 0.824498 0.587111 0.720583
Si Si3 0.067761 0.074525 0.712155
Si Si4 0.682043 0.576576 0.650107
Si Si5 0.388225 0.076140 0.461220
Si Si6 0.386106 0.516326 0.964589
Si Si7 0.721230 0.924343 0.126108
Si Si8 0.822887 0.074555 0.210472
O O1 0.689447 0.374652 0.943977
O O2 0.456048 0.373230 0.968746
O O3 0.900653 0.750000 0.700296
O O4 0.836814 0.557911 0.635552
O O5 0.592008 0.589516 0.843870
O O6 0.916394 0.468308 0.725558
O O7 0.078476 0.250000 0.715554
O O8 0.271124 0.019557 0.580263
O O9 0.048324 0.987038 0.790384
O O10 0.619646 0.750000 0.682857
O O11 0.735646 0.550060 0.547771
O O12 0.502919 0.469494 0.751360
O O13 0.402009 0.250000 0.464191
O O14 0.604550 0.029057 0.338805
O O15 0.261332 0.482342 0.958130
O O16 0.749090 0.750000 0.114965
O O17 0.839398 0.004604 0.128909
O O18 0.837162 0.250000 0.198717
#
# Coordination Sequence:
#
# PCOD9156899 Si02
#       8
#     2   4   4   4   4   4   4   4
#     4  10  20  34  58  88 114 136 162 200 256 314
#     4  10  20  34  51  73 110 145 174 209 254 318
#     4  11  22  33  49  73 103 141 184 225 267 306
#     4   8  16  31  51  71  98 140 178 214 264 309
#     4   8  16  32  51  73 100 132 178 234 272 302
#     4  10  20  35  56  87 116 136 165 202 255 311
#     4  10  18  30  51  79 110 134 168 214 257 302
#     4  10  20  35  54  72  98 139 186 228 266 303
#
# _framework density 23.841916000000001
#
# number of rings (size 3 to 8) (size 9 to 14) (size 15 to 20)
#    0.000    2.400    1.333    2.400    2.800    1.067 
#    0.000    6.000    0.000    0.000    0.000    5.600 
#    0.000    0.000    0.000    0.000    0.000    0.000 
#
# Total GULP energy -167067.724143 kJ/mol
# GULP energy per Si atom -5568.924138 kJ/mol
# Density = 2.378765 g / cm^3
# Si number density = 23.841916 Si / 1000 Ang^3
#
#
#
# Elastic Constant Matrix: (Units=GPa)
#
#
# Indices 1 2 3 4 5 6 
#
# 1 146.6683 62.8496 42.7840 0.0000 39.8468 0.0000
# 2 62.8496 123.7071 36.7375 0.0000 37.5995 0.0000
# 3 42.7840 36.7375 107.5656 0.0000 38.0937 0.0000
# 4 0.0000 0.0000 0.0000 50.4216 0.0000 14.1918
# 5 39.8468 37.5995 38.0937 0.0000 56.0582 0.0000
# 6 0.0000 0.0000 0.0000 14.1918 0.0000 30.2397
#
#
#
# Elastic Compliance Matrix: (Units=1/GPa)
#
#
# Indices 1 2 3 4 5 6 
#
# 1 0.009669 -0.003388 -0.001395 0.000000 -0.003652 0.000000
# 2 -0.003388 0.011501 -0.000924 0.000000 -0.004678 0.000000
# 3 -0.001395 -0.000924 0.012638 0.000000 -0.006977 0.000000
# 4 0.000000 0.000000 0.000000 0.022851 0.000000 -0.010724
# 5 -0.003652 -0.004678 -0.006977 0.000000 0.028313 0.000000
# 6 0.000000 0.000000 0.000000 -0.010724 0.000000 0.038102
#
#
# Mechanical properties :
#
#
# Convention : Reuss Voigt Hill
#
# Bulk Modulus (GPa) = 44.65475 73.63145 59.14310
# Shear Modulus (GPa) = 35.22276 43.04854 39.13565
#
# Velocity S-wave (km/s) = 3.84780 4.25382 4.05589
# Velocity P-wave (km/s) = 6.20571 7.42138 6.84061
#
# Compressibility (1/GPa) = 0.02239404
#
# Stress axis : x y z
#
# Youngs Moduli (GPa) = 103.42096 86.94855 79.12762
#
# Poissons Ratio (x) = 0.29458 0.11041
# Poissons Ratio (y) = 0.35039 0.07309
# Poissons Ratio (z) = 0.14430 0.08032
#
# Static dielectric constant tensor:
#      x y z
#    x 1.927620 0.000000 -0.067200 
#    y 0.000000 1.810390 0.000000 
#    z -0.067200 0.000000 2.065390 
# 
# From -- ./inp_files/58874.got.cif
#   From: 2010.05.17/outbox.cif.g08.bks.cpg/sg11_30_cif.got.tgz:58874.got - 2010.06.03 12:22:45.
