data_PCOD9156451
_publ_section_title
;
Structure prediction by ZEFSAII (Michael W. Deem and Ramdas Pophale) SiO2 
 PCOD9156451
Probable space group: P 21/M
;
_chemical_formula_sum "Si O2"
_cell_formula_units_Z 32
_cell_length_a 15.319723
_cell_length_b 7.365921
_cell_length_c 21.962718
_cell_angle_alpha 90.000000
_cell_angle_beta 151.447122
_cell_angle_gamma 90.000000
_cell_volume 1184.579853
_symmetry_space_group_name_H-M "P 21/M"
_symmetry_group_IT_number 11
_symmetry_cell_setting 'monoclinic'
loop_
_space_group_symop_operation_xyz
x,y,z
-x,1/2+y,-z
-x,-y,-z
x,1/2-y,z
loop_
_atom_site_type_symbol
_atom_site_label
_atom_site_fract_x
_atom_site_fract_y
_atom_site_fract_z
Si Si1 0.891800 0.033559 0.248238
Si Si2 0.238148 0.467239 0.704211
Si Si3 0.287654 0.032004 0.155082
Si Si4 0.691285 0.539396 0.380058
Si Si5 0.946745 0.969961 0.098665
Si Si6 0.662964 0.458090 0.672833
Si Si7 0.276137 0.472612 0.461958
Si Si8 0.617148 0.461586 0.988808
O O1 0.889109 0.250000 0.238974
O O2 0.706365 0.959974 0.105030
O O3 0.070986 0.966827 0.322494
O O4 0.899996 0.000918 0.325376
O O5 0.252084 0.250000 0.705679
O O6 0.209927 0.539827 0.618723
O O7 0.431888 0.540999 0.848358
O O8 0.286950 0.250000 0.158664
O O9 0.473478 0.972824 0.234538
O O10 0.301417 0.958303 0.231943
O O11 0.119286 0.973497 0.009606
O O12 0.744258 0.750000 0.418448
O O13 0.705839 0.464167 0.456737
O O14 0.954070 0.750000 0.103236
O O15 0.150069 0.041145 0.238113
O O16 0.785253 0.025484 0.044658
O O17 0.656201 0.250000 0.648836
O O18 0.459068 0.536239 0.540380
O O19 0.282984 0.250000 0.464461
O O20 0.577927 0.250000 0.974768
#
# Coordination Sequence:
#
# PCOD9156451 Si02
#       8
#     4   4   4   4   4   4   4   4
#     4  10  21  36  54  75  98 132 175 213 252 295
#     4  10  20  34  53  77 101 130 168 207 258 310
#     4  10  18  28  46  77 109 132 163 207 252 294
#     4   9  17  32  53  74 102 138 168 198 249 310
#     4  10  20  32  50  77 104 133 170 208 250 298
#     4   9  18  33  52  73 102 140 171 199 245 305
#     4   8  16  33  54  73  99 136 173 204 241 298
#     4  10  21  36  53  74 103 135 167 209 256 302
#
# _framework density 27.013798000000001
#
# number of rings (size 3 to 8) (size 9 to 14) (size 15 to 20)
#    0.000    2.500    1.250    1.875    0.000    3.000 
#    0.000    3.125    0.000    0.000    0.000    0.000 
#    0.000    0.000    0.000    0.000    0.000    0.000 
#
# Total GULP energy -178972.920030 kJ/mol
# GULP energy per Si atom -5592.903751 kJ/mol
# Density = 2.695231 g / cm^3
# Si number density = 27.013798 Si / 1000 Ang^3
#
#
#
# Elastic Constant Matrix: (Units=GPa)
#
#
# Indices 1 2 3 4 5 6 
#
# 1 154.7795 -1.3588 31.1116 0.0000 7.5705 0.0000
# 2 -1.3588 121.8815 7.4454 0.0000 -8.6700 0.0000
# 3 31.1116 7.4454 106.4742 0.0000 26.7445 0.0000
# 4 0.0000 0.0000 0.0000 6.5761 0.0000 3.1769
# 5 7.5705 -8.6700 26.7445 0.0000 51.2887 0.0000
# 6 0.0000 0.0000 0.0000 3.1769 0.0000 22.3385
#
#
#
# Elastic Compliance Matrix: (Units=1/GPa)
#
#
# Indices 1 2 3 4 5 6 
#
# 1 0.006869 0.000208 -0.002043 0.000000 0.000087 0.000000
# 2 0.000208 0.008419 -0.001150 0.000000 0.001992 0.000000
# 3 -0.002043 -0.001150 0.011556 0.000000 -0.005919 0.000000
# 4 0.000000 0.000000 0.000000 0.163286 0.000000 -0.023222
# 5 0.000087 0.001992 -0.005919 0.000000 0.022908 0.000000
# 6 0.000000 0.000000 0.000000 -0.023222 0.000000 0.048068
#
#
# Mechanical properties :
#
#
# Convention : Reuss Voigt Hill
#
# Bulk Modulus (GPa) = 47.90885 50.83684 49.37285
# Shear Modulus (GPa) = 18.24585 39.10311 28.67448
#
# Velocity S-wave (km/s) = 2.60172 3.80876 3.26156
# Velocity P-wave (km/s) = 5.17675 6.18077 5.70090
#
# Compressibility (1/GPa) = 0.02087297
#
# Stress axis : x y z
#
# Youngs Moduli (GPa) = 145.57882 118.77973 86.53435
#
# Poissons Ratio (x) = -0.02466 0.17683
# Poissons Ratio (y) = -0.03022 0.09949
# Poissons Ratio (z) = 0.29748 0.13657
#
# Static dielectric constant tensor:
#      x y z
#    x 2.112540 0.000000 -0.019210 
#    y 0.000000 1.989980 0.000000 
#    z -0.019210 0.000000 2.155190 
# 
# From -- ./inp_files/68984.got.cif
#   From: 2010.05.17/outbox.cif.g08.bks.cpg/sg11_35_cif.got.tgz:68984.got - 2010.06.03 12:22:45.
