data_PCOD9156209
_publ_section_title
;
Structure prediction by ZEFSAII (Michael W. Deem and Ramdas Pophale) SiO2 
 PCOD9156209
Probable space group: P 21/M
;
_chemical_formula_sum "Si O2"
_cell_formula_units_Z 28
_cell_length_a 15.325265
_cell_length_b 7.356388
_cell_length_c 19.557732
_cell_angle_alpha 90.000000
_cell_angle_beta 38.724015
_cell_angle_gamma 90.000000
_cell_volume 1379.325687
_symmetry_space_group_name_H-M "P 21/M"
_symmetry_group_IT_number 11
_symmetry_cell_setting 'monoclinic'
loop_
_space_group_symop_operation_xyz
x,y,z
-x,1/2+y,-z
-x,-y,-z
x,1/2-y,z
loop_
_atom_site_type_symbol
_atom_site_label
_atom_site_fract_x
_atom_site_fract_y
_atom_site_fract_z
Si Si1 0.369388 0.526351 0.374455
Si Si2 0.476454 0.040412 0.846684
Si Si3 0.371191 0.967147 0.529327
Si Si4 0.240665 0.470490 0.247389
Si Si5 0.233615 0.472893 0.092907
Si Si6 0.063064 0.538113 0.557983
Si Si7 0.930003 0.462187 0.279866
O O1 0.365953 0.750000 0.375113
O O2 0.486599 0.463217 0.250150
O O3 0.393883 0.469286 0.437563
O O4 0.214451 0.463334 0.445617
O O5 0.436519 0.250000 0.860197
O O6 0.624046 0.034639 0.795590
O O7 0.356148 0.962639 0.968412
O O8 0.354468 0.750000 0.534106
O O9 0.221073 0.038794 0.647177
O O10 0.500000 0.000000 0.500000
O O11 0.238208 0.250000 0.250764
O O12 0.254885 0.525428 0.159071
O O13 0.089552 0.535569 0.367885
O O14 0.233618 0.250000 0.093634
O O15 0.079123 0.535717 0.165313
O O16 0.062435 0.750000 0.539187
O O17 0.065375 0.530269 0.639871
O O18 0.930709 0.250000 0.259686
#
# Coordination Sequence:
#
# PCOD9156209 Si02
#       7
#     4   4   4   4   4   4   4
#     4   8  15  27  41  59  82 106 131 159 198 243
#     4  10  18  26  39  59  82 107 135 169 201 229
#     4   9  16  28  48  68  82  98 124 161 201 240
#     4   9  16  26  40  57  78 107 142 174 198 221
#     4   8  14  25  41  59  78 105 143 173 188 217
#     4   7  11  22  39  55  74 104 138 165 189 227
#     4   7  11  22  41  61  77  99 133 164 187 222
#
# _framework density 20.299775
#
# number of rings (size 3 to 8) (size 9 to 14) (size 15 to 20)
#    0.000    3.714    0.000    3.857    0.000    0.571 
#    0.000    0.714    0.000    9.429    0.000    0.000 
#    0.000    0.000    0.000    0.000    0.000    0.000 
#
# Total GULP energy -156018.303352 kJ/mol
# GULP energy per Si atom -5572.082263 kJ/mol
# Density = 2.025357 g / cm^3
# Si number density = 20.299775 Si / 1000 Ang^3
#
#
#
# Elastic Constant Matrix: (Units=GPa)
#
#
# Indices 1 2 3 4 5 6 
#
# 1 105.7590 -6.4689 51.3899 0.0000 -16.9596 0.0000
# 2 -6.4689 73.8865 1.1907 0.0000 1.7842 0.0000
# 3 51.3899 1.1907 122.3341 0.0000 -4.6988 0.0000
# 4 0.0000 0.0000 0.0000 -8.8973 0.0000 -4.7140
# 5 -16.9596 1.7842 -4.6988 0.0000 19.6152 0.0000
# 6 0.0000 0.0000 0.0000 -4.7140 0.0000 15.7686
#
#
#
# Elastic Compliance Matrix: (Units=1/GPa)
#
#
# Indices 1 2 3 4 5 6 
#
# 1 0.013851 0.001045 -0.005422 0.000000 0.010582 0.000000
# 2 0.001045 0.013647 -0.000590 0.000000 -0.000480 0.000000
# 3 -0.005422 -0.000590 0.010375 0.000000 -0.002149 0.000000
# 4 0.000000 0.000000 0.000000 -0.097025 0.000000 -0.029006
# 5 0.010582 -0.000480 -0.002149 0.000000 0.059659 0.000000
# 6 0.000000 0.000000 0.000000 -0.029006 0.000000 0.054746
#
#
# Mechanical properties :
#
#
# Convention : Reuss Voigt Hill
#
# Bulk Modulus (GPa) = 35.79395 43.80031 39.79713
# Shear Modulus (GPa) = 67.11314 22.35514 44.73414
#
# Velocity S-wave (km/s) = 5.75611 3.32211 4.69943
# Velocity P-wave (km/s) = 7.86435 6.02817 7.00667
#
# Compressibility (1/GPa) = 0.02793769
#
# Stress axis : x y z
#
# Youngs Moduli (GPa) = 72.19678 73.27719 96.38280
#
# Poissons Ratio (x) = -0.07654 0.52261
# Poissons Ratio (y) = -0.07541 0.05687
# Poissons Ratio (z) = 0.39147 0.04324
#
# Static dielectric constant tensor:
#      x y z
#    x 1.705100 0.000000 -0.022030 
#    y 0.000000 1.782730 0.000000 
#    z -0.022030 0.000000 1.759130 
# 
# From -- ./inp_files/34347.got.cif
#   From: 2010.05.17/outbox.cif.g08.bks.cpg/sg11_18_cif.got.tgz:34347.got - 2010.06.03 12:22:45.
