data_PCOD9156736
_publ_section_title
;
Structure prediction by ZEFSAII (Michael W. Deem and Ramdas Pophale) SiO2 
 PCOD9156736
Probable space group: P 21/M
;
_chemical_formula_sum "Si O2"
_cell_formula_units_Z 24
_cell_length_a 21.283399
_cell_length_b 8.900497
_cell_length_c 11.987497
_cell_angle_alpha 90.000000
_cell_angle_beta 134.822664
_cell_angle_gamma 90.000000
_cell_volume 1610.678236
_symmetry_space_group_name_H-M "P 21/M"
_symmetry_group_IT_number 11
_symmetry_cell_setting 'monoclinic'
loop_
_space_group_symop_operation_xyz
x,y,z
-x,1/2+y,-z
-x,-y,-z
x,1/2-y,z
loop_
_atom_site_type_symbol
_atom_site_label
_atom_site_fract_x
_atom_site_fract_y
_atom_site_fract_z
Si Si1 0.732784 0.570971 0.739944
Si Si2 0.452894 0.930057 0.103962
Si Si3 0.425058 0.930621 0.326787
Si Si4 0.749212 0.426092 0.533156
Si Si5 0.904281 0.426563 0.879872
Si Si6 0.637645 0.571038 0.213778
O O1 0.729425 0.750000 0.741751
O O2 0.668322 0.495005 0.747659
O O3 0.703628 0.515219 0.579202
O O4 0.833593 0.509617 0.871898
O O5 0.442746 0.750000 0.081507
O O6 0.442552 0.971556 0.219946
O O7 0.550286 0.968076 0.178183
O O8 0.382982 0.009009 0.934672
O O9 0.426400 0.750000 0.337767
O O10 0.500000 0.000000 0.500000
O O11 0.726496 0.250000 0.510833
O O12 0.852857 0.440753 0.696406
O O13 0.719094 0.495107 0.379590
O O14 0.909045 0.250000 0.912252
O O15 0.000000 0.500000 0.000000
O O16 0.647229 0.750000 0.224102
#
# Coordination Sequence:
#
# PCOD9156736 Si02
#       6
#     4   4   4   4   4   4
#     4  10  19  31  47  69  98 128 160 199 241 288
#     4   9  20  33  45  63  92 128 164 201 241 283
#     4  11  21  33  48  68  96 132 169 202 241 290
#     4   9  18  30  47  69  96 125 155 193 241 289
#     4   9  18  31  49  74 100 128 158 197 246 295
#     4  10  18  30  48  69  91 122 164 205 243 283
#
# _framework density 14.900556
#
# number of rings (size 3 to 8) (size 9 to 14) (size 15 to 20)
#    1.000    1.333    0.000    4.000    0.000    3.333 
#    0.000    0.000    0.000    0.000    0.000    1.167 
#    0.000    0.000    0.000    0.000    0.000    0.000 
#
# Total GULP energy -133615.728140 kJ/mol
# GULP energy per Si atom -5567.322006 kJ/mol
# Density = 1.486664 g / cm^3
# Si number density = 14.900556 Si / 1000 Ang^3
#
#
#
# Elastic Constant Matrix: (Units=GPa)
#
#
# Indices 1 2 3 4 5 6 
#
# 1 83.4030 42.5490 53.2444 0.0000 -3.0709 0.0000
# 2 42.5490 83.7794 55.8243 0.0000 -4.5679 0.0000
# 3 53.2444 55.8243 96.0535 0.0000 -7.6972 0.0000
# 4 0.0000 0.0000 0.0000 27.7995 0.0000 1.4488
# 5 -3.0709 -4.5679 -7.6972 0.0000 23.1961 0.0000
# 6 0.0000 0.0000 0.0000 1.4488 0.0000 22.9621
#
#
#
# Elastic Compliance Matrix: (Units=1/GPa)
#
#
# Indices 1 2 3 4 5 6 
#
# 1 0.019531 -0.004417 -0.008344 0.000000 -0.001053 0.000000
# 2 -0.004417 0.020479 -0.009428 0.000000 0.000320 0.000000
# 3 -0.008344 -0.009428 0.020832 0.000000 0.003952 0.000000
# 4 0.000000 0.000000 0.000000 0.036091 0.000000 -0.002277
# 5 -0.001053 0.000320 0.003952 0.000000 0.044346 0.000000
# 6 0.000000 0.000000 0.000000 -0.002277 0.000000 0.043694
#
#
# Mechanical properties :
#
#
# Convention : Reuss Voigt Hill
#
# Bulk Modulus (GPa) = 60.73623 62.94125 61.83874
# Shear Modulus (GPa) = 21.29132 22.23276 21.76204
#
# Velocity S-wave (km/s) = 3.78417 3.86693 3.82578
# Velocity P-wave (km/s) = 7.74228 7.89114 7.81706
#
# Compressibility (1/GPa) = 0.01646464
#
# Stress axis : x y z
#
# Youngs Moduli (GPa) = 51.19975 48.83102 48.00318
#
# Poissons Ratio (x) = 0.21569 0.40053
# Poissons Ratio (y) = 0.22615 0.45256
# Poissons Ratio (z) = 0.42721 0.46037
#
# Static dielectric constant tensor:
#      x y z
#    x 1.478830 0.000000 0.001700 
#    y 0.000000 1.492180 0.000000 
#    z 0.001700 0.000000 1.499680 
# 
# From -- ./inp_files/40802.got.cif
#   From: 2010.05.17/outbox.cif.g08.bks.cpg/sg11_21_cif.got.tgz:40802.got - 2010.06.03 12:22:45.
