data_PCOD9156320
_publ_section_title
;
Structure prediction by ZEFSAII (Michael W. Deem and Ramdas Pophale) SiO2 
 PCOD9156320
Probable space group: P 21/M
;
_chemical_formula_sum "Si O2"
_cell_formula_units_Z 28
_cell_length_a 23.017482
_cell_length_b 7.979617
_cell_length_c 14.116359
_cell_angle_alpha 90.000000
_cell_angle_beta 39.882257
_cell_angle_gamma 90.000000
_cell_volume 1662.509805
_symmetry_space_group_name_H-M "P 21/M"
_symmetry_group_IT_number 11
_symmetry_cell_setting 'monoclinic'
loop_
_space_group_symop_operation_xyz
x,y,z
-x,1/2+y,-z
-x,-y,-z
x,1/2-y,z
loop_
_atom_site_type_symbol
_atom_site_label
_atom_site_fract_x
_atom_site_fract_y
_atom_site_fract_z
Si Si1 0.399935 0.547407 0.014493
Si Si2 0.032007 0.449482 0.856340
Si Si3 0.071002 0.050812 0.201991
Si Si4 0.790897 0.951969 0.466703
Si Si5 0.783995 0.048849 0.844964
Si Si6 0.105210 0.952513 0.473634
Si Si7 0.601811 0.952400 0.763568
O O1 0.401144 0.750000 0.008961
O O2 0.501162 0.486647 0.862541
O O3 0.316989 0.487268 0.053175
O O4 0.383308 0.499381 0.144870
O O5 0.036939 0.250000 0.846999
O O6 0.132390 0.515705 0.701963
O O7 0.962663 0.502720 0.860303
O O8 0.000000 0.500000 0.000000
O O9 0.069112 0.250000 0.209837
O O10 0.993756 0.983091 0.371508
O O11 0.168768 0.993134 0.115213
O O12 0.788146 0.750000 0.462026
O O13 0.687293 0.013607 0.595239
O O14 0.829854 0.998089 0.521067
O O15 0.781330 0.250000 0.840628
O O16 0.850945 0.983885 0.678093
O O17 0.101247 0.750000 0.473590
O O18 0.600764 0.750000 0.759901
#
# Coordination Sequence:
#
# PCOD9156320 Si02
#       7
#     4   4   4   4   4   4   4
#     4   9  17  27  41  61  90 125 157 187 218 253
#     4  10  20  35  52  70  91 114 143 184 231 276
#     4  10  20  31  45  65  88 118 153 187 222 266
#     4   9  17  28  45  67  91 118 149 185 224 265
#     4  10  18  28  41  61  91 126 156 184 218 256
#     4   9  17  28  41  60  89 122 155 185 216 257
#     4   9  16  27  42  63  89 120 156 188 219 257
#
# _framework density 16.842006000000001
#
# number of rings (size 3 to 8) (size 9 to 14) (size 15 to 20)
#    0.000    2.571    1.429    1.286    0.000    2.286 
#    0.000    0.000    0.000    0.000    0.000    1.000 
#    0.000    0.000    0.000    0.000    0.000    0.000 
#
# Total GULP energy -155993.395980 kJ/mol
# GULP energy per Si atom -5571.192714 kJ/mol
# Density = 1.680367 g / cm^3
# Si number density = 16.842006 Si / 1000 Ang^3
#
#
#
# Elastic Constant Matrix: (Units=GPa)
#
#
# Indices 1 2 3 4 5 6 
#
# 1 135.1424 9.4948 79.1044 0.0000 -30.2385 0.0000
# 2 9.4948 12.8807 4.4144 0.0000 -5.2256 0.0000
# 3 79.1044 4.4144 101.6233 0.0000 -13.3698 0.0000
# 4 0.0000 0.0000 0.0000 12.3803 0.0000 3.9316
# 5 -30.2385 -5.2256 -13.3698 0.0000 19.4290 0.0000
# 6 0.0000 0.0000 0.0000 3.9316 0.0000 20.2918
#
#
#
# Elastic Compliance Matrix: (Units=1/GPa)
#
#
# Indices 1 2 3 4 5 6 
#
# 1 0.019513 -0.001439 -0.012295 0.000000 0.021522 0.000000
# 2 -0.001439 0.087305 0.000134 0.000000 0.021335 0.000000
# 3 -0.012295 0.000134 0.018574 0.000000 -0.006318 0.000000
# 4 0.000000 0.000000 0.000000 0.086070 0.000000 -0.016676
# 5 0.021522 0.021335 -0.006318 0.000000 0.086355 0.000000
# 6 0.000000 0.000000 0.000000 -0.016676 0.000000 0.052512
#
#
# Mechanical properties :
#
#
# Convention : Reuss Voigt Hill
#
# Bulk Modulus (GPa) = 10.18405 48.40816 29.29611
# Shear Modulus (GPa) = 12.18742 20.86240 16.52491
#
# Velocity S-wave (km/s) = 2.69296 3.52335 3.13577
# Velocity P-wave (km/s) = 3.96602 6.73476 5.52658
#
# Compressibility (1/GPa) = 0.09819275
#
# Stress axis : x y z
#
# Youngs Moduli (GPa) = 51.24758 11.45408 53.83900
#
# Poissons Ratio (x) = 0.01648 0.66196
# Poissons Ratio (y) = 0.07374 -0.00724
# Poissons Ratio (z) = 0.63010 -0.00154
#
# Static dielectric constant tensor:
#      x y z
#    x 1.574990 0.000000 -0.064400 
#    y 0.000000 1.585650 0.000000 
#    z -0.064400 0.000000 1.587200 
# 
# From -- ./inp_files/42329.got.cif
#   From: 2010.05.17/outbox.cif.g08.bks.cpg/sg11_22_cif.got.tgz:42329.got - 2010.06.03 12:22:45.
