data_PCOD9156174
_publ_section_title
;
Structure prediction by ZEFSAII (Michael W. Deem and Ramdas Pophale) SiO2 
 PCOD9156174
Probable space group: P 21/M
;
_chemical_formula_sum "Si O2"
_cell_formula_units_Z 18
_cell_length_a 7.494380
_cell_length_b 10.643384
_cell_length_c 10.321623
_cell_angle_alpha 90.000000
_cell_angle_beta 113.206761
_cell_angle_gamma 90.000000
_cell_volume 756.695114
_symmetry_space_group_name_H-M "P 21/M"
_symmetry_group_IT_number 11
_symmetry_cell_setting 'monoclinic'
loop_
_space_group_symop_operation_xyz
x,y,z
-x,1/2+y,-z
-x,-y,-z
x,1/2-y,z
loop_
_atom_site_type_symbol
_atom_site_label
_atom_site_fract_x
_atom_site_fract_y
_atom_site_fract_z
Si Si1 0.921478 0.750000 0.516615
Si Si2 0.638387 0.750000 0.758874
Si Si3 0.203711 0.750000 0.354715
Si Si4 0.880108 0.009021 0.100253
Si Si5 0.755830 0.529796 0.613313
Si Si6 0.733131 0.250000 0.167052
Si Si7 0.130632 0.250000 0.938419
O O1 0.085153 0.750000 0.678214
O O2 0.035726 0.750000 0.415785
O O3 0.798537 0.620970 0.502673
O O4 0.642414 0.622766 0.677400
O O5 0.457882 0.750000 0.801559
O O6 0.839783 0.750000 0.898423
O O7 0.087711 0.750000 0.183601
O O8 0.313515 0.616001 0.408838
O O9 0.749531 0.128662 0.081747
O O10 0.035573 0.011144 0.259572
O O11 0.770764 0.877278 0.079377
O O12 0.000000 0.000000 0.000000
#
# Coordination Sequence:
#
# PCOD9156174 Si02
#       7
#     2   2   2   4   4   2   2
#     4   9  18  37  56  80 106 139 195 225 264 316
#     4  11  20  38  49  81 117 148 172 205 293 343
#     4  10  19  32  58  88  98 139 197 239 253 298
#     4  10  17  34  55  80 101 138 182 223 260 312
#     4   9  19  33  58  79 106 144 179 232 270 310
#     4  10  23  34  56  78 113 149 171 218 274 335
#     4  10  20  31  55  79 112 133 177 229 270 314
#
# _framework density 23.787652000000001
#
# number of rings (size 3 to 8) (size 9 to 14) (size 15 to 20)
#    0.000    2.222    2.222    2.000    0.000    0.889 
#    0.000    2.222    0.000    0.000    0.000    0.000 
#    0.000    0.000    0.000    0.000    0.000    0.000 
#
# Total GULP energy -100399.438346 kJ/mol
# GULP energy per Si atom -5577.746575 kJ/mol
# Density = 2.373351 g / cm^3
# Si number density = 23.787652 Si / 1000 Ang^3
#
#
#
# Elastic Constant Matrix: (Units=GPa)
#
#
# Indices 1 2 3 4 5 6 
#
# 1 71.8751 67.7211 28.3663 0.0000 -22.0241 0.0000
# 2 67.7211 300.5058 37.9707 0.0000 -31.7765 0.0000
# 3 28.3663 37.9707 81.7764 0.0000 -2.3465 0.0000
# 4 0.0000 0.0000 0.0000 10.6293 0.0000 -15.9751
# 5 -22.0241 -31.7765 -2.3465 0.0000 49.9094 0.0000
# 6 0.0000 0.0000 0.0000 -15.9751 0.0000 0.8275
#
#
#
# Elastic Compliance Matrix: (Units=1/GPa)
#
#
# Indices 1 2 3 4 5 6 
#
# 1 0.021511 -0.003381 -0.005689 0.000000 0.007072 0.000000
# 2 -0.003381 0.004320 -0.000798 0.000000 0.001221 0.000000
# 3 -0.005689 -0.000798 0.014505 0.000000 -0.002336 0.000000
# 4 0.000000 0.000000 0.000000 -0.003358 0.000000 -0.064832
# 5 0.007072 0.001221 -0.002336 0.000000 0.023825 0.000000
# 6 0.000000 0.000000 0.000000 -0.064832 0.000000 -0.043137
#
#
# Mechanical properties :
#
#
# Convention : Reuss Voigt Hill
#
# Bulk Modulus (GPa) = 48.54294 80.25263 64.39778
# Shear Modulus (GPa) = 112.95303 33.61321 73.28312
#
# Velocity S-wave (km/s) = 6.89833 3.76314 5.55645
# Velocity P-wave (km/s) = 9.15972 7.25892 8.26415
#
# Compressibility (1/GPa) = 0.02060032
#
# Stress axis : x y z
#
# Youngs Moduli (GPa) = 46.48826 231.50604 68.94074
#
# Poissons Ratio (x) = 0.78271 0.39219
# Poissons Ratio (y) = 0.15717 0.05501
# Poissons Ratio (z) = 0.26446 0.18471
#
# Static dielectric constant tensor:
#      x y z
#    x 1.860850 0.000000 0.009060 
#    y 0.000000 2.044660 0.000000 
#    z 0.009060 0.000000 1.915180 
# 
# From -- ./inp_files/15690.got.cif
#   From: 2010.05.17/outbox.cif.g08.bks.cpg/sg11_8_cif.got.tgz:15690.got - 2010.06.03 12:22:45.
