data_PCOD9156136
_publ_section_title
;
Structure prediction by ZEFSAII (Michael W. Deem and Ramdas Pophale) SiO2 
 PCOD9156136
Probable space group: P 21/M
;
_chemical_formula_sum "Si O2"
_cell_formula_units_Z 24
_cell_length_a 9.075835
_cell_length_b 15.221292
_cell_length_c 12.246650
_cell_angle_alpha 90.000000
_cell_angle_beta 145.793402
_cell_angle_gamma 90.000000
_cell_volume 951.107790
_symmetry_space_group_name_H-M "P 21/M"
_symmetry_group_IT_number 11
_symmetry_cell_setting 'monoclinic'
loop_
_space_group_symop_operation_xyz
x,y,z
-x,1/2+y,-z
-x,-y,-z
x,1/2-y,z
loop_
_atom_site_type_symbol
_atom_site_label
_atom_site_fract_x
_atom_site_fract_y
_atom_site_fract_z
Si Si1 0.936020 0.105283 0.107962
Si Si2 0.726883 0.516769 0.389669
Si Si3 0.568792 0.654001 0.712271
Si Si4 0.447783 0.350623 0.899150
Si Si5 0.070085 0.395272 0.867591
Si Si6 0.428244 0.849417 0.328741
O O1 0.230717 0.137990 0.265168
O O2 0.940915 0.999691 0.117249
O O3 0.765266 0.143133 0.104611
O O4 0.772241 0.135360 0.898184
O O5 0.619327 0.425729 0.370621
O O6 0.590185 0.567654 0.205704
O O7 0.664892 0.583880 0.450127
O O8 0.000000 0.500000 0.500000
O O9 0.445020 0.750000 0.631005
O O10 0.766913 0.650833 0.936915
O O11 0.393473 0.250000 0.828754
O O12 0.243565 0.371522 0.869367
O O13 0.767335 0.365762 0.689587
O O14 0.517352 0.750000 0.381828
#
# Coordination Sequence:
#
# PCOD9156136 Si02
#       6
#     4   4   4   4   4   4
#     4  10  17  32  55  82 113 144 169 219 279 330
#     4  11  23  39  55  76 104 152 195 226 260 315
#     4  11  20  34  56  83 111 143 182 226 275 326
#     4  11  22  35  56  87 116 141 174 225 283 334
#     4  11  18  34  57  87 115 137 171 225 288 335
#     4  10  18  34  58  81 109 146 184 222 270 330
#
# _framework density 25.233733000000001
#
# number of rings (size 3 to 8) (size 9 to 14) (size 15 to 20)
#    0.000    1.333    5.000    7.000    0.000    1.333 
#    0.000    0.833    0.000    0.000    0.000    0.000 
#    0.000    0.000    0.000    0.000    0.000    0.000 
#
# Total GULP energy -134031.627604 kJ/mol
# GULP energy per Si atom -5584.651150 kJ/mol
# Density = 2.517630 g / cm^3
# Si number density = 25.233733 Si / 1000 Ang^3
#
#
#
# Elastic Constant Matrix: (Units=GPa)
#
#
# Indices 1 2 3 4 5 6 
#
# 1 232.0976 82.7311 50.9512 0.0000 59.1205 0.0000
# 2 82.7311 269.6288 42.6503 0.0000 37.4173 0.0000
# 3 50.9512 42.6503 59.0344 0.0000 28.5956 0.0000
# 4 0.0000 0.0000 0.0000 13.0105 0.0000 -10.9916
# 5 59.1205 37.4173 28.5956 0.0000 50.3864 0.0000
# 6 0.0000 0.0000 0.0000 -10.9916 0.0000 22.0800
#
#
#
# Elastic Compliance Matrix: (Units=1/GPa)
#
#
# Indices 1 2 3 4 5 6 
#
# 1 0.006591 -0.000859 -0.002249 0.000000 -0.005819 0.000000
# 2 -0.000859 0.004439 -0.001871 0.000000 -0.001226 0.000000
# 3 -0.002249 -0.001871 0.025212 0.000000 -0.010280 0.000000
# 4 0.000000 0.000000 0.000000 0.132648 0.000000 0.066033
# 5 -0.005819 -0.001226 -0.010280 0.000000 0.033419 0.000000
# 6 0.000000 0.000000 0.000000 0.066033 0.000000 0.078162
#
#
# Mechanical properties :
#
#
# Convention : Reuss Voigt Hill
#
# Bulk Modulus (GPa) = 38.04873 101.49176 69.77025
# Shear Modulus (GPa) = 16.71187 42.72393 29.71790
#
# Velocity S-wave (km/s) = 2.57628 4.11923 3.43549
# Velocity P-wave (km/s) = 4.89498 7.93297 6.59139
#
# Compressibility (1/GPa) = 0.02628209
#
# Stress axis : x y z
#
# Youngs Moduli (GPa) = 151.73104 225.29921 39.66392
#
# Poissons Ratio (x) = 0.19352 0.08921
# Poissons Ratio (y) = 0.13033 0.07423
# Poissons Ratio (z) = 0.34126 0.42162
#
# Static dielectric constant tensor:
#      x y z
#    x 2.101570 0.000000 -0.033430 
#    y 0.000000 1.877640 0.000000 
#    z -0.033430 0.000000 2.250430 
# 
# From -- ./inp_files/17550.got.cif
#   From: 2010.05.17/outbox.cif.g08.bks.cpg/sg11_9_cif.got.tgz:17550.got - 2010.06.03 12:22:45.
