data_PCOD9156506
_publ_section_title
;
Structure prediction by ZEFSAII (Michael W. Deem and Ramdas Pophale) SiO2 
 PCOD9156506
Probable space group: P 21/M
;
_chemical_formula_sum "Si O2"
_cell_formula_units_Z 28
_cell_length_a 14.431437
_cell_length_b 8.552132
_cell_length_c 19.030162
_cell_angle_alpha 90.000000
_cell_angle_beta 48.421602
_cell_angle_gamma 90.000000
_cell_volume 1756.936765
_symmetry_space_group_name_H-M "P 21/M"
_symmetry_group_IT_number 11
_symmetry_cell_setting 'monoclinic'
loop_
_space_group_symop_operation_xyz
x,y,z
-x,1/2+y,-z
-x,-y,-z
x,1/2-y,z
loop_
_atom_site_type_symbol
_atom_site_label
_atom_site_fract_x
_atom_site_fract_y
_atom_site_fract_z
Si Si1 0.747947 0.940288 0.030868
Si Si2 0.003911 0.938456 0.827149
Si Si3 0.501434 0.439208 0.920053
Si Si4 0.877573 0.937275 0.101003
Si Si5 0.244516 0.937760 0.283394
Si Si6 0.875014 0.936366 0.525781
Si Si7 0.004159 0.562114 0.665628
O O1 0.747466 0.750000 0.029202
O O2 0.621107 0.994310 0.059556
O O3 0.768584 0.985142 0.102084
O O4 0.869486 0.990239 0.925287
O O5 0.004322 0.750000 0.829161
O O6 0.018614 0.987511 0.739163
O O7 0.109453 0.998186 0.827097
O O8 0.499099 0.250000 0.922704
O O9 0.627443 0.486388 0.817271
O O10 0.500000 0.500000 0.000000
O O11 0.881251 0.750000 0.101568
O O12 0.000000 0.000000 0.000000
O O13 0.236165 0.750000 0.288321
O O14 0.231458 0.999131 0.369733
O O15 0.127835 0.002700 0.297845
O O16 0.875487 0.750000 0.526639
O O17 0.000000 0.000000 0.500000
O O18 0.889159 0.997413 0.439482
O O19 0.004051 0.750000 0.661997
#
# Coordination Sequence:
#
# PCOD9156506 Si02
#       7
#     4   4   4   4   4   4   4
#     4   8  15  29  44  60  85 118 148 173 208 255
#     4   9  17  28  44  65  89 115 142 175 219 263
#     4  10  20  32  46  64  89 119 152 183 211 250
#     4   9  16  27  44  62  84 113 145 179 216 258
#     4  10  19  30  44  64  89 118 151 184 215 254
#     4  10  18  29  45  63  86 115 146 182 220 262
#     4  10  18  29  46  66  90 118 144 178 222 266
#
# _framework density 15.93683
#
# number of rings (size 3 to 8) (size 9 to 14) (size 15 to 20)
#    0.000    2.571    0.000    6.000    0.000    3.429 
#    0.000    5.000    0.000    0.000    0.000    1.000 
#    0.000    0.000    0.000    0.000    0.000    0.000 
#
# Total GULP energy -155971.272545 kJ/mol
# GULP energy per Si atom -5570.402591 kJ/mol
# Density = 1.590056 g / cm^3
# Si number density = 15.936830 Si / 1000 Ang^3
#
#
#
# Elastic Constant Matrix: (Units=GPa)
#
#
# Indices 1 2 3 4 5 6 
#
# 1 115.9137 19.3451 70.0320 0.0000 23.5300 0.0000
# 2 19.3451 40.2649 32.2005 0.0000 7.1983 0.0000
# 3 70.0320 32.2005 140.8462 0.0000 22.6995 0.0000
# 4 0.0000 0.0000 0.0000 22.8039 0.0000 6.4869
# 5 23.5300 7.1983 22.6995 0.0000 27.3843 0.0000
# 6 0.0000 0.0000 0.0000 6.4869 0.0000 19.2788
#
#
#
# Elastic Compliance Matrix: (Units=1/GPa)
#
#
# Indices 1 2 3 4 5 6 
#
# 1 0.013402 -0.000941 -0.005347 0.000000 -0.006836 0.000000
# 2 -0.000941 0.030616 -0.006192 0.000000 -0.002107 0.000000
# 3 -0.005347 -0.006192 0.011740 0.000000 -0.003509 0.000000
# 4 0.000000 0.000000 0.000000 0.048494 0.000000 -0.016317
# 5 -0.006836 -0.002107 -0.003509 0.000000 0.045854 0.000000
# 6 0.000000 0.000000 0.000000 -0.016317 0.000000 0.057361
#
#
# Mechanical properties :
#
#
# Convention : Reuss Voigt Hill
#
# Bulk Modulus (GPa) = 32.46944 60.01999 46.24471
# Shear Modulus (GPa) = 20.60210 25.58988 23.09599
#
# Velocity S-wave (km/s) = 3.59936 4.01147 3.81099
# Velocity P-wave (km/s) = 6.13938 7.69408 6.96027
#
# Compressibility (1/GPa) = 0.03079819
#
# Stress axis : x y z
#
# Youngs Moduli (GPa) = 74.61301 32.66251 85.17952
#
# Poissons Ratio (x) = 0.03073 0.45547
# Poissons Ratio (y) = 0.07020 0.52745
# Poissons Ratio (z) = 0.39897 0.20225
#
# Static dielectric constant tensor:
#      x y z
#    x 1.532740 0.000000 0.022970 
#    y 0.000000 1.541980 0.000000 
#    z 0.022970 0.000000 1.543520 
# 
# From -- ./inp_files/59832.got.cif
#   From: 2010.05.17/outbox.cif.g08.bks.cpg/sg11_30_cif.got.tgz:59832.got - 2010.06.03 12:22:45.
