data_PCOD9156767
_publ_section_title
;
Structure prediction by ZEFSAII (Michael W. Deem and Ramdas Pophale) SiO2 
 PCOD9156767
Probable space group: P 21/M
;
_chemical_formula_sum "Si O2"
_cell_formula_units_Z 32
_cell_length_a 12.777769
_cell_length_b 8.682632
_cell_length_c 18.176028
_cell_angle_alpha 90.000000
_cell_angle_beta 102.829509
_cell_angle_gamma 90.000000
_cell_volume 1966.190845
_symmetry_space_group_name_H-M "P 21/M"
_symmetry_group_IT_number 11
_symmetry_cell_setting 'monoclinic'
loop_
_space_group_symop_operation_xyz
x,y,z
-x,1/2+y,-z
-x,-y,-z
x,1/2-y,z
loop_
_atom_site_type_symbol
_atom_site_label
_atom_site_fract_x
_atom_site_fract_y
_atom_site_fract_z
Si Si1 0.145526 0.064979 0.906437
Si Si2 0.116610 0.065006 0.497729
Si Si3 0.752346 0.565612 0.920809
Si Si4 0.177717 0.064498 0.663199
Si Si5 0.312174 0.933185 0.814232
Si Si6 0.904479 0.065428 0.820597
Si Si7 0.941748 0.564511 0.667788
Si Si8 0.479437 0.566251 0.078401
O O1 0.157004 0.250000 0.898326
O O2 0.022781 0.023544 0.870164
O O3 0.224883 0.983246 0.861877
O O4 0.180554 0.026737 0.994766
O O5 0.112007 0.250000 0.498297
O O6 0.189606 0.019909 0.578731
O O7 0.130953 0.020671 0.414731
O O8 0.000000 0.000000 0.500000
O O9 0.743167 0.750000 0.915763
O O10 0.815301 0.503149 0.860311
O O11 0.635038 0.493309 0.911476
O O12 0.177639 0.250000 0.669680
O O13 0.267099 0.994358 0.729901
O O14 0.061260 0.003037 0.672114
O O15 0.321809 0.750000 0.814858
O O16 0.424425 0.007937 0.855099
O O17 0.897053 0.250000 0.818394
O O18 0.898413 0.000830 0.737214
O O19 0.949661 0.750000 0.672692
O O20 0.480306 0.750000 0.074674
O O21 0.500000 0.500000 0.000000
#
# Coordination Sequence:
#
# PCOD9156767 Si02
#       8
#     4   4   4   4   4   4   4   4
#     4  10  21  36  54  75 106 141 177 217 263 313
#     4   8  16  28  45  69 101 138 173 211 257 311
#     4  11  23  39  57  77 103 139 182 225 267 310
#     4  10  18  31  49  73 106 140 174 216 265 315
#     4  12  23  34  54  80 106 140 179 219 266 314
#     4  11  22  35  52  77 109 145 181 217 264 317
#     4  10  18  30  48  74 105 140 179 215 258 314
#     4  12  24  40  59  79 104 136 177 222 269 316
#
# _framework density 16.275124999999999
#
# number of rings (size 3 to 8) (size 9 to 14) (size 15 to 20)
#    0.000    1.500    2.500    4.125    0.000    2.000 
#    0.000    0.000    0.000    0.000    0.000    0.875 
#    0.000    0.000    0.000    0.000    0.000    0.000 
#
# Total GULP energy -178636.226219 kJ/mol
# GULP energy per Si atom -5582.382069 kJ/mol
# Density = 1.623808 g / cm^3
# Si number density = 16.275125 Si / 1000 Ang^3
#
#
#
# Elastic Constant Matrix: (Units=GPa)
#
#
# Indices 1 2 3 4 5 6 
#
# 1 94.2941 46.1455 85.0563 0.0000 -8.4128 0.0000
# 2 46.1455 72.5337 61.8312 0.0000 -3.0357 0.0000
# 3 85.0563 61.8312 177.8450 0.0000 12.2965 0.0000
# 4 0.0000 0.0000 0.0000 23.2019 0.0000 -0.7672
# 5 -8.4128 -3.0357 12.2965 0.0000 14.9864 0.0000
# 6 0.0000 0.0000 0.0000 -0.7672 0.0000 25.1150
#
#
#
# Elastic Compliance Matrix: (Units=1/GPa)
#
#
# Indices 1 2 3 4 5 6 
#
# 1 0.026754 -0.005198 -0.012673 0.000000 0.024364 0.000000
# 2 -0.005198 0.022171 -0.005652 0.000000 0.006210 0.000000
# 3 -0.012673 -0.005652 0.015075 0.000000 -0.020628 0.000000
# 4 0.000000 0.000000 0.000000 0.043143 0.000000 0.001318
# 5 0.024364 0.006210 -0.020628 0.000000 0.098587 0.000000
# 6 0.000000 0.000000 0.000000 0.001318 0.000000 0.039857
#
#
# Mechanical properties :
#
#
# Convention : Reuss Voigt Hill
#
# Bulk Modulus (GPa) = 58.97901 81.19320 70.08611
# Shear Modulus (GPa) = 16.76252 22.76996 19.76624
#
# Velocity S-wave (km/s) = 3.21276 3.74447 3.48876
# Velocity P-wave (km/s) = 7.07671 8.28800 7.70619
#
# Compressibility (1/GPa) = 0.01695519
#
# Stress axis : x y z
#
# Youngs Moduli (GPa) = 37.37781 45.10328 66.33592
#
# Poissons Ratio (x) = 0.23446 0.84065
# Poissons Ratio (y) = 0.19430 0.37490
# Poissons Ratio (z) = 0.47367 0.25490
#
# Static dielectric constant tensor:
#      x y z
#    x 1.505320 0.000000 0.018490 
#    y 0.000000 1.542730 0.000000 
#    z 0.018490 0.000000 1.573270 
# 
# From -- ./inp_files/42857.got.cif
#   From: 2010.05.17/outbox.cif.g08.bks.cpg/sg11_22_cif.got.tgz:42857.got - 2010.06.03 12:22:45.
