data_PCOD9156624
_publ_section_title
;
Structure prediction by ZEFSAII (Michael W. Deem and Ramdas Pophale) SiO2 
 PCOD9156624
Probable space group: P 21/M
;
_chemical_formula_sum "Si O2"
_cell_formula_units_Z 32
_cell_length_a 22.190308
_cell_length_b 8.450190
_cell_length_c 12.189681
_cell_angle_alpha 90.000000
_cell_angle_beta 51.022227
_cell_angle_gamma 90.000000
_cell_volume 1776.892342
_symmetry_space_group_name_H-M "P 21/M"
_symmetry_group_IT_number 11
_symmetry_cell_setting 'monoclinic'
loop_
_space_group_symop_operation_xyz
x,y,z
-x,1/2+y,-z
-x,-y,-z
x,1/2-y,z
loop_
_atom_site_type_symbol
_atom_site_label
_atom_site_fract_x
_atom_site_fract_y
_atom_site_fract_z
Si Si1 0.268372 0.057267 0.856124
Si Si2 0.753850 0.939407 0.641667
Si Si3 0.678788 0.063557 0.525215
Si Si4 0.092865 0.562933 0.657342
Si Si5 0.171283 0.063845 0.770390
Si Si6 0.213211 0.058553 0.151798
Si Si7 0.038246 0.938556 0.343512
Si Si8 0.580734 0.940195 0.454891
O O1 0.267471 0.250000 0.854683
O O2 0.194860 0.006864 0.864993
O O3 0.348311 0.008675 0.706412
O O4 0.259776 0.005445 0.990940
O O5 0.745883 0.750000 0.645340
O O6 0.754144 0.992066 0.767612
O O7 0.688558 0.019343 0.640924
O O8 0.837148 0.985018 0.493202
O O9 0.693046 0.250000 0.494070
O O10 0.747986 0.965502 0.387418
O O11 0.601870 0.012486 0.549393
O O12 0.098519 0.750000 0.636766
O O13 0.107869 0.520511 0.767477
O O14 0.012995 0.501813 0.698594
O O15 0.153983 0.250000 0.793139
O O16 0.212176 0.250000 0.153864
O O17 0.125584 0.999875 0.240099
O O18 0.036583 0.750000 0.345832
O O19 0.000000 0.000000 0.500000
O O20 0.581092 0.750000 0.461319
O O21 0.500000 0.000000 0.500000
#
# Coordination Sequence:
#
# PCOD9156624 Si02
#       8
#     4   4   4   4   4   4   4   4
#     4   8  17  34  55  78 105 137 170 208 254 312
#     4  10  18  29  49  74 102 134 172 215 259 305
#     4  10  18  29  48  75 106 135 170 211 253 300
#     4  11  20  31  49  72 100 131 173 222 267 309
#     4   9  16  30  51  73 100 133 172 215 261 308
#     4  10  20  35  54  75 102 138 175 212 261 313
#     4  12  23  35  50  72 101 134 175 221 267 309
#     4  10  19  34  57  84 111 136 168 208 255 305
#
# _framework density 18.008970000000001
#
# number of rings (size 3 to 8) (size 9 to 14) (size 15 to 20)
#    0.000    2.000    1.250    6.750    0.000    0.500 
#    0.000    4.375    0.000    0.750    0.000    0.000 
#    0.000    0.000    0.000    0.000    0.000    0.000 
#
# Total GULP energy -178504.440292 kJ/mol
# GULP energy per Si atom -5578.263759 kJ/mol
# Density = 1.796798 g / cm^3
# Si number density = 18.008970 Si / 1000 Ang^3
#
#
#
# Elastic Constant Matrix: (Units=GPa)
#
#
# Indices 1 2 3 4 5 6 
#
# 1 165.0338 21.4928 48.2881 0.0000 21.5591 0.0000
# 2 21.4928 35.6480 11.2787 0.0000 6.7139 0.0000
# 3 48.2881 11.2787 61.2909 0.0000 17.6770 0.0000
# 4 0.0000 0.0000 0.0000 4.9620 0.0000 -2.2537
# 5 21.5591 6.7139 17.6770 0.0000 24.5653 0.0000
# 6 0.0000 0.0000 0.0000 -2.2537 0.0000 31.4568
#
#
#
# Elastic Compliance Matrix: (Units=1/GPa)
#
#
# Indices 1 2 3 4 5 6 
#
# 1 0.008322 -0.002841 -0.005239 0.000000 -0.002758 0.000000
# 2 -0.002841 0.031312 -0.002240 0.000000 -0.004453 0.000000
# 3 -0.005239 -0.002240 0.024421 0.000000 -0.012363 0.000000
# 4 0.000000 0.000000 0.000000 0.208309 0.000000 0.014924
# 5 -0.002758 -0.004453 -0.012363 0.000000 0.053242 0.000000
# 6 0.000000 0.000000 0.000000 0.014924 0.000000 0.032859
#
#
# Mechanical properties :
#
#
# Convention : Reuss Voigt Hill
#
# Bulk Modulus (GPa) = 23.03234 47.12133 35.07683
# Shear Modulus (GPa) = 12.70404 24.25770 18.48087
#
# Velocity S-wave (km/s) = 2.65887 3.67410 3.20692
# Velocity P-wave (km/s) = 4.71628 6.64989 5.76473
#
# Compressibility (1/GPa) = 0.04341722
#
# Stress axis : x y z
#
# Youngs Moduli (GPa) = 120.15749 31.93653 40.94870
#
# Poissons Ratio (x) = 0.09073 0.21452
# Poissons Ratio (y) = 0.34135 0.09171
# Poissons Ratio (z) = 0.62947 0.07152
#
# Static dielectric constant tensor:
#      x y z
#    x 1.646860 0.000000 0.039560 
#    y 0.000000 1.603840 0.000000 
#    z 0.039560 0.000000 1.614470 
# 
# From -- ./inp_files/42735.got.cif
#   From: 2010.05.17/outbox.cif.g08.bks.cpg/sg11_22_cif.got.tgz:42735.got - 2010.06.03 12:22:45.
