data_PCOD9156885
_publ_section_title
;
Structure prediction by ZEFSAII (Michael W. Deem and Ramdas Pophale) SiO2 
 PCOD9156885
Probable space group: P 21/M
;
_chemical_formula_sum "Si O2"
_cell_formula_units_Z 28
_cell_length_a 8.358431
_cell_length_b 17.808309
_cell_length_c 15.423819
_cell_angle_alpha 90.000000
_cell_angle_beta 45.720626
_cell_angle_gamma 90.000000
_cell_volume 1643.684598
_symmetry_space_group_name_H-M "P 21/M"
_symmetry_group_IT_number 11
_symmetry_cell_setting 'monoclinic'
loop_
_space_group_symop_operation_xyz
x,y,z
-x,1/2+y,-z
-x,-y,-z
x,1/2-y,z
loop_
_atom_site_type_symbol
_atom_site_label
_atom_site_fract_x
_atom_site_fract_y
_atom_site_fract_z
Si Si1 0.893533 0.939510 0.975391
Si Si2 0.448177 0.557823 0.229041
Si Si3 0.343044 0.569782 0.577344
Si Si4 0.217808 0.839463 0.460063
Si Si5 0.166192 0.028394 0.195501
Si Si6 0.749484 0.833926 0.723717
Si Si7 0.623587 0.101496 0.243318
O O1 0.813256 0.977852 0.915686
O O2 0.110638 0.889908 0.871794
O O3 0.675359 0.906496 0.104346
O O4 0.000000 0.000000 0.000000
O O5 0.313743 0.611998 0.344288
O O6 0.292116 0.531514 0.208046
O O7 0.532250 0.481500 0.247115
O O8 0.500000 0.500000 0.500000
O O9 0.337069 0.628452 0.501171
O O10 0.413384 0.607637 0.640577
O O11 0.096474 0.534364 0.684113
O O12 0.248231 0.750000 0.437087
O O13 0.955175 0.853903 0.581090
O O14 0.257166 0.108540 0.194478
O O15 0.791722 0.750000 0.738545
O O16 0.522199 0.841734 0.756845
#
# Coordination Sequence:
#
# PCOD9156885 Si02
#       7
#     4   4   4   4   4   4   4
#     4   9  18  33  51  80 103 127 168 220 257 292
#     4  10  18  32  53  73 104 135 169 211 246 310
#     4  10  18  30  51  77 105 130 171 217 255 303
#     4  10  21  34  49  74 106 139 166 203 264 318
#     4   9  19  31  53  79  96 135 176 210 257 299
#     4   9  19  34  51  73 105 132 168 215 255 304
#     4   9  18  31  53  78  99 130 174 211 255 292
#
# _framework density 17.034898999999999
#
# number of rings (size 3 to 8) (size 9 to 14) (size 15 to 20)
#    0.000    2.571    1.429    0.429    2.000    2.286 
#    0.000    3.571    0.000    0.000    0.000    0.000 
#    0.000    0.000    0.000    0.000    0.000    0.000 
#
# Total GULP energy -155903.063303 kJ/mol
# GULP energy per Si atom -5567.966547 kJ/mol
# Density = 1.699613 g / cm^3
# Si number density = 17.034899 Si / 1000 Ang^3
#
#
#
# Elastic Constant Matrix: (Units=GPa)
#
#
# Indices 1 2 3 4 5 6 
#
# 1 102.8037 11.7305 31.5106 0.0000 17.4462 0.0000
# 2 11.7305 43.0809 24.0972 0.0000 5.1552 0.0000
# 3 31.5106 24.0972 61.9239 0.0000 24.8645 0.0000
# 4 0.0000 0.0000 0.0000 12.9668 0.0000 -0.7832
# 5 17.4462 5.1552 24.8645 0.0000 22.5314 0.0000
# 6 0.0000 0.0000 0.0000 -0.7832 0.0000 14.3221
#
#
#
# Elastic Compliance Matrix: (Units=1/GPa)
#
#
# Indices 1 2 3 4 5 6 
#
# 1 0.011779 -0.000439 -0.003953 0.000000 -0.004658 0.000000
# 2 -0.000439 0.031193 -0.016495 0.000000 0.011406 0.000000
# 3 -0.003953 -0.016495 0.039209 0.000000 -0.036434 0.000000
# 4 0.000000 0.000000 0.000000 0.077375 0.000000 0.004231
# 5 -0.004658 0.011406 -0.036434 0.000000 0.085587 0.000000
# 6 0.000000 0.000000 0.000000 0.004231 0.000000 0.070053
#
#
# Mechanical properties :
#
#
# Convention : Reuss Voigt Hill
#
# Bulk Modulus (GPa) = 24.74784 38.05389 31.40087
# Shear Modulus (GPa) = 13.49745 19.32875 16.41310
#
# Velocity S-wave (km/s) = 2.81791 3.37212 3.10739
# Velocity P-wave (km/s) = 5.01465 6.12771 5.59891
#
# Compressibility (1/GPa) = 0.04040757
#
# Stress axis : x y z
#
# Youngs Moduli (GPa) = 84.89330 32.05809 25.50451
#
# Poissons Ratio (x) = 0.01407 0.10081
# Poissons Ratio (y) = 0.03727 0.42070
# Poissons Ratio (z) = 0.33557 0.52881
#
# Static dielectric constant tensor:
#      x y z
#    x 1.586350 0.000000 -0.009730 
#    y 0.000000 1.565560 0.000000 
#    z -0.009730 0.000000 1.600960 
# 
# From -- ./inp_files/47980.got.cif
#   From: 2010.05.17/outbox.cif.g08.bks.cpg/sg11_24_cif.got.tgz:47980.got - 2010.06.03 12:22:45.
