data_PCOD9156362
_publ_section_title
;
Structure prediction by ZEFSAII (Michael W. Deem and Ramdas Pophale) SiO2 
 PCOD9156362
Probable space group: P 21/M
;
_chemical_formula_sum "Si O2"
_cell_formula_units_Z 32
_cell_length_a 21.242960
_cell_length_b 7.680868
_cell_length_c 12.669294
_cell_angle_alpha 90.000000
_cell_angle_beta 36.327771
_cell_angle_gamma 90.000000
_cell_volume 1224.603618
_symmetry_space_group_name_H-M "P 21/M"
_symmetry_group_IT_number 11
_symmetry_cell_setting 'monoclinic'
loop_
_space_group_symop_operation_xyz
x,y,z
-x,1/2+y,-z
-x,-y,-z
x,1/2-y,z
loop_
_atom_site_type_symbol
_atom_site_label
_atom_site_fract_x
_atom_site_fract_y
_atom_site_fract_z
Si Si1 0.757232 0.535835 0.031222
Si Si2 0.008330 0.440618 0.868501
Si Si3 0.520312 0.953726 0.305382
Si Si4 0.786609 0.451341 0.672395
Si Si5 0.303724 0.450686 0.660171
Si Si6 0.976753 0.552624 0.682756
Si Si7 0.437117 0.542306 0.977833
Si Si8 0.742410 0.553540 0.501487
O O1 0.759266 0.750000 0.025171
O O2 0.640127 0.477855 0.155421
O O3 0.755885 0.482279 0.156846
O O4 0.858827 0.473621 0.825674
O O5 0.958639 0.250000 0.923819
O O6 0.132711 0.422983 0.682288
O O7 0.976192 0.556626 0.811918
O O8 0.000000 0.500000 0.000000
O O9 0.519249 0.750000 0.332300
O O10 0.430978 0.044168 0.496910
O O11 0.497789 0.979204 0.211322
O O12 0.798144 0.250000 0.686917
O O13 0.683805 0.533769 0.867745
O O14 0.739867 0.456137 0.615546
O O15 0.908361 0.525465 0.507172
O O16 0.268798 0.250000 0.695284
O O17 0.286463 0.536395 0.569988
O O18 0.975241 0.750000 0.644287
O O19 0.427286 0.750000 0.985703
O O20 0.500000 0.500000 0.000000
O O21 0.693893 0.750000 0.578100
#
# Coordination Sequence:
#
# PCOD9156362 Si02
#       8
#     4   4   4   4   4   4   4   4
#     4   9  19  36  58  80 108 147 189 225 270 328
#     4  10  18  28  43  69 103 139 177 218 261 313
#     4  11  23  38  56  82 111 144 185 228 272 328
#     4   9  19  34  55  81 109 139 178 226 274 318
#     4  10  19  34  55  79 108 147 187 228 274 322
#     4   9  17  34  56  76 102 140 181 225 270 318
#     4  11  23  40  61  87 114 142 176 222 277 331
#     4   9  18  30  48  74 105 138 174 214 265 322
#
# _framework density 26.130903
#
# number of rings (size 3 to 8) (size 9 to 14) (size 15 to 20)
#    0.000    2.250    0.000    3.000    0.000    6.000 
#    0.000    4.375    0.000    0.000    0.000    0.000 
#    0.000    0.000    0.000    0.000    0.000    0.000 
#
# Total GULP energy -178582.986673 kJ/mol
# GULP energy per Si atom -5580.718334 kJ/mol
# Density = 2.607143 g / cm^3
# Si number density = 26.130903 Si / 1000 Ang^3
#
#
#
# Elastic Constant Matrix: (Units=GPa)
#
#
# Indices 1 2 3 4 5 6 
#
# 1 56.3271 4.1471 24.1207 0.0000 -6.6770 0.0000
# 2 4.1471 75.3211 0.5166 0.0000 2.3665 0.0000
# 3 24.1207 0.5166 179.5071 0.0000 -15.3118 0.0000
# 4 0.0000 0.0000 0.0000 13.3523 0.0000 -6.1053
# 5 -6.6770 2.3665 -15.3118 0.0000 46.5490 0.0000
# 6 0.0000 0.0000 0.0000 -6.1053 0.0000 18.0961
#
#
#
# Elastic Compliance Matrix: (Units=1/GPa)
#
#
# Indices 1 2 3 4 5 6 
#
# 1 0.019097 -0.001098 -0.002392 0.000000 0.002008 0.000000
# 2 -0.001098 0.013363 0.000039 0.000000 -0.000824 0.000000
# 3 -0.002392 0.000039 0.006032 0.000000 0.001639 0.000000
# 4 0.000000 0.000000 0.000000 0.088555 0.000000 0.029877
# 5 0.002008 -0.000824 0.001639 0.000000 0.022352 0.000000
# 6 0.000000 0.000000 0.000000 0.029877 0.000000 0.065340
#
#
# Mechanical properties :
#
#
# Convention : Reuss Voigt Hill
#
# Bulk Modulus (GPa) = 31.65641 40.96935 36.31288
# Shear Modulus (GPa) = 21.53599 34.42420 27.98010
#
# Velocity S-wave (km/s) = 2.87393 3.63350 3.27581
# Velocity P-wave (km/s) = 4.81181 5.77197 5.31362
#
# Compressibility (1/GPa) = 0.03158917
#
# Stress axis : x y z
#
# Youngs Moduli (GPa) = 52.36560 74.83585 165.78604
#
# Poissons Ratio (x) = 0.08218 0.39649
# Poissons Ratio (y) = 0.05750 -0.00643
# Poissons Ratio (z) = 0.12524 -0.00290
#
# Static dielectric constant tensor:
#      x y z
#    x 2.298240 0.000000 0.011160 
#    y 0.000000 2.015200 0.000000 
#    z 0.011160 0.000000 2.103030 
# 
# From -- ./inp_files/55565.got.cif
#   From: 2010.05.17/outbox.cif.g08.bks.cpg/sg11_28_cif.got.tgz:55565.got - 2010.06.03 12:22:45.
