data_PCOD9156437
_publ_section_title
;
Structure prediction by ZEFSAII (Michael W. Deem and Ramdas Pophale) SiO2 
 PCOD9156437
Probable space group: P 21/M
;
_chemical_formula_sum "Si O2"
_cell_formula_units_Z 32
_cell_length_a 7.030933
_cell_length_b 22.703662
_cell_length_c 7.828501
_cell_angle_alpha 90.000000
_cell_angle_beta 100.144505
_cell_angle_gamma 90.000000
_cell_volume 1230.111226
_symmetry_space_group_name_H-M "P 21/M"
_symmetry_group_IT_number 11
_symmetry_cell_setting 'monoclinic'
loop_
_space_group_symop_operation_xyz
x,y,z
-x,1/2+y,-z
-x,-y,-z
x,1/2-y,z
loop_
_atom_site_type_symbol
_atom_site_label
_atom_site_fract_x
_atom_site_fract_y
_atom_site_fract_z
Si Si1 0.273617 0.684938 0.707572
Si Si2 0.353353 0.315488 0.587877
Si Si3 0.606970 0.437468 0.178558
Si Si4 0.564561 0.935710 0.227280
Si Si5 0.145659 0.358524 0.252980
Si Si6 0.032346 0.419138 0.887235
Si Si7 0.033854 0.024186 0.316864
Si Si8 0.078745 0.812528 0.314805
O O1 0.342799 0.750000 0.768941
O O2 0.410886 0.629238 0.760898
O O3 0.063007 0.673185 0.761085
O O4 0.217793 0.684850 0.498995
O O5 0.437811 0.250000 0.639512
O O6 0.461989 0.374866 0.671183
O O7 0.295976 0.317933 0.378126
O O8 0.141562 0.315619 0.647647
O O9 0.532961 0.494769 0.274253
O O10 0.837100 0.446725 0.217182
O O11 0.538046 0.435770 0.973503
O O12 0.791416 0.932918 0.212714
O O13 0.166767 0.419164 0.364802
O O14 0.139704 0.389270 0.065729
O O15 0.910235 0.478730 0.825313
O O16 0.896141 0.367605 0.800874
O O17 0.000000 0.000000 0.500000
O O18 0.099186 0.750000 0.228012
#
# Coordination Sequence:
#
# PCOD9156437 Si02
#       8
#     4   4   4   4   4   4   4   4
#     4   9  17  30  48  70  96 129 168 205 245 297
#     4   9  17  30  47  67  93 129 170 204 240 295
#     4   9  17  30  51  72  94 125 168 211 243 283
#     4   9  18  32  49  70  96 128 166 206 244 294
#     4  10  18  28  46  72  98 122 154 201 251 293
#     4  10  18  28  46  72 100 124 153 198 250 297
#     4  10  18  31  51  72  95 126 162 200 243 295
#     4   8  15  27  43  65  90 118 155 193 233 284
#
# _framework density 26.013905999999999
#
# number of rings (size 3 to 8) (size 9 to 14) (size 15 to 20)
#    0.000    2.750    0.000    5.250    0.000    1.500 
#    0.000    0.000    0.000   18.000    0.000    3.500 
#    0.000    0.000    0.000    0.000    0.000    0.000 
#
# Total GULP energy -178350.718146 kJ/mol
# GULP energy per Si atom -5573.459942 kJ/mol
# Density = 2.595470 g / cm^3
# Si number density = 26.013906 Si / 1000 Ang^3
#
#
#
# Elastic Constant Matrix: (Units=GPa)
#
#
# Indices 1 2 3 4 5 6 
#
# 1 65.2579 17.7841 3.6602 0.0000 6.9749 0.0000
# 2 17.7841 259.7510 59.4573 0.0000 8.7967 0.0000
# 3 3.6602 59.4573 106.1401 0.0000 16.6544 0.0000
# 4 0.0000 0.0000 0.0000 19.7193 0.0000 6.7298
# 5 6.9749 8.7967 16.6544 0.0000 28.4400 0.0000
# 6 0.0000 0.0000 0.0000 6.7298 0.0000 12.4363
#
#
#
# Elastic Compliance Matrix: (Units=1/GPa)
#
#
# Indices 1 2 3 4 5 6 
#
# 1 0.016017 -0.001122 0.000703 0.000000 -0.003993 0.000000
# 2 -0.001122 0.004495 -0.002537 0.000000 0.000371 0.000000
# 3 0.000703 -0.002537 0.011808 0.000000 -0.006302 0.000000
# 4 0.000000 0.000000 0.000000 0.062199 0.000000 -0.033659
# 5 -0.003993 0.000371 -0.006302 0.000000 0.039717 0.000000
# 6 0.000000 0.000000 0.000000 -0.033659 0.000000 0.098624
#
#
# Mechanical properties :
#
#
# Convention : Reuss Voigt Hill
#
# Bulk Modulus (GPa) = 37.87075 65.88357 51.87716
# Shear Modulus (GPa) = 20.19592 35.46895 27.83244
#
# Velocity S-wave (km/s) = 2.78933 3.69651 3.27449
# Velocity P-wave (km/s) = 4.99633 6.60305 5.85506
#
# Compressibility (1/GPa) = 0.02640561
#
# Stress axis : x y z
#
# Youngs Moduli (GPa) = 62.43379 222.47209 84.69172
#
# Poissons Ratio (x) = 0.24968 -0.05952
# Poissons Ratio (y) = 0.07007 0.21490
# Poissons Ratio (z) = -0.04388 0.56451
#
# Static dielectric constant tensor:
#      x y z
#    x 2.158090 0.000000 -0.056900 
#    y 0.000000 2.140230 0.000000 
#    z -0.056900 0.000000 2.042640 
# 
# From -- ./inp_files/19578.got.cif
#   From: 2010.05.17/outbox.cif.g08.bks.cpg/sg11_10_cif.got.tgz:19578.got - 2010.06.03 12:22:45.
