data_PCOD9156998
_publ_section_title
;
Structure prediction by ZEFSAII (Michael W. Deem and Ramdas Pophale) SiO2 
 PCOD9156998
Probable space group: P 21/M
;
_chemical_formula_sum "Si O2"
_cell_formula_units_Z 32
_cell_length_a 13.160213
_cell_length_b 9.901580
_cell_length_c 23.510291
_cell_angle_alpha 90.000000
_cell_angle_beta 32.899234
_cell_angle_gamma 90.000000
_cell_volume 1664.009426
_symmetry_space_group_name_H-M "P 21/M"
_symmetry_group_IT_number 11
_symmetry_cell_setting 'monoclinic'
loop_
_space_group_symop_operation_xyz
x,y,z
-x,1/2+y,-z
-x,-y,-z
x,1/2-y,z
loop_
_atom_site_type_symbol
_atom_site_label
_atom_site_fract_x
_atom_site_fract_y
_atom_site_fract_z
Si Si1 0.969749 0.087837 0.070695
Si Si2 0.786082 0.591931 0.935097
Si Si3 0.023559 0.090658 0.269049
Si Si4 0.249386 0.405388 0.531417
Si Si5 0.453096 0.098147 0.103223
Si Si6 0.560915 0.411971 0.300680
Si Si7 0.941874 0.098761 0.577253
Si Si8 0.622701 0.596867 0.736050
O O1 0.958391 0.250000 0.063102
O O2 0.775145 0.046620 0.192676
O O3 0.131063 0.067471 0.041385
O O4 0.000000 0.000000 0.000000
O O5 0.740165 0.750000 0.952461
O O6 0.943311 0.565406 0.813374
O O7 0.602439 0.505598 0.009018
O O8 0.983296 0.250000 0.297373
O O9 0.232724 0.066307 0.196960
O O10 0.859562 0.999801 0.372744
O O11 0.277868 0.250000 0.538659
O O12 0.437561 0.461610 0.412207
O O13 0.104715 0.396797 0.546749
O O14 0.480178 0.250000 0.067694
O O15 0.496756 0.103792 0.150528
O O16 0.558258 0.250000 0.309045
O O17 0.468907 0.435679 0.281643
O O18 0.901859 0.250000 0.576521
O O19 0.761618 0.024025 0.685200
O O20 0.000000 0.000000 0.500000
O O21 0.706689 0.750000 0.690816
#
# Coordination Sequence:
#
# PCOD9156998 Si02
#       8
#     4   4   4   4   4   4   4   4
#     4  10  21  40  64  85 110 143 180 226 277 328
#     4  10  22  38  57  82 111 143 183 233 282 325
#     4  10  21  37  55  79 113 149 184 225 277 330
#     4  10  20  34  53  78 108 147 190 225 265 324
#     4  10  20  33  55  82 110 150 188 222 272 333
#     4   9  18  34  55  78 108 145 183 221 268 326
#     4  11  20  30  47  73 108 146 181 219 267 322
#     4  10  18  31  50  76 108 142 181 220 265 323
#
# _framework density 19.23066
#
# number of rings (size 3 to 8) (size 9 to 14) (size 15 to 20)
#    0.000    2.000    2.500    1.500    0.000    3.500 
#    0.000    1.875    0.000    0.000    0.000    0.000 
#    0.000    0.000    0.000    0.000    0.000    0.000 
#
# Total GULP energy -178271.621892 kJ/mol
# GULP energy per Si atom -5570.988184 kJ/mol
# Density = 1.918689 g / cm^3
# Si number density = 19.230660 Si / 1000 Ang^3
#
#
#
# Elastic Constant Matrix: (Units=GPa)
#
#
# Indices 1 2 3 4 5 6 
#
# 1 50.7225 35.1139 35.4191 0.0000 12.3907 0.0000
# 2 35.1139 85.7467 61.1076 0.0000 4.3075 0.0000
# 3 35.4191 61.1076 117.5265 0.0000 2.0289 0.0000
# 4 0.0000 0.0000 0.0000 32.2793 0.0000 3.6139
# 5 12.3907 4.3075 2.0289 0.0000 29.8457 0.0000
# 6 0.0000 0.0000 0.0000 3.6139 0.0000 15.6866
#
#
#
# Elastic Compliance Matrix: (Units=1/GPa)
#
#
# Indices 1 2 3 4 5 6 
#
# 1 0.032296 -0.009283 -0.004703 0.000000 -0.011748 0.000000
# 2 -0.009283 0.021319 -0.008310 0.000000 0.001342 0.000000
# 3 -0.004703 -0.008310 0.014209 0.000000 0.002186 0.000000
# 4 0.000000 0.000000 0.000000 0.031800 0.000000 -0.007326
# 5 -0.011748 0.001342 0.002186 0.000000 0.038041 0.000000
# 6 0.000000 0.000000 0.000000 -0.007326 0.000000 0.065437
#
#
# Mechanical properties :
#
#
# Convention : Reuss Voigt Hill
#
# Bulk Modulus (GPa) = 43.04718 57.47522 50.26120
# Shear Modulus (GPa) = 19.57422 23.71932 21.64677
#
# Velocity S-wave (km/s) = 3.19386 3.51581 3.35869
# Velocity P-wave (km/s) = 6.00285 6.81420 6.42136
#
# Compressibility (1/GPa) = 0.02323033
#
# Stress axis : x y z
#
# Youngs Moduli (GPa) = 30.96349 46.90752 70.37695
#
# Poissons Ratio (x) = 0.43546 0.33101
# Poissons Ratio (y) = 0.28745 0.58483
# Poissons Ratio (z) = 0.14563 0.38980
#
# Static dielectric constant tensor:
#      x y z
#    x 1.716900 0.000000 0.029940 
#    y 0.000000 1.700100 0.000000 
#    z 0.029940 0.000000 1.801190 
# 
# From -- ./inp_files/69014.got.cif
#   From: 2010.05.17/outbox.cif.g08.bks.cpg/sg11_35_cif.got.tgz:69014.got - 2010.06.03 12:22:45.
