data_PCOD9156862
_publ_section_title
;
Structure prediction by ZEFSAII (Michael W. Deem and Ramdas Pophale) SiO2 
 PCOD9156862
Probable space group: P 21/M
;
_chemical_formula_sum "Si O2"
_cell_formula_units_Z 28
_cell_length_a 15.585920
_cell_length_b 8.192286
_cell_length_c 12.331957
_cell_angle_alpha 90.000000
_cell_angle_beta 118.457644
_cell_angle_gamma 90.000000
_cell_volume 1384.338250
_symmetry_space_group_name_H-M "P 21/M"
_symmetry_group_IT_number 11
_symmetry_cell_setting 'monoclinic'
loop_
_space_group_symop_operation_xyz
x,y,z
-x,1/2+y,-z
-x,-y,-z
x,1/2-y,z
loop_
_atom_site_type_symbol
_atom_site_label
_atom_site_fract_x
_atom_site_fract_y
_atom_site_fract_z
Si Si1 0.886710 0.555660 0.917694
Si Si2 0.504207 0.446102 0.875474
Si Si3 0.801635 0.448261 0.246651
Si Si4 0.682696 0.444846 0.375028
Si Si5 0.803758 0.947068 0.637143
Si Si6 0.988272 0.553797 0.615825
Si Si7 0.717396 0.053157 0.975848
O O1 0.892775 0.750000 0.913723
O O2 0.831960 0.495122 0.774688
O O3 0.810233 0.510228 0.965805
O O4 0.000000 0.500000 0.000000
O O5 0.502024 0.250000 0.875697
O O6 0.416354 0.507019 0.746440
O O7 0.607299 0.499261 0.882912
O O8 0.500000 0.500000 0.000000
O O9 0.802866 0.250000 0.254145
O O10 0.766563 0.509483 0.342136
O O11 0.908649 0.499748 0.272845
O O12 0.728715 0.495208 0.108484
O O13 0.687347 0.250000 0.380666
O O14 0.707672 0.504524 0.511221
O O15 0.804273 0.750000 0.640285
O O16 0.894292 0.011073 0.619454
O O17 0.982791 0.750000 0.617232
O O18 0.000000 0.500000 0.500000
O O19 0.721728 0.250000 0.971909
#
# Coordination Sequence:
#
# PCOD9156862 Si02
#       7
#     4   4   4   4   4   4   4
#     4  11  24  43  66  91 122 162 209 256 303 365
#     4  11  22  38  62  92 127 164 203 253 311 368
#     4   9  17  32  53  81 118 154 187 237 303 358
#     4  11  21  36  59  88 122 159 200 247 303 368
#     4  10  22  39  58  83 120 161 199 252 309 359
#     4  10  18  30  50  77 111 148 185 231 292 357
#     4  10  21  40  63  87 120 160 203 254 309 359
#
# _framework density 20.226268999999998
#
# number of rings (size 3 to 8) (size 9 to 14) (size 15 to 20)
#    0.000    1.714    2.857    2.143    0.000    4.571 
#    0.000    2.857    0.000    0.000    0.000    0.000 
#    0.000    0.000    0.000    0.000    0.000    0.000 
#
# Total GULP energy -156042.865141 kJ/mol
# GULP energy per Si atom -5572.959469 kJ/mol
# Density = 2.018023 g / cm^3
# Si number density = 20.226269 Si / 1000 Ang^3
#
#
#
# Elastic Constant Matrix: (Units=GPa)
#
#
# Indices 1 2 3 4 5 6 
#
# 1 88.5000 11.1208 47.0244 0.0000 12.1941 0.0000
# 2 11.1208 32.2010 19.3453 0.0000 3.1180 0.0000
# 3 47.0244 19.3453 147.5329 0.0000 13.1404 0.0000
# 4 0.0000 0.0000 0.0000 27.6048 0.0000 1.8695
# 5 12.1941 3.1180 13.1404 0.0000 34.2643 0.0000
# 6 0.0000 0.0000 0.0000 1.8695 0.0000 24.3282
#
#
#
# Elastic Compliance Matrix: (Units=1/GPa)
#
#
# Indices 1 2 3 4 5 6 
#
# 1 0.014113 -0.002201 -0.003914 0.000000 -0.003321 0.000000
# 2 -0.002201 0.034121 -0.003692 0.000000 -0.000906 0.000000
# 3 -0.003914 -0.003692 0.008651 0.000000 -0.001589 0.000000
# 4 0.000000 0.000000 0.000000 0.036415 0.000000 -0.002798
# 5 -0.003321 -0.000906 -0.001589 0.000000 0.031059 0.000000
# 6 0.000000 0.000000 0.000000 -0.002798 0.000000 0.041320
#
#
# Mechanical properties :
#
#
# Convention : Reuss Voigt Hill
#
# Bulk Modulus (GPa) = 26.83017 47.02387 36.92702
# Shear Modulus (GPa) = 25.28873 29.95569 27.62221
#
# Velocity S-wave (km/s) = 3.53978 3.85259 3.69949
# Velocity P-wave (km/s) = 5.47728 6.56424 6.04524
#
# Compressibility (1/GPa) = 0.03727147
#
# Stress axis : x y z
#
# Youngs Moduli (GPa) = 70.85473 29.30773 115.58937
#
# Poissons Ratio (x) = 0.06451 0.45242
# Poissons Ratio (y) = 0.15596 0.42674
# Poissons Ratio (z) = 0.27733 0.10820
#
# Static dielectric constant tensor:
#      x y z
#    x 1.728400 0.000000 0.039300 
#    y 0.000000 1.708040 0.000000 
#    z 0.039300 0.000000 1.777420 
# 
# From -- ./inp_files/38493.got.cif
#   From: 2010.05.17/outbox.cif.g08.bks.cpg/sg11_20_cif.got.tgz:38493.got - 2010.06.03 12:22:45.
