data_PCOD9156881
_publ_section_title
;
Structure prediction by ZEFSAII (Michael W. Deem and Ramdas Pophale) SiO2 
 PCOD9156881
Probable space group: P 21/M
;
_chemical_formula_sum "Si O2"
_cell_formula_units_Z 24
_cell_length_a 15.948139
_cell_length_b 16.246426
_cell_length_c 10.240057
_cell_angle_alpha 90.000000
_cell_angle_beta 150.565895
_cell_angle_gamma 90.000000
_cell_volume 1303.842222
_symmetry_space_group_name_H-M "P 21/M"
_symmetry_group_IT_number 11
_symmetry_cell_setting 'monoclinic'
loop_
_space_group_symop_operation_xyz
x,y,z
-x,1/2+y,-z
-x,-y,-z
x,1/2-y,z
loop_
_atom_site_type_symbol
_atom_site_label
_atom_site_fract_x
_atom_site_fract_y
_atom_site_fract_z
Si Si1 0.138131 0.581074 0.045151
Si Si2 0.727201 0.250000 0.811929
Si Si3 0.608883 0.750000 0.196420
Si Si4 0.231111 0.418926 0.324090
Si Si5 0.642473 0.750000 0.557747
Si Si6 0.523373 0.078174 0.939379
Si Si7 0.021345 0.250000 0.433808
Si Si8 0.107367 0.921826 0.691361
O O1 0.135964 0.571795 0.885991
O O2 0.944529 0.590493 0.833589
O O3 0.240635 0.664442 0.218441
O O4 0.215139 0.500000 0.215139
O O5 0.543703 0.250000 0.631107
O O6 0.874641 0.250000 0.123116
O O7 0.626168 0.750000 0.377694
O O8 0.514351 0.664506 0.038447
O O9 0.794691 0.750000 0.384071
O O10 0.262831 0.335558 0.285025
O O11 0.385938 0.428205 0.635910
O O12 0.711327 0.080623 0.133982
O O13 0.500000 0.000000 0.000000
O O14 0.990255 0.335494 0.466160
O O15 0.000000 0.000000 0.500000
#
# Coordination Sequence:
#
# PCOD9156881 Si02
#       8
#     4   2   2   4   2   4   2   4
#     4  10  20  35  55  78 105 137 174 215 259 307
#     4  10  18  30  51  76 103 136 173 211 253 307
#     4  10  18  32  53  76 103 136 175 213 255 309
#     4  10  20  35  55  78 105 137 174 215 259 307
#     4  10  18  30  51  76 103 136 173 211 253 307
#     4  11  21  35  55  79 107 138 175 216 260 309
#     4  10  18  32  53  76 103 136 175 213 255 309
#     4  11  21  35  55  79 107 138 175 216 260 309
#
# _framework density 18.407135
#
# number of rings (size 3 to 8) (size 9 to 14) (size 15 to 20)
#    0.000    1.667    0.000   11.000    0.000    2.667 
#    0.000    1.667    0.000    6.000    0.000    0.000 
#    0.000    0.000    0.000    0.000    0.000    0.000 
#
# Total GULP energy -133963.624579 kJ/mol
# GULP energy per Si atom -5581.817691 kJ/mol
# Density = 1.836524 g / cm^3
# Si number density = 18.407135 Si / 1000 Ang^3
#
#
#
# Elastic Constant Matrix: (Units=GPa)
#
#
# Indices 1 2 3 4 5 6 
#
# 1 84.4985 75.5121 45.4300 0.0000 37.8939 0.0000
# 2 75.5121 226.2574 78.0804 0.0000 31.3078 0.0000
# 3 45.4300 78.0804 90.8190 0.0000 39.1472 0.0000
# 4 0.0000 0.0000 0.0000 33.1100 0.0000 3.9318
# 5 37.8939 31.3078 39.1472 0.0000 36.3683 0.0000
# 6 0.0000 0.0000 0.0000 3.9318 0.0000 32.7882
#
#
#
# Elastic Compliance Matrix: (Units=1/GPa)
#
#
# Indices 1 2 3 4 5 6 
#
# 1 0.028439 -0.006921 0.003599 0.000000 -0.027547 0.000000
# 2 -0.006921 0.007980 -0.006615 0.000000 0.007463 0.000000
# 3 0.003599 -0.006615 0.026230 0.000000 -0.026289 0.000000
# 4 0.000000 0.000000 0.000000 0.030639 0.000000 -0.003674
# 5 -0.027547 0.007463 -0.026289 0.000000 0.078073 0.000000
# 6 0.000000 0.000000 0.000000 -0.003674 0.000000 0.030939
#
#
# Mechanical properties :
#
#
# Convention : Reuss Voigt Hill
#
# Bulk Modulus (GPa) = 23.37916 88.84666 56.11291
# Shear Modulus (GPa) = 21.14770 33.95680 27.55225
#
# Velocity S-wave (km/s) = 3.39320 4.29973 3.87308
# Velocity P-wave (km/s) = 5.29910 8.54532 7.10996
#
# Compressibility (1/GPa) = 0.04277313
#
# Stress axis : x y z
#
# Youngs Moduli (GPa) = 35.16341 125.31376 38.12449
#
# Poissons Ratio (x) = 0.86735 -0.13721
# Poissons Ratio (y) = 0.24338 0.25220
# Poissons Ratio (z) = -0.12655 0.82898
#
# Static dielectric constant tensor:
#      x y z
#    x 1.619020 0.000000 -0.006430 
#    y 0.000000 1.701190 0.000000 
#    z -0.006430 0.000000 1.618490 
# 
# From -- ./inp_files/35614.got.cif
#   From: 2010.05.17/outbox.cif.g08.bks.cpg/sg11_18_cif.got.tgz:35614.got - 2010.06.03 12:22:45.
