data_PCOD9156837
_publ_section_title
;
Structure prediction by ZEFSAII (Michael W. Deem and Ramdas Pophale) SiO2 
 PCOD9156837
Probable space group: P 21/M
;
_chemical_formula_sum "Si O2"
_cell_formula_units_Z 32
_cell_length_a 29.190505
_cell_length_b 8.145347
_cell_length_c 22.871358
_cell_angle_alpha 90.000000
_cell_angle_beta 18.404979
_cell_angle_gamma 90.000000
_cell_volume 1716.963465
_symmetry_space_group_name_H-M "P 21/M"
_symmetry_group_IT_number 11
_symmetry_cell_setting 'monoclinic'
loop_
_space_group_symop_operation_xyz
x,y,z
-x,1/2+y,-z
-x,-y,-z
x,1/2-y,z
loop_
_atom_site_type_symbol
_atom_site_label
_atom_site_fract_x
_atom_site_fract_y
_atom_site_fract_z
Si Si1 0.896571 0.552986 0.677802
Si Si2 0.437818 0.951542 0.776026
Si Si3 0.856955 0.445037 0.933210
Si Si4 0.070607 0.945815 0.580476
Si Si5 0.298983 0.446062 0.770823
Si Si6 0.430420 0.946415 0.917152
Si Si7 0.599581 0.946637 0.825236
Si Si8 0.408343 0.058024 0.521099
O O1 0.887369 0.750000 0.690272
O O2 0.000000 0.500000 0.500000
O O3 0.968777 0.493371 0.650814
O O4 0.736122 0.482529 0.865633
O O5 0.438256 0.750000 0.775439
O O6 0.457458 0.009089 0.818542
O O7 0.559974 0.010249 0.581869
O O8 0.280458 0.001918 0.940518
O O9 0.846088 0.250000 0.951588
O O10 0.002950 0.489749 0.722651
O O11 0.834691 0.519052 0.024586
O O12 0.062869 0.750000 0.590532
O O13 0.235149 0.996658 0.369636
O O14 0.327440 0.250000 0.736485
O O15 0.435249 0.536199 0.636497
O O16 0.297185 0.503905 0.705384
O O17 0.449715 0.750000 0.891529
O O18 0.531637 0.010607 0.846536
O O19 0.598040 0.750000 0.825596
O O20 0.500000 0.000000 0.000000
O O21 0.376355 0.250000 0.551895
#
# Coordination Sequence:
#
# PCOD9156837 Si02
#       8
#     4   4   4   4   4   4   4   4
#     4  11  23  36  54  79 104 131 167 209 259 315
#     4   8  14  27  48  72  99 131 168 209 252 302
#     4  10  18  30  50  73 101 137 173 210 259 310
#     4  11  23  38  55  78 106 136 173 216 262 311
#     4   9  15  23  38  64 101 136 169 209 249 298
#     4  10  20  36  56  78 103 134 172 214 259 308
#     4  11  24  40  58  78 103 137 176 216 262 313
#     4   8  14  24  39  63  96 137 174 203 249 305
#
# _framework density 18.637553
#
# number of rings (size 3 to 8) (size 9 to 14) (size 15 to 20)
#    0.000    2.250    1.250    3.375    0.000    6.000 
#    0.000    0.000    0.000    0.000    0.000    0.875 
#    0.000    0.000    0.000    0.000    0.000    0.000 
#
# Total GULP energy -178390.135731 kJ/mol
# GULP energy per Si atom -5574.691742 kJ/mol
# Density = 1.859513 g / cm^3
# Si number density = 18.637553 Si / 1000 Ang^3
#
#
#
# Elastic Constant Matrix: (Units=GPa)
#
#
# Indices 1 2 3 4 5 6 
#
# 1 40.0775 2.2065 6.8531 0.0000 20.1186 0.0000
# 2 2.2065 18.8677 -0.0062 0.0000 0.9306 0.0000
# 3 6.8531 -0.0062 57.2102 0.0000 23.9600 0.0000
# 4 0.0000 0.0000 0.0000 24.8253 0.0000 4.2391
# 5 20.1186 0.9306 23.9600 0.0000 42.9336 0.0000
# 6 0.0000 0.0000 0.0000 4.2391 0.0000 17.2461
#
#
#
# Elastic Compliance Matrix: (Units=1/GPa)
#
#
# Indices 1 2 3 4 5 6 
#
# 1 0.033270 -0.003034 0.003284 0.000000 -0.017357 0.000000
# 2 -0.003034 0.053352 0.000337 0.000000 0.000077 0.000000
# 3 0.003284 0.000337 0.023143 0.000000 -0.014461 0.000000
# 4 0.000000 0.000000 0.000000 0.042046 0.000000 -0.010335
# 5 -0.017357 0.000077 -0.014461 0.000000 0.039494 0.000000
# 6 0.000000 0.000000 0.000000 -0.010335 0.000000 0.060525
#
#
# Mechanical properties :
#
#
# Convention : Reuss Voigt Hill
#
# Bulk Modulus (GPa) = 9.01404 14.91803 11.96604
# Shear Modulus (GPa) = 17.38310 24.14111 20.76211
#
# Velocity S-wave (km/s) = 3.05731 3.60292 3.34127
# Velocity P-wave (km/s) = 4.16052 5.03287 4.61734
#
# Compressibility (1/GPa) = 0.11093802
#
# Stress axis : x y z
#
# Youngs Moduli (GPa) = 30.05674 18.74351 43.21047
#
# Poissons Ratio (x) = 0.05686 -0.14189
# Poissons Ratio (y) = 0.09118 -0.01455
# Poissons Ratio (z) = -0.09869 -0.00631
#
# Static dielectric constant tensor:
#      x y z
#    x 1.682840 0.000000 0.041750 
#    y 0.000000 1.656280 0.000000 
#    z 0.041750 0.000000 1.641660 
# 
# From -- ./inp_files/66975.got.cif
#   From: 2010.05.17/outbox.cif.g08.bks.cpg/sg11_34_cif.got.tgz:66975.got - 2010.06.03 12:22:45.
