data_PCOD9156053
_publ_section_title
;
Structure prediction by ZEFSAII (Michael W. Deem and Ramdas Pophale) SiO2 
 PCOD9156053
Probable space group: P 21/M
;
_chemical_formula_sum "Si O2"
_cell_formula_units_Z 28
_cell_length_a 19.911537
_cell_length_b 7.400954
_cell_length_c 25.648641
_cell_angle_alpha 90.000000
_cell_angle_beta 21.264548
_cell_angle_gamma 90.000000
_cell_volume 1370.799942
_symmetry_space_group_name_H-M "P 21/M"
_symmetry_group_IT_number 11
_symmetry_cell_setting 'monoclinic'
loop_
_space_group_symop_operation_xyz
x,y,z
-x,1/2+y,-z
-x,-y,-z
x,1/2-y,z
loop_
_atom_site_type_symbol
_atom_site_label
_atom_site_fract_x
_atom_site_fract_y
_atom_site_fract_z
Si Si1 0.131057 0.034731 0.453839
Si Si2 0.364102 0.541756 0.677832
Si Si3 0.240208 0.967947 0.658376
Si Si4 0.448757 0.971148 0.842858
Si Si5 0.905142 0.529365 0.404574
Si Si6 0.523755 0.029676 0.294320
Si Si7 0.883426 0.038489 0.847453
O O1 0.145561 0.250000 0.448389
O O2 0.342456 0.969956 0.294728
O O3 0.056831 0.970280 0.563719
O O4 0.000000 0.000000 0.500000
O O5 0.305718 0.750000 0.724976
O O6 0.577730 0.536164 0.503592
O O7 0.252085 0.465331 0.709643
O O8 0.366508 0.463442 0.734274
O O9 0.252153 0.750000 0.650066
O O10 0.056199 0.023603 0.761809
O O11 0.445458 0.750000 0.845527
O O12 0.408599 0.024906 0.811979
O O13 0.296558 0.037098 0.993664
O O14 0.908031 0.750000 0.400879
O O15 0.693095 0.477247 0.545001
O O16 0.045400 0.462934 0.259061
O O17 0.526349 0.250000 0.293938
O O18 0.845104 0.250000 0.866216
#
# Coordination Sequence:
#
# PCOD9156053 Si02
#       7
#     4   4   4   4   4   4   4
#     4   9  17  32  51  72  93 116 147 185 223 266
#     4   9  16  28  46  64  87 123 163 193 228 273
#     4  10  19  27  40  67  97 121 150 197 240 269
#     4   8  16  28  48  72  91 114 154 194 219 259
#     4   8  14  25  47  69  86 114 155 186 212 262
#     4   8  12  24  45  67  85 111 156 199 221 251
#     4  10  17  30  49  68  89 121 158 190 223 267
#
# _framework density 20.426030000000001
#
# number of rings (size 3 to 8) (size 9 to 14) (size 15 to 20)
#    0.000    3.143    1.429    2.143    0.000    0.571 
#    0.000    2.857    0.000    0.857    0.000    0.000 
#    0.000    0.000    0.000    0.000    0.000    0.000 
#
# Total GULP energy -156106.941169 kJ/mol
# GULP energy per Si atom -5575.247899 kJ/mol
# Density = 2.037954 g / cm^3
# Si number density = 20.426030 Si / 1000 Ang^3
#
#
#
# Elastic Constant Matrix: (Units=GPa)
#
#
# Indices 1 2 3 4 5 6 
#
# 1 169.0235 -6.5280 77.3900 0.0000 25.0073 0.0000
# 2 -6.5280 69.5640 -1.1933 0.0000 6.9973 0.0000
# 3 77.3900 -1.1933 120.4417 0.0000 34.5738 0.0000
# 4 0.0000 0.0000 0.0000 -1.5095 0.0000 -5.4767
# 5 25.0073 6.9973 34.5738 0.0000 26.0275 0.0000
# 6 0.0000 0.0000 0.0000 -5.4767 0.0000 14.2051
#
#
#
# Elastic Compliance Matrix: (Units=1/GPa)
#
#
# Indices 1 2 3 4 5 6 
#
# 1 0.008470 0.000900 -0.004894 0.000000 -0.001879 0.000000
# 2 0.000900 0.015200 0.001606 0.000000 -0.007084 0.000000
# 3 -0.004894 0.001606 0.016547 0.000000 -0.017710 0.000000
# 4 0.000000 0.000000 0.000000 -0.276166 0.000000 -0.106475
# 5 -0.001879 -0.007084 -0.017710 0.000000 0.065656 0.000000
# 6 0.000000 0.000000 0.000000 -0.106475 0.000000 0.029346
#
#
# Mechanical properties :
#
#
# Convention : Reuss Voigt Hill
#
# Bulk Modulus (GPa) = 28.21638 55.37407 41.79523
# Shear Modulus (GPa) = -40.20685 27.03533 -6.58576
#
# Velocity S-wave (km/s) = -4.44149 3.64204 -1.79755
# Velocity P-wave (km/s) = 3.52967 6.69734 4.02466
#
# Compressibility (1/GPa) = 0.03544041
#
# Stress axis : x y z
#
# Youngs Moduli (GPa) = 118.06521 65.79021 60.43289
#
# Poissons Ratio (x) = -0.05920 0.29577
# Poissons Ratio (y) = -0.10624 -0.09706
# Poissons Ratio (z) = 0.57783 -0.10566
#
# Static dielectric constant tensor:
#      x y z
#    x 1.745330 0.000000 0.032180 
#    y 0.000000 1.774620 0.000000 
#    z 0.032180 0.000000 1.697610 
# 
# From -- ./inp_files/29093.got.cif
#   From: 2010.05.17/outbox.cif.g08.bks.cpg/sg11_15_cif.got.tgz:29093.got - 2010.06.03 12:22:45.
