data_PCOD9156822
_publ_section_title
;
Structure prediction by ZEFSAII (Michael W. Deem and Ramdas Pophale) SiO2 
 PCOD9156822
Probable space group: P 21/M
;
_chemical_formula_sum "Si O2"
_cell_formula_units_Z 32
_cell_length_a 16.492146
_cell_length_b 8.228221
_cell_length_c 25.472096
_cell_angle_alpha 90.000000
_cell_angle_beta 153.150872
_cell_angle_gamma 90.000000
_cell_volume 1561.143461
_symmetry_space_group_name_H-M "P 21/M"
_symmetry_group_IT_number 11
_symmetry_cell_setting 'monoclinic'
loop_
_space_group_symop_operation_xyz
x,y,z
-x,1/2+y,-z
-x,-y,-z
x,1/2-y,z
loop_
_atom_site_type_symbol
_atom_site_label
_atom_site_fract_x
_atom_site_fract_y
_atom_site_fract_z
Si Si1 0.022552 0.947188 0.326983
Si Si2 0.156018 0.933422 0.625952
Si Si3 0.528149 0.565197 0.779049
Si Si4 0.376347 0.557081 0.585359
Si Si5 0.316974 0.444574 0.023698
Si Si6 0.421982 0.939420 0.399508
Si Si7 0.066558 0.059307 0.235577
Si Si8 0.326698 0.435995 0.824512
O O1 0.016462 0.750000 0.325900
O O2 0.173525 0.003927 0.456137
O O3 0.816969 0.005405 0.216836
O O4 0.088313 0.998784 0.307787
O O5 0.119871 0.750000 0.624681
O O6 0.332280 0.923911 0.692027
O O7 0.205153 0.051368 0.701859
O O8 0.000000 0.000000 0.500000
O O9 0.597456 0.750000 0.810421
O O10 0.486864 0.486689 0.698727
O O11 0.642421 0.492990 0.893385
O O12 0.357540 0.750000 0.585143
O O13 0.488186 0.531829 0.596980
O O14 0.298117 0.250000 0.015278
O O15 0.488144 0.478911 0.084801
O O16 0.136360 0.521889 0.898076
O O17 0.462019 0.750000 0.416471
O O18 0.500000 0.000000 0.500000
O O19 0.209429 0.969376 0.281261
O O20 0.103751 0.250000 0.254678
O O21 0.368645 0.250000 0.862158
#
# Coordination Sequence:
#
# PCOD9156822 Si02
#       8
#     4   4   4   4   4   4   4   4
#     4  10  21  36  58  87 122 159 195 242 300 355
#     4  10  18  30  49  76 111 155 200 245 294 346
#     4   8  17  34  57  83 113 153 195 237 290 346
#     4  10  19  36  62  90 120 153 192 243 298 351
#     4  10  21  40  62  85 119 162 203 244 291 347
#     4  12  24  41  63  91 121 152 189 236 297 359
#     4  12  25  41  63  88 115 153 200 249 296 352
#     4  10  20  35  55  83 117 157 200 243 293 351
#
# _framework density 20.497795
#
# number of rings (size 3 to 8) (size 9 to 14) (size 15 to 20)
#    0.000    1.750    1.250    4.875    0.000    3.500 
#    0.000    5.625    0.000    0.000    0.000    0.000 
#    0.000    0.000    0.000    0.000    0.000    0.000 
#
# Total GULP energy -178559.167712 kJ/mol
# GULP energy per Si atom -5579.973991 kJ/mol
# Density = 2.045114 g / cm^3
# Si number density = 20.497795 Si / 1000 Ang^3
#
#
#
# Elastic Constant Matrix: (Units=GPa)
#
#
# Indices 1 2 3 4 5 6 
#
# 1 69.7821 -7.3339 11.7463 0.0000 -0.9488 0.0000
# 2 -7.3339 32.3535 -0.6770 0.0000 -4.8258 0.0000
# 3 11.7463 -0.6770 68.5779 0.0000 9.6406 0.0000
# 4 0.0000 0.0000 0.0000 15.4584 0.0000 1.7926
# 5 -0.9488 -4.8258 9.6406 0.0000 20.8314 0.0000
# 6 0.0000 0.0000 0.0000 1.7926 0.0000 23.8038
#
#
#
# Elastic Compliance Matrix: (Units=1/GPa)
#
#
# Indices 1 2 3 4 5 6 
#
# 1 0.015279 0.003844 -0.002997 0.000000 0.002974 0.000000
# 2 0.003844 0.033021 -0.001532 0.000000 0.008534 0.000000
# 3 -0.002997 -0.001532 0.016203 0.000000 -0.007990 0.000000
# 4 0.000000 0.000000 0.000000 0.065260 0.000000 -0.004915
# 5 0.002974 0.008534 -0.007990 0.000000 0.053815 0.000000
# 6 0.000000 0.000000 0.000000 -0.004915 0.000000 0.042380
#
#
# Mechanical properties :
#
#
# Convention : Reuss Voigt Hill
#
# Bulk Modulus (GPa) = 15.83943 19.79826 17.81884
# Shear Modulus (GPa) = 20.13104 23.15059 21.64081
#
# Velocity S-wave (km/s) = 3.13726 3.36433 3.25278
# Velocity P-wave (km/s) = 4.56808 4.97708 4.77696
#
# Compressibility (1/GPa) = 0.06313358
#
# Stress axis : x y z
#
# Youngs Moduli (GPa) = 65.44806 30.28388 61.71520
#
# Poissons Ratio (x) = -0.11642 0.18497
# Poissons Ratio (y) = -0.25160 0.09456
# Poissons Ratio (z) = 0.19616 0.04640
#
# Static dielectric constant tensor:
#      x y z
#    x 1.747320 0.000000 -0.025790 
#    y 0.000000 1.681230 0.000000 
#    z -0.025790 0.000000 1.820390 
# 
# From -- ./inp_files/69077.got.cif
#   From: 2010.05.17/outbox.cif.g08.bks.cpg/sg11_35_cif.got.tgz:69077.got - 2010.06.03 12:22:45.
