data_PCOD9156877
_publ_section_title
;
Structure prediction by ZEFSAII (Michael W. Deem and Ramdas Pophale) SiO2 
 PCOD9156877
Probable space group: P 21/M
;
_chemical_formula_sum "Si O2"
_cell_formula_units_Z 32
_cell_length_a 16.025743
_cell_length_b 17.679025
_cell_length_c 12.841564
_cell_angle_alpha 90.000000
_cell_angle_beta 29.424222
_cell_angle_gamma 90.000000
_cell_volume 1787.378102
_symmetry_space_group_name_H-M "P 21/M"
_symmetry_group_IT_number 11
_symmetry_cell_setting 'monoclinic'
loop_
_space_group_symop_operation_xyz
x,y,z
-x,1/2+y,-z
-x,-y,-z
x,1/2-y,z
loop_
_atom_site_type_symbol
_atom_site_label
_atom_site_fract_x
_atom_site_fract_y
_atom_site_fract_z
Si Si1 0.748514 0.833882 0.916246
Si Si2 0.650491 0.448933 0.883843
Si Si3 0.614191 0.835910 0.826235
Si Si4 0.511772 0.836643 0.369681
Si Si5 0.196203 0.436876 0.864730
Si Si6 0.818205 0.524618 0.520936
Si Si7 0.185070 0.496005 0.093262
Si Si8 0.199736 0.946268 0.677041
O O1 0.826065 0.750000 0.847725
O O2 0.691213 0.840182 0.859164
O O3 0.852919 0.908219 0.834256
O O4 0.587930 0.838174 0.169045
O O5 0.801084 0.473415 0.643694
O O6 0.683765 0.473890 0.965150
O O7 0.500000 0.500000 0.000000
O O8 0.580404 0.364342 0.955497
O O9 0.629214 0.750000 0.773195
O O10 0.712004 0.898657 0.651806
O O11 0.477914 0.750000 0.434361
O O12 0.665739 0.870888 0.271637
O O13 0.342561 0.886666 0.555191
O O14 0.210151 0.481750 0.742471
O O15 0.240658 0.492705 0.913448
O O16 0.996241 0.417043 0.099937
O O17 0.766074 0.475497 0.477253
O O18 0.014550 0.543345 0.290203
#
# Coordination Sequence:
#
# PCOD9156877 Si02
#       8
#     4   4   4   4   4   4   4   4
#     4   9  17  30  49  75 110 138 166 216 274 316
#     4  10  18  30  51  75 102 135 175 214 257 317
#     4  10  20  33  48  72 105 142 173 212 265 316
#     4  10  20  34  56  84 110 141 177 228 281 322
#     4   9  21  36  56  80 110 140 183 227 268 319
#     4  10  20  32  56  79 101 137 182 219 260 323
#     4  10  18  33  54  79 101 138 179 219 262 317
#     4  10  20  37  57  82 107 146 184 223 271 323
#
# _framework density 17.903320000000001
#
# number of rings (size 3 to 8) (size 9 to 14) (size 15 to 20)
#    0.000    2.250    2.500    1.500    5.250    0.500 
#    0.000    3.750    0.000    4.500    0.000    0.000 
#    0.000    0.000    0.000    0.000    0.000    0.000 
#
# Total GULP energy -178201.715710 kJ/mol
# GULP energy per Si atom -5568.803616 kJ/mol
# Density = 1.786257 g / cm^3
# Si number density = 17.903320 Si / 1000 Ang^3
#
#
#
# Elastic Constant Matrix: (Units=GPa)
#
#
# Indices 1 2 3 4 5 6 
#
# 1 62.5067 14.6139 5.8550 0.0000 -9.6544 0.0000
# 2 14.6139 98.5378 34.4177 0.0000 -17.5857 0.0000
# 3 5.8550 34.4177 36.3885 0.0000 -7.4408 0.0000
# 4 0.0000 0.0000 0.0000 16.3448 0.0000 0.7970
# 5 -9.6544 -17.5857 -7.4408 0.0000 20.6691 0.0000
# 6 0.0000 0.0000 0.0000 0.7970 0.0000 15.4272
#
#
#
# Elastic Compliance Matrix: (Units=1/GPa)
#
#
# Indices 1 2 3 4 5 6 
#
# 1 0.017390 -0.001277 -0.000164 0.000000 0.006978 0.000000
# 2 -0.001277 0.016712 -0.013834 0.000000 0.008642 0.000000
# 3 -0.000164 -0.013834 0.041203 0.000000 0.002986 0.000000
# 4 0.000000 0.000000 0.000000 0.061336 0.000000 -0.003169
# 5 0.006978 0.008642 0.002986 0.000000 0.060069 0.000000
# 6 0.000000 0.000000 0.000000 -0.003169 0.000000 0.064984
#
#
# Mechanical properties :
#
#
# Convention : Reuss Voigt Hill
#
# Bulk Modulus (GPa) = 22.34355 34.13401 28.23878
# Shear Modulus (GPa) = 16.27802 19.99132 18.13467
#
# Velocity S-wave (km/s) = 3.01860 3.34522 3.18610
# Velocity P-wave (km/s) = 4.96552 5.83334 5.41684
#
# Compressibility (1/GPa) = 0.04475565
#
# Stress axis : x y z
#
# Youngs Moduli (GPa) = 57.50500 59.83629 24.26989
#
# Poissons Ratio (x) = 0.07638 0.00398
# Poissons Ratio (y) = 0.07341 0.33576
# Poissons Ratio (z) = 0.00942 0.82780
#
# Static dielectric constant tensor:
#      x y z
#    x 1.623580 0.000000 -0.000210 
#    y 0.000000 1.619190 0.000000 
#    z -0.000210 0.000000 1.663630 
# 
# From -- ./inp_files/39966.got.cif
#   From: 2010.05.17/outbox.cif.g08.bks.cpg/sg11_20_cif.got.tgz:39966.got - 2010.06.03 12:22:45.
