data_PCOD9156037
_publ_section_title
;
Structure prediction by ZEFSAII (Michael W. Deem and Ramdas Pophale) SiO2 
 PCOD9156037
Probable space group: P 21/M
;
_chemical_formula_sum "Si O2"
_cell_formula_units_Z 28
_cell_length_a 15.786628
_cell_length_b 7.598356
_cell_length_c 12.546501
_cell_angle_alpha 90.000000
_cell_angle_beta 129.432008
_cell_angle_gamma 90.000000
_cell_volume 1162.417177
_symmetry_space_group_name_H-M "P 21/M"
_symmetry_group_IT_number 11
_symmetry_cell_setting 'monoclinic'
loop_
_space_group_symop_operation_xyz
x,y,z
-x,1/2+y,-z
-x,-y,-z
x,1/2-y,z
loop_
_atom_site_type_symbol
_atom_site_label
_atom_site_fract_x
_atom_site_fract_y
_atom_site_fract_z
Si Si1 0.723247 0.543911 0.982131
Si Si2 0.114761 0.551569 0.716432
Si Si3 0.607199 0.540868 0.520183
Si Si4 0.188221 0.464449 0.176215
Si Si5 0.916246 0.965984 0.700174
Si Si6 0.237333 0.455444 0.610452
Si Si7 0.467456 0.461830 0.772315
O O1 0.749336 0.750000 0.012145
O O2 0.782068 0.476815 0.919828
O O3 0.591162 0.529560 0.880023
O O4 0.776837 0.450179 0.124983
O O5 0.079904 0.750000 0.664436
O O6 0.146471 0.469749 0.629379
O O7 0.022391 0.472734 0.720009
O O8 0.500000 0.500000 0.500000
O O9 0.624226 0.750000 0.525682
O O10 0.708474 0.475584 0.669713
O O11 0.577849 0.480742 0.379273
O O12 0.185528 0.250000 0.168047
O O13 0.091096 0.519187 0.180819
O O14 0.916258 0.750000 0.702124
O O15 0.815139 0.023397 0.542489
O O16 0.255294 0.250000 0.603731
O O17 0.357227 0.518963 0.748595
O O18 0.479935 0.250000 0.790420
#
# Coordination Sequence:
#
# PCOD9156037 Si02
#       7
#     4   4   4   4   4   4   4
#     4  11  23  38  58  83 117 157 191 226 275 339
#     4  11  24  40  58  81 114 153 194 238 280 326
#     4  10  17  29  52  83 116 147 180 223 279 337
#     4   9  17  32  56  86 115 146 183 223 278 341
#     4   9  18  36  62  88 113 145 185 234 288 338
#     4  10  20  38  64  88 111 144 188 235 287 340
#     4  10  20  34  58  88 116 146 184 231 284 341
#
# _framework density 24.087736
#
# number of rings (size 3 to 8) (size 9 to 14) (size 15 to 20)
#    0.000    2.000    2.857    1.286    0.000    1.714 
#    0.000    0.714    0.000    6.000    0.000    0.000 
#    0.000    0.000    0.000    0.000    0.000    0.000 
#
# Total GULP energy -156114.597613 kJ/mol
# GULP energy per Si atom -5575.521343 kJ/mol
# Density = 2.403291 g / cm^3
# Si number density = 24.087736 Si / 1000 Ang^3
#
#
#
# Elastic Constant Matrix: (Units=GPa)
#
#
# Indices 1 2 3 4 5 6 
#
# 1 133.3616 7.7797 8.3680 0.0000 -14.0467 0.0000
# 2 7.7797 53.9921 0.4625 0.0000 -4.7034 0.0000
# 3 8.3680 0.4625 60.9439 0.0000 -11.5628 0.0000
# 4 0.0000 0.0000 0.0000 -0.6527 0.0000 0.1939
# 5 -14.0467 -4.7034 -11.5628 0.0000 27.1161 0.0000
# 6 0.0000 0.0000 0.0000 0.1939 0.0000 19.2042
#
#
#
# Elastic Compliance Matrix: (Units=1/GPa)
#
#
# Indices 1 2 3 4 5 6 
#
# 1 0.007972 -0.000812 -0.000361 0.000000 0.003835 0.000000
# 2 -0.000812 0.018903 0.000555 0.000000 0.003095 0.000000
# 3 -0.000361 0.000555 0.017884 0.000000 0.007535 0.000000
# 4 0.000000 0.000000 0.000000 -1.527421 0.000000 0.015422
# 5 0.003835 0.003095 0.007535 0.000000 0.042615 0.000000
# 6 0.000000 0.000000 0.000000 0.015422 0.000000 0.051916
#
#
# Mechanical properties :
#
#
# Convention : Reuss Voigt Hill
#
# Bulk Modulus (GPa) = 22.97551 31.27977 27.12764
# Shear Modulus (GPa) = -3.64328 24.57936 10.46804
#
# Velocity S-wave (km/s) = -1.23117 3.19785 2.08692
# Velocity P-wave (km/s) = 2.74553 5.16226 4.13442
#
# Compressibility (1/GPa) = 0.04352460
#
# Stress axis : x y z
#
# Youngs Moduli (GPa) = 125.43353 52.90155 55.91741
#
# Poissons Ratio (x) = 0.04293 0.02018
# Poissons Ratio (y) = 0.10179 -0.03105
# Poissons Ratio (z) = 0.04526 -0.02937
#
# Static dielectric constant tensor:
#      x y z
#    x 2.048120 0.000000 0.028460 
#    y 0.000000 1.932010 0.000000 
#    z 0.028460 0.000000 1.893630 
# 
# From -- ./inp_files/38481.got.cif
#   From: 2010.05.17/outbox.cif.g08.bks.cpg/sg11_20_cif.got.tgz:38481.got - 2010.06.03 12:22:45.
