data_PCOD9156262
_publ_section_title
;
Structure prediction by ZEFSAII (Michael W. Deem and Ramdas Pophale) SiO2 
 PCOD9156262
Probable space group: P 21/M
;
_chemical_formula_sum "Si O2"
_cell_formula_units_Z 28
_cell_length_a 14.186502
_cell_length_b 8.240124
_cell_length_c 26.103541
_cell_angle_alpha 90.000000
_cell_angle_beta 144.228487
_cell_angle_gamma 90.000000
_cell_volume 1783.747554
_symmetry_space_group_name_H-M "P 21/M"
_symmetry_group_IT_number 11
_symmetry_cell_setting 'monoclinic'
loop_
_space_group_symop_operation_xyz
x,y,z
-x,1/2+y,-z
-x,-y,-z
x,1/2-y,z
loop_
_atom_site_type_symbol
_atom_site_label
_atom_site_fract_x
_atom_site_fract_y
_atom_site_fract_z
Si Si1 0.891732 0.945738 0.500391
Si Si2 0.603053 0.945966 0.309308
Si Si3 0.703595 0.053900 0.040491
Si Si4 0.240482 0.945865 0.135557
Si Si5 0.664764 0.556228 0.135700
Si Si6 0.918564 0.054039 0.041328
Si Si7 0.818778 0.055863 0.308532
O O1 0.884977 0.750000 0.499234
O O2 0.713134 0.003376 0.405807
O O3 0.999425 0.000303 0.596126
O O4 0.000000 0.000000 0.500000
O O5 0.597396 0.750000 0.308810
O O6 0.419692 0.006114 0.227159
O O7 0.696426 0.990925 0.298138
O O8 0.702725 0.250000 0.039482
O O9 0.831013 0.997179 0.054291
O O10 0.735556 0.998447 0.112406
O O11 0.522155 0.998211 0.945915
O O12 0.244856 0.750000 0.136461
O O13 0.181887 0.000715 0.053224
O O14 0.101314 0.998297 0.113320
O O15 0.661590 0.750000 0.135919
O O16 0.760680 0.495393 0.227148
O O17 0.916457 0.250000 0.040439
O O18 0.815802 0.250000 0.310492
#
# Coordination Sequence:
#
# PCOD9156262 Si02
#       7
#     4   4   4   4   4   4   4
#     4   8  15  26  40  59  83 111 140 170 206 247
#     4   9  16  28  44  61  85 115 144 174 208 245
#     4   9  18  32  46  61  84 112 142 175 208 244
#     4   9  17  28  43  63  85 111 142 171 202 244
#     4  10  19  30  45  64  85 111 142 172 207 250
#     4   9  17  29  43  60  85 113 139 170 206 243
#     4  10  18  27  41  63  89 114 141 172 207 249
#
# _framework density 15.697288
#
# number of rings (size 3 to 8) (size 9 to 14) (size 15 to 20)
#    0.000    2.857    0.000    1.714    0.000    4.571 
#    0.000    2.857    0.000    0.000    0.000    1.000 
#    0.000    0.000    0.000    0.000    0.000    0.000 
#
# Total GULP energy -155910.010006 kJ/mol
# GULP energy per Si atom -5568.214643 kJ/mol
# Density = 1.566156 g / cm^3
# Si number density = 15.697288 Si / 1000 Ang^3
#
#
#
# Elastic Constant Matrix: (Units=GPa)
#
#
# Indices 1 2 3 4 5 6 
#
# 1 105.1084 5.3770 77.7152 0.0000 5.2504 0.0000
# 2 5.3770 3.1117 12.9841 0.0000 3.1251 0.0000
# 3 77.7152 12.9841 162.2993 0.0000 2.0533 0.0000
# 4 0.0000 0.0000 0.0000 14.0086 0.0000 -2.3458
# 5 5.2504 3.1251 2.0533 0.0000 24.6391 0.0000
# 6 0.0000 0.0000 0.0000 -2.3458 0.0000 21.4694
#
#
#
# Elastic Compliance Matrix: (Units=1/GPa)
#
#
# Indices 1 2 3 4 5 6 
#
# 1 0.015131 0.011930 -0.008149 0.000000 -0.004059 0.000000
# 2 0.011930 0.591878 -0.052136 0.000000 -0.073269 0.000000
# 3 -0.008149 -0.052136 0.014144 0.000000 0.007170 0.000000
# 4 0.000000 0.000000 0.000000 0.072715 0.000000 0.007945
# 5 -0.004059 -0.073269 0.007170 0.000000 0.050146 0.000000
# 6 0.000000 0.000000 0.000000 0.007945 0.000000 0.047446
#
#
# Mechanical properties :
#
#
# Convention : Reuss Voigt Hill
#
# Bulk Modulus (GPa) = 1.90678 51.40798 26.65738
# Shear Modulus (GPa) = 4.70374 23.65297 14.17836
#
# Velocity S-wave (km/s) = 1.73293 3.88599 3.00865
# Velocity P-wave (km/s) = 2.28504 7.27703 5.39336
#
# Compressibility (1/GPa) = 0.52444368
#
# Stress axis : x y z
#
# Youngs Moduli (GPa) = 66.08824 1.68954 70.70374
#
# Poissons Ratio (x) = -0.02016 0.57613
# Poissons Ratio (y) = -0.78846 3.68624
# Poissons Ratio (z) = 0.53852 0.08809
#
# Static dielectric constant tensor:
#      x y z
#    x 1.491390 0.000000 0.007470 
#    y 0.000000 1.542280 0.000000 
#    z 0.007470 0.000000 1.563530 
# 
# From -- ./inp_files/68355.got.cif
#   From: 2010.05.17/outbox.cif.g08.bks.cpg/sg11_35_cif.got.tgz:68355.got - 2010.06.03 12:22:45.
