data_PCOD9156283
_publ_section_title
;
Structure prediction by ZEFSAII (Michael W. Deem and Ramdas Pophale) SiO2 
 PCOD9156283
Probable space group: P 21/M
;
_chemical_formula_sum "Si O2"
_cell_formula_units_Z 32
_cell_length_a 17.780932
_cell_length_b 8.019848
_cell_length_c 13.227391
_cell_angle_alpha 90.000000
_cell_angle_beta 90.532344
_cell_angle_gamma 90.000000
_cell_volume 1886.149462
_symmetry_space_group_name_H-M "P 21/M"
_symmetry_group_IT_number 11
_symmetry_cell_setting 'monoclinic'
loop_
_space_group_symop_operation_xyz
x,y,z
-x,1/2+y,-z
-x,-y,-z
x,1/2-y,z
loop_
_atom_site_type_symbol
_atom_site_label
_atom_site_fract_x
_atom_site_fract_y
_atom_site_fract_z
Si Si1 0.420098 0.049999 0.376039
Si Si2 0.323705 0.048801 0.185678
Si Si3 0.162812 0.450360 0.878158
Si Si4 0.835848 0.449557 0.886752
Si Si5 0.319375 0.451348 0.794133
Si Si6 0.409399 0.949010 0.600703
Si Si7 0.000643 0.950982 0.118026
Si Si8 0.413462 0.048894 0.988430
O O1 0.423321 0.250000 0.365993
O O2 0.367605 0.986329 0.285173
O O3 0.506309 0.986547 0.371311
O O4 0.391191 0.010114 0.487825
O O5 0.327689 0.250000 0.185459
O O6 0.236613 0.001750 0.177211
O O7 0.365962 0.988999 0.084666
O O8 0.162016 0.250000 0.867826
O O9 0.235485 0.513472 0.819085
O O10 0.080167 0.513558 0.843337
O O11 0.172598 0.486634 0.997858
O O12 0.838078 0.250000 0.892178
O O13 0.917006 0.508931 0.844978
O O14 0.317858 0.250000 0.799046
O O15 0.351524 0.499950 0.686248
O O16 0.375328 0.510961 0.884017
O O17 0.413176 0.750000 0.597443
O O18 0.999552 0.750000 0.126538
O O19 0.000000 0.000000 0.000000
O O20 0.409503 0.250000 0.988063
O O21 0.500000 0.000000 0.000000
#
# Coordination Sequence:
#
# PCOD9156283 Si02
#       8
#     4   4   4   4   4   4   4   4
#     4   9  19  35  53  69  89 120 159 197 232 279
#     4  10  19  33  49  66  93 128 160 187 226 280
#     4   9  16  30  47  63  91 129 160 188 226 278
#     4  10  18  27  42  69  98 122 154 195 232 271
#     4  10  19  31  48  68  93 125 159 189 224 278
#     4  10  20  34  52  71  92 117 152 201 245 274
#     4   8  15  26  42  63  89 122 156 188 227 271
#     4  10  20  32  45  65  93 125 157 188 226 275
#
# _framework density 16.965781
#
# number of rings (size 3 to 8) (size 9 to 14) (size 15 to 20)
#    0.000    2.500    1.250    1.500    0.000    4.000 
#    0.000    0.000    0.000    0.000    0.000    0.875 
#    0.000    0.000    0.000    0.000    0.000    0.000 
#
# Total GULP energy -178334.574037 kJ/mol
# GULP energy per Si atom -5572.955439 kJ/mol
# Density = 1.692717 g / cm^3
# Si number density = 16.965781 Si / 1000 Ang^3
#
#
#
# Elastic Constant Matrix: (Units=GPa)
#
#
# Indices 1 2 3 4 5 6 
#
# 1 105.2910 2.5755 34.6490 0.0000 -7.3914 0.0000
# 2 2.5755 6.3766 -1.6914 0.0000 -0.9058 0.0000
# 3 34.6490 -1.6914 62.3821 0.0000 -7.3123 0.0000
# 4 0.0000 0.0000 0.0000 11.7160 0.0000 2.9820
# 5 -7.3914 -0.9058 -7.3123 0.0000 19.8068 0.0000
# 6 0.0000 0.0000 0.0000 2.9820 0.0000 17.8744
#
#
#
# Elastic Compliance Matrix: (Units=1/GPa)
#
#
# Indices 1 2 3 4 5 6 
#
# 1 0.011947 -0.006332 -0.006605 0.000000 0.001731 0.000000
# 2 -0.006332 0.162937 0.008917 0.000000 0.008381 0.000000
# 3 -0.006605 0.008917 0.020590 0.000000 0.005545 0.000000
# 4 0.000000 0.000000 0.000000 0.089139 0.000000 -0.014871
# 5 0.001731 0.008381 0.005545 0.000000 0.053564 0.000000
# 6 0.000000 0.000000 0.000000 -0.014871 0.000000 0.058427
#
#
# Mechanical properties :
#
#
# Convention : Reuss Voigt Hill
#
# Bulk Modulus (GPa) = 5.33514 27.23507 16.28511
# Shear Modulus (GPa) = 10.70385 19.11387 14.90886
#
# Velocity S-wave (km/s) = 2.51451 3.36015 2.96761
# Velocity P-wave (km/s) = 3.40321 5.58049 4.62189
#
# Compressibility (1/GPa) = 0.18743636
#
# Stress axis : x y z
#
# Youngs Moduli (GPa) = 83.70069 6.13734 48.56619
#
# Poissons Ratio (x) = 0.03886 0.32077
# Poissons Ratio (y) = 0.52996 -0.43307
# Poissons Ratio (z) = 0.55282 -0.05473
#
# Static dielectric constant tensor:
#      x y z
#    x 1.621270 0.000000 0.000470 
#    y 0.000000 1.630700 0.000000 
#    z 0.000470 0.000000 1.539270 
# 
# From -- ./inp_files/40684.got.cif
#   From: 2010.05.17/outbox.cif.g08.bks.cpg/sg11_21_cif.got.tgz:40684.got - 2010.06.03 12:22:45.
