data_PCOD9156738
_publ_section_title
;
Structure prediction by ZEFSAII (Michael W. Deem and Ramdas Pophale) SiO2 
 PCOD9156738
Probable space group: P 21/M
;
_chemical_formula_sum "Si O2"
_cell_formula_units_Z 32
_cell_length_a 16.399127
_cell_length_b 7.458266
_cell_length_c 22.273945
_cell_angle_alpha 90.000000
_cell_angle_beta 34.747911
_cell_angle_gamma 90.000000
_cell_volume 1552.763464
_symmetry_space_group_name_H-M "P 21/M"
_symmetry_group_IT_number 11
_symmetry_cell_setting 'monoclinic'
loop_
_space_group_symop_operation_xyz
x,y,z
-x,1/2+y,-z
-x,-y,-z
x,1/2-y,z
loop_
_atom_site_type_symbol
_atom_site_label
_atom_site_fract_x
_atom_site_fract_y
_atom_site_fract_z
Si Si1 0.046713 0.968833 0.591792
Si Si2 0.625456 0.469318 0.607224
Si Si3 0.621546 0.036094 0.474688
Si Si4 0.789298 0.545452 0.951969
Si Si5 0.667253 0.463276 0.898000
Si Si6 0.768827 0.549010 0.706361
Si Si7 0.520026 0.960506 0.188210
Si Si8 0.056483 0.530441 0.725304
O O1 0.040151 0.750000 0.594779
O O2 0.209820 0.019859 0.478606
O O3 0.021290 0.022731 0.677243
O O4 0.927550 0.034560 0.616469
O O5 0.623188 0.250000 0.609858
O O6 0.589472 0.528927 0.561611
O O7 0.518833 0.534618 0.723006
O O8 0.633913 0.250000 0.472270
O O9 0.780744 0.972786 0.361327
O O10 0.500000 0.000000 0.500000
O O11 0.812635 0.750000 0.958573
O O12 0.727454 0.546037 0.922060
O O13 0.945262 0.464805 0.843052
O O14 0.660764 0.463897 0.069682
O O15 0.693714 0.250000 0.881035
O O16 0.728356 0.549296 0.801157
O O17 0.500000 0.500000 0.000000
O O18 0.782014 0.750000 0.674572
O O19 0.629150 0.470210 0.758710
O O20 0.549543 0.750000 0.176629
O O21 0.050373 0.750000 0.729280
#
# Coordination Sequence:
#
# PCOD9156738 Si02
#       8
#     4   4   4   4   4   4   4   4
#     4   8  14  26  46  66  89 126 167 204 241 284
#     4   8  16  32  50  70  96 129 163 195 240 298
#     4   9  17  32  57  80  98 120 152 194 243 297
#     4  10  18  30  48  69  94 126 165 205 242 286
#     4  12  22  31  44  65  94 130 170 216 255 283
#     4  11  20  30  46  67  93 130 173 213 251 284
#     4  10  20  31  46  68  96 130 169 207 240 285
#     4   8  14  27  48  72  94 123 158 194 240 294
#
# _framework density 20.608419999999999
#
# number of rings (size 3 to 8) (size 9 to 14) (size 15 to 20)
#    0.000    2.500    2.500    3.000    0.000    0.500 
#    0.000    1.250    0.000    1.500    0.000    0.000 
#    0.000    0.000    0.000    0.000    0.000    0.000 
#
# Total GULP energy -178379.763857 kJ/mol
# GULP energy per Si atom -5574.367621 kJ/mol
# Density = 2.056151 g / cm^3
# Si number density = 20.608420 Si / 1000 Ang^3
#
#
#
# Elastic Constant Matrix: (Units=GPa)
#
#
# Indices 1 2 3 4 5 6 
#
# 1 89.3422 -3.1082 80.7920 0.0000 -12.2558 0.0000
# 2 -3.1082 74.1371 5.5073 0.0000 0.5136 0.0000
# 3 80.7920 5.5073 171.7863 0.0000 5.6447 0.0000
# 4 0.0000 0.0000 0.0000 -2.1961 0.0000 -4.4409
# 5 -12.2558 0.5136 5.6447 0.0000 23.3317 0.0000
# 6 0.0000 0.0000 0.0000 -4.4409 0.0000 16.3352
#
#
#
# Elastic Compliance Matrix: (Units=1/GPa)
#
#
# Indices 1 2 3 4 5 6 
#
# 1 0.024193 0.001794 -0.011947 0.000000 0.015559 0.000000
# 2 0.001794 0.013655 -0.001313 0.000000 0.000959 0.000000
# 3 -0.011947 -0.001313 0.011781 0.000000 -0.009097 0.000000
# 4 0.000000 0.000000 0.000000 -0.293822 0.000000 -0.079878
# 5 0.015559 0.000959 -0.009097 0.000000 0.053213 0.000000
# 6 0.000000 0.000000 0.000000 -0.079878 0.000000 0.039502
#
#
# Mechanical properties :
#
#
# Convention : Reuss Voigt Hill
#
# Bulk Modulus (GPa) = 37.45755 55.73866 46.59810
# Shear Modulus (GPa) = -41.78978 24.29912 -8.74533
#
# Velocity S-wave (km/s) = -4.50800 3.43751 -2.06223
# Velocity P-wave (km/s) = 2.98006 6.54680 4.12188
#
# Compressibility (1/GPa) = 0.02669689
#
# Stress axis : x y z
#
# Youngs Moduli (GPa) = 41.33349 73.23520 84.88268
#
# Poissons Ratio (x) = -0.13139 1.01410
# Poissons Ratio (y) = -0.07415 0.11145
# Poissons Ratio (z) = 0.49381 0.09616
#
# Static dielectric constant tensor:
#      x y z
#    x 1.723510 0.000000 -0.025730 
#    y 0.000000 1.820720 0.000000 
#    z -0.025730 0.000000 1.834000 
# 
# From -- ./inp_files/54352.got.cif
#   From: 2010.05.17/outbox.cif.g08.bks.cpg/sg11_28_cif.got.tgz:54352.got - 2010.06.03 12:22:45.
