data_PCOD9156692
_publ_section_title
;
Structure prediction by ZEFSAII (Michael W. Deem and Ramdas Pophale) SiO2 
 PCOD9156692
Probable space group: P 21/M
;
_chemical_formula_sum "Si O2"
_cell_formula_units_Z 32
_cell_length_a 21.192173
_cell_length_b 8.752293
_cell_length_c 32.084280
_cell_angle_alpha 90.000000
_cell_angle_beta 159.230417
_cell_angle_gamma 90.000000
_cell_volume 2110.286365
_symmetry_space_group_name_H-M "P 21/M"
_symmetry_group_IT_number 11
_symmetry_cell_setting 'monoclinic'
loop_
_space_group_symop_operation_xyz
x,y,z
-x,1/2+y,-z
-x,-y,-z
x,1/2-y,z
loop_
_atom_site_type_symbol
_atom_site_label
_atom_site_fract_x
_atom_site_fract_y
_atom_site_fract_z
Si Si1 0.721961 0.925898 0.818955
Si Si2 0.008507 0.924054 0.071837
Si Si3 0.060623 0.434585 0.493073
Si Si4 0.230153 0.934919 0.754018
Si Si5 0.549610 0.065347 0.281580
Si Si6 0.269390 0.568941 0.042532
Si Si7 0.304961 0.933874 0.890121
Si Si8 0.639461 0.566320 0.989750
O O1 0.698893 0.750000 0.791916
O O2 0.544850 0.980914 0.733140
O O3 0.806363 0.019433 0.833289
O O4 0.868830 0.927379 0.946870
O O5 0.020002 0.750000 0.093538
O O6 0.917129 0.026655 0.050556
O O7 0.063004 0.250000 0.496017
O O8 0.255430 0.497366 0.602840
O O9 0.000000 0.500000 0.500000
O O10 0.918092 0.485759 0.370100
O O11 0.232189 0.750000 0.754049
O O12 0.195234 0.976944 0.780762
O O13 0.430595 0.982428 0.864909
O O14 0.552233 0.250000 0.281593
O O15 0.423578 0.005915 0.166445
O O16 0.293769 0.750000 0.056876
O O17 0.284341 0.500246 0.005769
O O18 0.311774 0.750000 0.897257
O O19 0.260442 0.004200 0.907376
O O20 0.500000 0.000000 0.000000
O O21 0.644458 0.750000 0.992484
#
# Coordination Sequence:
#
# PCOD9156692 Si02
#       8
#     4   4   4   4   4   4   4   4
#     4   8  15  27  42  58  80 111 145 179 216 259
#     4   9  16  26  41  61  85 112 141 177 218 257
#     4  11  21  33  47  64  87 119 156 190 223 258
#     4   8  17  31  46  61  83 114 146 183 222 257
#     4  10  20  33  45  61  87 118 151 189 226 257
#     4  11  20  29  43  64  89 119 151 179 214 266
#     4   9  16  29  46  64  84 110 144 181 222 266
#     4  10  18  30  46  65  89 115 143 181 226 266
#
# _framework density 15.163819
#
# number of rings (size 3 to 8) (size 9 to 14) (size 15 to 20)
#    0.000    2.500    0.000    5.250    0.000    4.500 
#    0.000    6.875    0.000    0.000    0.000    0.000 
#    0.000    1.000    0.000    3.000    0.000    4.875 
#
# Total GULP energy -178267.930802 kJ/mol
# GULP energy per Si atom -5570.872838 kJ/mol
# Density = 1.512931 g / cm^3
# Si number density = 15.163819 Si / 1000 Ang^3
#
#
#
# Elastic Constant Matrix: (Units=GPa)
#
#
# Indices 1 2 3 4 5 6 
#
# 1 122.9110 43.8164 58.0026 0.0000 -2.3602 0.0000
# 2 43.8164 69.9884 24.4950 0.0000 -1.6475 0.0000
# 3 58.0026 24.4950 63.6725 0.0000 -4.2551 0.0000
# 4 0.0000 0.0000 0.0000 16.0334 0.0000 0.8157
# 5 -2.3602 -1.6475 -4.2551 0.0000 26.6672 0.0000
# 6 0.0000 0.0000 0.0000 0.8157 0.0000 28.9034
#
#
#
# Elastic Compliance Matrix: (Units=1/GPa)
#
#
# Indices 1 2 3 4 5 6 
#
# 1 0.016038 -0.005694 -0.012481 0.000000 -0.000924 0.000000
# 2 -0.005694 0.018533 -0.001920 0.000000 0.000335 0.000000
# 3 -0.012481 -0.001920 0.028031 0.000000 0.003249 0.000000
# 4 0.000000 0.000000 0.000000 0.062459 0.000000 -0.001763
# 5 -0.000924 0.000335 0.003249 0.000000 0.037957 0.000000
# 6 0.000000 0.000000 0.000000 -0.001763 0.000000 0.034648
#
#
# Mechanical properties :
#
#
# Convention : Reuss Voigt Hill
#
# Bulk Modulus (GPa) = 44.62104 56.57775 50.59939
# Shear Modulus (GPa) = 20.38101 23.00468 21.69284
#
# Velocity S-wave (km/s) = 3.67011 3.89919 3.78639
# Velocity P-wave (km/s) = 6.88836 7.59366 7.24959
#
# Compressibility (1/GPa) = 0.02241095
#
# Stress axis : x y z
#
# Youngs Moduli (GPa) = 62.35187 53.95832 35.67507
#
# Poissons Ratio (x) = 0.30725 0.44526
# Poissons Ratio (y) = 0.35504 0.06850
# Poissons Ratio (z) = 0.77821 0.10361
#
# Static dielectric constant tensor:
#      x y z
#    x 1.523720 0.000000 -0.000820 
#    y 0.000000 1.510560 0.000000 
#    z -0.000820 0.000000 1.491630 
# 
# From -- ./inp_files/73640.got.cif
#   From: 2010.05.17/outbox.cif.g08.bks.cpg/sg11_37_cif.got.tgz:73640.got - 2010.06.03 12:22:45.
