data_PCOD9156047
_publ_section_title
;
Structure prediction by ZEFSAII (Michael W. Deem and Ramdas Pophale) SiO2 
 PCOD9156047
Probable space group: P 21/M
;
_chemical_formula_sum "Si O2"
_cell_formula_units_Z 28
_cell_length_a 11.923409
_cell_length_b 13.644198
_cell_length_c 6.974269
_cell_angle_alpha 90.000000
_cell_angle_beta 86.613623
_cell_angle_gamma 90.000000
_cell_volume 1132.630272
_symmetry_space_group_name_H-M "P 21/M"
_symmetry_group_IT_number 11
_symmetry_cell_setting 'monoclinic'
loop_
_space_group_symop_operation_xyz
x,y,z
-x,1/2+y,-z
-x,-y,-z
x,1/2-y,z
loop_
_atom_site_type_symbol
_atom_site_label
_atom_site_fract_x
_atom_site_fract_y
_atom_site_fract_z
Si Si1 0.183814 0.007152 0.392877
Si Si2 0.712282 0.360442 0.090481
Si Si3 0.011893 0.136549 0.559363
Si Si4 0.038817 0.863436 0.894946
Si Si5 0.371705 0.862344 0.345873
Si Si6 0.575004 0.528989 0.178069
Si Si7 0.790657 0.631169 0.983094
O O1 0.083888 0.931835 0.341303
O O2 0.280924 0.934871 0.445276
O O3 0.226645 0.077299 0.219871
O O4 0.129570 0.079491 0.555145
O O5 0.717704 0.250000 0.161030
O O6 0.837310 0.405555 0.085338
O O7 0.623502 0.422421 0.218505
O O8 0.671979 0.358926 0.873405
O O9 0.013518 0.250000 0.617383
O O10 0.985081 0.134808 0.331754
O O11 0.051700 0.750000 0.950539
O O12 0.922993 0.894482 0.009853
O O13 0.372500 0.750000 0.411272
O O14 0.493709 0.912260 0.326557
O O15 0.500000 0.500000 0.000000
O O16 0.684987 0.593611 0.116152
O O17 0.787262 0.750000 0.968520
#
# Coordination Sequence:
#
# PCOD9156047 Si02
#       7
#     4   4   4   4   4   4   4
#     4  10  17  30  47  71  94 118 163 195 235 282
#     4   9  17  30  47  69 100 125 154 197 233 282
#     4   9  18  31  48  69  96 126 158 197 235 280
#     4   8  16  30  47  69  95 126 160 190 234 285
#     4  10  19  31  47  71  99 126 156 198 240 279
#     4  10  18  31  43  70  99 125 161 189 232 287
#     4  10  18  30  47  70  99 129 158 194 234 285
#
# _framework density 24.721218
#
# number of rings (size 3 to 8) (size 9 to 14) (size 15 to 20)
#    0.000    2.571    2.857    2.143    0.000    1.143 
#    0.000    0.000    0.000    0.857    0.000    3.000 
#    0.000    0.000    0.000    0.000    0.000    0.000 
#
# Total GULP energy -156473.421125 kJ/mol
# GULP energy per Si atom -5588.336469 kJ/mol
# Density = 2.466495 g / cm^3
# Si number density = 24.721218 Si / 1000 Ang^3
#
#
#
# Elastic Constant Matrix: (Units=GPa)
#
#
# Indices 1 2 3 4 5 6 
#
# 1 151.7000 61.7992 33.5124 0.0000 -33.5688 0.0000
# 2 61.7992 178.3421 16.3366 0.0000 -23.4998 0.0000
# 3 33.5124 16.3366 69.9406 0.0000 -7.9400 0.0000
# 4 0.0000 0.0000 0.0000 -2.9587 0.0000 -20.3530
# 5 -33.5688 -23.4998 -7.9400 0.0000 40.3878 0.0000
# 6 0.0000 0.0000 0.0000 -20.3530 0.0000 45.6294
#
#
#
# Elastic Compliance Matrix: (Units=1/GPa)
#
#
# Indices 1 2 3 4 5 6 
#
# 1 0.009570 -0.002216 -0.003387 0.000000 0.006000 0.000000
# 2 -0.002216 0.006661 -0.000269 0.000000 0.001981 0.000000
# 3 -0.003387 -0.000269 0.016003 0.000000 0.000174 0.000000
# 4 0.000000 0.000000 0.000000 -0.083076 0.000000 -0.037056
# 5 0.006000 0.001981 0.000174 0.000000 0.030933 0.000000
# 6 0.000000 0.000000 0.000000 -0.037056 0.000000 0.005387
#
#
# Mechanical properties :
#
#
# Convention : Reuss Voigt Hill
#
# Bulk Modulus (GPa) = 48.80273 69.25325 59.02799
# Shear Modulus (GPa) = 1233.80078 35.83400 634.81739
#
# Velocity S-wave (km/s) = 22.36446 3.81139 16.04207
# Velocity P-wave (km/s) = 26.20451 6.88792 19.15881
#
# Compressibility (1/GPa) = 0.02049066
#
# Stress axis : x y z
#
# Youngs Moduli (GPa) = 104.48926 150.13576 62.48643
#
# Poissons Ratio (x) = 0.33263 0.21165
# Poissons Ratio (y) = 0.23150 0.01683
# Poissons Ratio (z) = 0.35392 0.04043
#
# Static dielectric constant tensor:
#      x y z
#    x 1.968390 0.000000 0.043770 
#    y 0.000000 1.949180 0.000000 
#    z 0.043770 0.000000 2.021010 
# 
# From -- ./inp_files/35242.got.cif
#   From: 2010.05.17/outbox.cif.g08.bks.cpg/sg11_18_cif.got.tgz:35242.got - 2010.06.03 12:22:45.
