data_PCOD9156388
_publ_section_title
;
Structure prediction by ZEFSAII (Michael W. Deem and Ramdas Pophale) SiO2 
 PCOD9156388
Probable space group: P 21/M
;
_chemical_formula_sum "Si O2"
_cell_formula_units_Z 32
_cell_length_a 12.109617
_cell_length_b 7.787673
_cell_length_c 17.557790
_cell_angle_alpha 90.000000
_cell_angle_beta 83.381318
_cell_angle_gamma 90.000000
_cell_volume 1644.764814
_symmetry_space_group_name_H-M "P 21/M"
_symmetry_group_IT_number 11
_symmetry_cell_setting 'monoclinic'
loop_
_space_group_symop_operation_xyz
x,y,z
-x,1/2+y,-z
-x,-y,-z
x,1/2-y,z
loop_
_atom_site_type_symbol
_atom_site_label
_atom_site_fract_x
_atom_site_fract_y
_atom_site_fract_z
Si Si1 0.140470 0.544454 0.270678
Si Si2 0.972980 0.547939 0.166776
Si Si3 0.621280 0.956753 0.788666
Si Si4 0.375534 0.551017 0.780297
Si Si5 0.795601 0.549277 0.320298
Si Si6 0.211104 0.050214 0.925251
Si Si7 0.624122 0.542572 0.961413
Si Si8 0.976388 0.956899 0.415135
O O1 0.124776 0.750000 0.269126
O O2 0.269982 0.508926 0.265486
O O3 0.071787 0.480426 0.349256
O O4 0.085454 0.475691 0.195765
O O5 0.990688 0.750000 0.148185
O O6 0.887686 0.538252 0.245271
O O7 0.903148 0.473574 0.100995
O O8 0.619146 0.750000 0.789972
O O9 0.501155 0.014815 0.768627
O O10 0.634844 0.019247 0.874301
O O11 0.376957 0.750000 0.804613
O O12 0.312856 0.538357 0.705000
O O13 0.300977 0.456155 0.849260
O O14 0.769447 0.750000 0.332508
O O15 0.858651 0.481256 0.389739
O O16 0.187856 0.250000 0.944074
O O17 0.277559 0.974790 0.991674
O O18 0.631760 0.750000 0.961493
O O19 0.500000 0.500000 0.000000
O O20 0.973332 0.750000 0.409214
O O21 0.000000 0.000000 0.500000
#
# Coordination Sequence:
#
# PCOD9156388 Si02
#       8
#     4   4   4   4   4   4   4   4
#     4   9  18  33  51  70  95 128 164 195 228 286
#     4   7  12  26  46  66  87 115 156 200 233 270
#     4  10  21  33  44  66 101 132 160 203 251 288
#     4  10  18  28  44  68  98 126 158 205 247 278
#     4   8  15  29  48  71  98 125 157 193 231 283
#     4   9  16  28  48  67  87 122 163 203 250 296
#     4  10  19  31  46  66  94 127 164 207 251 293
#     4   9  18  33  55  82 106 126 153 194 238 283
#
# _framework density 19.455667999999999
#
# number of rings (size 3 to 8) (size 9 to 14) (size 15 to 20)
#    0.000    3.000    1.250    2.625    0.000    2.500 
#    0.000    5.625    0.000    0.750    0.000    0.000 
#    0.000    0.000    0.000    0.000    0.000    0.000 
#
# Total GULP energy -178231.658139 kJ/mol
# GULP energy per Si atom -5569.739317 kJ/mol
# Density = 1.941139 g / cm^3
# Si number density = 19.455668 Si / 1000 Ang^3
#
#
#
# Elastic Constant Matrix: (Units=GPa)
#
#
# Indices 1 2 3 4 5 6 
#
# 1 84.9642 -6.3968 36.3510 0.0000 19.3580 0.0000
# 2 -6.3968 23.8265 -0.6908 0.0000 3.5014 0.0000
# 3 36.3510 -0.6908 76.7640 0.0000 25.1068 0.0000
# 4 0.0000 0.0000 0.0000 10.6940 0.0000 9.3526
# 5 19.3580 3.5014 25.1068 0.0000 28.5949 0.0000
# 6 0.0000 0.0000 0.0000 9.3526 0.0000 5.8541
#
#
#
# Elastic Compliance Matrix: (Units=1/GPa)
#
#
# Indices 1 2 3 4 5 6 
#
# 1 0.015968 0.005131 -0.005295 0.000000 -0.006789 0.000000
# 2 0.005131 0.044867 0.001272 0.000000 -0.010085 0.000000
# 3 -0.005295 0.001272 0.020235 0.000000 -0.014338 0.000000
# 4 0.000000 0.000000 0.000000 -0.235408 0.000000 0.376093
# 5 -0.006789 -0.010085 -0.014338 0.000000 0.053391 0.000000
# 6 0.000000 0.000000 0.000000 0.376093 0.000000 -0.430033
#
#
# Mechanical properties :
#
#
# Convention : Reuss Voigt Hill
#
# Bulk Modulus (GPa) = 12.00665 27.12017 19.56341
# Shear Modulus (GPa) = -9.89248 19.44804 4.77778
#
# Velocity S-wave (km/s) = -2.25736 3.16509 1.56878
# Velocity P-wave (km/s) = 0.78072 5.22750 3.65494
#
# Compressibility (1/GPa) = 0.08328715
#
# Stress axis : x y z
#
# Youngs Moduli (GPa) = 62.62440 22.28831 49.41885
#
# Poissons Ratio (x) = -0.11437 0.26167
# Poissons Ratio (y) = -0.32134 -0.06287
# Poissons Ratio (z) = 0.33159 -0.02835
#
# Static dielectric constant tensor:
#      x y z
#    x 1.718290 0.000000 0.046470 
#    y 0.000000 1.731320 0.000000 
#    z 0.046470 0.000000 1.688440 
# 
# From -- ./inp_files/58726.got.cif
#   From: 2010.05.17/outbox.cif.g08.bks.cpg/sg11_30_cif.got.tgz:58726.got - 2010.06.03 12:22:45.
