data_PCOD9156598
_publ_section_title
;
Structure prediction by ZEFSAII (Michael W. Deem and Ramdas Pophale) SiO2 
 PCOD9156598
Probable space group: P 21/M
;
_chemical_formula_sum "Si O2"
_cell_formula_units_Z 32
_cell_length_a 18.333255
_cell_length_b 8.714170
_cell_length_c 24.652543
_cell_angle_alpha 90.000000
_cell_angle_beta 149.977874
_cell_angle_gamma 90.000000
_cell_volume 1970.551062
_symmetry_space_group_name_H-M "P 21/M"
_symmetry_group_IT_number 11
_symmetry_cell_setting 'monoclinic'
loop_
_space_group_symop_operation_xyz
x,y,z
-x,1/2+y,-z
-x,-y,-z
x,1/2-y,z
loop_
_atom_site_type_symbol
_atom_site_label
_atom_site_fract_x
_atom_site_fract_y
_atom_site_fract_z
Si Si1 0.784600 0.065586 0.596000
Si Si2 0.946056 0.933916 0.022714
Si Si3 0.341242 0.934595 0.674121
Si Si4 0.367820 0.932767 0.186508
Si Si5 0.552083 0.933526 0.644659
Si Si6 0.903373 0.566075 0.565349
Si Si7 0.121030 0.934397 0.618694
Si Si8 0.798989 0.435032 0.729381
O O1 0.797864 0.250000 0.600236
O O2 0.615792 0.026029 0.475026
O O3 0.819449 0.020207 0.680033
O O4 0.882780 0.989679 0.613110
O O5 0.939644 0.750000 0.014689
O O6 0.786188 0.999066 0.931291
O O7 0.063461 0.975103 0.144377
O O8 0.000000 0.000000 0.000000
O O9 0.350820 0.750000 0.676700
O O10 0.273557 0.980015 0.689225
O O11 0.496741 0.006677 0.761344
O O12 0.225634 0.991723 0.554188
O O13 0.362641 0.750000 0.182448
O O14 0.395779 0.989181 0.266078
O O15 0.561999 0.750000 0.656969
O O16 0.656532 0.988982 0.663805
O O17 0.887640 0.750000 0.552349
O O18 0.058081 0.522013 0.637029
O O19 0.117710 0.750000 0.614110
O O20 0.000000 0.000000 0.500000
O O21 0.780455 0.250000 0.719223
#
# Coordination Sequence:
#
# PCOD9156598 Si02
#       8
#     4   4   4   4   4   4   4   4
#     4  10  21  35  50  73 104 138 171 205 246 299
#     4  11  22  37  56  75  98 130 169 215 260 301
#     4  10  18  31  49  71 101 134 168 207 250 297
#     4  12  23  34  51  75 103 134 170 210 252 301
#     4  11  21  33  52  74 101 134 169 205 250 301
#     4  10  18  29  47  73 103 136 168 200 244 298
#     4   8  16  28  44  68  99 132 165 200 242 295
#     4  10  22  38  54  72  98 132 173 214 253 296
#
# _framework density 16.239111000000001
#
# number of rings (size 3 to 8) (size 9 to 14) (size 15 to 20)
#    0.000    1.750    2.500    3.000    0.000    2.500 
#    0.000    0.000    0.000    0.000    0.000    0.875 
#    0.000    0.000    0.000    0.000    0.000    0.000 
#
# Total GULP energy -178545.240414 kJ/mol
# GULP energy per Si atom -5579.538763 kJ/mol
# Density = 1.620215 g / cm^3
# Si number density = 16.239111 Si / 1000 Ang^3
#
#
#
# Elastic Constant Matrix: (Units=GPa)
#
#
# Indices 1 2 3 4 5 6 
#
# 1 164.1668 37.8335 44.6304 0.0000 7.6622 0.0000
# 2 37.8335 38.0005 20.9548 0.0000 -3.3451 0.0000
# 3 44.6304 20.9548 39.3721 0.0000 -5.1084 0.0000
# 4 0.0000 0.0000 0.0000 15.9775 0.0000 1.4338
# 5 7.6622 -3.3451 -5.1084 0.0000 21.6068 0.0000
# 6 0.0000 0.0000 0.0000 1.4338 0.0000 25.6789
#
#
#
# Elastic Compliance Matrix: (Units=1/GPa)
#
#
# Indices 1 2 3 4 5 6 
#
# 1 0.010297 -0.005558 -0.009593 0.000000 -0.006780 0.000000
# 2 -0.005558 0.040273 -0.014514 0.000000 0.004774 0.000000
# 3 -0.009593 -0.014514 0.045545 0.000000 0.011923 0.000000
# 4 0.000000 0.000000 0.000000 0.062903 0.000000 -0.003512
# 5 -0.006780 0.004774 0.011923 0.000000 0.052244 0.000000
# 6 0.000000 0.000000 0.000000 -0.003512 0.000000 0.039139
#
#
# Mechanical properties :
#
#
# Convention : Reuss Voigt Hill
#
# Bulk Modulus (GPa) = 27.18636 49.81964 38.50300
# Shear Modulus (GPa) = 15.52820 21.86067 18.69444
#
# Velocity S-wave (km/s) = 3.09564 3.67301 3.39661
# Velocity P-wave (km/s) = 5.43645 6.98093 6.25653
#
# Compressibility (1/GPa) = 0.03678315
#
# Stress axis : x y z
#
# Youngs Moduli (GPa) = 97.11743 24.83031 21.95619
#
# Poissons Ratio (x) = 0.13801 0.21064
# Poissons Ratio (y) = 0.53980 0.31868
# Poissons Ratio (z) = 0.93169 0.36040
#
# Static dielectric constant tensor:
#      x y z
#    x 1.571450 0.000000 0.009630 
#    y 0.000000 1.546860 0.000000 
#    z 0.009630 0.000000 1.514440 
# 
# From -- ./inp_files/43791.got.cif
#   From: 2010.05.17/outbox.cif.g08.bks.cpg/sg11_22_cif.got.tgz:43791.got - 2010.06.03 12:22:45.
