data_PCOD9156542
_publ_section_title
;
Structure prediction by ZEFSAII (Michael W. Deem and Ramdas Pophale) SiO2 
 PCOD9156542
Probable space group: P 21/M
;
_chemical_formula_sum "Si O2"
_cell_formula_units_Z 32
_cell_length_a 24.352615
_cell_length_b 8.636962
_cell_length_c 18.026446
_cell_angle_alpha 90.000000
_cell_angle_beta 31.142740
_cell_angle_gamma 90.000000
_cell_volume 1960.882908
_symmetry_space_group_name_H-M "P 21/M"
_symmetry_group_IT_number 11
_symmetry_cell_setting 'monoclinic'
loop_
_space_group_symop_operation_xyz
x,y,z
-x,1/2+y,-z
-x,-y,-z
x,1/2-y,z
loop_
_atom_site_type_symbol
_atom_site_label
_atom_site_fract_x
_atom_site_fract_y
_atom_site_fract_z
Si Si1 0.884020 0.565267 0.111311
Si Si2 0.054913 0.564190 0.107370
Si Si3 0.861473 0.938160 0.551109
Si Si4 0.823924 0.065812 0.329096
Si Si5 0.094157 0.563072 0.231718
Si Si6 0.699873 0.562942 0.606834
Si Si7 0.517891 0.435566 0.061960
Si Si8 0.746437 0.564389 0.835214
O O1 0.886036 0.750000 0.109386
O O2 0.809855 0.502842 0.262756
O O3 0.870423 0.502574 0.043863
O O4 0.000000 0.500000 0.000000
O O5 0.049850 0.750000 0.106885
O O6 0.091424 0.523127 0.147858
O O7 0.936011 0.499908 0.231042
O O8 0.862360 0.750000 0.550285
O O9 0.784503 0.984303 0.572584
O O10 0.812281 0.989040 0.686064
O O11 0.981721 0.989184 0.397197
O O12 0.831509 0.250000 0.315901
O O13 0.734501 0.012773 0.489930
O O14 0.099009 0.750000 0.231496
O O15 0.190330 0.491429 0.166031
O O16 0.705920 0.750000 0.592772
O O17 0.583230 0.520976 0.770759
O O18 0.520982 0.250000 0.054357
O O19 0.500000 0.500000 0.000000
O O20 0.628310 0.498376 0.965579
O O21 0.741530 0.750000 0.838961
#
# Coordination Sequence:
#
# PCOD9156542 Si02
#       8
#     4   4   4   4   4   4   4   4
#     4  10  18  29  46  69 101 137 170 205 250 305
#     4  10  18  31  50  71 102 140 172 208 254 305
#     4   9  17  33  52  72 100 136 172 209 257 305
#     4  11  20  30  47  75 105 132 170 211 253 308
#     4  10  20  34  52  73 102 139 176 211 254 307
#     4  10  19  35  54  73 100 136 173 211 260 307
#     4  11  22  37  57  76 100 133 174 218 263 310
#     4  11  22  36  53  74 103 136 176 220 259 302
#
# _framework density 16.319179999999999
#
# number of rings (size 3 to 8) (size 9 to 14) (size 15 to 20)
#    0.000    1.750    2.500    5.250    0.000    2.000 
#    0.000    0.625    0.000    0.000    0.000    0.875 
#    0.000    0.000    0.000    0.000    0.000    0.000 
#
# Total GULP energy -178612.808724 kJ/mol
# GULP energy per Si atom -5581.650273 kJ/mol
# Density = 1.628204 g / cm^3
# Si number density = 16.319180 Si / 1000 Ang^3
#
#
#
# Elastic Constant Matrix: (Units=GPa)
#
#
# Indices 1 2 3 4 5 6 
#
# 1 95.0314 41.7274 85.9009 0.0000 3.1770 0.0000
# 2 41.7274 69.6083 49.3846 0.0000 10.2732 0.0000
# 3 85.9009 49.3846 125.7178 0.0000 15.4294 0.0000
# 4 0.0000 0.0000 0.0000 24.5000 0.0000 3.6671
# 5 3.1770 10.2732 15.4294 0.0000 31.9344 0.0000
# 6 0.0000 0.0000 0.0000 3.6671 0.0000 24.5977
#
#
#
# Elastic Compliance Matrix: (Units=1/GPa)
#
#
# Indices 1 2 3 4 5 6 
#
# 1 0.030402 -0.005525 -0.019613 0.000000 0.008229 0.000000
# 2 -0.005525 0.021158 -0.004006 0.000000 -0.004321 0.000000
# 3 -0.019613 -0.004006 0.023952 0.000000 -0.008333 0.000000
# 4 0.000000 0.000000 0.000000 0.041748 0.000000 -0.006224
# 5 0.008229 -0.004321 -0.008333 0.000000 0.035912 0.000000
# 6 0.000000 0.000000 0.000000 -0.006224 0.000000 0.041582
#
#
# Mechanical properties :
#
#
# Convention : Reuss Voigt Hill
#
# Bulk Modulus (GPa) = 58.05674 71.59815 64.82744
# Shear Modulus (GPa) = 19.32127 23.76273 21.54200
#
# Velocity S-wave (km/s) = 3.44461 3.82006 3.63718
# Velocity P-wave (km/s) = 7.17450 7.96404 7.57956
#
# Compressibility (1/GPa) = 0.01722453
#
# Stress axis : x y z
#
# Youngs Moduli (GPa) = 32.89241 47.26402 41.75037
#
# Poissons Ratio (x) = 0.26111 0.81885
# Poissons Ratio (y) = 0.18172 0.16725
# Poissons Ratio (z) = 0.64512 0.18934
#
# Static dielectric constant tensor:
#      x y z
#    x 1.537930 0.000000 0.028010 
#    y 0.000000 1.551350 0.000000 
#    z 0.028010 0.000000 1.554360 
# 
# From -- ./inp_files/61739.got.cif
#   From: 2010.05.17/outbox.cif.g08.bks.cpg/sg11_31_cif.got.tgz:61739.got - 2010.06.03 12:22:45.
