data_PCOD9156356
_publ_section_title
;
Structure prediction by ZEFSAII (Michael W. Deem and Ramdas Pophale) SiO2 
 PCOD9156356
Probable space group: P 21/M
;
_chemical_formula_sum "Si O2"
_cell_formula_units_Z 32
_cell_length_a 21.725798
_cell_length_b 7.492693
_cell_length_c 22.679334
_cell_angle_alpha 90.000000
_cell_angle_beta 155.240476
_cell_angle_gamma 90.000000
_cell_volume 1546.185973
_symmetry_space_group_name_H-M "P 21/M"
_symmetry_group_IT_number 11
_symmetry_cell_setting 'monoclinic'
loop_
_space_group_symop_operation_xyz
x,y,z
-x,1/2+y,-z
-x,-y,-z
x,1/2-y,z
loop_
_atom_site_type_symbol
_atom_site_label
_atom_site_fract_x
_atom_site_fract_y
_atom_site_fract_z
Si Si1 0.372835 0.538531 0.937426
Si Si2 0.469356 0.469290 0.237147
Si Si3 0.780746 0.043612 0.824630
Si Si4 0.168708 0.964229 0.661318
Si Si5 0.406369 0.956095 0.774650
Si Si6 0.151440 0.969433 0.244206
Si Si7 0.847551 0.951729 0.014167
Si Si8 0.542468 0.465773 0.433426
O O1 0.360965 0.750000 0.936826
O O2 0.227367 0.472626 0.776548
O O3 0.500000 0.500000 0.000000
O O4 0.440023 0.460218 0.055499
O O5 0.465280 0.250000 0.232462
O O6 0.563263 0.532933 0.263331
O O7 0.530666 0.519503 0.354492
O O8 0.299642 0.532346 0.086398
O O9 0.820448 0.250000 0.867753
O O10 0.854940 0.974383 0.829710
O O11 0.604498 0.033268 0.662738
O O12 0.814366 0.946099 0.914880
O O13 0.188602 0.750000 0.680180
O O14 0.279374 0.033999 0.706510
O O15 0.000000 0.000000 0.500000
O O16 0.364886 0.750000 0.729484
O O17 0.148441 0.750000 0.241051
O O18 0.305759 0.025136 0.405882
O O19 0.009747 0.032327 0.157362
O O20 0.858486 0.750000 0.046702
O O21 0.537882 0.250000 0.431775
#
# Coordination Sequence:
#
# PCOD9156356 Si02
#       8
#     4   4   4   4   4   4   4   4
#     4   9  17  30  48  72  96 122 152 184 218 258
#     4   8  15  29  49  67  87 117 155 190 223 265
#     4  10  18  28  43  66  92 118 149 189 232 280
#     4   9  18  30  46  69  99 123 145 179 220 261
#     4   9  17  31  49  71  94 120 154 190 222 264
#     4   9  17  28  45  68  91 114 149 193 237 278
#     4   9  17  31  48  66  88 117 151 190 231 276
#     4   9  17  31  48  65  88 121 153 187 228 274
#
# _framework density 20.696086999999999
#
# number of rings (size 3 to 8) (size 9 to 14) (size 15 to 20)
#    0.000    3.000    0.000    3.000    0.000    2.500 
#    0.000    5.625    0.000    4.500    0.000    0.000 
#    0.000    0.000    0.000    0.000    0.000    0.000 
#
# Total GULP energy -178371.753829 kJ/mol
# GULP energy per Si atom -5574.117307 kJ/mol
# Density = 2.064898 g / cm^3
# Si number density = 20.696087 Si / 1000 Ang^3
#
#
#
# Elastic Constant Matrix: (Units=GPa)
#
#
# Indices 1 2 3 4 5 6 
#
# 1 84.0605 1.5102 14.0232 0.0000 7.4939 0.0000
# 2 1.5102 62.3657 -6.9378 0.0000 2.1284 0.0000
# 3 14.0232 -6.9378 93.7018 0.0000 19.6638 0.0000
# 4 0.0000 0.0000 0.0000 17.0937 0.0000 0.2483
# 5 7.4939 2.1284 19.6638 0.0000 21.6698 0.0000
# 6 0.0000 0.0000 0.0000 0.2483 0.0000 7.7681
#
#
#
# Elastic Compliance Matrix: (Units=1/GPa)
#
#
# Indices 1 2 3 4 5 6 
#
# 1 0.012386 -0.000328 -0.001218 0.000000 -0.003146 0.000000
# 2 -0.000328 0.016370 0.001945 0.000000 -0.003260 0.000000
# 3 -0.001218 0.001945 0.013526 0.000000 -0.012044 0.000000
# 4 0.000000 0.000000 0.000000 0.058528 0.000000 -0.001871
# 5 -0.003146 -0.003260 -0.012044 0.000000 0.058484 0.000000
# 6 0.000000 0.000000 0.000000 -0.001871 0.000000 0.128792
#
#
# Mechanical properties :
#
#
# Convention : Reuss Voigt Hill
#
# Bulk Modulus (GPa) = 23.21235 28.59101 25.90168
# Shear Modulus (GPa) = 16.57569 24.74181 20.65875
#
# Velocity S-wave (km/s) = 2.83310 3.46133 3.16285
# Velocity P-wave (km/s) = 4.68424 5.46068 5.08730
#
# Compressibility (1/GPa) = 0.04308052
#
# Stress axis : x y z
#
# Youngs Moduli (GPa) = 80.73834 61.08726 73.93252
#
# Poissons Ratio (x) = 0.02004 0.09003
# Poissons Ratio (y) = 0.02648 -0.14381
# Poissons Ratio (z) = 0.09831 -0.11883
#
# Static dielectric constant tensor:
#      x y z
#    x 1.733720 0.000000 0.008540 
#    y 0.000000 1.772570 0.000000 
#    z 0.008540 0.000000 1.768650 
# 
# From -- ./inp_files/27958.got.cif
#   From: 2010.05.17/outbox.cif.g08.bks.cpg/sg11_14_cif.got.tgz:27958.got - 2010.06.03 12:22:45.
