data_PCOD9156553
_publ_section_title
;
Structure prediction by ZEFSAII (Michael W. Deem and Ramdas Pophale) SiO2 
 PCOD9156553
Probable space group: P 21/M
;
_chemical_formula_sum "Si O2"
_cell_formula_units_Z 32
_cell_length_a 31.318668
_cell_length_b 8.740398
_cell_length_c 21.880641
_cell_angle_alpha 90.000000
_cell_angle_beta 160.505843
_cell_angle_gamma 90.000000
_cell_volume 1998.778642
_symmetry_space_group_name_H-M "P 21/M"
_symmetry_group_IT_number 11
_symmetry_cell_setting 'monoclinic'
loop_
_space_group_symop_operation_xyz
x,y,z
-x,1/2+y,-z
-x,-y,-z
x,1/2-y,z
loop_
_atom_site_type_symbol
_atom_site_label
_atom_site_fract_x
_atom_site_fract_y
_atom_site_fract_z
Si Si1 0.551932 0.566067 0.978340
Si Si2 0.370468 0.433948 0.053275
Si Si3 0.784496 0.934002 0.951325
Si Si4 0.022334 0.068163 0.341914
Si Si5 0.450435 0.566581 0.285964
Si Si6 0.616506 0.566179 0.617494
Si Si7 0.296091 0.567970 0.704801
Si Si8 0.930422 0.933722 0.346560
O O1 0.570077 0.750000 0.008218
O O2 0.649697 0.485230 0.156395
O O3 0.577709 0.522133 0.943420
O O4 0.409247 0.530640 0.809594
O O5 0.379603 0.250000 0.071290
O O6 0.445544 0.509725 0.210310
O O7 0.220189 0.474563 0.855267
O O8 0.791790 0.750000 0.965618
O O9 0.742534 0.979009 0.825551
O O10 0.670581 0.991742 0.842154
O O11 0.915256 0.005889 0.151208
O O12 0.015089 0.250000 0.335924
O O13 0.163360 0.015088 0.513202
O O14 0.991438 0.998478 0.366951
O O15 0.436068 0.750000 0.268724
O O16 0.578402 0.523299 0.496973
O O17 0.500000 0.500000 0.500000
O O18 0.612119 0.750000 0.614459
O O19 0.276614 0.750000 0.678563
O O20 0.940473 0.750000 0.360264
O O21 0.000000 0.000000 0.500000
#
# Coordination Sequence:
#
# PCOD9156553 Si02
#       8
#     4   4   4   4   4   4   4   4
#     4   9  19  36  55  75  98 125 163 209 252 295
#     4  10  20  33  49  70  99 132 162 197 242 291
#     4  10  18  31  48  68  97 131 165 201 244 290
#     4  12  23  34  49  71 101 132 167 206 245 291
#     4  10  18  29  46  71 100 130 163 197 238 290
#     4   8  16  28  44  66  94 127 161 197 237 286
#     4  10  20  35  55  75  96 125 165 210 255 296
#     4  11  22  34  49  70 100 133 165 197 241 296
#
# _framework density 16.009775999999999
#
# number of rings (size 3 to 8) (size 9 to 14) (size 15 to 20)
#    0.000    2.000    1.250    3.375    0.000    3.500 
#    0.000    0.000    0.000    0.000    0.000    0.875 
#    0.000    0.000    0.000    0.000    0.000    0.000 
#
# Total GULP energy -178494.570083 kJ/mol
# GULP energy per Si atom -5577.955315 kJ/mol
# Density = 1.597334 g / cm^3
# Si number density = 16.009776 Si / 1000 Ang^3
#
#
#
# Elastic Constant Matrix: (Units=GPa)
#
#
# Indices 1 2 3 4 5 6 
#
# 1 47.7029 21.2810 35.3291 0.0000 -8.9455 0.0000
# 2 21.2810 44.1910 37.8627 0.0000 -4.2825 0.0000
# 3 35.3291 37.8627 111.7433 0.0000 -17.7085 0.0000
# 4 0.0000 0.0000 0.0000 24.7784 0.0000 -4.6230
# 5 -8.9455 -4.2825 -17.7085 0.0000 21.7074 0.0000
# 6 0.0000 0.0000 0.0000 -4.6230 0.0000 19.6946
#
#
#
# Elastic Compliance Matrix: (Units=1/GPa)
#
#
# Indices 1 2 3 4 5 6 
#
# 1 0.030323 -0.009342 -0.005436 0.000000 0.006218 0.000000
# 2 -0.009342 0.034924 -0.009645 0.000000 -0.004828 0.000000
# 3 -0.005436 -0.009645 0.015251 0.000000 0.008298 0.000000
# 4 0.000000 0.000000 0.000000 0.042206 0.000000 0.009907
# 5 0.006218 -0.004828 0.008298 0.000000 0.054447 0.000000
# 6 0.000000 0.000000 0.000000 0.009907 0.000000 0.053101
#
#
# Mechanical properties :
#
#
# Convention : Reuss Voigt Hill
#
# Bulk Modulus (GPa) = 31.59453 43.62032 37.60743
# Shear Modulus (GPa) = 17.26229 20.51369 18.88799
#
# Velocity S-wave (km/s) = 3.28721 3.58344 3.43852
# Velocity P-wave (km/s) = 5.84680 6.66533 6.26944
#
# Compressibility (1/GPa) = 0.03165104
#
# Stress axis : x y z
#
# Youngs Moduli (GPa) = 32.97841 28.63374 65.56993
#
# Poissons Ratio (x) = 0.26751 0.35644
# Poissons Ratio (y) = 0.30810 0.63242
# Poissons Ratio (z) = 0.17927 0.27617
#
# Static dielectric constant tensor:
#      x y z
#    x 1.523890 0.000000 -0.021850 
#    y 0.000000 1.538210 0.000000 
#    z -0.021850 0.000000 1.542850 
# 
# From -- ./inp_files/42921.got.cif
#   From: 2010.05.17/outbox.cif.g08.bks.cpg/sg11_22_cif.got.tgz:42921.got - 2010.06.03 12:22:45.
