data_PCOD9156983
_publ_section_title
;
Structure prediction by ZEFSAII (Michael W. Deem and Ramdas Pophale) SiO2 
 PCOD9156983
Probable space group: P 21/M
;
_chemical_formula_sum "Si O2"
_cell_formula_units_Z 24
_cell_length_a 17.055540
_cell_length_b 7.430783
_cell_length_c 23.179149
_cell_angle_alpha 90.000000
_cell_angle_beta 156.582726
_cell_angle_gamma 90.000000
_cell_volume 1167.487522
_symmetry_space_group_name_H-M "P 21/M"
_symmetry_group_IT_number 11
_symmetry_cell_setting 'monoclinic'
loop_
_space_group_symop_operation_xyz
x,y,z
-x,1/2+y,-z
-x,-y,-z
x,1/2-y,z
loop_
_atom_site_type_symbol
_atom_site_label
_atom_site_fract_x
_atom_site_fract_y
_atom_site_fract_z
Si Si1 0.117553 0.969984 0.398624
Si Si2 0.576033 0.968775 0.703384
Si Si3 0.857008 0.035559 0.456445
Si Si4 0.085553 0.044049 0.850708
Si Si5 0.289848 0.035939 0.328078
Si Si6 0.407192 0.470499 0.156003
O O1 0.114174 0.750000 0.394103
O O2 0.345698 0.021334 0.541368
O O3 0.068669 0.028519 0.430681
O O4 0.975979 0.036609 0.252347
O O5 0.578636 0.750000 0.704370
O O6 0.695677 0.029595 0.728234
O O7 0.644603 0.025582 0.813326
O O8 0.841353 0.250000 0.451328
O O9 0.632230 0.971818 0.296198
O O10 0.000000 0.000000 0.500000
O O11 0.146248 0.250000 0.880112
O O12 0.256340 0.963701 0.005837
O O13 0.886672 0.045583 0.754420
O O14 0.258317 0.250000 0.306326
O O15 0.500000 0.000000 0.500000
O O16 0.401469 0.250000 0.152119
#
# Coordination Sequence:
#
# PCOD9156983 Si02
#       6
#     4   4   4   4   4   4
#     4   8  14  27  48  68  90 124 160 187 229 287
#     4   8  14  27  45  66  92 126 162 195 227 272
#     4   9  17  32  53  73  92 121 157 194 235 286
#     4  10  18  31  50  72  95 125 163 200 234 279
#     4  11  20  30  47  70  98 130 167 203 236 273
#     4   8  16  30  50  71  94 125 161 193 232 289
#
# _framework density 20.556964000000001
#
# number of rings (size 3 to 8) (size 9 to 14) (size 15 to 20)
#    0.000    3.000    1.667    2.500    0.000    0.667 
#    0.000    2.500    0.000    1.000    0.000    0.000 
#    0.000    0.000    0.000    0.000    0.000    0.000 
#
# Total GULP energy -133873.986134 kJ/mol
# GULP energy per Si atom -5578.082756 kJ/mol
# Density = 2.051018 g / cm^3
# Si number density = 20.556964 Si / 1000 Ang^3
#
#
#
# Elastic Constant Matrix: (Units=GPa)
#
#
# Indices 1 2 3 4 5 6 
#
# 1 162.0654 -4.3712 84.0410 0.0000 -28.7847 0.0000
# 2 -4.3712 66.9977 0.8343 0.0000 -5.6685 0.0000
# 3 84.0410 0.8343 145.3563 0.0000 -46.6797 0.0000
# 4 0.0000 0.0000 0.0000 0.1948 0.0000 6.2987
# 5 -28.7847 -5.6685 -46.6797 0.0000 34.5202 0.0000
# 6 0.0000 0.0000 0.0000 6.2987 0.0000 16.9799
#
#
#
# Elastic Compliance Matrix: (Units=1/GPa)
#
#
# Indices 1 2 3 4 5 6 
#
# 1 0.008860 0.000724 -0.004801 0.000000 0.001015 0.000000
# 2 0.000724 0.015326 0.000876 0.000000 0.004305 0.000000
# 3 -0.004801 0.000876 0.014867 0.000000 0.016245 0.000000
# 4 0.000000 0.000000 0.000000 -0.466908 0.000000 0.173201
# 5 0.001015 0.004305 0.016245 0.000000 0.052488 0.000000
# 6 0.000000 0.000000 0.000000 0.173201 0.000000 -0.005356
#
#
# Mechanical properties :
#
#
# Convention : Reuss Voigt Hill
#
# Bulk Modulus (GPa) = 30.62671 59.49196 45.05933
# Shear Modulus (GPa) = -13.75754 29.93333 8.08790
#
# Velocity S-wave (km/s) = -2.58977 3.82005 1.98568
# Velocity P-wave (km/s) = 2.44709 6.96131 5.21767
#
# Compressibility (1/GPa) = 0.03265123
#
# Stress axis : x y z
#
# Youngs Moduli (GPa) = 112.87312 65.24686 67.26301
#
# Poissons Ratio (x) = -0.04722 0.32290
# Poissons Ratio (y) = -0.08168 -0.05893
# Poissons Ratio (z) = 0.54186 -0.05716
#
# Static dielectric constant tensor:
#      x y z
#    x 1.736780 0.000000 -0.035350 
#    y 0.000000 1.783830 0.000000 
#    z -0.035350 0.000000 1.719190 
# 
# From -- ./inp_files/20859.got.cif
#   From: 2010.05.17/outbox.cif.g08.bks.cpg/sg11_11_cif.got.tgz:20859.got - 2010.06.03 12:22:45.
