data_PCOD9156294
_publ_section_title
;
Structure prediction by ZEFSAII (Michael W. Deem and Ramdas Pophale) SiO2 
 PCOD9156294
Probable space group: P 21/M
;
_chemical_formula_sum "Si O2"
_cell_formula_units_Z 32
_cell_length_a 19.134344
_cell_length_b 18.634508
_cell_length_c 11.463170
_cell_angle_alpha 90.000000
_cell_angle_beta 33.425603
_cell_angle_gamma 90.000000
_cell_volume 2251.503081
_symmetry_space_group_name_H-M "P 21/M"
_symmetry_group_IT_number 11
_symmetry_cell_setting 'monoclinic'
loop_
_space_group_symop_operation_xyz
x,y,z
-x,1/2+y,-z
-x,-y,-z
x,1/2-y,z
loop_
_atom_site_type_symbol
_atom_site_label
_atom_site_fract_x
_atom_site_fract_y
_atom_site_fract_z
Si Si1 0.836934 0.553018 0.312707
Si Si2 0.377841 0.333225 0.443824
Si Si3 0.128172 0.940082 0.944215
Si Si4 0.678334 0.166775 0.443825
Si Si5 0.469261 0.384613 0.561476
Si Si6 0.679920 0.015266 0.140160
Si Si7 0.350359 0.553018 0.312707
Si Si8 0.572387 0.440082 0.055784
O O1 0.746791 0.620648 0.413985
O O2 0.845225 0.505325 0.183266
O O3 0.768237 0.499999 0.499998
O O4 0.978492 0.572873 0.153313
O O5 0.366534 0.250000 0.429457
O O6 0.407577 0.341718 0.540427
O O7 0.492524 0.372417 0.214966
O O8 0.207491 0.872417 0.785033
O O9 0.188910 0.964362 0.981481
O O10 0.704008 0.250000 0.429457
O O11 0.551995 0.158282 0.540427
O O12 0.660774 0.120648 0.586017
O O13 0.365092 0.434436 0.769815
O O14 0.572217 0.436937 0.355564
O O15 0.670390 0.035637 0.018520
O O16 0.471509 0.505324 0.183265
O O17 0.368194 0.572873 0.153315
#
# Coordination Sequence:
#
# PCOD9156294 Si02
#       8
#     4   4   4   4   4   4   4   4
#     4   9  17  30  45  63  88 118 151 184 216 258
#     4  10  18  27  43  67  93 115 140 182 227 272
#     4   9  17  29  46  64  87 118 151 181 221 263
#     4  10  18  27  43  67  93 115 140 182 227 272
#     4   9  15  26  42  66  91 111 142 177 228 273
#     4   9  14  26  47  64  85 115 146 187 220 256
#     4   9  17  30  45  63  88 118 151 184 216 258
#     4   9  17  29  46  64  87 118 151 181 221 263
#
# _framework density 14.212726999999999
#
# number of rings (size 3 to 8) (size 9 to 14) (size 15 to 20)
#    0.000    2.750    2.500    0.375    0.000    1.000 
#    0.000    0.625    0.000    0.000    0.000    0.000 
#    0.000    0.000    0.000    0.000    0.000    0.000 
#
# Total GULP energy -178169.726870 kJ/mol
# GULP energy per Si atom -5567.803965 kJ/mol
# Density = 1.418038 g / cm^3
# Si number density = 14.212727 Si / 1000 Ang^3
#
#
#
# Elastic Constant Matrix: (Units=GPa)
#
#
# Indices 1 2 3 4 5 6 
#
# 1 109.7075 49.1576 62.1545 0.0000 -0.4100 0.0000
# 2 49.1576 104.2378 41.0610 0.0000 -0.9570 0.0000
# 3 62.1545 41.0610 72.7129 0.0000 -3.9615 0.0000
# 4 0.0000 0.0000 0.0000 8.5201 0.0000 -0.4247
# 5 -0.4100 -0.9570 -3.9615 0.0000 21.6172 0.0000
# 6 0.0000 0.0000 0.0000 -0.4247 0.0000 12.1133
#
#
#
# Elastic Compliance Matrix: (Units=1/GPa)
#
#
# Indices 1 2 3 4 5 6 
#
# 1 0.018593 -0.003187 -0.014223 0.000000 -0.002395 0.000000
# 2 -0.003187 0.012896 -0.004576 0.000000 -0.000328 0.000000
# 3 -0.014223 -0.004576 0.028756 0.000000 0.004797 0.000000
# 4 0.000000 0.000000 0.000000 0.117575 0.000000 0.004122
# 5 -0.002395 -0.000328 0.004797 0.000000 0.047079 0.000000
# 6 0.000000 0.000000 0.000000 0.004122 0.000000 0.082698
#
#
# Mechanical properties :
#
#
# Convention : Reuss Voigt Hill
#
# Bulk Modulus (GPa) = 61.45633 65.71161 63.58397
# Shear Modulus (GPa) = 14.00583 17.40245 15.70414
#
# Velocity S-wave (km/s) = 3.14258 3.50298 3.32766
# Velocity P-wave (km/s) = 7.51678 7.91807 7.72003
#
# Compressibility (1/GPa) = 0.01627172
#
# Stress axis : x y z
#
# Youngs Moduli (GPa) = 53.78480 77.54336 34.77506
#
# Poissons Ratio (x) = 0.24715 0.49462
# Poissons Ratio (y) = 0.17142 0.15913
# Poissons Ratio (z) = 0.76501 0.35483
#
# Static dielectric constant tensor:
#      x y z
#    x 1.469640 0.000000 -0.001940 
#    y 0.000000 1.456430 0.000000 
#    z -0.001940 0.000000 1.453270 
# 
# From -- ./inp_files/35874.got.cif
#   From: 2010.05.17/outbox.cif.g08.bks.cpg/sg11_18_cif.got.tgz:35874.got - 2010.06.03 12:22:45.
