data_PCOD9156194
_publ_section_title
;
Structure prediction by ZEFSAII (Michael W. Deem and Ramdas Pophale) SiO2 
 PCOD9156194
Probable space group: P 21/M
;
_chemical_formula_sum "Si O2"
_cell_formula_units_Z 24
_cell_length_a 9.782764
_cell_length_b 16.835610
_cell_length_c 9.159790
_cell_angle_alpha 90.000000
_cell_angle_beta 60.485029
_cell_angle_gamma 90.000000
_cell_volume 1312.830034
_symmetry_space_group_name_H-M "P 21/M"
_symmetry_group_IT_number 11
_symmetry_cell_setting 'monoclinic'
loop_
_space_group_symop_operation_xyz
x,y,z
-x,1/2+y,-z
-x,-y,-z
x,1/2-y,z
loop_
_atom_site_type_symbol
_atom_site_label
_atom_site_fract_x
_atom_site_fract_y
_atom_site_fract_z
Si Si1 0.375594 0.340662 0.762907
Si Si2 0.356368 0.449424 0.509230
Si Si3 0.011957 0.990910 0.665852
Si Si4 0.478936 0.001602 0.838661
Si Si5 0.952068 0.660699 0.885985
Si Si6 0.129169 0.938890 0.000064
O O1 0.431661 0.250000 0.738823
O O2 0.349232 0.370218 0.610369
O O3 0.485792 0.407199 0.779252
O O4 0.211298 0.345092 0.938264
O O5 0.500000 0.500000 0.500000
O O6 0.192946 0.494799 0.613074
O O7 0.397747 0.447923 0.315931
O O8 0.957839 0.905620 0.756725
O O9 0.000000 0.000000 0.500000
O O10 0.911836 0.056869 0.807126
O O11 0.500000 0.000000 0.000000
O O12 0.305117 0.969600 0.890260
O O13 0.968406 0.750000 0.821784
O O14 0.088621 0.639650 0.931436
O O15 0.000000 0.000000 0.000000
#
# Coordination Sequence:
#
# PCOD9156194 Si02
#       6
#     4   4   4   4   4   4
#     4  10  19  36  58  83 110 147 192 235 274 325
#     4  10  20  35  55  83 107 147 189 224 266 337
#     4  11  20  34  57  83 112 144 186 229 280 331
#     4  11  21  36  58  86 116 150 183 224 287 342
#     4  10  19  35  59  84 108 147 194 237 275 320
#     4  10  17  36  58  78 106 146 194 218 262 339
#
# _framework density 18.281119
#
# number of rings (size 3 to 8) (size 9 to 14) (size 15 to 20)
#    0.000    1.667    5.000    4.000    0.000    0.000 
#    0.000   10.833    0.000    0.000    0.000    0.000 
#    0.000    0.000    0.000    0.000    0.000    0.000 
#
# Total GULP energy -133749.219019 kJ/mol
# GULP energy per Si atom -5572.884126 kJ/mol
# Density = 1.823951 g / cm^3
# Si number density = 18.281119 Si / 1000 Ang^3
#
#
#
# Elastic Constant Matrix: (Units=GPa)
#
#
# Indices 1 2 3 4 5 6 
#
# 1 40.3588 20.1391 18.1703 0.0000 2.3022 0.0000
# 2 20.1391 97.2575 42.5648 0.0000 14.8524 0.0000
# 3 18.1703 42.5648 136.4403 0.0000 20.5924 0.0000
# 4 0.0000 0.0000 0.0000 22.3246 0.0000 -2.3757
# 5 2.3022 14.8524 20.5924 0.0000 43.3913 0.0000
# 6 0.0000 0.0000 0.0000 -2.3757 0.0000 13.8718
#
#
#
# Elastic Compliance Matrix: (Units=1/GPa)
#
#
# Indices 1 2 3 4 5 6 
#
# 1 0.028285 -0.005010 -0.002409 0.000000 0.001357 0.000000
# 2 -0.005010 0.013051 -0.002984 0.000000 -0.002785 0.000000
# 3 -0.002409 -0.002984 0.009056 0.000000 -0.003149 0.000000
# 4 0.000000 0.000000 0.000000 0.045625 0.000000 0.007814
# 5 0.001357 -0.002785 -0.003149 0.000000 0.025422 0.000000
# 6 0.000000 0.000000 0.000000 0.007814 0.000000 0.073427
#
#
# Mechanical properties :
#
#
# Convention : Reuss Voigt Hill
#
# Bulk Modulus (GPa) = 33.79929 48.42278 41.11103
# Shear Modulus (GPa) = 22.16979 28.79636 25.48307
#
# Velocity S-wave (km/s) = 3.48618 3.97318 3.73762
# Velocity P-wave (km/s) = 5.89351 6.89881 6.41588
#
# Compressibility (1/GPa) = 0.02958642
#
# Stress axis : x y z
#
# Youngs Moduli (GPa) = 35.35470 76.62484 110.42357
#
# Poissons Ratio (x) = 0.38389 0.26598
# Poissons Ratio (y) = 0.17713 0.32948
# Poissons Ratio (z) = 0.08516 0.22863
#
# Static dielectric constant tensor:
#      x y z
#    x 1.655040 0.000000 0.023450 
#    y 0.000000 1.647470 0.000000 
#    z 0.023450 0.000000 1.711580 
# 
# From -- ./inp_files/18530.got.cif
#   From: 2010.05.17/outbox.cif.g08.bks.cpg/sg11_10_cif.got.tgz:18530.got - 2010.06.03 12:22:45.
