data_PCOD9156396
_publ_section_title
;
Structure prediction by ZEFSAII (Michael W. Deem and Ramdas Pophale) SiO2 
 PCOD9156396
Probable space group: P 21/M
;
_chemical_formula_sum "Si O2"
_cell_formula_units_Z 28
_cell_length_a 9.965470
_cell_length_b 8.677762
_cell_length_c 32.614846
_cell_angle_alpha 90.000000
_cell_angle_beta 145.778414
_cell_angle_gamma 90.000000
_cell_volume 1586.215744
_symmetry_space_group_name_H-M "P 21/M"
_symmetry_group_IT_number 11
_symmetry_cell_setting 'monoclinic'
loop_
_space_group_symop_operation_xyz
x,y,z
-x,1/2+y,-z
-x,-y,-z
x,1/2-y,z
loop_
_atom_site_type_symbol
_atom_site_label
_atom_site_fract_x
_atom_site_fract_y
_atom_site_fract_z
Si Si1 0.254224 0.437035 0.298049
Si Si2 0.178784 0.065668 0.187231
Si Si3 0.130827 0.936033 0.734787
Si Si4 0.705023 0.933556 0.308405
Si Si5 0.795480 0.064691 0.419242
Si Si6 0.052462 0.433012 0.946757
Si Si7 0.358463 0.064833 0.098737
O O1 0.249902 0.250000 0.297837
O O2 0.147126 0.482015 0.226627
O O3 0.531281 0.483383 0.368176
O O4 0.094712 0.489915 0.295605
O O5 0.199172 0.250000 0.190921
O O6 0.433458 0.996555 0.237633
O O7 0.978719 0.011765 0.104989
O O8 0.120788 0.750000 0.727693
O O9 0.372112 0.971954 0.821088
O O10 0.156920 0.010111 0.696897
O O11 0.700017 0.750000 0.309092
O O12 0.814105 0.001648 0.377736
O O13 0.803077 0.250000 0.420295
O O14 0.000000 0.000000 0.500000
O O15 0.050116 0.250000 0.940664
O O16 0.824426 0.483076 0.916546
O O17 0.278147 0.475572 0.032250
O O18 0.325929 0.250000 0.095123
#
# Coordination Sequence:
#
# PCOD9156396 Si02
#       7
#     4   4   4   4   4   4   4
#     4   8  18  34  55  78 103 135 173 213 258 311
#     4  10  18  32  51  73 100 138 182 222 262 310
#     4  10  18  34  55  76 103 138 176 216 262 312
#     4  11  21  33  53  82 108 136 173 215 256 306
#     4  10  20  38  61  85 109 137 171 209 252 304
#     4  10  18  28  44  71 102 133 176 227 268 306
#     4   9  18  29  46  70 100 137 175 218 268 313
#
# _framework density 17.652076000000001
#
# number of rings (size 3 to 8) (size 9 to 14) (size 15 to 20)
#    0.000    2.286    1.429    3.429    0.000    0.571 
#    0.000    5.714    0.000    0.000    0.000    0.000 
#    0.000    0.000    0.000    0.000    0.000    0.000 
#
# Total GULP energy -156192.669863 kJ/mol
# GULP energy per Si atom -5578.309638 kJ/mol
# Density = 1.761190 g / cm^3
# Si number density = 17.652076 Si / 1000 Ang^3
#
#
#
# Elastic Constant Matrix: (Units=GPa)
#
#
# Indices 1 2 3 4 5 6 
#
# 1 130.5218 36.7909 62.2766 0.0000 -14.4942 0.0000
# 2 36.7909 56.8028 44.6546 0.0000 -7.0760 0.0000
# 3 62.2766 44.6546 130.2468 0.0000 -23.2111 0.0000
# 4 0.0000 0.0000 0.0000 28.5178 0.0000 -9.2712
# 5 -14.4942 -7.0760 -23.2111 0.0000 18.6581 0.0000
# 6 0.0000 0.0000 0.0000 -9.2712 0.0000 9.0566
#
#
#
# Elastic Compliance Matrix: (Units=1/GPa)
#
#
# Indices 1 2 3 4 5 6 
#
# 1 0.010633 -0.004015 -0.003221 0.000000 0.002730 0.000000
# 2 -0.004015 0.025647 -0.007318 0.000000 -0.002496 0.000000
# 3 -0.003221 -0.007318 0.013859 0.000000 0.011963 0.000000
# 4 0.000000 0.000000 0.000000 0.052557 0.000000 0.053803
# 5 0.002730 -0.002496 0.011963 0.000000 0.069653 0.000000
# 6 0.000000 0.000000 0.000000 0.053803 0.000000 0.165495
#
#
# Mechanical properties :
#
#
# Convention : Reuss Voigt Hill
#
# Bulk Modulus (GPa) = 47.54886 67.22396 57.38641
# Shear Modulus (GPa) = 13.37029 22.83643 18.10336
#
# Velocity S-wave (km/s) = 2.75514 3.60070 3.20592
# Velocity P-wave (km/s) = 6.09231 7.44662 6.80325
#
# Compressibility (1/GPa) = 0.02103100
#
# Stress axis : x y z
#
# Youngs Moduli (GPa) = 94.04327 38.99041 72.15564
#
# Poissons Ratio (x) = 0.15654 0.23243
# Poissons Ratio (y) = 0.37756 0.52806
# Poissons Ratio (z) = 0.30294 0.28535
#
# Static dielectric constant tensor:
#      x y z
#    x 1.592250 0.000000 -0.013250 
#    y 0.000000 1.594430 0.000000 
#    z -0.013250 0.000000 1.603770 
# 
# From -- ./inp_files/28978.got.cif
#   From: 2010.05.17/outbox.cif.g08.bks.cpg/sg11_15_cif.got.tgz:28978.got - 2010.06.03 12:22:45.
