data_PCOD9156328
_publ_section_title
;
Structure prediction by ZEFSAII (Michael W. Deem and Ramdas Pophale) SiO2 
 PCOD9156328
Probable space group: P 21/M
;
_chemical_formula_sum "Si O2"
_cell_formula_units_Z 32
_cell_length_a 16.602458
_cell_length_b 8.692128
_cell_length_c 31.500949
_cell_angle_alpha 90.000000
_cell_angle_beta 29.750553
_cell_angle_gamma 90.000000
_cell_volume 2255.800451
_symmetry_space_group_name_H-M "P 21/M"
_symmetry_group_IT_number 11
_symmetry_cell_setting 'monoclinic'
loop_
_space_group_symop_operation_xyz
x,y,z
-x,1/2+y,-z
-x,-y,-z
x,1/2-y,z
loop_
_atom_site_type_symbol
_atom_site_label
_atom_site_fract_x
_atom_site_fract_y
_atom_site_fract_z
Si Si1 0.605423 0.563222 0.189784
Si Si2 0.720712 0.934976 0.486185
Si Si3 0.078276 0.933754 0.528411
Si Si4 0.238084 0.935865 0.366025
Si Si5 0.905678 0.565048 0.002101
Si Si6 0.184134 0.065339 0.824010
Si Si7 0.681214 0.934583 0.410964
Si Si8 0.340442 0.934389 0.667579
O O1 0.601708 0.750000 0.192552
O O2 0.420422 0.509358 0.273294
O O3 0.719648 0.520870 0.097617
O O4 0.696398 0.516043 0.191776
O O5 0.727005 0.750000 0.486766
O O6 0.766341 0.975777 0.416622
O O7 0.531873 0.980737 0.580297
O O8 0.835500 0.007135 0.468840
O O9 0.071077 0.750000 0.532209
O O10 0.183987 0.980798 0.438550
O O11 0.899129 0.000032 0.602398
O O12 0.235562 0.750000 0.365133
O O13 0.916770 0.750000 0.996130
O O14 0.000000 0.500000 0.000000
O O15 0.004685 0.496030 0.917581
O O16 0.182129 0.250000 0.824171
O O17 0.252574 0.000710 0.748929
O O18 0.675533 0.750000 0.410625
O O19 0.500000 0.000000 0.500000
O O20 0.737115 0.003614 0.340728
O O21 0.334843 0.750000 0.670135
#
# Coordination Sequence:
#
# PCOD9156328 Si02
#       8
#     4   4   4   4   4   4   4   4
#     4   8  15  27  43  59  77 108 144 173 205 245
#     4   9  18  30  43  59  81 110 140 169 204 245
#     4  10  19  28  41  61  82 107 139 174 209 242
#     4   9  17  30  43  56  79 109 140 174 209 242
#     4   9  16  27  41  59  82 107 139 174 208 247
#     4  10  18  28  42  61  85 112 141 171 207 248
#     4   9  17  29  43  60  82 108 138 170 205 244
#     4  10  19  29  42  62  85 110 141 173 206 243
#
# _framework density 14.185653
#
# number of rings (size 3 to 8) (size 9 to 14) (size 15 to 20)
#    0.000    2.750    0.000    4.125    0.000    4.500 
#    0.000    3.750    0.000    0.000    0.000    0.000 
#    0.000    1.000    0.000    3.000    0.000    4.000 
#
# Total GULP energy -178181.048705 kJ/mol
# GULP energy per Si atom -5568.157772 kJ/mol
# Density = 1.415337 g / cm^3
# Si number density = 14.185653 Si / 1000 Ang^3
#
#
#
# Elastic Constant Matrix: (Units=GPa)
#
#
# Indices 1 2 3 4 5 6 
#
# 1 107.0678 31.6629 60.8101 0.0000 7.2143 0.0000
# 2 31.6629 35.1191 30.7767 0.0000 4.2553 0.0000
# 3 60.8101 30.7767 120.3754 0.0000 4.8615 0.0000
# 4 0.0000 0.0000 0.0000 19.4316 0.0000 3.0810
# 5 7.2143 4.2553 4.8615 0.0000 22.2281 0.0000
# 6 0.0000 0.0000 0.0000 3.0810 0.0000 21.7467
#
#
#
# Elastic Compliance Matrix: (Units=1/GPa)
#
#
# Indices 1 2 3 4 5 6 
#
# 1 0.015058 -0.008677 -0.005305 0.000000 -0.002066 0.000000
# 2 -0.008677 0.042260 -0.006264 0.000000 -0.003904 0.000000
# 3 -0.005305 -0.006264 0.012582 0.000000 0.000169 0.000000
# 4 0.000000 0.000000 0.000000 0.052645 0.000000 -0.007459
# 5 -0.002066 -0.003904 0.000169 0.000000 0.046369 0.000000
# 6 0.000000 0.000000 0.000000 -0.007459 0.000000 0.047041
#
#
# Mechanical properties :
#
#
# Convention : Reuss Voigt Hill
#
# Bulk Modulus (GPa) = 34.00362 56.56242 45.28302
# Shear Modulus (GPa) = 18.77944 21.96879 20.37411
#
# Velocity S-wave (km/s) = 3.64240 3.93957 3.79390
# Velocity P-wave (km/s) = 6.45848 7.78802 7.15420
#
# Compressibility (1/GPa) = 0.02940863
#
# Stress axis : x y z
#
# Youngs Moduli (GPa) = 66.40949 23.66318 79.47901
#
# Poissons Ratio (x) = 0.20532 0.42164
# Poissons Ratio (y) = 0.57622 0.49784
# Poissons Ratio (z) = 0.35231 0.14822
#
# Static dielectric constant tensor:
#      x y z
#    x 1.456850 0.000000 0.008220 
#    y 0.000000 1.474520 0.000000 
#    z 0.008220 0.000000 1.472590 
# 
# From -- ./inp_files/56014.got.cif
#   From: 2010.05.17/outbox.cif.g08.bks.cpg/sg11_29_cif.got.tgz:56014.got - 2010.06.03 12:22:45.
