data_PCOD9156633
_publ_section_title
;
Structure prediction by ZEFSAII (Michael W. Deem and Ramdas Pophale) SiO2 
 PCOD9156633
Probable space group: P 21/M
;
_chemical_formula_sum "Si O2"
_cell_formula_units_Z 28
_cell_length_a 9.790489
_cell_length_b 7.571338
_cell_length_c 26.721989
_cell_angle_alpha 90.000000
_cell_angle_beta 38.317979
_cell_angle_gamma 90.000000
_cell_volume 1228.160657
_symmetry_space_group_name_H-M "P 21/M"
_symmetry_group_IT_number 11
_symmetry_cell_setting 'monoclinic'
loop_
_space_group_symop_operation_xyz
x,y,z
-x,1/2+y,-z
-x,-y,-z
x,1/2-y,z
loop_
_atom_site_type_symbol
_atom_site_label
_atom_site_fract_x
_atom_site_fract_y
_atom_site_fract_z
Si Si1 0.032863 0.949764 0.898967
Si Si2 0.892632 0.035944 0.307519
Si Si3 0.574776 0.538348 0.535542
Si Si4 0.374422 0.032530 0.928167
Si Si5 0.221747 0.545668 0.124168
Si Si6 0.037564 0.544254 0.378991
Si Si7 0.505925 0.044609 0.780684
O O1 0.084144 0.750000 0.898796
O O2 0.268529 0.036977 0.823082
O O3 0.888318 0.949885 0.890529
O O4 0.869963 0.029490 0.987436
O O5 0.900006 0.250000 0.306330
O O6 0.638252 0.978456 0.372087
O O7 0.054635 0.967994 0.218699
O O8 0.972633 0.969497 0.338804
O O9 0.500000 0.500000 0.500000
O O10 0.587028 0.750000 0.537655
O O11 0.823684 0.466862 0.469147
O O12 0.370052 0.250000 0.929221
O O13 0.546081 0.977878 0.921682
O O14 0.463486 0.972314 0.848811
O O15 0.247867 0.750000 0.102581
O O16 0.048301 0.750000 0.391027
O O17 0.284808 0.467270 0.309016
O O18 0.562728 0.250000 0.771996
#
# Coordination Sequence:
#
# PCOD9156633 Si02
#       7
#     4   4   4   4   4   4   4
#     4  11  23  37  52  77 108 137 172 219 268 308
#     4  10  18  29  48  78 110 134 167 214 262 304
#     4   8  15  26  44  73 105 135 165 206 255 301
#     4   9  19  36  57  78 102 133 176 220 258 307
#     4  11  21  37  57  76 102 140 179 214 257 314
#     4   9  16  30  52  75 104 140 175 208 249 306
#     4  10  19  35  56  78 105 140 177 211 251 310
#
# _framework density 22.798318999999999
#
# number of rings (size 3 to 8) (size 9 to 14) (size 15 to 20)
#    0.000    2.286    1.429    2.143    0.000    1.143 
#    0.000    2.857    0.000    0.857    0.000    0.000 
#    0.000    0.000    0.000    0.000    0.000    0.000 
#
# Total GULP energy -156231.134514 kJ/mol
# GULP energy per Si atom -5579.683376 kJ/mol
# Density = 2.274643 g / cm^3
# Si number density = 22.798319 Si / 1000 Ang^3
#
#
#
# Elastic Constant Matrix: (Units=GPa)
#
#
# Indices 1 2 3 4 5 6 
#
# 1 62.5725 -0.5858 15.4537 0.0000 -23.2826 0.0000
# 2 -0.5858 65.1531 -0.5852 0.0000 -7.2849 0.0000
# 3 15.4537 -0.5852 131.2731 0.0000 -54.4342 0.0000
# 4 0.0000 0.0000 0.0000 -1.1971 0.0000 7.8445
# 5 -23.2826 -7.2849 -54.4342 0.0000 36.4505 0.0000
# 6 0.0000 0.0000 0.0000 7.8445 0.0000 9.9829
#
#
#
# Elastic Compliance Matrix: (Units=1/GPa)
#
#
# Indices 1 2 3 4 5 6 
#
# 1 0.025836 0.004091 0.010923 0.000000 0.033632 0.000000
# 2 0.004091 0.017023 0.005485 0.000000 0.014207 0.000000
# 3 0.010923 0.005485 0.025486 0.000000 0.046133 0.000000
# 4 0.000000 0.000000 0.000000 -0.135846 0.000000 0.106747
# 5 0.033632 0.014207 0.046133 0.000000 0.120650 0.000000
# 6 0.000000 0.000000 0.000000 0.106747 0.000000 0.016290
#
#
# Mechanical properties :
#
#
# Convention : Reuss Voigt Hill
#
# Bulk Modulus (GPa) = 9.14552 31.95158 20.54855
# Shear Modulus (GPa) = 77.05385 25.36167 51.20776
#
# Velocity S-wave (km/s) = 5.81992 3.33894 4.74447
# Velocity P-wave (km/s) = 7.01299 5.37680 6.24868
#
# Compressibility (1/GPa) = 0.10934314
#
# Stress axis : x y z
#
# Youngs Moduli (GPa) = 38.70537 58.74406 39.23700
#
# Poissons Ratio (x) = -0.24031 -0.42857
# Poissons Ratio (y) = -0.15834 -0.21523
# Poissons Ratio (z) = -0.42277 -0.32223
#
# Static dielectric constant tensor:
#      x y z
#    x 1.827530 0.000000 -0.044290 
#    y 0.000000 1.845670 0.000000 
#    z -0.044290 0.000000 1.905700 
# 
# From -- ./inp_files/28266.got.cif
#   From: 2010.05.17/outbox.cif.g08.bks.cpg/sg11_15_cif.got.tgz:28266.got - 2010.06.03 12:22:45.
