data_PCOD9156726
_publ_section_title
;
Structure prediction by ZEFSAII (Michael W. Deem and Ramdas Pophale) SiO2 
 PCOD9156726
Probable space group: P 21/M
;
_chemical_formula_sum "Si O2"
_cell_formula_units_Z 24
_cell_length_a 10.546529
_cell_length_b 8.411082
_cell_length_c 20.958575
_cell_angle_alpha 90.000000
_cell_angle_beta 48.612573
_cell_angle_gamma 90.000000
_cell_volume 1394.866824
_symmetry_space_group_name_H-M "P 21/M"
_symmetry_group_IT_number 11
_symmetry_cell_setting 'monoclinic'
loop_
_space_group_symop_operation_xyz
x,y,z
-x,1/2+y,-z
-x,-y,-z
x,1/2-y,z
loop_
_atom_site_type_symbol
_atom_site_label
_atom_site_fract_x
_atom_site_fract_y
_atom_site_fract_z
Si Si1 0.537869 0.056993 0.083377
Si Si2 0.318077 0.056764 0.268089
Si Si3 0.191532 0.057311 0.444816
Si Si4 0.682977 0.560388 0.458906
Si Si5 0.226033 0.939095 0.100337
Si Si6 0.993514 0.560825 0.719326
O O1 0.527554 0.250000 0.082611
O O2 0.485106 0.010141 0.172606
O O3 0.386694 0.986329 0.090791
O O4 0.713203 0.010294 0.990850
O O5 0.315357 0.250000 0.269566
O O6 0.296912 0.003080 0.347670
O O7 0.153194 0.005714 0.281740
O O8 0.191105 0.250000 0.445356
O O9 0.264619 0.000720 0.487946
O O10 0.000000 0.000000 0.500000
O O11 0.500000 0.500000 0.500000
O O12 0.679025 0.750000 0.462689
O O13 0.828954 0.508876 0.361461
O O14 0.204132 0.750000 0.108155
O O15 0.068475 0.015395 0.189212
O O16 0.001068 0.750000 0.712126
#
# Coordination Sequence:
#
# PCOD9156726 Si02
#       6
#     4   4   4   4   4   4
#     4   8  14  24  38  60  92 127 156 188 237 288
#     4   8  14  26  45  68  94 124 156 192 237 287
#     4  10  19  32  51  74  98 127 164 202 243 292
#     4  11  23  36  51  72  99 131 168 206 246 291
#     4   9  15  23  38  62  93 124 157 194 233 286
#     4  10  18  30  48  67  93 128 162 199 246 291
#
# _framework density 17.205943000000001
#
# number of rings (size 3 to 8) (size 9 to 14) (size 15 to 20)
#    0.000    2.667    1.667    2.500    0.000    1.333 
#    0.000    0.000    0.000    0.000    0.000    1.167 
#    0.000    0.000    0.000    0.000    0.000    0.000 
#
# Total GULP energy -133604.847632 kJ/mol
# GULP energy per Si atom -5566.868651 kJ/mol
# Density = 1.716678 g / cm^3
# Si number density = 17.205943 Si / 1000 Ang^3
#
#
#
# Elastic Constant Matrix: (Units=GPa)
#
#
# Indices 1 2 3 4 5 6 
#
# 1 66.0307 14.2402 62.1085 0.0000 -1.7341 0.0000
# 2 14.2402 20.9253 24.9087 0.0000 -1.5921 0.0000
# 3 62.1085 24.9087 186.8079 0.0000 7.6874 0.0000
# 4 0.0000 0.0000 0.0000 24.2526 0.0000 -4.5937
# 5 -1.7341 -1.5921 7.6874 0.0000 14.6116 0.0000
# 6 0.0000 0.0000 0.0000 -4.5937 0.0000 13.2944
#
#
#
# Elastic Compliance Matrix: (Units=1/GPa)
#
#
# Indices 1 2 3 4 5 6 
#
# 1 0.023512 -0.007103 -0.007107 0.000000 0.005756 0.000000
# 2 -0.007103 0.060540 -0.006079 0.000000 0.008952 0.000000
# 3 -0.007107 -0.006079 0.008779 0.000000 -0.006124 0.000000
# 4 0.000000 0.000000 0.000000 0.044120 0.000000 0.015245
# 5 0.005756 0.008952 -0.006124 0.000000 0.073319 0.000000
# 6 0.000000 0.000000 0.000000 0.015245 0.000000 0.080487
#
#
# Mechanical properties :
#
#
# Convention : Reuss Voigt Hill
#
# Bulk Modulus (GPa) = 19.13765 52.91986 36.02875
# Shear Modulus (GPa) = 14.33676 21.93216 18.13446
#
# Velocity S-wave (km/s) = 2.88973 3.57415 3.25000
# Velocity P-wave (km/s) = 4.72026 6.91782 5.92187
#
# Compressibility (1/GPa) = 0.05225302
#
# Stress axis : x y z
#
# Youngs Moduli (GPa) = 42.53106 16.51790 113.91374
#
# Poissons Ratio (x) = 0.11733 0.80958
# Poissons Ratio (y) = 0.30210 0.69251
# Poissons Ratio (z) = 0.30227 0.10042
#
# Static dielectric constant tensor:
#      x y z
#    x 1.549650 0.000000 0.033180 
#    y 0.000000 1.584680 0.000000 
#    z 0.033180 0.000000 1.649870 
# 
# From -- ./inp_files/42653.got.cif
#   From: 2010.05.17/outbox.cif.g08.bks.cpg/sg11_22_cif.got.tgz:42653.got - 2010.06.03 12:22:45.
