data_PCOD9156438
_publ_section_title
;
Structure prediction by ZEFSAII (Michael W. Deem and Ramdas Pophale) SiO2 
 PCOD9156438
Probable space group: P 21/M
;
_chemical_formula_sum "Si O2"
_cell_formula_units_Z 24
_cell_length_a 17.464814
_cell_length_b 8.445513
_cell_length_c 23.960100
_cell_angle_alpha 90.000000
_cell_angle_beta 156.712110
_cell_angle_gamma 90.000000
_cell_volume 1397.210612
_symmetry_space_group_name_H-M "P 21/M"
_symmetry_group_IT_number 11
_symmetry_cell_setting 'monoclinic'
loop_
_space_group_symop_operation_xyz
x,y,z
-x,1/2+y,-z
-x,-y,-z
x,1/2-y,z
loop_
_atom_site_type_symbol
_atom_site_label
_atom_site_fract_x
_atom_site_fract_y
_atom_site_fract_z
Si Si1 0.208130 0.557777 0.296102
Si Si2 0.487531 0.438853 0.581845
Si Si3 0.468535 0.062479 0.916152
Si Si4 0.132684 0.060498 0.857702
Si Si5 0.152999 0.442681 0.431505
Si Si6 0.941860 0.438925 0.400645
O O1 0.225644 0.750000 0.311982
O O2 0.343120 0.480831 0.434126
O O3 0.302337 0.506757 0.300116
O O4 0.990626 0.517934 0.169350
O O5 0.501591 0.250000 0.597236
O O6 0.366949 0.497225 0.554718
O O7 0.449885 0.250000 0.905908
O O8 0.273341 0.991212 0.760284
O O9 0.500000 0.000000 0.000000
O O10 0.657596 0.015514 0.007438
O O11 0.151300 0.250000 0.867567
O O12 0.002664 0.004757 0.717920
O O13 0.147465 0.250000 0.425665
O O14 0.086041 0.494643 0.447791
O O15 0.949232 0.250000 0.406084
O O16 0.000000 0.500000 0.500000
#
# Coordination Sequence:
#
# PCOD9156438 Si02
#       6
#     4   4   4   4   4   4
#     4   8  14  23  37  62  95 126 157 195 241 291
#     4   8  13  23  39  61  91 126 160 196 240 291
#     4  12  23  36  54  76 101 134 172 213 257 304
#     4  10  18  28  46  72 101 132 165 203 248 298
#     4   9  17  29  47  69  96 131 169 206 248 297
#     4  11  23  38  54  75 103 136 173 213 256 304
#
# _framework density 17.177081000000001
#
# number of rings (size 3 to 8) (size 9 to 14) (size 15 to 20)
#    0.000    2.333    1.667    2.500    0.000    1.333 
#    0.000    0.000    0.000    0.000    0.000    1.167 
#    0.000    0.000    0.000    0.000    0.000    0.000 
#
# Total GULP energy -133640.069672 kJ/mol
# GULP energy per Si atom -5568.336236 kJ/mol
# Density = 1.713799 g / cm^3
# Si number density = 17.177081 Si / 1000 Ang^3
#
#
#
# Elastic Constant Matrix: (Units=GPa)
#
#
# Indices 1 2 3 4 5 6 
#
# 1 170.0396 21.8628 72.8215 0.0000 33.7732 0.0000
# 2 21.8628 27.1032 10.3553 0.0000 -0.5052 0.0000
# 3 72.8215 10.3553 66.2301 0.0000 8.4811 0.0000
# 4 0.0000 0.0000 0.0000 22.0650 0.0000 1.1243
# 5 33.7732 -0.5052 8.4811 0.0000 26.2213 0.0000
# 6 0.0000 0.0000 0.0000 1.1243 0.0000 17.6922
#
#
#
# Elastic Compliance Matrix: (Units=1/GPa)
#
#
# Indices 1 2 3 4 5 6 
#
# 1 0.016594 -0.008024 -0.014849 0.000000 -0.016725 0.000000
# 2 -0.008024 0.043326 0.000644 0.000000 0.010961 0.000000
# 3 -0.014849 0.000644 0.030122 0.000000 0.009395 0.000000
# 4 0.000000 0.000000 0.000000 0.045468 0.000000 -0.002889
# 5 -0.016725 0.010961 0.009395 0.000000 0.056851 0.000000
# 6 0.000000 0.000000 0.000000 -0.002889 0.000000 0.056706
#
#
# Mechanical properties :
#
#
# Convention : Reuss Voigt Hill
#
# Bulk Modulus (GPa) = 21.93681 52.60577 37.27129
# Shear Modulus (GPa) = 16.19604 23.75127 19.97365
#
# Velocity S-wave (km/s) = 3.07398 3.72254 3.41370
# Velocity P-wave (km/s) = 5.03962 7.01202 6.10599
#
# Compressibility (1/GPa) = 0.04558548
#
# Stress axis : x y z
#
# Youngs Moduli (GPa) = 60.26392 23.08056 33.19862
#
# Poissons Ratio (x) = 0.18519 0.49296
# Poissons Ratio (y) = 0.48354 -0.02139
# Poissons Ratio (z) = 0.89485 -0.01487
#
# Static dielectric constant tensor:
#      x y z
#    x 1.652750 0.000000 0.061400 
#    y 0.000000 1.581310 0.000000 
#    z 0.061400 0.000000 1.545540 
# 
# From -- ./inp_files/25757.got.cif
#   From: 2010.05.17/outbox.cif.g08.bks.cpg/sg11_13_cif.got.tgz:25757.got - 2010.06.03 12:22:45.
