data_PCOD9156986
_publ_section_title
;
Structure prediction by ZEFSAII (Michael W. Deem and Ramdas Pophale) SiO2 
 PCOD9156986
Probable space group: P 21/M
;
_chemical_formula_sum "Si O2"
_cell_formula_units_Z 28
_cell_length_a 21.472197
_cell_length_b 8.605381
_cell_length_c 19.269394
_cell_angle_alpha 90.000000
_cell_angle_beta 25.826029
_cell_angle_gamma 90.000000
_cell_volume 1551.109487
_symmetry_space_group_name_H-M "P 21/M"
_symmetry_group_IT_number 11
_symmetry_cell_setting 'monoclinic'
loop_
_space_group_symop_operation_xyz
x,y,z
-x,1/2+y,-z
-x,-y,-z
x,1/2-y,z
loop_
_atom_site_type_symbol
_atom_site_label
_atom_site_fract_x
_atom_site_fract_y
_atom_site_fract_z
Si Si1 0.332806 0.936362 0.816250
Si Si2 0.662503 0.563162 0.333648
Si Si3 0.163259 0.563634 0.260866
Si Si4 0.333712 0.061405 0.518656
Si Si5 0.159236 0.436737 0.559793
Si Si6 0.162246 0.563727 0.413193
Si Si7 0.836530 0.565131 0.882869
O O1 0.326251 0.750000 0.824415
O O2 0.499881 0.984689 0.653104
O O3 0.274560 0.994682 0.800252
O O4 0.249815 0.005318 0.964464
O O5 0.500000 0.500000 0.500000
O O6 0.660634 0.750000 0.331216
O O7 0.725145 0.516533 0.346080
O O8 0.158902 0.750000 0.259883
O O9 0.226661 0.522375 0.273041
O O10 0.228102 0.495066 0.125485
O O11 0.000598 0.499719 0.425070
O O12 0.331901 0.250000 0.519083
O O13 0.245550 0.007603 0.540657
O O14 0.155542 0.250000 0.562750
O O15 0.225330 0.494392 0.420543
O O16 0.997564 0.498943 0.726165
O O17 0.158152 0.750000 0.422635
O O18 0.842023 0.750000 0.875963
#
# Coordination Sequence:
#
# PCOD9156986 Si02
#       7
#     4   4   4   4   4   4   4
#     4  10  19  34  53  73  96 125 161 200 241 284
#     4   9  16  30  50  73  97 123 159 200 237 278
#     4   9  16  27  44  65  91 125 160 194 234 278
#     4   8  17  32  52  74  96 123 158 197 235 281
#     4  10  18  31  50  72  98 129 159 191 237 286
#     4   9  16  26  42  67  95 122 156 197 235 274
#     4  11  21  32  47  72 101 127 158 198 240 283
#
# _framework density 18.051594999999999
#
# number of rings (size 3 to 8) (size 9 to 14) (size 15 to 20)
#    0.000    2.571    0.000    6.000    0.000    1.714 
#    0.000    9.286    0.000    0.857    0.000    0.000 
#    0.000    0.000    0.000    0.000    0.000    0.000 
#
# Total GULP energy -155944.373601 kJ/mol
# GULP energy per Si atom -5569.441914 kJ/mol
# Density = 1.801051 g / cm^3
# Si number density = 18.051595 Si / 1000 Ang^3
#
#
#
# Elastic Constant Matrix: (Units=GPa)
#
#
# Indices 1 2 3 4 5 6 
#
# 1 209.6561 42.9626 28.2338 0.0000 33.0097 0.0000
# 2 42.9626 81.9974 29.2004 0.0000 22.0180 0.0000
# 3 28.2338 29.2004 93.9574 0.0000 58.7417 0.0000
# 4 0.0000 0.0000 0.0000 17.2857 0.0000 14.9637
# 5 33.0097 22.0180 58.7417 0.0000 50.1710 0.0000
# 6 0.0000 0.0000 0.0000 14.9637 0.0000 23.9222
#
#
#
# Elastic Compliance Matrix: (Units=1/GPa)
#
#
# Indices 1 2 3 4 5 6 
#
# 1 0.005841 -0.002429 0.002746 0.000000 -0.005992 0.000000
# 2 -0.002429 0.014924 -0.003032 0.000000 -0.001401 0.000000
# 3 0.002746 -0.003032 0.041261 0.000000 -0.048785 0.000000
# 4 0.000000 0.000000 0.000000 0.126174 0.000000 -0.078924
# 5 -0.005992 -0.001401 -0.048785 0.000000 0.081608 0.000000
# 6 0.000000 0.000000 0.000000 -0.078924 0.000000 0.091170
#
#
# Mechanical properties :
#
#
# Convention : Reuss Voigt Hill
#
# Bulk Modulus (GPa) = 17.66950 65.15604 41.41277
# Shear Modulus (GPa) = 12.97775 37.29003 25.13389
#
# Velocity S-wave (km/s) = 2.68419 4.54998 3.73545
# Velocity P-wave (km/s) = 4.40637 7.98597 6.44949
#
# Compressibility (1/GPa) = 0.05659470
#
# Stress axis : x y z
#
# Youngs Moduli (GPa) = 171.19800 67.00416 24.23621
#
# Poissons Ratio (x) = 0.16278 -0.06655
# Poissons Ratio (y) = 0.41590 0.07349
# Poissons Ratio (z) = -0.47011 0.20318
#
# Static dielectric constant tensor:
#      x y z
#    x 1.681150 0.000000 0.039260 
#    y 0.000000 1.618640 0.000000 
#    z 0.039260 0.000000 1.625490 
# 
# From -- ./inp_files/61256.got.cif
#   From: 2010.05.17/outbox.cif.g08.bks.cpg/sg11_31_cif.got.tgz:61256.got - 2010.06.03 12:22:45.
