data_PCOD9156720
_publ_section_title
;
Structure prediction by ZEFSAII (Michael W. Deem and Ramdas Pophale) SiO2 
 PCOD9156720
Probable space group: P 21/M
;
_chemical_formula_sum "Si O2"
_cell_formula_units_Z 32
_cell_length_a 24.624494
_cell_length_b 8.645164
_cell_length_c 12.676555
_cell_angle_alpha 90.000000
_cell_angle_beta 133.611159
_cell_angle_gamma 90.000000
_cell_volume 1953.902455
_symmetry_space_group_name_H-M "P 21/M"
_symmetry_group_IT_number 11
_symmetry_cell_setting 'monoclinic'
loop_
_space_group_symop_operation_xyz
x,y,z
-x,1/2+y,-z
-x,-y,-z
x,1/2-y,z
loop_
_atom_site_type_symbol
_atom_site_label
_atom_site_fract_x
_atom_site_fract_y
_atom_site_fract_z
Si Si1 0.069214 0.063101 0.295240
Si Si2 0.500435 0.935549 0.381237
Si Si3 0.336230 0.937772 0.164575
Si Si4 0.343386 0.565191 0.419996
Si Si5 0.189719 0.436222 0.284367
Si Si6 0.179090 0.935729 0.862306
Si Si7 0.906956 0.935277 0.050824
Si Si8 0.075678 0.064764 0.548687
O O1 0.062316 0.250000 0.280813
O O2 0.139197 0.017408 0.316320
O O3 0.079128 0.018508 0.430760
O O4 0.992019 0.990541 0.150484
O O5 0.504268 0.750000 0.388613
O O6 0.417957 0.981874 0.228825
O O7 0.500000 0.000000 0.500000
O O8 0.576606 0.000771 0.434104
O O9 0.334086 0.750000 0.163243
O O10 0.331944 0.987442 0.281934
O O11 0.263280 0.989926 0.003383
O O12 0.346775 0.750000 0.423702
O O13 0.271947 0.508174 0.388862
O O14 0.196611 0.250000 0.294044
O O15 0.144117 0.480254 0.117378
O O16 0.177942 0.750000 0.855382
O O17 0.126506 0.988780 0.888644
O O18 0.144944 0.003781 0.710024
O O19 0.904969 0.750000 0.058827
O O20 0.073295 0.250000 0.550560
O O21 0.000000 0.000000 0.500000
#
# Coordination Sequence:
#
# PCOD9156720 Si02
#       8
#     4   4   4   4   4   4   4   4
#     4  10  22  38  53  68  96 134 169 207 256 299
#     4   9  16  28  45  69  99 132 166 200 239 294
#     4   8  16  29  46  69  98 130 163 195 241 295
#     4  10  18  30  47  71 101 135 165 196 244 299
#     4  10  21  35  50  73 100 132 169 206 247 299
#     4  11  20  33  52  73 100 134 166 203 250 296
#     4  11  21  32  50  75 100 126 167 209 246 296
#     4  11  22  36  53  73  96 128 169 213 254 298
#
# _framework density 16.377479999999998
#
# number of rings (size 3 to 8) (size 9 to 14) (size 15 to 20)
#    0.000    2.000    2.500    3.000    0.000    1.500 
#    0.000    1.875    0.000    0.000    0.000    0.875 
#    0.000    0.000    0.000    0.000    0.000    0.000 
#
# Total GULP energy -178502.722020 kJ/mol
# GULP energy per Si atom -5578.210063 kJ/mol
# Density = 1.634020 g / cm^3
# Si number density = 16.377480 Si / 1000 Ang^3
#
#
#
# Elastic Constant Matrix: (Units=GPa)
#
#
# Indices 1 2 3 4 5 6 
#
# 1 115.1922 29.0787 45.9589 0.0000 28.4955 0.0000
# 2 29.0787 29.6852 15.7196 0.0000 5.1933 0.0000
# 3 45.9589 15.7196 55.9028 0.0000 23.7679 0.0000
# 4 0.0000 0.0000 0.0000 21.5900 0.0000 5.1547
# 5 28.4955 5.1933 23.7679 0.0000 34.7924 0.0000
# 6 0.0000 0.0000 0.0000 5.1547 0.0000 22.1661
#
#
#
# Elastic Compliance Matrix: (Units=1/GPa)
#
#
# Indices 1 2 3 4 5 6 
#
# 1 0.015851 -0.010512 -0.007361 0.000000 -0.006385 0.000000
# 2 -0.010512 0.046694 -0.007307 0.000000 0.006632 0.000000
# 3 -0.007361 -0.007307 0.032369 0.000000 -0.014993 0.000000
# 4 0.000000 0.000000 0.000000 0.049041 0.000000 -0.011404
# 5 -0.006385 0.006632 -0.014993 0.000000 0.043223 0.000000
# 6 0.000000 0.000000 0.000000 -0.011404 0.000000 0.047766
#
#
# Mechanical properties :
#
#
# Convention : Reuss Voigt Hill
#
# Bulk Modulus (GPa) = 22.44534 42.47717 32.46125
# Shear Modulus (GPa) = 16.65802 23.04457 19.85129
#
# Velocity S-wave (km/s) = 3.19271 3.75519 3.48531
# Velocity P-wave (km/s) = 5.22742 6.69287 6.00502
#
# Compressibility (1/GPa) = 0.04455268
#
# Stress axis : x y z
#
# Youngs Moduli (GPa) = 63.08711 21.41617 30.89370
#
# Poissons Ratio (x) = 0.22513 0.22741
# Poissons Ratio (y) = 0.66319 0.22575
# Poissons Ratio (z) = 0.46438 0.15649
#
# Static dielectric constant tensor:
#      x y z
#    x 1.556170 0.000000 0.020640 
#    y 0.000000 1.553530 0.000000 
#    z 0.020640 0.000000 1.549080 
# 
# From -- ./inp_files/43814.got.cif
#   From: 2010.05.17/outbox.cif.g08.bks.cpg/sg11_22_cif.got.tgz:43814.got - 2010.06.03 12:22:45.
