data_PCOD9156934
_publ_section_title
;
Structure prediction by ZEFSAII (Michael W. Deem and Ramdas Pophale) SiO2 
 PCOD9156934
Probable space group: P 21/M
;
_chemical_formula_sum "Si O2"
_cell_formula_units_Z 24
_cell_length_a 9.023122
_cell_length_b 15.557437
_cell_length_c 12.421801
_cell_angle_alpha 90.000000
_cell_angle_beta 145.547288
_cell_angle_gamma 90.000000
_cell_volume 986.473639
_symmetry_space_group_name_H-M "P 21/M"
_symmetry_group_IT_number 11
_symmetry_cell_setting 'monoclinic'
loop_
_space_group_symop_operation_xyz
x,y,z
-x,1/2+y,-z
-x,-y,-z
x,1/2-y,z
loop_
_atom_site_type_symbol
_atom_site_label
_atom_site_fract_x
_atom_site_fract_y
_atom_site_fract_z
Si Si1 0.217203 0.750000 0.219914
Si Si2 0.780059 0.943002 0.427667
Si Si3 0.401194 0.410735 0.903587
Si Si4 0.812466 0.750000 0.777685
Si Si5 0.257331 0.250000 0.588467
Si Si6 0.355732 0.064635 0.268253
Si Si7 0.659225 0.250000 0.036584
Si Si8 0.005988 0.424665 0.844238
O O1 0.511654 0.750000 0.358230
O O2 0.167292 0.840544 0.244154
O O3 0.007029 0.750000 0.997144
O O4 0.577721 0.918752 0.211594
O O5 0.876193 0.844371 0.508478
O O6 0.614366 0.004341 0.408795
O O7 0.000000 0.000000 0.500000
O O8 0.582758 0.334917 0.053526
O O9 0.123621 0.409066 0.796331
O O10 0.500000 0.500000 0.000000
O O11 0.645262 0.661955 0.685740
O O12 0.043274 0.750000 0.825665
O O13 0.419752 0.250000 0.801161
O O14 0.157598 0.009871 0.224950
O O15 0.229630 0.074456 0.072292
#
# Coordination Sequence:
#
# PCOD9156934 Si02
#       8
#     2   4   4   2   2   4   2   4
#     4   9  15  28  54  82 107 138 192 229 271 322
#     4  11  23  39  58  84 114 156 189 229 288 342
#     4  11  20  35  56  87 119 143 188 239 280 329
#     4   9  18  29  50  82 115 147 182 239 279 328
#     4   9  18  37  57  77 109 151 190 229 267 349
#     4  10  19  33  54  81 112 148 191 226 284 332
#     4   9  19  32  53  87 121 146 180 235 295 325
#     4  10  18  30  56  86 109 141 187 241 272 326
#
# _framework density 24.329084999999999
#
# number of rings (size 3 to 8) (size 9 to 14) (size 15 to 20)
#    0.000    2.000    3.333    1.500    4.667    0.667 
#    0.000    1.667    0.000    0.000    0.000    0.000 
#    0.000    0.000    0.000    0.000    0.000    0.000 
#
# Total GULP energy -133735.694921 kJ/mol
# GULP energy per Si atom -5572.320622 kJ/mol
# Density = 2.427371 g / cm^3
# Si number density = 24.329085 Si / 1000 Ang^3
#
#
#
# Elastic Constant Matrix: (Units=GPa)
#
#
# Indices 1 2 3 4 5 6 
#
# 1 78.2213 40.3223 7.2030 0.0000 13.1929 0.0000
# 2 40.3223 256.1320 24.5632 0.0000 24.6706 0.0000
# 3 7.2030 24.5632 77.4942 0.0000 -1.2902 0.0000
# 4 0.0000 0.0000 0.0000 -0.2988 0.0000 32.7739
# 5 13.1929 24.6706 -1.2902 0.0000 30.1352 0.0000
# 6 0.0000 0.0000 0.0000 32.7739 0.0000 25.9280
#
#
#
# Elastic Compliance Matrix: (Units=1/GPa)
#
#
# Indices 1 2 3 4 5 6 
#
# 1 0.014604 -0.001730 -0.000892 0.000000 -0.005015 0.000000
# 2 -0.001730 0.004601 -0.001349 0.000000 -0.003067 0.000000
# 3 -0.000892 -0.001349 0.013449 0.000000 0.002071 0.000000
# 4 0.000000 0.000000 0.000000 -0.023966 0.000000 0.030294
# 5 -0.005015 -0.003067 0.002071 0.000000 0.037979 0.000000
# 6 0.000000 0.000000 0.000000 0.030294 0.000000 0.000276
#
#
# Mechanical properties :
#
#
# Convention : Reuss Voigt Hill
#
# Bulk Modulus (GPa) = 40.46686 61.78049 51.12367
# Shear Modulus (GPa) = 79.20832 33.80349 56.50591
#
# Velocity S-wave (km/s) = 5.71207 3.73155 4.82453
# Velocity P-wave (km/s) = 7.75712 6.63436 7.21760
#
# Compressibility (1/GPa) = 0.02471158
#
# Stress axis : x y z
#
# Youngs Moduli (GPa) = 68.47284 217.32344 74.35433
#
# Poissons Ratio (x) = 0.37607 0.06636
# Poissons Ratio (y) = 0.11849 0.10028
# Poissons Ratio (z) = 0.06111 0.29311
#
# Static dielectric constant tensor:
#      x y z
#    x 1.852560 0.000000 -0.057020 
#    y 0.000000 2.123700 0.000000 
#    z -0.057020 0.000000 2.055600 
# 
# From -- ./inp_files/12525.got.cif
#   From: 2010.05.17/outbox.cif.g08.bks.cpg/sg11_7_cif.got.tgz:12525.got - 2010.06.03 12:22:45.
