data_PCOD9156195
_publ_section_title
;
Structure prediction by ZEFSAII (Michael W. Deem and Ramdas Pophale) SiO2 
 PCOD9156195
Probable space group: P 21/M
;
_chemical_formula_sum "Si O2"
_cell_formula_units_Z 32
_cell_length_a 17.210773
_cell_length_b 15.218040
_cell_length_c 9.837501
_cell_angle_alpha 90.000000
_cell_angle_beta 35.541759
_cell_angle_gamma 90.000000
_cell_volume 1497.756930
_symmetry_space_group_name_H-M "P 21/M"
_symmetry_group_IT_number 11
_symmetry_cell_setting 'monoclinic'
loop_
_space_group_symop_operation_xyz
x,y,z
-x,1/2+y,-z
-x,-y,-z
x,1/2-y,z
loop_
_atom_site_type_symbol
_atom_site_label
_atom_site_fract_x
_atom_site_fract_y
_atom_site_fract_z
Si Si1 0.946877 0.528849 0.770063
Si Si2 0.318999 0.969780 0.983809
Si Si3 0.387402 0.470907 0.440832
Si Si4 0.164848 0.849075 0.366776
Si Si5 0.148235 0.351380 0.864830
Si Si6 0.080396 0.344305 0.644904
Si Si7 0.349952 0.651680 0.368920
Si Si8 0.630735 0.599327 0.840905
O O1 0.795783 0.518770 0.935154
O O2 0.044739 0.581650 0.530949
O O3 0.004846 0.432348 0.711750
O O4 0.944746 0.590323 0.906503
O O5 0.266758 0.874310 0.101973
O O6 0.335902 0.021928 0.101604
O O7 0.464030 0.969040 0.710992
O O8 0.286855 0.405041 0.656923
O O9 0.337234 0.571284 0.492950
O O10 0.398318 0.436842 0.268473
O O11 0.116247 0.750000 0.427692
O O12 0.244265 0.859018 0.396529
O O13 0.162439 0.250000 0.891755
O O14 0.093542 0.348049 0.789449
O O15 0.019435 0.250000 0.693004
O O16 0.231485 0.347893 0.371133
O O17 0.333296 0.750000 0.449797
O O18 0.498371 0.644551 0.089985
#
# Coordination Sequence:
#
# PCOD9156195 Si02
#       8
#     4   4   4   4   4   4   4   4
#     4  12  24  40  56  85 128 159 196 233 290 355
#     4  11  21  37  59  86 123 157 187 240 299 350
#     4  10  19  38  64  86 115 150 200 253 288 336
#     4  11  21  35  57  87 120 159 193 234 290 351
#     4  10  23  43  65  84 106 154 207 247 294 346
#     4  10  21  37  62  86 115 156 201 247 288 343
#     4  10  18  31  57  91 122 151 193 245 294 341
#     4  10  17  36  58  86 123 152 199 241 295 342
#
# _framework density 21.365283999999999
#
# number of rings (size 3 to 8) (size 9 to 14) (size 15 to 20)
#    0.000    1.500    3.750    3.000    0.000    2.000 
#    0.000    7.500    0.000    0.000    0.000    0.000 
#    0.000    0.000    0.000    0.000    0.000    0.000 
#
# Total GULP energy -178795.846401 kJ/mol
# GULP energy per Si atom -5587.370200 kJ/mol
# Density = 2.131666 g / cm^3
# Si number density = 21.365284 Si / 1000 Ang^3
#
#
#
# Elastic Constant Matrix: (Units=GPa)
#
#
# Indices 1 2 3 4 5 6 
#
# 1 34.2886 28.7930 44.6187 0.0000 -17.7503 0.0000
# 2 28.7930 186.0149 46.3617 0.0000 -11.1441 0.0000
# 3 44.6187 46.3617 48.3173 0.0000 -4.6707 0.0000
# 4 0.0000 0.0000 0.0000 20.4418 0.0000 -1.0785
# 5 -17.7503 -11.1441 -4.6707 0.0000 28.0270 0.0000
# 6 0.0000 0.0000 0.0000 -1.0785 0.0000 4.6488
#
#
#
# Elastic Compliance Matrix: (Units=1/GPa)
#
#
# Indices 1 2 3 4 5 6 
#
# 1 -0.064131 -0.007914 0.063610 0.000000 -0.033162 0.000000
# 2 -0.007914 0.006170 0.001159 0.000000 -0.002366 0.000000
# 3 0.063610 0.001159 -0.035794 0.000000 0.034782 0.000000
# 4 0.000000 0.000000 0.000000 0.049526 0.000000 0.011490
# 5 -0.033162 -0.002366 0.034782 0.000000 0.019533 0.000000
# 6 0.000000 0.000000 0.000000 0.011490 0.000000 0.217774
#
#
# Mechanical properties :
#
#
# Convention : Reuss Voigt Hill
#
# Bulk Modulus (GPa) = 50.11265 56.46306 53.28785
# Shear Modulus (GPa) = 58.12651 20.54668 39.33659
#
# Velocity S-wave (km/s) = 5.22160 3.10447 4.29551
# Velocity P-wave (km/s) = 7.73690 6.27177 7.04254
#
# Compressibility (1/GPa) = 0.01995504
#
# Stress axis : x y z
#
# Youngs Moduli (GPa) = -15.59300 162.06524 -27.93760
#
# Poissons Ratio (x) = 1.28257 1.77711
# Poissons Ratio (y) = -0.12340 0.03238
# Poissons Ratio (z) = 0.99187 -0.18781
#
# Static dielectric constant tensor:
#      x y z
#    x 1.770310 0.000000 0.004010 
#    y 0.000000 1.783640 0.000000 
#    z 0.004010 0.000000 1.811320 
# 
# From -- ./inp_files/41627.got.cif
#   From: 2010.05.17/outbox.cif.g08.bks.cpg/sg11_21_cif.got.tgz:41627.got - 2010.06.03 12:22:45.
