data_PCOD9156371
_publ_section_title
;
Structure prediction by ZEFSAII (Michael W. Deem and Ramdas Pophale) SiO2 
 PCOD9156371
Probable space group: P 21/M
;
_chemical_formula_sum "Si O2"
_cell_formula_units_Z 32
_cell_length_a 36.043607
_cell_length_b 8.729172
_cell_length_c 24.641650
_cell_angle_alpha 90.000000
_cell_angle_beta 164.234163
_cell_angle_gamma 90.000000
_cell_volume 2106.546552
_symmetry_space_group_name_H-M "P 21/M"
_symmetry_group_IT_number 11
_symmetry_cell_setting 'monoclinic'
loop_
_space_group_symop_operation_xyz
x,y,z
-x,1/2+y,-z
-x,-y,-z
x,1/2-y,z
loop_
_atom_site_type_symbol
_atom_site_label
_atom_site_fract_x
_atom_site_fract_y
_atom_site_fract_z
Si Si1 0.600444 0.933665 0.269646
Si Si2 0.388047 0.933541 0.883953
Si Si3 0.296823 0.932032 0.474906
Si Si4 0.003707 0.432546 0.090591
Si Si5 0.284818 0.433870 0.346824
Si Si6 0.935341 0.933754 0.110635
Si Si7 0.177269 0.433492 0.511451
Si Si8 0.631102 0.566523 0.655101
O O1 0.610424 0.750000 0.291156
O O2 0.719424 0.975184 0.393282
O O3 0.623881 0.014618 0.359685
O O4 0.455012 0.968573 0.036570
O O5 0.381576 0.750000 0.869465
O O6 0.248113 0.007219 0.666225
O O7 0.500000 0.000000 0.000000
O O8 0.292107 0.750000 0.465458
O O9 0.350814 0.999678 0.494151
O O10 0.144215 0.998407 0.267123
O O11 0.003990 0.250000 0.084969
O O12 0.990855 0.480754 0.135365
O O13 0.870210 0.504230 0.875009
O O14 0.281606 0.250000 0.344496
O O15 0.353681 0.481499 0.386663
O O16 0.946933 0.750000 0.119513
O O17 0.774617 0.972724 0.886603
O O18 0.032155 0.989567 0.295120
O O19 0.166917 0.250000 0.497549
O O20 0.500000 0.500000 0.500000
O O21 0.621167 0.750000 0.641193
#
# Coordination Sequence:
#
# PCOD9156371 Si02
#       8
#     4   4   4   4   4   4   4   4
#     4   9  18  30  42  60  88 124 161 192 229 268
#     4   9  17  28  42  59  85 120 159 196 231 269
#     4  12  22  30  44  65  90 123 158 192 228 266
#     4  11  20  31  45  63  90 121 154 191 229 268
#     4  10  21  36  49  65  89 117 152 189 228 273
#     4  10  19  31  47  69  93 121 157 191 229 274
#     4  10  18  28  44  65  90 121 158 194 233 270
#     4   9  20  36  54  72  91 117 147 187 236 281
#
# _framework density 15.19074
#
# number of rings (size 3 to 8) (size 9 to 14) (size 15 to 20)
#    0.000    2.000    1.250    5.625    0.000    5.500 
#    0.000    0.000    0.000    0.000    0.000    0.000 
#    0.000    1.000    0.000    3.250    0.000    4.000 
#
# Total GULP energy -178453.406578 kJ/mol
# GULP energy per Si atom -5576.668956 kJ/mol
# Density = 1.515616 g / cm^3
# Si number density = 15.190740 Si / 1000 Ang^3
#
#
#
# Elastic Constant Matrix: (Units=GPa)
#
#
# Indices 1 2 3 4 5 6 
#
# 1 74.9306 38.9595 65.7308 0.0000 -15.6395 0.0000
# 2 38.9595 72.3447 39.2503 0.0000 -10.9802 0.0000
# 3 65.7308 39.2503 92.0393 0.0000 -11.8677 0.0000
# 4 0.0000 0.0000 0.0000 26.3952 0.0000 -4.4691
# 5 -15.6395 -10.9802 -11.8677 0.0000 21.2788 0.0000
# 6 0.0000 0.0000 0.0000 -4.4691 0.0000 22.0018
#
#
#
# Elastic Compliance Matrix: (Units=1/GPa)
#
#
# Indices 1 2 3 4 5 6 
#
# 1 0.041742 -0.006809 -0.025217 0.000000 0.013102 0.000000
# 2 -0.006809 0.019687 -0.003090 0.000000 0.003431 0.000000
# 3 -0.025217 -0.003090 0.029735 0.000000 -0.003545 0.000000
# 4 0.000000 0.000000 0.000000 0.039235 0.000000 0.007970
# 5 0.013102 0.003431 -0.003545 0.000000 0.056418 0.000000
# 6 0.000000 0.000000 0.000000 0.007970 0.000000 0.047070
#
#
# Mechanical properties :
#
#
# Convention : Reuss Voigt Hill
#
# Bulk Modulus (GPa) = 47.77787 58.57730 53.17758
# Shear Modulus (GPa) = 16.07222 20.29341 18.18282
#
# Velocity S-wave (km/s) = 3.25626 3.65897 3.46347
# Velocity P-wave (km/s) = 6.75706 7.51636 7.14680
#
# Compressibility (1/GPa) = 0.02093019
#
# Stress axis : x y z
#
# Youngs Moduli (GPa) = 23.95695 50.79505 33.63061
#
# Poissons Ratio (x) = 0.34586 0.84807
# Poissons Ratio (y) = 0.16312 0.10393
# Poissons Ratio (z) = 0.60412 0.15698
#
# Static dielectric constant tensor:
#      x y z
#    x 1.505970 0.000000 -0.035940 
#    y 0.000000 1.517950 0.000000 
#    z -0.035940 0.000000 1.513030 
# 
# From -- ./inp_files/67442.got.cif
#   From: 2010.05.17/outbox.cif.g08.bks.cpg/sg11_34_cif.got.tgz:67442.got - 2010.06.03 12:22:45.
