data_PCOD9156927
_publ_section_title
;
Structure prediction by ZEFSAII (Michael W. Deem and Ramdas Pophale) SiO2 
 PCOD9156927
Probable space group: P 21/M
;
_chemical_formula_sum "Si O2"
_cell_formula_units_Z 32
_cell_length_a 12.150607
_cell_length_b 19.891482
_cell_length_c 9.963703
_cell_angle_alpha 90.000000
_cell_angle_beta 124.395890
_cell_angle_gamma 90.000000
_cell_volume 1987.105431
_symmetry_space_group_name_H-M "P 21/M"
_symmetry_group_IT_number 11
_symmetry_cell_setting 'monoclinic'
loop_
_space_group_symop_operation_xyz
x,y,z
-x,1/2+y,-z
-x,-y,-z
x,1/2-y,z
loop_
_atom_site_type_symbol
_atom_site_label
_atom_site_fract_x
_atom_site_fract_y
_atom_site_fract_z
Si Si1 0.143277 0.926128 0.194410
Si Si2 0.642407 0.412903 0.111735
Si Si3 0.133863 0.409806 0.574384
Si Si4 0.891756 0.671346 0.708154
Si Si5 0.202090 0.828976 0.997180
Si Si6 0.664275 0.930299 0.051372
Si Si7 0.843503 0.433684 0.486423
Si Si8 0.832084 0.926130 0.904624
O O1 0.180224 0.917287 0.374802
O O2 0.185099 0.999676 0.169952
O O3 0.202838 0.870281 0.136364
O O4 0.981914 0.923857 0.069469
O O5 0.696707 0.361317 0.039007
O O6 0.664857 0.488507 0.070032
O O7 0.730409 0.408328 0.307098
O O8 0.486676 0.406016 0.035924
O O9 0.148504 0.358123 0.463171
O O10 0.242350 0.402301 0.765804
O O11 0.147773 0.485264 0.523839
O O12 0.986431 0.405852 0.536483
O O13 0.862566 0.750000 0.700291
O O14 0.826747 0.628189 0.782546
O O15 0.051895 0.661874 0.835259
O O16 0.224851 0.750000 0.032586
O O17 0.728305 0.914354 0.952085
#
# Coordination Sequence:
#
# PCOD9156927 Si02
#       8
#     4   4   4   4   4   4   4   4
#     4  10  18  30  54  82 106 138 180 228 266 315
#     4  10  20  35  53  80 113 141 177 222 266 325
#     4  10  18  31  53  82 106 134 179 226 266 316
#     4  10  20  34  53  81 111 141 178 226 277 324
#     4  10  20  35  54  78 110 147 180 217 274 330
#     4  10  20  34  55  82 110 139 177 226 273 310
#     4  10  18  30  55  82 105 134 182 227 264 306
#     4  10  18  31  53  80 109 140 175 225 275 317
#
# _framework density 16.103826000000002
#
# number of rings (size 3 to 8) (size 9 to 14) (size 15 to 20)
#    0.000    2.000    5.000    0.000    0.000    0.000 
#    0.000    5.000    0.000    0.000    0.000    0.000 
#    0.000    0.000    0.000    0.000    0.000    0.000 
#
# Total GULP energy -178527.414179 kJ/mol
# GULP energy per Si atom -5578.981693 kJ/mol
# Density = 1.606717 g / cm^3
# Si number density = 16.103826 Si / 1000 Ang^3
#
#
#
# Elastic Constant Matrix: (Units=GPa)
#
#
# Indices 1 2 3 4 5 6 
#
# 1 131.0283 70.9901 88.0587 0.0000 -21.3716 0.0000
# 2 70.9901 86.8611 57.2284 0.0000 -15.6176 0.0000
# 3 88.0587 57.2284 126.1566 0.0000 -18.3905 0.0000
# 4 0.0000 0.0000 0.0000 18.7830 0.0000 -6.4529
# 5 -21.3716 -15.6176 -18.3905 0.0000 31.5373 0.0000
# 6 0.0000 0.0000 0.0000 -6.4529 0.0000 18.8514
#
#
#
# Elastic Compliance Matrix: (Units=1/GPa)
#
#
# Indices 1 2 3 4 5 6 
#
# 1 0.018902 -0.009246 -0.008524 0.000000 0.003260 0.000000
# 2 -0.009246 0.021453 -0.002888 0.000000 0.002674 0.000000
# 3 -0.008524 -0.002888 0.015450 0.000000 0.001802 0.000000
# 4 0.000000 0.000000 0.000000 0.060335 0.000000 0.020653
# 5 0.003260 0.002674 0.001802 0.000000 0.036293 0.000000
# 6 0.000000 0.000000 0.000000 0.020653 0.000000 0.060116
#
#
# Mechanical properties :
#
#
# Convention : Reuss Voigt Hill
#
# Bulk Modulus (GPa) = 69.02458 86.28895 77.65676
# Shear Modulus (GPa) = 19.32795 22.35226 20.84010
#
# Velocity S-wave (km/s) = 3.46816 3.72964 3.60128
# Velocity P-wave (km/s) = 7.68068 8.49978 8.10059
#
# Compressibility (1/GPa) = 0.01448759
#
# Stress axis : x y z
#
# Youngs Moduli (GPa) = 52.90533 46.61428 64.72665
#
# Poissons Ratio (x) = 0.43098 0.55175
# Poissons Ratio (y) = 0.48915 0.18694
# Poissons Ratio (z) = 0.45098 0.13463
#
# Static dielectric constant tensor:
#      x y z
#    x 1.518950 0.000000 0.006110 
#    y 0.000000 1.525090 0.000000 
#    z 0.006110 0.000000 1.524760 
# 
# From -- ./inp_files/19162.got.cif
#   From: 2010.05.17/outbox.cif.g08.bks.cpg/sg11_10_cif.got.tgz:19162.got - 2010.06.03 12:22:45.
