data_PCOD9156321
_publ_section_title
;
Structure prediction by ZEFSAII (Michael W. Deem and Ramdas Pophale) SiO2 
 PCOD9156321
Probable space group: P 21/M
;
_chemical_formula_sum "Si O2"
_cell_formula_units_Z 32
_cell_length_a 18.976281
_cell_length_b 9.207006
_cell_length_c 18.685214
_cell_angle_alpha 90.000000
_cell_angle_beta 136.592466
_cell_angle_gamma 90.000000
_cell_volume 2243.365518
_symmetry_space_group_name_H-M "P 21/M"
_symmetry_group_IT_number 11
_symmetry_cell_setting 'monoclinic'
loop_
_space_group_symop_operation_xyz
x,y,z
-x,1/2+y,-z
-x,-y,-z
x,1/2-y,z
loop_
_atom_site_type_symbol
_atom_site_label
_atom_site_fract_x
_atom_site_fract_y
_atom_site_fract_z
Si Si1 0.579865 0.582521 0.656889
Si Si2 0.092436 0.075757 0.476393
Si Si3 0.495762 0.923070 0.262081
Si Si4 0.653127 0.417141 0.577362
Si Si5 0.509041 0.922416 0.891730
Si Si6 0.344117 0.077158 0.867306
Si Si7 0.116788 0.423727 0.661205
Si Si8 0.276936 0.076496 0.508475
O O1 0.608996 0.750000 0.689884
O O2 0.571001 0.493936 0.723844
O O3 0.649532 0.505035 0.648743
O O4 0.464180 0.582266 0.538926
O O5 0.082498 0.250000 0.465091
O O6 0.122494 0.039890 0.580640
O O7 0.182036 0.031637 0.488159
O O8 0.983047 0.002379 0.381723
O O9 0.480847 0.750000 0.248224
O O10 0.615326 0.949931 0.371136
O O11 0.474099 0.997360 0.170489
O O12 0.682887 0.250000 0.610058
O O13 0.717995 0.494022 0.563108
O O14 0.497153 0.750000 0.872288
O O15 0.409195 0.989073 0.856954
O O16 0.601711 0.946399 0.016346
O O17 0.351830 0.250000 0.856305
O O18 0.224871 0.036910 0.776569
O O19 0.103353 0.250000 0.657018
O O20 0.271298 0.250000 0.491832
#
# Coordination Sequence:
#
# PCOD9156321 Si02
#       8
#     4   4   4   4   4   4   4   4
#     4   9  16  26  39  56  80 109 140 170 201 240
#     4   9  17  28  42  61  82 105 137 173 206 242
#     4  10  18  28  42  59  83 113 141 170 205 243
#     4   9  16  25  38  57  80 107 139 171 203 240
#     4  10  19  29  43  63  83 105 138 175 207 243
#     4   9  18  32  46  59  80 110 139 169 208 250
#     4   9  17  30  45  59  79 108 138 169 208 248
#     4   9  17  28  41  57  81 113 142 169 204 244
#
# _framework density 14.264282
#
# number of rings (size 3 to 8) (size 9 to 14) (size 15 to 20)
#    0.000    2.750    0.000    2.250    0.000    7.000 
#    0.000    2.500    0.000    0.000    0.000    0.000 
#    0.000    1.000    0.000    3.000    0.000    4.625 
#
# Total GULP energy -178316.062873 kJ/mol
# GULP energy per Si atom -5572.376965 kJ/mol
# Density = 1.423182 g / cm^3
# Si number density = 14.264282 Si / 1000 Ang^3
#
#
#
# Elastic Constant Matrix: (Units=GPa)
#
#
# Indices 1 2 3 4 5 6 
#
# 1 114.0224 55.6261 40.7015 0.0000 -14.4330 0.0000
# 2 55.6261 68.0560 39.4261 0.0000 -14.2277 0.0000
# 3 40.7015 39.4261 53.5807 0.0000 -5.9439 0.0000
# 4 0.0000 0.0000 0.0000 19.5534 0.0000 -3.7534
# 5 -14.4330 -14.2277 -5.9439 0.0000 25.4417 0.0000
# 6 0.0000 0.0000 0.0000 -3.7534 0.0000 27.6600
#
#
#
# Elastic Compliance Matrix: (Units=1/GPa)
#
#
# Indices 1 2 3 4 5 6 
#
# 1 0.015223 -0.009419 -0.004373 0.000000 0.002347 0.000000
# 2 -0.009419 0.034295 -0.016986 0.000000 0.009867 0.000000
# 3 -0.004373 -0.016986 0.034037 0.000000 -0.004028 0.000000
# 4 0.000000 0.000000 0.000000 0.052510 0.000000 0.007126
# 5 0.002347 0.009867 -0.004028 0.000000 0.045214 0.000000
# 6 0.000000 0.000000 0.000000 0.007126 0.000000 0.037120
#
#
# Mechanical properties :
#
#
# Convention : Reuss Voigt Hill
#
# Bulk Modulus (GPa) = 45.45418 56.35181 50.90300
# Shear Modulus (GPa) = 17.40403 21.19138 19.29771
#
# Velocity S-wave (km/s) = 3.49680 3.85856 3.68213
# Velocity P-wave (km/s) = 6.94539 7.70991 7.33761
#
# Compressibility (1/GPa) = 0.02200017
#
# Stress axis : x y z
#
# Youngs Moduli (GPa) = 65.68877 29.15840 29.37947
#
# Poissons Ratio (x) = 0.27463 0.12848
# Poissons Ratio (y) = 0.61870 0.49904
# Poissons Ratio (z) = 0.28727 0.49529
#
# Static dielectric constant tensor:
#      x y z
#    x 1.453290 0.000000 -0.005540 
#    y 0.000000 1.477090 0.000000 
#    z -0.005540 0.000000 1.452290 
# 
# From -- ./inp_files/59885.got.cif
#   From: 2010.05.17/outbox.cif.g08.bks.cpg/sg11_30_cif.got.tgz:59885.got - 2010.06.03 12:22:45.
