data_PCOD9156027
_publ_section_title
;
Structure prediction by ZEFSAII (Michael W. Deem and Ramdas Pophale) SiO2 
 PCOD9156027
Probable space group: P 21/M
;
_chemical_formula_sum "Si O2"
_cell_formula_units_Z 32
_cell_length_a 24.296703
_cell_length_b 8.130664
_cell_length_c 30.524990
_cell_angle_alpha 90.000000
_cell_angle_beta 16.725190
_cell_angle_gamma 90.000000
_cell_volume 1735.369292
_symmetry_space_group_name_H-M "P 21/M"
_symmetry_group_IT_number 11
_symmetry_cell_setting 'monoclinic'
loop_
_space_group_symop_operation_xyz
x,y,z
-x,1/2+y,-z
-x,-y,-z
x,1/2-y,z
loop_
_atom_site_type_symbol
_atom_site_label
_atom_site_fract_x
_atom_site_fract_y
_atom_site_fract_z
Si Si1 0.099379 0.548938 0.568238
Si Si2 0.099207 0.445730 0.878857
Si Si3 0.128584 0.552512 0.646736
Si Si4 0.532578 0.446922 0.761604
Si Si5 0.301421 0.451378 0.020168
Si Si6 0.532229 0.055293 0.361475
Si Si7 0.723079 0.449706 0.124416
Si Si8 0.329244 0.052050 0.098928
O O1 0.102122 0.750000 0.565944
O O2 0.149027 0.498015 0.580270
O O3 0.261764 0.489265 0.411347
O O4 0.882038 0.496612 0.724617
O O5 0.102673 0.250000 0.874972
O O6 0.316699 0.504615 0.716422
O O7 0.000000 0.500000 0.000000
O O8 0.945625 0.501401 0.959581
O O9 0.126615 0.750000 0.647882
O O10 0.313565 0.498277 0.532487
O O11 0.917895 0.497567 0.822413
O O12 0.550488 0.250000 0.752320
O O13 0.383003 0.482618 0.836892
O O14 0.447060 0.510997 0.872267
O O15 0.302642 0.250000 0.018879
O O16 0.351344 0.503209 0.031570
O O17 0.537794 0.250000 0.354657
O O18 0.613506 0.992873 0.252343
O O19 0.715522 0.250000 0.129079
O O20 0.324742 0.250000 0.101466
O O21 0.500000 0.000000 0.000000
#
# Coordination Sequence:
#
# PCOD9156027 Si02
#       8
#     4   4   4   4   4   4   4   4
#     4   8  15  27  47  71  92 119 157 191 223 273
#     4   9  17  28  41  61  92 126 159 197 244 287
#     4   9  15  28  47  67  90 121 156 194 239 280
#     4  10  17  29  50  72  91 122 161 192 229 281
#     4   8  17  31  49  72  98 122 153 195 233 275
#     4  10  18  27  42  67  95 121 157 202 243 280
#     4   9  18  29  41  64  97 125 149 192 245 279
#     4   9  17  33  52  71  97 126 156 190 227 270
#
# _framework density 18.439879999999999
#
# number of rings (size 3 to 8) (size 9 to 14) (size 15 to 20)
#    0.000    3.000    1.250    3.000    0.000    2.500 
#    0.000    5.000    0.000    0.750    0.000    0.000 
#    0.000    0.000    0.000    0.000    0.000    0.000 
#
# Total GULP energy -178231.859565 kJ/mol
# GULP energy per Si atom -5569.745611 kJ/mol
# Density = 1.839791 g / cm^3
# Si number density = 18.439880 Si / 1000 Ang^3
#
#
#
# Elastic Constant Matrix: (Units=GPa)
#
#
# Indices 1 2 3 4 5 6 
#
# 1 74.7370 2.5095 79.0567 0.0000 -13.0712 0.0000
# 2 2.5095 6.8488 11.3077 0.0000 1.8356 0.0000
# 3 79.0567 11.3077 155.6667 0.0000 -11.6959 0.0000
# 4 0.0000 0.0000 0.0000 17.0411 0.0000 -10.9152
# 5 -13.0712 1.8356 -11.6959 0.0000 34.6698 0.0000
# 6 0.0000 0.0000 0.0000 -10.9152 0.0000 18.3482
#
#
#
# Elastic Compliance Matrix: (Units=1/GPa)
#
#
# Indices 1 2 3 4 5 6 
#
# 1 0.031388 0.014396 -0.016575 0.000000 0.005480 0.000000
# 2 0.014396 0.178600 -0.021123 0.000000 -0.011154 0.000000
# 3 -0.016575 -0.021123 0.016406 0.000000 0.000404 0.000000
# 4 0.000000 0.000000 0.000000 0.094807 0.000000 0.056400
# 5 0.005480 -0.011154 0.000404 0.000000 0.031637 0.000000
# 6 0.000000 0.000000 0.000000 0.056400 0.000000 0.088053
#
#
# Mechanical properties :
#
#
# Convention : Reuss Voigt Hill
#
# Bulk Modulus (GPa) = 5.56201 47.00004 26.28102
# Shear Modulus (GPa) = 9.13368 23.63707 16.38537
#
# Velocity S-wave (km/s) = 2.22800 3.58417 2.98415
# Velocity P-wave (km/s) = 3.10507 6.53238 5.11436
#
# Compressibility (1/GPa) = 0.17979112
#
# Stress axis : x y z
#
# Youngs Moduli (GPa) = 31.85927 5.59911 60.95216
#
# Poissons Ratio (x) = -0.08060 1.01026
# Poissons Ratio (y) = -0.45864 1.28748
# Poissons Ratio (z) = 0.52806 0.11827
#
# Static dielectric constant tensor:
#      x y z
#    x 1.619320 0.000000 -0.005950 
#    y 0.000000 1.642880 0.000000 
#    z -0.005950 0.000000 1.673540 
# 
# From -- ./inp_files/66421.got.cif
#   From: 2010.05.17/outbox.cif.g08.bks.cpg/sg11_34_cif.got.tgz:66421.got - 2010.06.03 12:22:45.
