data_PCOD9156161
_publ_section_title
;
Structure prediction by ZEFSAII (Michael W. Deem and Ramdas Pophale) SiO2 
 PCOD9156161
Probable space group: P 21/M
;
_chemical_formula_sum "Si O2"
_cell_formula_units_Z 32
_cell_length_a 14.183313
_cell_length_b 21.330081
_cell_length_c 8.376858
_cell_angle_alpha 90.000000
_cell_angle_beta 138.802539
_cell_angle_gamma 90.000000
_cell_volume 1669.206529
_symmetry_space_group_name_H-M "P 21/M"
_symmetry_group_IT_number 11
_symmetry_cell_setting 'monoclinic'
loop_
_space_group_symop_operation_xyz
x,y,z
-x,1/2+y,-z
-x,-y,-z
x,1/2-y,z
loop_
_atom_site_type_symbol
_atom_site_label
_atom_site_fract_x
_atom_site_fract_y
_atom_site_fract_z
Si Si1 0.172373 0.614299 0.120504
Si Si2 0.703781 0.945616 0.174491
Si Si3 0.940194 0.524350 0.695201
Si Si4 0.689006 0.998051 0.605861
Si Si5 0.096336 0.824632 0.355849
Si Si6 0.453228 0.564935 0.104098
Si Si7 0.161900 0.085568 0.955916
Si Si8 0.253060 0.824524 0.894827
O O1 0.300786 0.562741 0.284591
O O2 0.170921 0.650119 0.287640
O O3 0.177971 0.655615 0.966606
O O4 0.030310 0.571073 0.921360
O O5 0.855562 0.937326 0.454688
O O6 0.567610 0.927245 0.106671
O O7 0.722002 0.908918 0.034759
O O8 0.678478 0.019683 0.109898
O O9 0.807858 0.492444 0.618805
O O10 0.051232 0.472115 0.777859
O O11 0.540385 0.976927 0.342880
O O12 0.751666 0.939692 0.783000
O O13 0.090640 0.750000 0.339462
O O14 0.170504 0.840141 0.622201
O O15 0.938743 0.855103 0.152733
O O16 0.394310 0.632318 0.074508
O O17 0.278073 0.750000 0.926949
#
# Coordination Sequence:
#
# PCOD9156161 Si02
#       8
#     4   4   4   4   4   4   4   4
#     4  11  20  38  65  88 119 147 189 246 307 352
#     4  10  21  31  59  87 115 154 188 239 300 342
#     4  10  17  33  56  90 118 144 174 239 308 347
#     4  10  20  34  59  89 120 150 183 242 305 350
#     4  11  23  39  61  87 117 152 196 246 288 352
#     4  10  22  40  54  87 122 153 202 242 287 345
#     4  11  18  34  55  86 118 145 186 239 296 352
#     4  11  25  42  60  83 115 161 205 240 283 349
#
# _framework density 19.170784000000001
#
# number of rings (size 3 to 8) (size 9 to 14) (size 15 to 20)
#    0.000    1.500    2.500    4.500    3.500    2.000 
#    0.000    1.250    0.000    0.000    0.000    0.000 
#    0.000    0.000    0.000    0.000    0.000    0.000 
#
# Total GULP energy -178438.712937 kJ/mol
# GULP energy per Si atom -5576.209779 kJ/mol
# Density = 1.912715 g / cm^3
# Si number density = 19.170784 Si / 1000 Ang^3
#
#
#
# Elastic Constant Matrix: (Units=GPa)
#
#
# Indices 1 2 3 4 5 6 
#
# 1 70.7036 25.7847 32.1018 0.0000 -15.1889 0.0000
# 2 25.7847 98.7767 43.4879 0.0000 -6.6590 0.0000
# 3 32.1018 43.4879 95.1663 0.0000 -16.3363 0.0000
# 4 0.0000 0.0000 0.0000 26.0807 0.0000 -5.3071
# 5 -15.1889 -6.6590 -16.3363 0.0000 24.9689 0.0000
# 6 0.0000 0.0000 0.0000 -5.3071 0.0000 21.9265
#
#
#
# Elastic Compliance Matrix: (Units=1/GPa)
#
#
# Indices 1 2 3 4 5 6 
#
# 1 0.018525 -0.002693 -0.003613 0.000000 0.008187 0.000000
# 2 -0.002693 0.013070 -0.005347 0.000000 -0.001651 0.000000
# 3 -0.003613 -0.005347 0.015262 0.000000 0.006362 0.000000
# 4 0.000000 0.000000 0.000000 0.040329 0.000000 0.009761
# 5 0.008187 -0.001651 0.006362 0.000000 0.048752 0.000000
# 6 0.000000 0.000000 0.000000 0.009761 0.000000 0.047970
#
#
# Mechanical properties :
#
#
# Convention : Reuss Voigt Hill
#
# Bulk Modulus (GPa) = 42.46287 51.93282 47.19784
# Shear Modulus (GPa) = 23.24887 25.48003 24.36445
#
# Velocity S-wave (km/s) = 3.48620 3.64965 3.56886
# Velocity P-wave (km/s) = 6.19698 6.70136 6.45410
#
# Compressibility (1/GPa) = 0.02354999
#
# Stress axis : x y z
#
# Youngs Moduli (GPa) = 53.98164 76.51183 65.52098
#
# Poissons Ratio (x) = 0.20606 0.23671
# Poissons Ratio (y) = 0.14539 0.35037
# Poissons Ratio (z) = 0.19502 0.40915
#
# Static dielectric constant tensor:
#      x y z
#    x 1.728740 0.000000 -0.069380 
#    y 0.000000 1.646530 0.000000 
#    z -0.069380 0.000000 1.717770 
# 
# From -- ./inp_files/23134.got.cif
#   From: 2010.05.17/outbox.cif.g08.bks.cpg/sg11_12_cif.got.tgz:23134.got - 2010.06.03 12:22:45.
