data_PCOD9156708
_publ_section_title
;
Structure prediction by ZEFSAII (Michael W. Deem and Ramdas Pophale) SiO2 
 PCOD9156708
Probable space group: P 21/M
;
_chemical_formula_sum "Si O2"
_cell_formula_units_Z 32
_cell_length_a 14.387616
_cell_length_b 7.511742
_cell_length_c 28.971937
_cell_angle_alpha 90.000000
_cell_angle_beta 149.662104
_cell_angle_gamma 90.000000
_cell_volume 1581.550901
_symmetry_space_group_name_H-M "P 21/M"
_symmetry_group_IT_number 11
_symmetry_cell_setting 'monoclinic'
loop_
_space_group_symop_operation_xyz
x,y,z
-x,1/2+y,-z
-x,-y,-z
x,1/2-y,z
loop_
_atom_site_type_symbol
_atom_site_label
_atom_site_fract_x
_atom_site_fract_y
_atom_site_fract_z
Si Si1 0.865221 0.463671 0.640359
Si Si2 0.195585 0.460527 0.108046
Si Si3 0.792349 0.960980 0.715387
Si Si4 0.204278 0.031708 0.725104
Si Si5 0.956657 0.462657 0.534413
Si Si6 0.988848 0.468156 0.106181
Si Si7 0.381977 0.531985 0.550804
Si Si8 0.612557 0.044395 0.899288
O O1 0.864654 0.250000 0.638297
O O2 0.829380 0.514492 0.677356
O O3 0.709932 0.522953 0.537311
O O4 0.061120 0.522296 0.703500
O O5 0.229053 0.250000 0.123174
O O6 0.154335 0.521632 0.142261
O O7 0.343886 0.540229 0.136893
O O8 0.000000 0.500000 0.000000
O O9 0.784725 0.750000 0.720512
O O10 0.953089 0.027011 0.818112
O O11 0.590880 0.032073 0.642434
O O12 0.210221 0.250000 0.726977
O O13 0.411306 0.965949 0.820870
O O14 0.113025 0.974482 0.637407
O O15 0.952423 0.250000 0.537332
O O16 0.758957 0.525605 0.469372
O O17 0.000000 0.500000 0.500000
O O18 0.980824 0.250000 0.100077
O O19 0.791648 0.532532 0.002291
O O20 0.385903 0.750000 0.553002
O O21 0.603188 0.250000 0.909825
#
# Coordination Sequence:
#
# PCOD9156708 Si02
#       8
#     4   4   4   4   4   4   4   4
#     4   9  17  32  49  66  85 112 151 190 222 266
#     4   9  16  28  45  66  91 121 152 185 221 264
#     4  10  18  30  47  67  89 116 145 182 229 272
#     4   8  16  31  50  65  86 122 157 181 220 277
#     4   9  17  31  48  69  94 121 150 184 222 268
#     4   8  16  28  43  64  91 117 145 177 219 269
#     4   8  16  30  48  65  88 120 149 175 219 277
#     4   9  16  30  49  66  86 121 158 186 216 263
#
# _framework density 20.233304
#
# number of rings (size 3 to 8) (size 9 to 14) (size 15 to 20)
#    0.000    3.250    0.000    3.000    0.000    1.000 
#    0.000    9.375    0.000    0.000    0.000    0.000 
#    0.000    0.000    0.000    0.000    0.000    0.000 
#
# Total GULP energy -178295.275848 kJ/mol
# GULP energy per Si atom -5571.727370 kJ/mol
# Density = 2.018725 g / cm^3
# Si number density = 20.233304 Si / 1000 Ang^3
#
#
#
# Elastic Constant Matrix: (Units=GPa)
#
#
# Indices 1 2 3 4 5 6 
#
# 1 127.6745 -3.0732 92.8999 0.0000 -5.4431 0.0000
# 2 -3.0732 49.0220 9.3917 0.0000 2.8096 0.0000
# 3 92.8999 9.3917 131.9486 0.0000 15.0424 0.0000
# 4 0.0000 0.0000 0.0000 3.1397 0.0000 -6.6371
# 5 -5.4431 2.8096 15.0424 0.0000 31.2444 0.0000
# 6 0.0000 0.0000 0.0000 -6.6371 0.0000 21.3757
#
#
#
# Elastic Compliance Matrix: (Units=1/GPa)
#
#
# Indices 1 2 3 4 5 6 
#
# 1 0.019239 0.003485 -0.014961 0.000000 0.010241 0.000000
# 2 0.003485 0.021356 -0.004046 0.000000 0.000635 0.000000
# 3 -0.014961 -0.004046 0.019739 0.000000 -0.011746 0.000000
# 4 0.000000 0.000000 0.000000 0.926863 0.000000 0.287789
# 5 0.010241 0.000635 -0.011746 0.000000 0.039388 0.000000
# 6 0.000000 0.000000 0.000000 0.287789 0.000000 0.136140
#
#
# Mechanical properties :
#
#
# Convention : Reuss Voigt Hill
#
# Bulk Modulus (GPa) = 34.14067 56.34243 45.24155
# Shear Modulus (GPa) = 4.15444 25.11376 14.63410
#
# Velocity S-wave (km/s) = 1.43448 3.52690 2.69228
# Velocity P-wave (km/s) = 4.43326 6.67025 5.66330
#
# Compressibility (1/GPa) = 0.02929058
#
# Stress axis : x y z
#
# Youngs Moduli (GPa) = 51.97774 46.82448 50.66058
#
# Poissons Ratio (x) = -0.16320 0.75793
# Poissons Ratio (y) = -0.18116 0.20499
# Poissons Ratio (z) = 0.77764 0.18947
#
# Static dielectric constant tensor:
#      x y z
#    x 1.715280 0.000000 -0.002490 
#    y 0.000000 1.780910 0.000000 
#    z -0.002490 0.000000 1.726600 
# 
# From -- ./inp_files/73312.got.cif
#   From: 2010.05.17/outbox.cif.g08.bks.cpg/sg11_37_cif.got.tgz:73312.got - 2010.06.03 12:22:45.
