data_PCOD9156540
_publ_section_title
;
Structure prediction by ZEFSAII (Michael W. Deem and Ramdas Pophale) SiO2 
 PCOD9156540
Probable space group: P 21/M
;
_chemical_formula_sum "Si O2"
_cell_formula_units_Z 28
_cell_length_a 22.176358
_cell_length_b 8.641206
_cell_length_c 17.229179
_cell_angle_alpha 90.000000
_cell_angle_beta 149.307463
_cell_angle_gamma 90.000000
_cell_volume 1685.256983
_symmetry_space_group_name_H-M "P 21/M"
_symmetry_group_IT_number 11
_symmetry_cell_setting 'monoclinic'
loop_
_space_group_symop_operation_xyz
x,y,z
-x,1/2+y,-z
-x,-y,-z
x,1/2-y,z
loop_
_atom_site_type_symbol
_atom_site_label
_atom_site_fract_x
_atom_site_fract_y
_atom_site_fract_z
Si Si1 0.494155 0.562612 0.759521
Si Si2 0.587626 0.064295 0.162218
Si Si3 0.828548 0.934873 0.364643
Si Si4 0.908287 0.065227 0.292553
Si Si5 0.675248 0.433568 0.746971
Si Si6 0.420471 0.937273 0.514888
Si Si7 0.754808 0.565224 0.989081
O O1 0.497035 0.750000 0.766228
O O2 0.452393 0.506769 0.796942
O O3 0.408513 0.522574 0.592326
O O4 0.627376 0.514065 0.883900
O O5 0.581610 0.250000 0.155037
O O6 0.719074 0.011181 0.286642
O O7 0.500000 0.000000 0.000000
O O8 0.815989 0.750000 0.352360
O O9 0.954570 0.977615 0.542318
O O10 0.836087 0.989662 0.283696
O O11 0.898872 0.250000 0.288197
O O12 0.855787 0.008301 0.153523
O O13 0.691046 0.250000 0.771376
O O14 0.677983 0.476756 0.658498
O O15 0.541936 0.480589 0.623964
O O16 0.755804 0.515791 0.900099
O O17 0.438275 0.750000 0.529588
O O18 0.760137 0.750000 0.000068
#
# Coordination Sequence:
#
# PCOD9156540 Si02
#       7
#     4   4   4   4   4   4   4
#     4   8  16  29  44  64  90 123 157 188 226 271
#     4  11  21  33  50  70  95 126 161 197 232 275
#     4  10  21  36  51  69  95 123 153 192 238 282
#     4  10  20  34  52  71  91 119 157 196 232 276
#     4   9  15  23  39  63  90 119 152 189 229 277
#     4   8  14  26  41  58  86 122 156 190 230 273
#     4  10  18  29  46  68  97 126 152 188 234 279
#
# _framework density 16.614675999999999
#
# number of rings (size 3 to 8) (size 9 to 14) (size 15 to 20)
#    0.000    2.571    0.000    3.857    0.000    3.429 
#    0.000    6.429    0.000    0.000    0.000    1.000 
#    0.000    0.000    0.000    0.000    0.000    0.000 
#
# Total GULP energy -155982.772402 kJ/mol
# GULP energy per Si atom -5570.813300 kJ/mol
# Density = 1.657686 g / cm^3
# Si number density = 16.614676 Si / 1000 Ang^3
#
#
#
# Elastic Constant Matrix: (Units=GPa)
#
#
# Indices 1 2 3 4 5 6 
#
# 1 79.6428 16.2366 45.0970 0.0000 -23.2569 0.0000
# 2 16.2366 29.8079 19.3402 0.0000 -4.0510 0.0000
# 3 45.0970 19.3402 88.8583 0.0000 -32.2027 0.0000
# 4 0.0000 0.0000 0.0000 27.1983 0.0000 -3.2900
# 5 -23.2569 -4.0510 -32.2027 0.0000 29.8013 0.0000
# 6 0.0000 0.0000 0.0000 -3.2900 0.0000 19.9840
#
#
#
# Elastic Compliance Matrix: (Units=1/GPa)
#
#
# Indices 1 2 3 4 5 6 
#
# 1 0.019286 -0.005797 -0.005519 0.000000 0.008300 0.000000
# 2 -0.005797 0.041558 -0.009361 0.000000 -0.008990 0.000000
# 3 -0.005519 -0.009361 0.023127 0.000000 0.019411 0.000000
# 4 0.000000 0.000000 0.000000 0.037514 0.000000 0.006176
# 5 0.008300 -0.008990 0.019411 0.000000 0.059786 0.000000
# 6 0.000000 0.000000 0.000000 0.006176 0.000000 0.051057
#
#
# Mechanical properties :
#
#
# Convention : Reuss Voigt Hill
#
# Bulk Modulus (GPa) = 23.46445 39.96183 31.71314
# Shear Modulus (GPa) = 17.36789 23.23905 20.30347
#
# Velocity S-wave (km/s) = 3.23667 3.74399 3.49953
# Velocity P-wave (km/s) = 5.30296 6.54173 5.95465
#
# Compressibility (1/GPa) = 0.04261767
#
# Stress axis : x y z
#
# Youngs Moduli (GPa) = 51.85006 24.06287 43.23975
#
# Poissons Ratio (x) = 0.13949 0.23862
# Poissons Ratio (y) = 0.30057 0.40478
# Poissons Ratio (z) = 0.28613 0.22526
#
# Static dielectric constant tensor:
#      x y z
#    x 1.564020 0.000000 -0.036620 
#    y 0.000000 1.557500 0.000000 
#    z -0.036620 0.000000 1.576250 
# 
# From -- ./inp_files/61703.got.cif
#   From: 2010.05.17/outbox.cif.g08.bks.cpg/sg11_31_cif.got.tgz:61703.got - 2010.06.03 12:22:45.
