data_PCOD9156919
_publ_section_title
;
Structure prediction by ZEFSAII (Michael W. Deem and Ramdas Pophale) SiO2 
 PCOD9156919
Probable space group: P 21/M
;
_chemical_formula_sum "Si O2"
_cell_formula_units_Z 32
_cell_length_a 6.226840
_cell_length_b 19.311365
_cell_length_c 16.057331
_cell_angle_alpha 90.000000
_cell_angle_beta 121.021404
_cell_angle_gamma 90.000000
_cell_volume 1654.710830
_symmetry_space_group_name_H-M "P 21/M"
_symmetry_group_IT_number 11
_symmetry_cell_setting 'monoclinic'
loop_
_space_group_symop_operation_xyz
x,y,z
-x,1/2+y,-z
-x,-y,-z
x,1/2-y,z
loop_
_atom_site_type_symbol
_atom_site_label
_atom_site_fract_x
_atom_site_fract_y
_atom_site_fract_z
Si Si1 0.171039 0.167615 0.010243
Si Si2 0.819467 0.825956 0.355936
Si Si3 0.593144 0.055556 0.131787
Si Si4 0.586068 0.091445 0.662423
Si Si5 0.771661 0.441016 0.527524
Si Si6 0.202765 0.943334 0.009679
Si Si7 0.752577 0.472250 0.344167
Si Si8 0.925318 0.670579 0.197018
O O1 0.178025 0.250000 0.033279
O O2 0.388321 0.117930 0.090237
O O3 0.906230 0.129907 0.979522
O O4 0.203799 0.161674 0.917033
O O5 0.918031 0.750000 0.387856
O O6 0.581518 0.840473 0.364687
O O7 0.039561 0.877677 0.420877
O O8 0.754931 0.833867 0.245055
O O9 0.728767 0.058393 0.247894
O O10 0.456877 0.980330 0.093161
O O11 0.766036 0.061704 0.084164
O O12 0.587104 0.062693 0.568863
O O13 0.860319 0.112754 0.747804
O O14 0.436944 0.037680 0.690050
O O15 0.675588 0.434067 0.414327
O O16 0.960525 0.505496 0.580493
O O17 0.000000 0.000000 0.000000
O O18 0.029138 0.750000 0.217262
#
# Coordination Sequence:
#
# PCOD9156919 Si02
#       8
#     4   4   4   4   4   4   4   4
#     4  10  21  36  53  77 108 140 176 216 257 306
#     4   9  18  32  50  75 104 132 162 199 248 306
#     4  10  21  36  56  77 104 140 178 215 260 313
#     4  10  18  30  53  77  98 127 163 204 251 301
#     4   9  20  34  51  75 101 127 162 208 254 295
#     4   9  20  36  54  79 105 137 176 217 259 305
#     4  10  20  35  52  73  99 130 167 210 253 297
#     4   9  18  31  48  73 104 132 160 200 250 301
#
# _framework density 19.338725
#
# number of rings (size 3 to 8) (size 9 to 14) (size 15 to 20)
#    0.000    2.500    0.000    1.500    0.000   13.000 
#    0.000    3.125    0.000    1.500    0.000    0.000 
#    0.000    0.000    0.000    0.000    0.000    0.000 
#
# Total GULP energy -178200.588063 kJ/mol
# GULP energy per Si atom -5568.768377 kJ/mol
# Density = 1.929471 g / cm^3
# Si number density = 19.338725 Si / 1000 Ang^3
#
#
#
# Elastic Constant Matrix: (Units=GPa)
#
#
# Indices 1 2 3 4 5 6 
#
# 1 61.9022 14.7917 19.3350 0.0000 -19.0460 0.0000
# 2 14.7917 75.6115 32.0723 0.0000 -6.9164 0.0000
# 3 19.3350 32.0723 127.7172 0.0000 -24.0513 0.0000
# 4 0.0000 0.0000 0.0000 19.6999 0.0000 -5.1609
# 5 -19.0460 -6.9164 -24.0513 0.0000 23.6132 0.0000
# 6 0.0000 0.0000 0.0000 -5.1609 0.0000 24.6906
#
#
#
# Elastic Compliance Matrix: (Units=1/GPa)
#
#
# Indices 1 2 3 4 5 6 
#
# 1 0.022086 -0.003019 0.000746 0.000000 0.017689 0.000000
# 2 -0.003019 0.015224 -0.003693 0.000000 -0.001737 0.000000
# 3 0.000746 -0.003693 0.010584 0.000000 0.010300 0.000000
# 4 0.000000 0.000000 0.000000 0.053702 0.000000 0.011225
# 5 0.017689 -0.001737 0.010300 0.000000 0.066599 0.000000
# 6 0.000000 0.000000 0.000000 0.011225 0.000000 0.042847
#
#
# Mechanical properties :
#
#
# Convention : Reuss Voigt Hill
#
# Bulk Modulus (GPa) = 27.80807 44.18099 35.99453
# Shear Modulus (GPa) = 21.28008 26.86954 24.07481
#
# Velocity S-wave (km/s) = 3.32081 3.73153 3.53214
# Velocity P-wave (km/s) = 5.39577 6.43904 5.94035
#
# Compressibility (1/GPa) = 0.03596078
#
# Stress axis : x y z
#
# Youngs Moduli (GPa) = 45.27856 65.68725 94.48216
#
# Poissons Ratio (x) = 0.19830 -0.07046
# Poissons Ratio (y) = 0.13669 0.34894
# Poissons Ratio (z) = -0.03377 0.24259
#
# Static dielectric constant tensor:
#      x y z
#    x 1.743420 0.000000 0.002960 
#    y 0.000000 1.731140 0.000000 
#    z 0.002960 0.000000 1.679870 
# 
# From -- ./inp_files/46219.got.cif
#   From: 2010.05.17/outbox.cif.g08.bks.cpg/sg11_24_cif.got.tgz:46219.got - 2010.06.03 12:22:45.
