data_PCOD9156429
_publ_section_title
;
Structure prediction by ZEFSAII (Michael W. Deem and Ramdas Pophale) SiO2 
 PCOD9156429
Probable space group: P 21/M
;
_chemical_formula_sum "Si O2"
_cell_formula_units_Z 32
_cell_length_a 12.011625
_cell_length_b 9.914122
_cell_length_c 17.461068
_cell_angle_alpha 90.000000
_cell_angle_beta 133.147683
_cell_angle_gamma 90.000000
_cell_volume 1517.077321
_symmetry_space_group_name_H-M "P 21/M"
_symmetry_group_IT_number 11
_symmetry_cell_setting 'monoclinic'
loop_
_space_group_symop_operation_xyz
x,y,z
-x,1/2+y,-z
-x,-y,-z
x,1/2-y,z
loop_
_atom_site_type_symbol
_atom_site_label
_atom_site_fract_x
_atom_site_fract_y
_atom_site_fract_z
Si Si1 0.624103 0.907008 0.958106
Si Si2 0.794076 0.595437 0.896464
Si Si3 0.113090 0.906156 0.195702
Si Si4 0.880852 0.404583 0.483635
Si Si5 0.548744 0.099674 0.329540
Si Si6 0.465559 0.901488 0.414850
Si Si7 0.341111 0.407097 0.841786
Si Si8 0.004552 0.087455 0.699215
O O1 0.587140 0.750000 0.924022
O O2 0.772697 0.941021 0.976201
O O3 0.479864 0.003768 0.875964
O O4 0.653969 0.913980 0.062871
O O5 0.848468 0.750000 0.913006
O O6 0.878571 0.494911 0.877862
O O7 0.613377 0.595443 0.788639
O O8 0.067568 0.750000 0.158462
O O9 0.287005 0.900742 0.309250
O O10 0.026061 0.964501 0.229409
O O11 0.934613 0.250000 0.504678
O O12 0.713159 0.409177 0.367727
O O13 0.000000 0.500000 0.500000
O O14 0.880277 0.439172 0.574759
O O15 0.552227 0.250000 0.369780
O O16 0.546813 0.969914 0.381791
O O17 0.515218 0.750000 0.454208
O O18 0.500000 0.000000 0.500000
O O19 0.360214 0.250000 0.828318
O O20 0.169266 0.453572 0.743669
O O21 0.009593 0.250000 0.711751
#
# Coordination Sequence:
#
# PCOD9156429 Si02
#       8
#     4   4   4   4   4   4   4   4
#     4   9  18  33  53  77 104 129 164 210 255 300
#     4   9  18  32  51  74 102 133 163 206 258 298
#     4   9  18  33  51  72  97 131 171 206 244 296
#     4  10  21  35  50  71 100 134 171 209 251 300
#     4   9  18  32  47  65  93 129 164 200 245 291
#     4  10  18  28  46  69  92 123 164 207 246 285
#     4   9  18  33  54  77  99 133 171 205 248 301
#     4   9  18  34  53  72 101 136 168 205 251 299
#
# _framework density 21.09319
#
# number of rings (size 3 to 8) (size 9 to 14) (size 15 to 20)
#    0.000    2.750    0.000    1.125    1.750    3.500 
#    0.000    1.875    0.000    0.000    0.000    0.000 
#    0.000    0.000    0.000    0.000    0.000    0.000 
#
# Total GULP energy -178378.658859 kJ/mol
# GULP energy per Si atom -5574.333089 kJ/mol
# Density = 2.104518 g / cm^3
# Si number density = 21.093190 Si / 1000 Ang^3
#
#
#
# Elastic Constant Matrix: (Units=GPa)
#
#
# Indices 1 2 3 4 5 6 
#
# 1 102.4868 43.9020 7.1007 0.0000 -7.5655 0.0000
# 2 43.9020 82.8276 18.7337 0.0000 -8.2880 0.0000
# 3 7.1007 18.7337 61.6154 0.0000 3.0150 0.0000
# 4 0.0000 0.0000 0.0000 15.3007 0.0000 -2.6759
# 5 -7.5655 -8.2880 3.0150 0.0000 35.2366 0.0000
# 6 0.0000 0.0000 0.0000 -2.6759 0.0000 35.8890
#
#
#
# Elastic Compliance Matrix: (Units=1/GPa)
#
#
# Indices 1 2 3 4 5 6 
#
# 1 0.012686 -0.006735 0.000532 0.000000 0.001094 0.000000
# 2 -0.006735 0.016960 -0.004524 0.000000 0.002930 0.000000
# 3 0.000532 -0.004524 0.017664 0.000000 -0.002461 0.000000
# 4 0.000000 0.000000 0.000000 0.066220 0.000000 0.004937
# 5 0.001094 0.002930 -0.002461 0.000000 0.029514 0.000000
# 6 0.000000 0.000000 0.000000 0.004937 0.000000 0.028232
#
#
# Mechanical properties :
#
#
# Convention : Reuss Voigt Hill
#
# Bulk Modulus (GPa) = 38.67435 42.93363 40.80399
# Shear Modulus (GPa) = 24.83263 29.09816 26.96539
#
# Velocity S-wave (km/s) = 3.43488 3.71820 3.57934
# Velocity P-wave (km/s) = 5.84003 6.23151 6.03895
#
# Compressibility (1/GPa) = 0.02585693
#
# Stress axis : x y z
#
# Youngs Moduli (GPa) = 78.82471 58.96393 56.61176
#
# Poissons Ratio (x) = 0.39713 -0.03013
# Poissons Ratio (y) = 0.53090 0.25609
# Poissons Ratio (z) = -0.04195 0.26673
#
# Static dielectric constant tensor:
#      x y z
#    x 1.782720 0.000000 -0.024430 
#    y 0.000000 1.708890 0.000000 
#    z -0.024430 0.000000 1.888180 
# 
# From -- ./inp_files/64461.got.cif
#   From: 2010.05.17/outbox.cif.g08.bks.cpg/sg11_33_cif.got.tgz:64461.got - 2010.06.03 12:22:45.
