data_PCOD9156569
_publ_section_title
;
Structure prediction by ZEFSAII (Michael W. Deem and Ramdas Pophale) SiO2 
 PCOD9156569
Probable space group: P 21/M
;
_chemical_formula_sum "Si O2"
_cell_formula_units_Z 28
_cell_length_a 14.939785
_cell_length_b 8.820676
_cell_length_c 19.507515
_cell_angle_alpha 90.000000
_cell_angle_beta 38.631581
_cell_angle_gamma 90.000000
_cell_volume 1604.902473
_symmetry_space_group_name_H-M "P 21/M"
_symmetry_group_IT_number 11
_symmetry_cell_setting 'monoclinic'
loop_
_space_group_symop_operation_xyz
x,y,z
-x,1/2+y,-z
-x,-y,-z
x,1/2-y,z
loop_
_atom_site_type_symbol
_atom_site_label
_atom_site_fract_x
_atom_site_fract_y
_atom_site_fract_z
Si Si1 0.169052 0.065646 0.661803
Si Si2 0.539477 0.075266 0.768693
Si Si3 0.870180 0.067923 0.897100
Si Si4 0.377134 0.432223 0.419025
Si Si5 0.794589 0.575968 0.079865
Si Si6 0.322767 0.434193 0.710323
Si Si7 0.553852 0.431752 0.038725
O O1 0.166105 0.250000 0.662513
O O2 0.246316 0.017712 0.545867
O O3 0.263542 0.023235 0.671561
O O4 0.007625 0.012586 0.772684
O O5 0.581195 0.250000 0.752159
O O6 0.373399 0.072791 0.842380
O O7 0.626860 0.997276 0.655328
O O8 0.538797 0.990159 0.841408
O O9 0.871582 0.250000 0.895897
O O10 0.718302 0.019116 0.955894
O O11 0.875316 0.016250 0.973130
O O12 0.382375 0.250000 0.413380
O O13 0.523754 0.492790 0.365834
O O14 0.843679 0.750000 0.049518
O O15 0.786484 0.520346 0.163015
O O16 0.335681 0.250000 0.706554
O O17 0.550132 0.250000 0.038592
O O18 0.500000 0.500000 0.000000
#
# Coordination Sequence:
#
# PCOD9156569 Si02
#       7
#     4   4   4   4   4   4   4
#     4   9  18  31  46  65  93 129 163 198 238 275
#     4   9  17  31  50  71  97 125 154 191 235 280
#     4   9  18  32  48  67  93 125 157 188 232 289
#     4  10  18  29  47  69  94 125 164 203 233 269
#     4   8  15  27  43  64  91 122 154 192 235 275
#     4   9  17  30  46  64  91 127 165 203 240 274
#     4  10  19  32  54  80 101 120 148 188 233 285
#
# _framework density 17.446542999999998
#
# number of rings (size 3 to 8) (size 9 to 14) (size 15 to 20)
#    0.000    2.857    0.000    2.571    0.000    4.571 
#    0.000    2.857    0.000    0.857    0.000    0.000 
#    0.000    0.000    0.000    0.000    0.000    0.000 
#
# Total GULP energy -156063.941592 kJ/mol
# GULP energy per Si atom -5573.712200 kJ/mol
# Density = 1.740683 g / cm^3
# Si number density = 17.446543 Si / 1000 Ang^3
#
#
#
# Elastic Constant Matrix: (Units=GPa)
#
#
# Indices 1 2 3 4 5 6 
#
# 1 20.7857 26.5777 65.4071 0.0000 26.5224 0.0000
# 2 26.5777 38.6333 39.8578 0.0000 9.6629 0.0000
# 3 65.4071 39.8578 174.4064 0.0000 25.1849 0.0000
# 4 0.0000 0.0000 0.0000 23.3178 0.0000 9.0229
# 5 26.5224 9.6629 25.1849 0.0000 27.1152 0.0000
# 6 0.0000 0.0000 0.0000 9.0229 0.0000 17.9492
#
#
#
# Elastic Compliance Matrix: (Units=1/GPa)
#
#
# Indices 1 2 3 4 5 6 
#
# 1 -0.053079 0.016155 0.011027 0.000000 0.035919 0.000000
# 2 0.016155 0.029716 -0.010439 0.000000 -0.016696 0.000000
# 3 0.011027 -0.010439 0.005779 0.000000 -0.012434 0.000000
# 4 0.000000 0.000000 0.000000 0.053242 0.000000 -0.026765
# 5 0.035919 -0.016696 -0.012434 0.000000 0.019244 0.000000
# 6 0.000000 0.000000 0.000000 -0.026765 0.000000 0.069167
#
#
# Mechanical properties :
#
#
# Convention : Reuss Voigt Hill
#
# Bulk Modulus (GPa) = 62.88077 55.27896 59.07987
# Shear Modulus (GPa) = 52.14580 20.47528 36.31054
#
# Velocity S-wave (km/s) = 5.47301 3.42950 4.56702
# Velocity P-wave (km/s) = 8.72116 6.88735 7.85793
#
# Compressibility (1/GPa) = 0.01590311
#
# Stress axis : x y z
#
# Youngs Moduli (GPa) = -18.83979 33.65147 173.03095
#
# Poissons Ratio (x) = -0.54363 -1.90807
# Poissons Ratio (y) = 0.30435 1.80622
# Poissons Ratio (z) = 0.20775 0.35128
#
# Static dielectric constant tensor:
#      x y z
#    x 1.580400 0.000000 -0.001960 
#    y 0.000000 1.590290 0.000000 
#    z -0.001960 0.000000 1.614860 
# 
# From -- ./inp_files/37150.got.cif
#   From: 2010.05.17/outbox.cif.g08.bks.cpg/sg11_19_cif.got.tgz:37150.got - 2010.06.03 12:22:45.
