data_PCOD9156870
_publ_section_title
;
Structure prediction by ZEFSAII (Michael W. Deem and Ramdas Pophale) SiO2 
 PCOD9156870
Probable space group: P 21/M
;
_chemical_formula_sum "Si O2"
_cell_formula_units_Z 28
_cell_length_a 12.524979
_cell_length_b 8.002800
_cell_length_c 12.235703
_cell_angle_alpha 90.000000
_cell_angle_beta 110.202985
_cell_angle_gamma 90.000000
_cell_volume 1150.987533
_symmetry_space_group_name_H-M "P 21/M"
_symmetry_group_IT_number 11
_symmetry_cell_setting 'monoclinic'
loop_
_space_group_symop_operation_xyz
x,y,z
-x,1/2+y,-z
-x,-y,-z
x,1/2-y,z
loop_
_atom_site_type_symbol
_atom_site_label
_atom_site_fract_x
_atom_site_fract_y
_atom_site_fract_z
Si Si1 0.655042 0.552305 0.228778
Si Si2 0.332896 0.563440 0.523239
Si Si3 0.948894 0.558016 0.822728
Si Si4 0.911319 0.559901 0.556400
Si Si5 0.192826 0.950202 0.898312
Si Si6 0.309599 0.448947 0.274150
Si Si7 0.415075 0.945380 0.096103
O O1 0.659298 0.750000 0.214300
O O2 0.638387 0.518172 0.350907
O O3 0.768966 0.479810 0.213934
O O4 0.541801 0.481586 0.128287
O O5 0.379792 0.750000 0.537581
O O6 0.195780 0.560590 0.479831
O O7 0.352715 0.478628 0.412975
O O8 0.944812 0.750000 0.861092
O O9 0.071246 0.481228 0.898099
O O10 0.961503 0.563457 0.695477
O O11 0.821359 0.487785 0.791613
O O12 0.871344 0.750000 0.518294
O O13 0.000000 0.500000 0.500000
O O14 0.186516 0.750000 0.912438
O O15 0.302582 0.021108 0.000799
O O16 0.309151 0.250000 0.256203
O O17 0.387496 0.538989 0.214620
O O18 0.419847 0.750000 0.068509
#
# Coordination Sequence:
#
# PCOD9156870 Si02
#       7
#     4   4   4   4   4   4   4
#     4  11  23  39  58  85 119 152 194 244 293 347
#     4  11  22  37  58  83 113 151 194 242 297 352
#     4   8  17  33  54  81 113 147 183 229 281 335
#     4  10  18  30  50  80 117 154 191 233 286 347
#     4  10  20  38  62  87 117 153 194 237 287 346
#     4  10  21  39  61  86 117 152 192 238 290 352
#     4  10  23  40  59  84 117 156 195 241 290 342
#
# _framework density 24.326936
#
# number of rings (size 3 to 8) (size 9 to 14) (size 15 to 20)
#    0.000    2.000    0.000    4.714    0.000    4.000 
#    0.000    3.571    0.000    0.000    0.000    0.000 
#    0.000    0.000    0.000    0.000    0.000    0.000 
#
# Total GULP energy -156349.060215 kJ/mol
# GULP energy per Si atom -5583.895008 kJ/mol
# Density = 2.427157 g / cm^3
# Si number density = 24.326936 Si / 1000 Ang^3
#
#
#
# Elastic Constant Matrix: (Units=GPa)
#
#
# Indices 1 2 3 4 5 6 
#
# 1 84.3810 0.0371 5.4067 0.0000 17.4423 0.0000
# 2 0.0371 60.6766 -1.3119 0.0000 1.7243 0.0000
# 3 5.4067 -1.3119 64.5142 0.0000 9.8090 0.0000
# 4 0.0000 0.0000 0.0000 17.6127 0.0000 -3.9522
# 5 17.4423 1.7243 9.8090 0.0000 39.0605 0.0000
# 6 0.0000 0.0000 0.0000 -3.9522 0.0000 14.2341
#
#
#
# Elastic Compliance Matrix: (Units=1/GPa)
#
#
# Indices 1 2 3 4 5 6 
#
# 1 0.013060 0.000152 -0.000212 0.000000 -0.005786 0.000000
# 2 0.000152 0.016517 0.000462 0.000000 -0.000913 0.000000
# 3 -0.000212 0.000462 0.016132 0.000000 -0.003977 0.000000
# 4 0.000000 0.000000 0.000000 0.060550 0.000000 0.016812
# 5 -0.005786 -0.000913 -0.003977 0.000000 0.029224 0.000000
# 6 0.000000 0.000000 0.000000 0.016812 0.000000 0.074922
#
#
# Mechanical properties :
#
#
# Convention : Reuss Voigt Hill
#
# Bulk Modulus (GPa) = 21.49920 24.20396 22.85158
# Shear Modulus (GPa) = 22.21187 27.87748 25.04467
#
# Velocity S-wave (km/s) = 3.02496 3.38886 3.21207
# Velocity P-wave (km/s) = 4.58882 5.02828 4.81357
#
# Compressibility (1/GPa) = 0.04651336
#
# Stress axis : x y z
#
# Youngs Moduli (GPa) = 76.56706 60.54495 61.98752
#
# Poissons Ratio (x) = -0.00919 0.01313
# Poissons Ratio (y) = -0.01163 -0.02863
# Poissons Ratio (z) = 0.01622 -0.02797
#
# Static dielectric constant tensor:
#      x y z
#    x 1.945600 0.000000 0.027940 
#    y 0.000000 1.955770 0.000000 
#    z 0.027940 0.000000 2.062940 
# 
# From -- ./inp_files/49503.got.cif
#   From: 2010.05.17/outbox.cif.g08.bks.cpg/sg11_25_cif.got.tgz:49503.got - 2010.06.03 12:22:45.
