data_PCOD9156549
_publ_section_title
;
Structure prediction by ZEFSAII (Michael W. Deem and Ramdas Pophale) SiO2 
 PCOD9156549
Probable space group: P 21/M
;
_chemical_formula_sum "Si O2"
_cell_formula_units_Z 32
_cell_length_a 20.447202
_cell_length_b 7.614593
_cell_length_c 29.950029
_cell_angle_alpha 90.000000
_cell_angle_beta 17.470975
_cell_angle_gamma 90.000000
_cell_volume 1399.978120
_symmetry_space_group_name_H-M "P 21/M"
_symmetry_group_IT_number 11
_symmetry_cell_setting 'monoclinic'
loop_
_space_group_symop_operation_xyz
x,y,z
-x,1/2+y,-z
-x,-y,-z
x,1/2-y,z
loop_
_atom_site_type_symbol
_atom_site_label
_atom_site_fract_x
_atom_site_fract_y
_atom_site_fract_z
Si Si1 0.560290 0.965835 0.811892
Si Si2 0.992981 0.049089 0.443842
Si Si3 0.197600 0.035641 0.676563
Si Si4 0.493695 0.053475 0.247543
Si Si5 0.230041 0.535966 0.100231
Si Si6 0.642454 0.951831 0.336861
Si Si7 0.939262 0.453233 0.697343
Si Si8 0.560755 0.044495 0.618299
O O1 0.559657 0.750000 0.811259
O O2 0.811970 0.019299 0.652578
O O3 0.448132 0.025018 0.838690
O O4 0.433072 0.023045 0.938695
O O5 0.938045 0.250000 0.490385
O O6 0.087181 0.049569 0.332073
O O7 0.770378 0.942558 0.585230
O O8 0.216826 0.250000 0.663950
O O9 0.203600 0.974790 0.724285
O O10 0.982785 0.988104 0.789741
O O11 0.406053 0.961199 0.514797
O O12 0.582613 0.250000 0.191918
O O13 0.529767 0.970000 0.272365
O O14 0.235188 0.750000 0.098871
O O15 0.197304 0.474744 0.172090
O O16 0.711301 0.750000 0.285383
O O17 0.598207 0.028805 0.316615
O O18 0.882917 0.250000 0.726930
O O19 0.198149 0.461343 0.540743
O O20 0.595184 0.250000 0.586388
#
# Coordination Sequence:
#
# PCOD9156549 Si02
#       8
#     4   4   4   4   4   4   4   4
#     4   9  19  33  48  68  91 121 158 195 233 272
#     4  10  19  32  50  69  93 120 149 193 243 279
#     4   9  16  28  47  70  94 124 154 183 220 268
#     4  10  19  32  51  70  89 116 158 202 233 268
#     4   9  17  30  48  68  95 125 155 189 224 271
#     4   9  17  27  44  71  99 122 149 184 226 272
#     4  10  18  29  47  71  95 121 154 189 226 274
#     4  10  18  29  46  69  99 125 148 187 235 277
#
# _framework density 22.857500000000002
#
# number of rings (size 3 to 8) (size 9 to 14) (size 15 to 20)
#    0.000    2.500    1.250    3.375    0.000    1.000 
#    0.000    1.875    0.000    9.000    0.000    0.000 
#    0.000    0.000    0.000    0.000    0.000    1.000 
#
# Total GULP energy -178555.195701 kJ/mol
# GULP energy per Si atom -5579.849866 kJ/mol
# Density = 2.280548 g / cm^3
# Si number density = 22.857500 Si / 1000 Ang^3
#
#
#
# Elastic Constant Matrix: (Units=GPa)
#
#
# Indices 1 2 3 4 5 6 
#
# 1 125.6004 9.5149 -8.5616 0.0000 27.1373 0.0000
# 2 9.5149 65.5486 0.2920 0.0000 4.8715 0.0000
# 3 -8.5616 0.2920 24.8711 0.0000 17.0136 0.0000
# 4 0.0000 0.0000 0.0000 5.0380 0.0000 4.1265
# 5 27.1373 4.8715 17.0136 0.0000 32.5485 0.0000
# 6 0.0000 0.0000 0.0000 4.1265 0.0000 19.2614
#
#
#
# Elastic Compliance Matrix: (Units=1/GPa)
#
#
# Indices 1 2 3 4 5 6 
#
# 1 0.014182 -0.000493 0.020120 0.000000 -0.022267 0.000000
# 2 -0.000493 0.015521 0.001488 0.000000 -0.002689 0.000000
# 3 0.020120 0.001488 0.091440 0.000000 -0.064795 0.000000
# 4 0.000000 0.000000 0.000000 0.240733 0.000000 -0.051574
# 5 -0.022267 -0.002689 -0.064795 0.000000 0.083561 0.000000
# 6 0.000000 0.000000 0.000000 -0.051574 0.000000 0.062966
#
#
# Mechanical properties :
#
#
# Convention : Reuss Voigt Hill
#
# Bulk Modulus (GPa) = 6.12102 24.27896 15.19999
# Shear Modulus (GPa) = 9.60373 25.68793 17.64583
#
# Velocity S-wave (km/s) = 2.05200 3.35599 2.78149
# Velocity P-wave (km/s) = 2.88062 5.06575 4.12067
#
# Compressibility (1/GPa) = 0.16337157
#
# Stress axis : x y z
#
# Youngs Moduli (GPa) = 70.51344 64.43010 10.93608
#
# Poissons Ratio (x) = 0.03178 -0.22003
# Poissons Ratio (y) = 0.03479 -0.01627
# Poissons Ratio (z) = -1.41873 -0.09585
#
# Static dielectric constant tensor:
#      x y z
#    x 1.911230 0.000000 0.041490 
#    y 0.000000 1.839280 0.000000 
#    z 0.041490 0.000000 1.843380 
# 
# From -- ./inp_files/73622.got.cif
#   From: 2010.05.17/outbox.cif.g08.bks.cpg/sg11_37_cif.got.tgz:73622.got - 2010.06.03 12:22:45.
