data_PCOD9156305
_publ_section_title
;
Structure prediction by ZEFSAII (Michael W. Deem and Ramdas Pophale) SiO2 
 PCOD9156305
Probable space group: P 21/M
;
_chemical_formula_sum "Si O2"
_cell_formula_units_Z 28
_cell_length_a 13.143637
_cell_length_b 9.757520
_cell_length_c 13.229635
_cell_angle_alpha 90.000000
_cell_angle_beta 60.585077
_cell_angle_gamma 90.000000
_cell_volume 1477.964029
_symmetry_space_group_name_H-M "P 21/M"
_symmetry_group_IT_number 11
_symmetry_cell_setting 'monoclinic'
loop_
_space_group_symop_operation_xyz
x,y,z
-x,1/2+y,-z
-x,-y,-z
x,1/2-y,z
loop_
_atom_site_type_symbol
_atom_site_label
_atom_site_fract_x
_atom_site_fract_y
_atom_site_fract_z
Si Si1 0.282744 0.591866 0.963551
Si Si2 0.329108 0.404312 0.639255
Si Si3 0.052380 0.912454 0.171982
Si Si4 0.524233 0.592369 0.224678
Si Si5 0.661494 0.591345 0.590929
Si Si6 0.139159 0.908549 0.823946
Si Si7 0.938455 0.588961 0.445528
O O1 0.322461 0.750000 0.954540
O O2 0.389269 0.489563 0.892107
O O3 0.201060 0.585570 0.902894
O O4 0.190338 0.556963 0.096459
O O5 0.274449 0.250000 0.663455
O O6 0.412426 0.407164 0.695801
O O7 0.385296 0.422216 0.501794
O O8 0.232561 0.519416 0.704576
O O9 0.039373 0.750000 0.155076
O O10 0.997195 0.938966 0.308449
O O11 0.977796 0.003800 0.131226
O O12 0.507182 0.750000 0.202744
O O13 0.405639 0.509647 0.301992
O O14 0.643555 0.750000 0.629824
O O15 0.799431 0.563932 0.514761
O O16 0.118443 0.750000 0.809216
O O17 0.955176 0.750000 0.457775
O O18 0.000000 0.500000 0.500000
#
# Coordination Sequence:
#
# PCOD9156305 Si02
#       7
#     4   4   4   4   4   4   4
#     4   9  19  33  50  74 107 146 180 209 249 312
#     4   9  17  31  48  70 105 146 179 211 253 312
#     4  10  19  35  55  73 102 142 178 213 264 321
#     4  10  20  31  49  78 110 142 175 214 256 303
#     4  10  19  34  54  73 102 141 177 214 261 317
#     4  10  18  27  45  77 109 139 176 217 255 301
#     4  10  22  39  59  81 103 133 174 224 275 316
#
# _framework density 18.944980000000001
#
# number of rings (size 3 to 8) (size 9 to 14) (size 15 to 20)
#    0.000    2.286    1.429    1.714    0.000    3.429 
#    0.000    0.000    0.000    0.857    0.000    0.000 
#    0.000    0.000    0.000    0.000    0.000    0.000 
#
# Total GULP energy -156181.435447 kJ/mol
# GULP energy per Si atom -5577.908409 kJ/mol
# Density = 1.890186 g / cm^3
# Si number density = 18.944980 Si / 1000 Ang^3
#
#
#
# Elastic Constant Matrix: (Units=GPa)
#
#
# Indices 1 2 3 4 5 6 
#
# 1 27.8852 31.3789 28.5324 0.0000 -7.8392 0.0000
# 2 31.3789 98.3250 77.2548 0.0000 -25.9956 0.0000
# 3 28.5324 77.2548 107.3440 0.0000 -38.7387 0.0000
# 4 0.0000 0.0000 0.0000 21.7765 0.0000 -7.4538
# 5 -7.8392 -25.9956 -38.7387 0.0000 23.5893 0.0000
# 6 0.0000 0.0000 0.0000 -7.4538 0.0000 27.5472
#
#
#
# Elastic Compliance Matrix: (Units=1/GPa)
#
#
# Indices 1 2 3 4 5 6 
#
# 1 0.058352 -0.014276 -0.009611 0.000000 -0.012125 0.000000
# 2 -0.014276 0.027102 -0.016311 0.000000 -0.001664 0.000000
# 3 -0.009611 -0.016311 0.039205 0.000000 0.043213 0.000000
# 4 0.000000 0.000000 0.000000 0.050608 0.000000 0.013694
# 5 -0.012125 -0.001664 0.043213 0.000000 0.107495 0.000000
# 6 0.000000 0.000000 0.000000 0.013694 0.000000 0.040007
#
#
# Mechanical properties :
#
#
# Convention : Reuss Voigt Hill
#
# Bulk Modulus (GPa) = 22.59292 56.43182 39.51237
# Shear Modulus (GPa) = 11.96406 21.00847 16.48627
#
# Velocity S-wave (km/s) = 2.51572 3.33366 2.95315
# Velocity P-wave (km/s) = 4.51552 6.68353 5.70349
#
# Compressibility (1/GPa) = 0.04426165
#
# Stress axis : x y z
#
# Youngs Moduli (GPa) = 17.13749 36.89737 25.50726
#
# Poissons Ratio (x) = 0.52674 0.24516
# Poissons Ratio (y) = 0.24465 0.41605
# Poissons Ratio (z) = 0.16472 0.60184
#
# Static dielectric constant tensor:
#      x y z
#    x 1.652310 0.000000 -0.011060 
#    y 0.000000 1.645220 0.000000 
#    z -0.011060 0.000000 1.680790 
# 
# From -- ./inp_files/49155.got.cif
#   From: 2010.05.17/outbox.cif.g08.bks.cpg/sg11_25_cif.got.tgz:49155.got - 2010.06.03 12:22:45.
