data_PCOD9156286
_publ_section_title
;
Structure prediction by ZEFSAII (Michael W. Deem and Ramdas Pophale) SiO2 
 PCOD9156286
Probable space group: P 21/M
;
_chemical_formula_sum "Si O2"
_cell_formula_units_Z 32
_cell_length_a 15.252279
_cell_length_b 8.030275
_cell_length_c 14.710640
_cell_angle_alpha 90.000000
_cell_angle_beta 87.757479
_cell_angle_gamma 90.000000
_cell_volume 1800.379237
_symmetry_space_group_name_H-M "P 21/M"
_symmetry_group_IT_number 11
_symmetry_cell_setting 'monoclinic'
loop_
_space_group_symop_operation_xyz
x,y,z
-x,1/2+y,-z
-x,-y,-z
x,1/2-y,z
loop_
_atom_site_type_symbol
_atom_site_label
_atom_site_fract_x
_atom_site_fract_y
_atom_site_fract_z
Si Si1 0.162347 0.557929 0.792232
Si Si2 0.101668 0.053831 0.990183
Si Si3 0.884137 0.446783 0.533795
Si Si4 0.006642 0.550967 0.307647
Si Si5 0.240751 0.548584 0.613688
Si Si6 0.598190 0.948211 0.518478
Si Si7 0.278596 0.452191 0.333300
Si Si8 0.170979 0.452347 0.176083
O O1 0.182822 0.750000 0.807777
O O2 0.143883 0.482292 0.890938
O O3 0.233126 0.487171 0.717631
O O4 0.073216 0.541080 0.737155
O O5 0.099698 0.250000 0.000910
O O6 0.156735 0.986247 0.073999
O O7 0.000000 0.000000 0.000000
O O8 0.899386 0.250000 0.521639
O O9 0.964621 0.512315 0.592666
O O10 0.842011 0.518325 0.442964
O O11 0.800770 0.471740 0.604589
O O12 0.990516 0.750000 0.311897
O O13 0.089080 0.518449 0.237995
O O14 0.232446 0.750000 0.615505
O O15 0.330243 0.508107 0.558148
O O16 0.601165 0.750000 0.517578
O O17 0.633990 0.004031 0.616444
O O18 0.500000 0.000000 0.500000
O O19 0.272219 0.250000 0.339325
O O20 0.257859 0.499097 0.230053
O O21 0.166994 0.250000 0.176916
#
# Coordination Sequence:
#
# PCOD9156286 Si02
#       8
#     4   4   4   4   4   4   4   4
#     4  11  22  33  45  63  92 130 167 204 244 284
#     4  11  21  32  48  68  92 125 167 213 251 285
#     4   8  15  28  44  63  88 120 158 198 237 276
#     4  10  18  27  43  65  89 121 162 205 243 280
#     4   9  19  35  50  66  94 128 161 197 238 285
#     4  10  19  32  54  80 104 126 150 184 230 289
#     4   8  15  28  46  70  95 121 153 188 230 283
#     4   9  17  30  47  65  90 123 161 204 245 280
#
# _framework density 17.774032999999999
#
# number of rings (size 3 to 8) (size 9 to 14) (size 15 to 20)
#    0.000    2.500    1.250    1.500    0.000    3.000 
#    0.000    0.000    0.000    0.000    0.000    0.875 
#    0.000    0.000    0.000    0.000    0.000    0.000 
#
# Total GULP energy -178251.266271 kJ/mol
# GULP energy per Si atom -5570.352071 kJ/mol
# Density = 1.773358 g / cm^3
# Si number density = 17.774033 Si / 1000 Ang^3
#
#
#
# Elastic Constant Matrix: (Units=GPa)
#
#
# Indices 1 2 3 4 5 6 
#
# 1 86.7334 4.2849 51.4487 0.0000 14.0605 0.0000
# 2 4.2849 20.0894 13.1539 0.0000 4.0814 0.0000
# 3 51.4487 13.1539 168.2766 0.0000 15.3817 0.0000
# 4 0.0000 0.0000 0.0000 19.2035 0.0000 -1.7904
# 5 14.0605 4.0814 15.3817 0.0000 19.4023 0.0000
# 6 0.0000 0.0000 0.0000 -1.7904 0.0000 16.8649
#
#
#
# Elastic Compliance Matrix: (Units=1/GPa)
#
#
# Indices 1 2 3 4 5 6 
#
# 1 0.015139 0.001004 -0.003973 0.000000 -0.008032 0.000000
# 2 0.001004 0.053828 -0.003680 0.000000 -0.009134 0.000000
# 3 -0.003973 -0.003680 0.007667 0.000000 -0.002425 0.000000
# 4 0.000000 0.000000 0.000000 0.052595 0.000000 0.005583
# 5 -0.008032 -0.009134 -0.002425 0.000000 0.061205 0.000000
# 6 0.000000 0.000000 0.000000 0.005583 0.000000 0.059887
#
#
# Mechanical properties :
#
#
# Convention : Reuss Voigt Hill
#
# Bulk Modulus (GPa) = 15.78859 45.87494 30.83176
# Shear Modulus (GPa) = 17.56052 24.84159 21.20106
#
# Velocity S-wave (km/s) = 3.14664 3.74255 3.45746
# Velocity P-wave (km/s) = 4.70149 6.67396 5.77259
#
# Compressibility (1/GPa) = 0.06333687
#
# Stress axis : x y z
#
# Youngs Moduli (GPa) = 66.05587 18.57754 130.43736
#
# Poissons Ratio (x) = -0.01866 0.51820
# Poissons Ratio (y) = -0.06633 0.47999
# Poissons Ratio (z) = 0.26242 0.06836
#
# Static dielectric constant tensor:
#      x y z
#    x 1.751440 0.000000 0.016450 
#    y 0.000000 1.623700 0.000000 
#    z 0.016450 0.000000 1.686600 
# 
# From -- ./inp_files/51283.got.cif
#   From: 2010.05.17/outbox.cif.g08.bks.cpg/sg11_26_cif.got.tgz:51283.got - 2010.06.03 12:22:45.
