data_PCOD9156215
_publ_section_title
;
Structure prediction by ZEFSAII (Michael W. Deem and Ramdas Pophale) SiO2 
 PCOD9156215
Probable space group: P 21/M
;
_chemical_formula_sum "Si O2"
_cell_formula_units_Z 32
_cell_length_a 17.612021
_cell_length_b 7.723526
_cell_length_c 14.475118
_cell_angle_alpha 90.000000
_cell_angle_beta 102.374000
_cell_angle_gamma 90.000000
_cell_volume 1923.264717
_symmetry_space_group_name_H-M "P 21/M"
_symmetry_group_IT_number 11
_symmetry_cell_setting 'monoclinic'
loop_
_space_group_symop_operation_xyz
x,y,z
-x,1/2+y,-z
-x,-y,-z
x,1/2-y,z
loop_
_atom_site_type_symbol
_atom_site_label
_atom_site_fract_x
_atom_site_fract_y
_atom_site_fract_z
Si Si1 0.665953 0.455321 0.105860
Si Si2 0.576383 0.044916 0.904596
Si Si3 0.161322 0.037822 0.156100
Si Si4 0.477923 0.458508 0.390165
Si Si5 0.007362 0.543895 0.893138
Si Si6 0.823046 0.951266 0.051979
Si Si7 0.573621 0.448722 0.244441
Si Si8 0.326353 0.459595 0.247397
O O1 0.650451 0.250000 0.106029
O O2 0.754158 0.474417 0.095567
O O3 0.642211 0.527433 0.199955
O O4 0.609767 0.523832 0.009802
O O5 0.560126 0.250000 0.907411
O O6 0.500516 0.953556 0.844072
O O7 0.642539 0.017341 0.844561
O O8 0.159243 0.250000 0.153432
O O9 0.237087 0.983721 0.233043
O O10 0.075841 0.982160 0.167687
O O11 0.173540 0.978366 0.052564
O O12 0.500000 0.500000 0.500000
O O13 0.477006 0.250000 0.380165
O O14 0.540051 0.527040 0.330577
O O15 0.391871 0.519597 0.336876
O O16 0.011820 0.750000 0.883726
O O17 0.090347 0.470941 0.884365
O O18 0.000000 0.500000 0.000000
O O19 0.804887 0.750000 0.037812
O O20 0.594512 0.250000 0.271817
O O21 0.326327 0.250000 0.248241
#
# Coordination Sequence:
#
# PCOD9156215 Si02
#       8
#     4   4   4   4   4   4   4   4
#     4  10  19  29  41  59  84 111 144 178 206 243
#     4  10  18  26  39  62  85 107 137 177 212 237
#     4   8  14  25  41  58  78 108 145 175 200 240
#     4   9  18  31  48  63  81 108 137 173 215 256
#     4   9  16  26  39  57  81 111 146 181 211 243
#     4  10  18  27  40  58  82 117 149 174 208 245
#     4   9  19  33  45  58  79 112 143 169 210 259
#     4   9  16  29  45  61  82 113 144 170 207 255
#
# _framework density 16.638375
#
# number of rings (size 3 to 8) (size 9 to 14) (size 15 to 20)
#    0.000    2.750    1.250    3.000    0.000    3.000 
#    0.000    0.625    0.000    0.000    0.000    0.000 
#    0.000    1.000    0.000    2.000    0.000    2.750 
#
# Total GULP energy -178168.594427 kJ/mol
# GULP energy per Si atom -5567.768576 kJ/mol
# Density = 1.660051 g / cm^3
# Si number density = 16.638375 Si / 1000 Ang^3
#
#
#
# Elastic Constant Matrix: (Units=GPa)
#
#
# Indices 1 2 3 4 5 6 
#
# 1 86.7571 -7.4638 51.7981 0.0000 -7.6153 0.0000
# 2 -7.4638 27.0130 0.1661 0.0000 0.5912 0.0000
# 3 51.7981 0.1661 87.6200 0.0000 -1.3415 0.0000
# 4 0.0000 0.0000 0.0000 11.7440 0.0000 0.6238
# 5 -7.6153 0.5912 -1.3415 0.0000 14.3393 0.0000
# 6 0.0000 0.0000 0.0000 0.6238 0.0000 16.8118
#
#
#
# Elastic Compliance Matrix: (Units=1/GPa)
#
#
# Indices 1 2 3 4 5 6 
#
# 1 0.019638 0.005297 -0.011479 0.000000 0.009137 0.000000
# 2 0.005297 0.038482 -0.003190 0.000000 0.000928 0.000000
# 3 -0.011479 -0.003190 0.018140 0.000000 -0.004268 0.000000
# 4 0.000000 0.000000 0.000000 0.085318 0.000000 -0.003166
# 5 0.009137 0.000928 -0.004268 0.000000 0.074153 0.000000
# 6 0.000000 0.000000 0.000000 -0.003166 0.000000 0.059600
#
#
# Mechanical properties :
#
#
# Convention : Reuss Voigt Hill
#
# Bulk Modulus (GPa) = 17.38696 32.26564 24.82630
# Shear Modulus (GPa) = 15.00385 19.03833 17.02109
#
# Velocity S-wave (km/s) = 3.00619 3.38633 3.20191
# Velocity P-wave (km/s) = 4.74575 5.89271 5.35006
#
# Compressibility (1/GPa) = 0.05751438
#
# Stress axis : x y z
#
# Youngs Moduli (GPa) = 50.92203 25.98614 55.12713
#
# Poissons Ratio (x) = -0.13764 0.63283
# Poissons Ratio (y) = -0.26972 0.17585
# Poissons Ratio (z) = 0.58456 0.08289
#
# Static dielectric constant tensor:
#      x y z
#    x 1.618930 0.000000 -0.006370 
#    y 0.000000 1.608790 0.000000 
#    z -0.006370 0.000000 1.546690 
# 
# From -- ./inp_files/51325.got.cif
#   From: 2010.05.17/outbox.cif.g08.bks.cpg/sg11_26_cif.got.tgz:51325.got - 2010.06.03 12:22:45.
