data_PCOD9156377
_publ_section_title
;
Structure prediction by ZEFSAII (Michael W. Deem and Ramdas Pophale) SiO2 
 PCOD9156377
Probable space group: P 21/M
;
_chemical_formula_sum "Si O2"
_cell_formula_units_Z 28
_cell_length_a 16.831603
_cell_length_b 9.245819
_cell_length_c 18.795400
_cell_angle_alpha 90.000000
_cell_angle_beta 37.814219
_cell_angle_gamma 90.000000
_cell_volume 1793.312475
_symmetry_space_group_name_H-M "P 21/M"
_symmetry_group_IT_number 11
_symmetry_cell_setting 'monoclinic'
loop_
_space_group_symop_operation_xyz
x,y,z
-x,1/2+y,-z
-x,-y,-z
x,1/2-y,z
loop_
_atom_site_type_symbol
_atom_site_label
_atom_site_fract_x
_atom_site_fract_y
_atom_site_fract_z
Si Si1 0.900415 0.584062 0.668175
Si Si2 0.994372 0.576421 0.274406
Si Si3 0.520043 0.923719 0.410553
Si Si4 0.269811 0.923966 0.492727
Si Si5 0.798747 0.923424 0.152952
Si Si6 0.044326 0.577155 0.076444
Si Si7 0.192234 0.915719 0.395735
O O1 0.867579 0.750000 0.706847
O O2 0.913376 0.490027 0.730175
O O3 0.809262 0.515457 0.672348
O O4 0.045595 0.582801 0.531389
O O5 0.987125 0.750000 0.286521
O O6 0.039958 0.539776 0.162557
O O7 0.852548 0.507618 0.387953
O O8 0.523984 0.750000 0.418050
O O9 0.399789 0.956110 0.443768
O O10 0.656660 0.967983 0.279182
O O11 0.500000 0.000000 0.500000
O O12 0.245090 0.750000 0.513565
O O13 0.277600 0.960938 0.403249
O O14 0.799241 0.750000 0.143468
O O15 0.906273 0.959081 0.137054
O O16 0.847106 0.997768 0.046638
O O17 0.061145 0.750000 0.058451
O O18 0.222009 0.750000 0.355182
#
# Coordination Sequence:
#
# PCOD9156377 Si02
#       7
#     4   4   4   4   4   4   4
#     4   9  16  25  39  61  88 116 146 180 219 264
#     4  10  18  28  44  66  92 119 148 183 222 264
#     4  10  20  33  48  68  93 120 150 183 220 262
#     4   9  18  30  44  64  91 121 151 182 218 264
#     4   9  18  32  48  65  87 116 149 183 219 259
#     4   9  18  31  46  65  88 115 148 184 220 259
#     4   8  14  25  39  57  84 117 148 177 214 261
#
# _framework density 15.613564999999999
#
# number of rings (size 3 to 8) (size 9 to 14) (size 15 to 20)
#    0.000    2.857    0.000    2.571    0.000    6.857 
#    0.000    2.857    0.000    0.000    0.000    1.000 
#    0.000    0.000    0.000    0.000    0.000    0.000 
#
# Total GULP energy -155991.850106 kJ/mol
# GULP energy per Si atom -5571.137504 kJ/mol
# Density = 1.557803 g / cm^3
# Si number density = 15.613565 Si / 1000 Ang^3
#
#
#
# Elastic Constant Matrix: (Units=GPa)
#
#
# Indices 1 2 3 4 5 6 
#
# 1 143.1500 59.8027 71.3884 0.0000 20.8206 0.0000
# 2 59.8027 49.9288 45.1697 0.0000 14.4316 0.0000
# 3 71.3884 45.1697 92.2101 0.0000 14.9553 0.0000
# 4 0.0000 0.0000 0.0000 22.1607 0.0000 6.5957
# 5 20.8206 14.4316 14.9553 0.0000 22.2688 0.0000
# 6 0.0000 0.0000 0.0000 6.5957 0.0000 25.4143
#
#
#
# Elastic Compliance Matrix: (Units=1/GPa)
#
#
# Indices 1 2 3 4 5 6 
#
# 1 0.015329 -0.013062 -0.005069 0.000000 -0.002462 0.000000
# 2 -0.013062 0.050723 -0.012775 0.000000 -0.012079 0.000000
# 3 -0.005069 -0.012775 0.021228 0.000000 -0.001238 0.000000
# 4 0.000000 0.000000 0.000000 0.048902 0.000000 -0.012691
# 5 -0.002462 -0.012079 -0.001238 0.000000 0.055867 0.000000
# 6 0.000000 0.000000 0.000000 -0.012691 0.000000 0.042642
#
#
# Mechanical properties :
#
#
# Convention : Reuss Voigt Hill
#
# Bulk Modulus (GPa) = 39.26778 70.89006 55.07892
# Shear Modulus (GPa) = 16.39378 21.23064 18.81221
#
# Velocity S-wave (km/s) = 3.24384 3.69149 3.47488
# Velocity P-wave (km/s) = 6.26374 7.97940 7.17305
#
# Compressibility (1/GPa) = 0.02546617
#
# Stress axis : x y z
#
# Youngs Moduli (GPa) = 65.23613 19.71497 47.10707
#
# Poissons Ratio (x) = 0.25752 0.23881
# Poissons Ratio (y) = 0.85214 0.60179
# Poissons Ratio (z) = 0.33071 0.25186
#
# Static dielectric constant tensor:
#      x y z
#    x 1.533570 0.000000 0.001950 
#    y 0.000000 1.526480 0.000000 
#    z 0.001950 0.000000 1.487430 
# 
# From -- ./inp_files/52820.got.cif
#   From: 2010.05.17/outbox.cif.g08.bks.cpg/sg11_27_cif.got.tgz:52820.got - 2010.06.03 12:22:45.
