data_PCOD9156642
_publ_section_title
;
Structure prediction by ZEFSAII (Michael W. Deem and Ramdas Pophale) SiO2 
 PCOD9156642
Probable space group: P 21/M
;
_chemical_formula_sum "Si O2"
_cell_formula_units_Z 28
_cell_length_a 9.891484
_cell_length_b 8.856752
_cell_length_c 29.081841
_cell_angle_alpha 90.000000
_cell_angle_beta 141.030953
_cell_angle_gamma 90.000000
_cell_volume 1602.284919
_symmetry_space_group_name_H-M "P 21/M"
_symmetry_group_IT_number 11
_symmetry_cell_setting 'monoclinic'
loop_
_space_group_symop_operation_xyz
x,y,z
-x,1/2+y,-z
-x,-y,-z
x,1/2-y,z
loop_
_atom_site_type_symbol
_atom_site_label
_atom_site_fract_x
_atom_site_fract_y
_atom_site_fract_z
Si Si1 0.305564 0.931544 0.919828
Si Si2 0.219664 0.431535 0.797880
Si Si3 0.896924 0.930989 0.405026
Si Si4 0.315836 0.429531 0.551876
Si Si5 0.562701 0.931561 0.238680
Si Si6 0.177409 0.069627 0.190412
Si Si7 0.237701 0.430740 0.313415
O O1 0.319001 0.750000 0.921788
O O2 0.073178 0.972216 0.880191
O O3 0.298973 0.996020 0.866415
O O4 0.500000 0.000000 0.000000
O O5 0.215292 0.250000 0.800795
O O6 0.369904 0.474706 0.794832
O O7 0.978330 0.491656 0.725317
O O8 0.927750 0.750000 0.410923
O O9 0.770027 0.963553 0.419018
O O10 0.748947 0.980670 0.323589
O O11 0.127410 0.010241 0.469201
O O12 0.339684 0.250000 0.554019
O O13 0.544247 0.509649 0.606364
O O14 0.554921 0.750000 0.238828
O O15 0.337810 0.994450 0.197152
O O16 0.194125 0.250000 0.190702
O O17 0.244536 0.029977 0.260591
O O18 0.220125 0.250000 0.312493
#
# Coordination Sequence:
#
# PCOD9156642 Si02
#       7
#     4   4   4   4   4   4   4
#     4  10  21  39  61  87 112 140 176 215 259 310
#     4  10  21  36  56  81 110 142 176 217 264 319
#     4   9  18  31  47  72 106 139 175 225 274 318
#     4  10  18  29  49  75 102 137 182 229 276 319
#     4  10  20  35  54  79 109 142 179 218 267 320
#     4   9  19  33  54  81 107 136 175 218 260 311
#     4  10  19  33  52  76 105 140 183 228 269 316
#
# _framework density 17.475042999999999
#
# number of rings (size 3 to 8) (size 9 to 14) (size 15 to 20)
#    0.000    2.286    1.429    2.571    0.000    5.143 
#    0.000    1.429    0.000    0.000    0.000    0.000 
#    0.000    0.000    0.000    0.000    0.000    0.000 
#
# Total GULP energy -156248.067226 kJ/mol
# GULP energy per Si atom -5580.288115 kJ/mol
# Density = 1.743527 g / cm^3
# Si number density = 17.475043 Si / 1000 Ang^3
#
#
#
# Elastic Constant Matrix: (Units=GPa)
#
#
# Indices 1 2 3 4 5 6 
#
# 1 132.6906 46.5790 67.1912 0.0000 14.0653 0.0000
# 2 46.5790 41.0962 40.8758 0.0000 7.4533 0.0000
# 3 67.1912 40.8758 130.7052 0.0000 21.2536 0.0000
# 4 0.0000 0.0000 0.0000 31.2565 0.0000 6.6384
# 5 14.0653 7.4533 21.2536 0.0000 19.1415 0.0000
# 6 0.0000 0.0000 0.0000 6.6384 0.0000 26.0609
#
#
#
# Elastic Compliance Matrix: (Units=1/GPa)
#
#
# Indices 1 2 3 4 5 6 
#
# 1 0.013388 -0.012031 -0.002785 0.000000 -0.002061 0.000000
# 2 -0.012031 0.046182 -0.008263 0.000000 0.000033 0.000000
# 3 -0.002785 -0.008263 0.013193 0.000000 -0.009384 0.000000
# 4 0.000000 0.000000 0.000000 0.033823 0.000000 -0.008616
# 5 -0.002061 0.000033 -0.009384 0.000000 0.064164 0.000000
# 6 0.000000 0.000000 0.000000 -0.008616 0.000000 0.040566
#
#
# Mechanical properties :
#
#
# Convention : Reuss Voigt Hill
#
# Bulk Modulus (GPa) = 37.58715 68.19822 52.89268
# Shear Modulus (GPa) = 18.77283 25.28150 22.02717
#
# Velocity S-wave (km/s) = 3.28115 3.80770 3.55419
# Velocity P-wave (km/s) = 5.99253 7.64475 6.86850
#
# Compressibility (1/GPa) = 0.02660484
#
# Stress axis : x y z
#
# Youngs Moduli (GPa) = 74.69284 21.65351 75.79967
#
# Poissons Ratio (x) = 0.26050 0.21110
# Poissons Ratio (y) = 0.89860 0.62637
# Poissons Ratio (z) = 0.20801 0.17893
#
# Static dielectric constant tensor:
#      x y z
#    x 1.584970 0.000000 -0.000520 
#    y 0.000000 1.562480 0.000000 
#    z -0.000520 0.000000 1.578820 
# 
# From -- ./inp_files/28225.got.cif
#   From: 2010.05.17/outbox.cif.g08.bks.cpg/sg11_15_cif.got.tgz:28225.got - 2010.06.03 12:22:45.
