data_PCOD9156146
_publ_section_title
;
Structure prediction by ZEFSAII (Michael W. Deem and Ramdas Pophale) SiO2 
 PCOD9156146
Probable space group: P 21/M
;
_chemical_formula_sum "Si O2"
_cell_formula_units_Z 32
_cell_length_a 11.714374
_cell_length_b 17.214931
_cell_length_c 16.110072
_cell_angle_alpha 90.000000
_cell_angle_beta 150.365490
_cell_angle_gamma 90.000000
_cell_volume 1606.415313
_symmetry_space_group_name_H-M "P 21/M"
_symmetry_group_IT_number 11
_symmetry_cell_setting 'monoclinic'
loop_
_space_group_symop_operation_xyz
x,y,z
-x,1/2+y,-z
-x,-y,-z
x,1/2-y,z
loop_
_atom_site_type_symbol
_atom_site_label
_atom_site_fract_x
_atom_site_fract_y
_atom_site_fract_z
Si Si1 0.034334 0.836599 0.323141
Si Si2 0.949220 0.977711 0.375326
Si Si3 0.352711 0.843610 0.366002
Si Si4 0.469717 0.163719 0.072715
Si Si5 0.163613 0.927688 0.081018
Si Si6 0.130245 0.602623 0.791879
Si Si7 0.834309 0.837348 0.745865
Si Si8 0.561406 0.005080 0.893220
O O1 0.102691 0.750000 0.393787
O O2 0.166514 0.854469 0.321407
O O3 0.065468 0.901369 0.412465
O O4 0.765239 0.836061 0.128605
O O5 0.020797 0.051583 0.365833
O O6 0.671041 0.968879 0.205855
O O7 0.000000 0.000000 0.500000
O O8 0.372910 0.750000 0.362192
O O9 0.267615 0.886310 0.228574
O O10 0.593327 0.872510 0.559576
O O11 0.494666 0.250000 0.126281
O O12 0.679455 0.145977 0.142741
O O13 0.451442 0.088385 0.120280
O O14 0.371678 0.956287 0.151949
O O15 0.988021 0.874975 0.915455
O O16 0.000000 0.000000 0.000000
O O17 0.995306 0.659303 0.766368
O O18 0.240393 0.535645 0.919892
O O19 0.779063 0.750000 0.736910
#
# Coordination Sequence:
#
# PCOD9156146 Si02
#       8
#     4   4   4   4   4   4   4   4
#     4  10  20  38  62  89 121 162 203 249 314 376
#     4  11  22  36  59  88 122 159 196 255 315 370
#     4  10  23  43  67  93 128 170 215 265 318 379
#     4  10  17  32  61  87 112 157 205 247 306 373
#     4  11  24  39  65  96 128 167 219 261 317 384
#     4  10  19  37  60  85 122 156 206 249 312 378
#     4  10  23  42  63  91 127 168 211 267 321 377
#     4  10  20  38  56  88 123 152 201 257 305 367
#
# _framework density 19.92013
#
# number of rings (size 3 to 8) (size 9 to 14) (size 15 to 20)
#    0.000    1.750    2.500    2.250    3.500    1.500 
#    0.000    4.375    0.000    3.000    0.000    0.000 
#    0.000    0.000    0.000    0.000    0.000    0.000 
#
# Total GULP energy -178386.135992 kJ/mol
# GULP energy per Si atom -5574.566750 kJ/mol
# Density = 1.987479 g / cm^3
# Si number density = 19.920130 Si / 1000 Ang^3
#
#
#
# Elastic Constant Matrix: (Units=GPa)
#
#
# Indices 1 2 3 4 5 6 
#
# 1 61.8952 47.1733 18.7163 0.0000 -15.5961 0.0000
# 2 47.1733 113.8448 38.1782 0.0000 -17.5407 0.0000
# 3 18.7163 38.1782 73.2797 0.0000 -14.8784 0.0000
# 4 0.0000 0.0000 0.0000 13.1805 0.0000 -4.0943
# 5 -15.5961 -17.5407 -14.8784 0.0000 30.1200 0.0000
# 6 0.0000 0.0000 0.0000 -4.0943 0.0000 31.3840
#
#
#
# Elastic Compliance Matrix: (Units=1/GPa)
#
#
# Indices 1 2 3 4 5 6 
#
# 1 0.025114 -0.009211 -0.000072 0.000000 0.007605 0.000000
# 2 -0.009211 0.014438 -0.004925 0.000000 0.001206 0.000000
# 3 -0.000072 -0.004925 0.017384 0.000000 0.005682 0.000000
# 4 0.000000 0.000000 0.000000 0.079074 0.000000 0.010316
# 5 0.007605 0.001206 0.005682 0.000000 0.040647 0.000000
# 6 0.000000 0.000000 0.000000 0.010316 0.000000 0.033209
#
#
# Mechanical properties :
#
#
# Convention : Reuss Voigt Hill
#
# Bulk Modulus (GPa) = 35.06055 50.79501 42.92778
# Shear Modulus (GPa) = 20.17854 24.60035 22.38944
#
# Velocity S-wave (km/s) = 3.18618 3.51800 3.35619
# Velocity P-wave (km/s) = 5.58340 6.48509 6.05107
#
# Compressibility (1/GPa) = 0.02852209
#
# Stress axis : x y z
#
# Youngs Moduli (GPa) = 39.81820 69.26274 57.52413
#
# Poissons Ratio (x) = 0.63796 0.00412
# Poissons Ratio (y) = 0.36675 0.28328
# Poissons Ratio (z) = 0.00285 0.34109
#
# Static dielectric constant tensor:
#      x y z
#    x 1.686590 0.000000 -0.004980 
#    y 0.000000 1.724630 0.000000 
#    z -0.004980 0.000000 2.035960 
# 
# From -- ./inp_files/50694.got.cif
#   From: 2010.05.17/outbox.cif.g08.bks.cpg/sg11_26_cif.got.tgz:50694.got - 2010.06.03 12:22:45.
