data_PCOD9156216
_publ_section_title
;
Structure prediction by ZEFSAII (Michael W. Deem and Ramdas Pophale) SiO2 
 PCOD9156216
Probable space group: P 21/M
;
_chemical_formula_sum "Si O2"
_cell_formula_units_Z 30
_cell_length_a 17.418769
_cell_length_b 9.530641
_cell_length_c 9.419318
_cell_angle_alpha 90.000000
_cell_angle_beta 53.706763
_cell_angle_gamma 90.000000
_cell_volume 1260.355549
_symmetry_space_group_name_H-M "P 21/M"
_symmetry_group_IT_number 11
_symmetry_cell_setting 'monoclinic'
loop_
_space_group_symop_operation_xyz
x,y,z
-x,1/2+y,-z
-x,-y,-z
x,1/2-y,z
loop_
_atom_site_type_symbol
_atom_site_label
_atom_site_fract_x
_atom_site_fract_y
_atom_site_fract_z
Si Si1 0.726795 0.086731 0.649735
Si Si2 0.598273 0.090064 0.071324
Si Si3 0.744290 0.583314 0.076647
Si Si4 0.034412 0.406480 0.745933
Si Si5 0.412766 0.483545 0.413123
Si Si6 0.143064 0.908927 0.835428
Si Si7 0.510606 0.750000 0.457657
Si Si8 0.125259 0.582539 0.283866
O O1 0.730005 0.250000 0.606601
O O2 0.826997 0.051592 0.616725
O O3 0.686392 0.000209 0.562374
O O4 0.649762 0.076808 0.863964
O O5 0.615295 0.250000 0.105595
O O6 0.487432 0.061065 0.206207
O O7 0.647270 0.980518 0.123391
O O8 0.742218 0.750000 0.086321
O O9 0.778519 0.508997 0.181651
O O10 0.819955 0.525598 0.878258
O O11 0.078099 0.250000 0.702129
O O12 0.983576 0.426931 0.649395
O O13 0.100455 0.525547 0.739570
O O14 0.944878 0.404167 0.955272
O O15 0.448374 0.628160 0.442485
O O16 0.428967 0.369816 0.517242
O O17 0.176787 0.750000 0.783923
O O18 0.149969 0.750000 0.229840
#
# Coordination Sequence:
#
# PCOD9156216 Si02
#       8
#     4   4   4   4   4   4   2   4
#     4   9  17  31  52  73  98 128 160 198 243 293
#     4  10  20  34  51  71  97 128 159 198 248 294
#     4  10  18  26  39  62  89 118 155 196 235 277
#     4   8  13  21  35  53  78 115 159 193 220 265
#     4  11  20  39  53  74  94 129 160 203 238 292
#     4   9  15  23  35  51  80 121 159 189 223 272
#     4  10  24  36  56  70  94 124 168 198 244 280
#     4   8  15  28  41  59  88 123 156 191 236 281
#
# _framework density 23.802810000000001
#
# number of rings (size 3 to 8) (size 9 to 14) (size 15 to 20)
#    0.000    2.667    1.333    3.600    0.933    3.200 
#    4.800    0.000    0.000    0.000    0.000    0.000 
#    0.000    0.000    0.000    7.200    0.000    3.733 
#
# Total GULP energy -167115.819499 kJ/mol
# GULP energy per Si atom -5570.527317 kJ/mol
# Density = 2.374863 g / cm^3
# Si number density = 23.802810 Si / 1000 Ang^3
#
#
#
# Elastic Constant Matrix: (Units=GPa)
#
#
# Indices 1 2 3 4 5 6 
#
# 1 151.7441 69.3771 27.7254 0.0000 34.8951 0.0000
# 2 69.3771 188.9616 40.7468 0.0000 27.3947 0.0000
# 3 27.7254 40.7468 101.1171 0.0000 22.1457 0.0000
# 4 0.0000 0.0000 0.0000 -5.6423 0.0000 23.1535
# 5 34.8951 27.3947 22.1457 0.0000 41.7429 0.0000
# 6 0.0000 0.0000 0.0000 23.1535 0.0000 21.4667
#
#
#
# Elastic Compliance Matrix: (Units=1/GPa)
#
#
# Indices 1 2 3 4 5 6 
#
# 1 0.009100 -0.002439 -0.000223 0.000000 -0.005888 0.000000
# 2 -0.002439 0.006778 -0.001737 0.000000 -0.001488 0.000000
# 3 -0.000223 -0.001737 0.011722 0.000000 -0.004893 0.000000
# 4 0.000000 0.000000 0.000000 -0.032664 0.000000 0.035230
# 5 -0.005888 -0.001488 -0.004893 0.000000 0.032451 0.000000
# 6 0.000000 0.000000 0.000000 0.035230 0.000000 0.008585
#
#
# Mechanical properties :
#
#
# Convention : Reuss Voigt Hill
#
# Bulk Modulus (GPa) = 53.18379 79.72459 66.45419
# Shear Modulus (GPa) = 97.96829 31.77836 64.87332
#
# Velocity S-wave (km/s) = 6.42243 3.65782 5.22625
# Velocity P-wave (km/s) = 8.79709 7.16980 8.02480
#
# Compressibility (1/GPa) = 0.01880272
#
# Stress axis : x y z
#
# Youngs Moduli (GPa) = 109.88916 147.53943 85.30985
#
# Poissons Ratio (x) = 0.35991 0.01899
# Poissons Ratio (y) = 0.26807 0.14815
# Poissons Ratio (z) = 0.02446 0.25621
#
# Static dielectric constant tensor:
#      x y z
#    x 1.893300 0.000000 -0.050550 
#    y 0.000000 1.827180 0.000000 
#    z -0.050550 0.000000 1.994680 
# 
# From -- ./inp_files/40602.got.cif
#   From: 2010.05.17/outbox.cif.g08.bks.cpg/sg11_21_cif.got.tgz:40602.got - 2010.06.03 12:22:45.
