data_PCOD9156129
_publ_section_title
;
Structure prediction by ZEFSAII (Michael W. Deem and Ramdas Pophale) SiO2 
 PCOD9156129
Probable space group: P 21/M
;
_chemical_formula_sum "Si O2"
_cell_formula_units_Z 32
_cell_length_a 12.944337
_cell_length_b 18.932859
_cell_length_c 15.522215
_cell_angle_alpha 90.000000
_cell_angle_beta 28.101235
_cell_angle_gamma 90.000000
_cell_volume 1791.839474
_symmetry_space_group_name_H-M "P 21/M"
_symmetry_group_IT_number 11
_symmetry_cell_setting 'monoclinic'
loop_
_space_group_symop_operation_xyz
x,y,z
-x,1/2+y,-z
-x,-y,-z
x,1/2-y,z
loop_
_atom_site_type_symbol
_atom_site_label
_atom_site_fract_x
_atom_site_fract_y
_atom_site_fract_z
Si Si1 0.560441 0.334476 0.444430
Si Si2 0.916297 0.328830 0.692109
Si Si3 0.180133 0.624691 0.054492
Si Si4 0.217896 0.523935 0.287861
Si Si5 0.717962 0.525637 0.947458
Si Si6 0.421310 0.333575 0.353520
Si Si7 0.807354 0.922069 0.209601
Si Si8 0.977339 0.425620 0.134964
O O1 0.539171 0.250000 0.474275
O O2 0.461220 0.352861 0.423201
O O3 0.424340 0.383811 0.609410
O O4 0.809646 0.360818 0.260035
O O5 0.886270 0.250000 0.676777
O O6 0.839605 0.326165 0.848145
O O7 0.807449 0.394524 0.723948
O O8 0.174135 0.347061 0.507067
O O9 0.182485 0.548325 0.095409
O O10 0.979899 0.627099 0.135180
O O11 0.401396 0.632014 0.838345
O O12 0.244706 0.473954 0.183084
O O13 0.000000 0.500000 0.500000
O O14 0.456832 0.522948 0.157342
O O15 0.861142 0.577285 0.901520
O O16 0.458686 0.250000 0.320544
O O17 0.835444 0.000933 0.229510
O O18 0.879537 0.925933 0.057451
#
# Coordination Sequence:
#
# PCOD9156129 Si02
#       8
#     4   4   4   4   4   4   4   4
#     4  11  22  34  51  79 116 155 189 222 270 330
#     4  10  20  33  53  82 111 139 179 226 280 340
#     4  10  17  32  53  79 112 142 175 221 278 328
#     4  10  20  38  60  82 107 142 180 238 295 329
#     4   9  21  36  57  82 105 136 189 233 274 335
#     4  10  19  29  47  77 113 146 174 212 271 334
#     4  10  20  34  55  81 113 151 186 225 268 331
#     4  10  21  38  55  81 113 149 191 228 271 329
#
# _framework density 17.858741999999999
#
# number of rings (size 3 to 8) (size 9 to 14) (size 15 to 20)
#    0.000    2.000    2.500    1.500    0.000    2.000 
#    0.000    0.625    0.000    2.250    0.000    0.000 
#    0.000    0.000    0.000    0.000    0.000    0.000 
#
# Total GULP energy -178258.823598 kJ/mol
# GULP energy per Si atom -5570.588237 kJ/mol
# Density = 1.781809 g / cm^3
# Si number density = 17.858742 Si / 1000 Ang^3
#
#
#
# Elastic Constant Matrix: (Units=GPa)
#
#
# Indices 1 2 3 4 5 6 
#
# 1 45.2907 4.3281 -7.0604 0.0000 -5.3693 0.0000
# 2 4.3281 235.1167 -143.8463 0.0000 152.5365 0.0000
# 3 -7.0604 -143.8463 166.8021 0.0000 -96.3962 0.0000
# 4 0.0000 0.0000 0.0000 46.5223 0.0000 -11.0109
# 5 -5.3693 152.5365 -96.3962 0.0000 131.7907 0.0000
# 6 0.0000 0.0000 0.0000 -11.0109 0.0000 11.8059
#
#
#
# Elastic Compliance Matrix: (Units=1/GPa)
#
#
# Indices 1 2 3 4 5 6 
#
# 1 0.023347 -0.003354 0.001540 0.000000 0.005959 0.000000
# 2 -0.003354 0.021424 0.006798 0.000000 -0.019961 0.000000
# 3 0.001540 0.006798 0.012839 0.000000 0.001585 0.000000
# 4 0.000000 0.000000 0.000000 0.027584 0.000000 0.025726
# 5 0.005959 -0.019961 0.001585 0.000000 0.032093 0.000000
# 6 0.000000 0.000000 0.000000 0.025726 0.000000 0.108698
#
#
# Mechanical properties :
#
#
# Convention : Reuss Voigt Hill
#
# Bulk Modulus (GPa) = 14.79777 17.11693 15.95735
# Shear Modulus (GPa) = 20.96064 77.60964 49.28514
#
# Velocity S-wave (km/s) = 3.42963 6.59938 5.25900
# Velocity P-wave (km/s) = 4.89767 8.22645 6.76985
#
# Compressibility (1/GPa) = 0.06757775
#
# Stress axis : x y z
#
# Youngs Moduli (GPa) = 42.83271 46.67655 77.88712
#
# Poissons Ratio (x) = 0.15655 -0.11993
# Poissons Ratio (y) = 0.14366 -0.52949
# Poissons Ratio (z) = -0.06595 -0.31731
#
# Static dielectric constant tensor:
#      x y z
#    x 1.648650 0.000000 0.021280 
#    y 0.000000 1.633170 0.000000 
#    z 0.021280 0.000000 1.568260 
# 
# From -- ./inp_files/39967.got.cif
#   From: 2010.05.17/outbox.cif.g08.bks.cpg/sg11_20_cif.got.tgz:39967.got - 2010.06.03 12:22:45.
