data_PCOD9156433
_publ_section_title
;
Structure prediction by ZEFSAII (Michael W. Deem and Ramdas Pophale) SiO2 
 PCOD9156433
Probable space group: P 21/M
;
_chemical_formula_sum "Si O2"
_cell_formula_units_Z 24
_cell_length_a 8.548202
_cell_length_b 16.681616
_cell_length_c 9.932286
_cell_angle_alpha 90.000000
_cell_angle_beta 115.488166
_cell_angle_gamma 90.000000
_cell_volume 1278.477634
_symmetry_space_group_name_H-M "P 21/M"
_symmetry_group_IT_number 11
_symmetry_cell_setting 'monoclinic'
loop_
_space_group_symop_operation_xyz
x,y,z
-x,1/2+y,-z
-x,-y,-z
x,1/2-y,z
loop_
_atom_site_type_symbol
_atom_site_label
_atom_site_fract_x
_atom_site_fract_y
_atom_site_fract_z
Si Si1 0.383329 0.562418 0.871822
Si Si2 0.011507 0.562418 0.128177
Si Si3 0.287892 0.344186 0.085949
Si Si4 0.424113 0.053348 0.668478
Si Si5 0.744365 0.946652 0.668478
Si Si6 0.701943 0.155814 0.914051
O O1 0.514310 0.629599 0.863613
O O2 0.318745 0.507689 0.725403
O O3 0.500000 0.500000 0.000000
O O4 0.263554 0.606592 0.935257
O O5 0.093342 0.507689 0.274597
O O6 0.150698 0.629599 0.136387
O O7 0.000000 0.500000 0.000000
O O8 0.828296 0.606592 0.064742
O O9 0.263903 0.250000 0.064578
O O10 0.231330 0.376532 0.212679
O O11 0.314891 0.081060 0.500000
O O12 0.518651 0.123468 0.787321
O O13 0.586396 1.000000 0.672793
O O14 0.699325 0.250000 0.935422
#
# Coordination Sequence:
#
# PCOD9156433 Si02
#       6
#     4   4   4   4   4   4
#     4   9  17  30  47  66  89 121 155 185 223 273
#     4   9  17  30  47  66  89 121 155 185 223 273
#     4  10  18  28  46  70  93 117 150 194 235 267
#     4   8  15  28  45  65  89 117 149 183 221 268
#     4   8  15  28  45  65  89 117 149 183 221 268
#     4  10  18  28  46  70  93 117 150 194 235 267
#
# _framework density 18.772328000000002
#
# number of rings (size 3 to 8) (size 9 to 14) (size 15 to 20)
#    0.000    3.000    0.000    4.000    0.000    0.667 
#    0.000    0.000    0.000   19.000    0.000    0.000 
#    0.000    0.000    0.000    0.000    0.000    0.000 
#
# Total GULP energy -133646.106222 kJ/mol
# GULP energy per Si atom -5568.587759 kJ/mol
# Density = 1.872960 g / cm^3
# Si number density = 18.772328 Si / 1000 Ang^3
#
#
#
# Elastic Constant Matrix: (Units=GPa)
#
#
# Indices 1 2 3 4 5 6 
#
# 1 41.3503 11.7001 5.5455 0.0000 0.2550 0.0000
# 2 11.7001 89.5746 2.2433 0.0000 0.7486 0.0000
# 3 5.5455 2.2433 58.5364 0.0000 -1.6157 0.0000
# 4 0.0000 0.0000 0.0000 17.7121 0.0000 0.3777
# 5 0.2550 0.7486 -1.6157 0.0000 16.4400 0.0000
# 6 0.0000 0.0000 0.0000 0.3777 0.0000 22.4832
#
#
#
# Elastic Compliance Matrix: (Units=1/GPa)
#
#
# Indices 1 2 3 4 5 6 
#
# 1 0.025416 -0.003258 -0.002296 0.000000 -0.000471 0.000000
# 2 -0.003258 0.011597 -0.000149 0.000000 -0.000492 0.000000
# 3 -0.002296 -0.000149 0.017355 0.000000 0.001748 0.000000
# 4 0.000000 0.000000 0.000000 0.056479 0.000000 -0.000949
# 5 -0.000471 -0.000492 0.001748 0.000000 0.061029 0.000000
# 6 0.000000 0.000000 0.000000 -0.000949 0.000000 0.044494
#
#
# Mechanical properties :
#
#
# Convention : Reuss Voigt Hill
#
# Bulk Modulus (GPa) = 23.27686 25.38213 24.32949
# Shear Modulus (GPa) = 20.65282 22.65855 21.65568
#
# Velocity S-wave (km/s) = 3.32048 3.47799 3.40015
# Velocity P-wave (km/s) = 5.20839 5.44783 5.32946
#
# Compressibility (1/GPa) = 0.04296112
#
# Stress axis : x y z
#
# Youngs Moduli (GPa) = 39.34465 86.22668 57.62066
#
# Poissons Ratio (x) = 0.28096 0.13230
# Poissons Ratio (y) = 0.12820 0.00860
# Poissons Ratio (z) = 0.09034 0.01288
#
# Static dielectric constant tensor:
#      x y z
#    x 1.749340 0.000000 0.006230 
#    y 0.000000 1.619610 0.000000 
#    z 0.006230 0.000000 1.670620 
# 
# From -- ./inp_files/35310.got.cif
#   From: 2010.05.17/outbox.cif.g08.bks.cpg/sg11_18_cif.got.tgz:35310.got - 2010.06.03 12:22:45.
