data_PCOD9156372
_publ_section_title
;
Structure prediction by ZEFSAII (Michael W. Deem and Ramdas Pophale) SiO2 
 PCOD9156372
Probable space group: P 21/M
;
_chemical_formula_sum "Si O2"
_cell_formula_units_Z 32
_cell_length_a 16.972684
_cell_length_b 22.919204
_cell_length_c 16.368964
_cell_angle_alpha 90.000000
_cell_angle_beta 17.652239
_cell_angle_gamma 90.000000
_cell_volume 1930.883453
_symmetry_space_group_name_H-M "P 21/M"
_symmetry_group_IT_number 11
_symmetry_cell_setting 'monoclinic'
loop_
_space_group_symop_operation_xyz
x,y,z
-x,1/2+y,-z
-x,-y,-z
x,1/2-y,z
loop_
_atom_site_type_symbol
_atom_site_label
_atom_site_fract_x
_atom_site_fract_y
_atom_site_fract_z
Si Si1 0.746216 0.577136 0.772703
Si Si2 0.896556 0.682571 0.516748
Si Si3 0.487178 0.107019 0.363197
Si Si4 0.002664 0.913016 0.055045
Si Si5 0.367223 0.682938 0.936253
Si Si6 0.025326 0.047907 0.094066
Si Si7 0.257159 0.531750 0.343741
Si Si8 0.539206 0.473435 0.673284
O O1 0.839682 0.639250 0.647215
O O2 0.738371 0.531661 0.704355
O O3 0.963942 0.554027 0.620767
O O4 0.460963 0.572670 0.093518
O O5 0.952708 0.750000 0.484919
O O6 0.633523 0.682213 0.723910
O O7 0.133716 0.660942 0.225072
O O8 0.709306 0.109549 0.212413
O O9 0.578875 0.146975 0.198326
O O10 0.471374 0.041237 0.343475
O O11 0.209790 0.118926 0.678802
O O12 0.931451 0.914643 0.030181
O O13 0.011166 0.980572 0.076887
O O14 0.301410 0.750000 0.980796
O O15 0.750514 0.058608 0.407979
O O16 0.256530 0.051605 0.931064
O O17 0.360029 0.528742 0.333984
#
# Coordination Sequence:
#
# PCOD9156372 Si02
#       8
#     4   4   4   4   4   4   4   4
#     4  10  20  33  47  66  95 123 154 191 230 282
#     4  10  20  34  51  68  91 124 159 195 232 271
#     4  10  18  28  45  64  90 123 152 180 217 272
#     4   9  17  28  42  63  88 119 149 177 217 256
#     4  10  20  32  47  69  94 120 154 194 227 262
#     4   9  17  28  42  62  91 117 146 185 213 256
#     4  10  20  31  46  68  95 126 152 187 234 281
#     4  10  18  28  44  65  90 122 153 181 222 270
#
# _framework density 16.572725999999999
#
# number of rings (size 3 to 8) (size 9 to 14) (size 15 to 20)
#    0.000    2.250    0.000    3.750    0.000    7.000 
#    0.000    0.000    0.000    0.000    0.000    0.000 
#    0.000   20.000    0.000    0.000    0.000    0.000 
#
# Total GULP energy -178381.484578 kJ/mol
# GULP energy per Si atom -5574.421393 kJ/mol
# Density = 1.653501 g / cm^3
# Si number density = 16.572726 Si / 1000 Ang^3
#
#
#
# Elastic Constant Matrix: (Units=GPa)
#
#
# Indices 1 2 3 4 5 6 
#
# 1 83.3910 12.7281 8.8281 0.0000 -8.2775 0.0000
# 2 12.7281 27.2997 10.2203 0.0000 6.3882 0.0000
# 3 8.8281 10.2203 84.4339 0.0000 -1.3784 0.0000
# 4 0.0000 0.0000 0.0000 15.9219 0.0000 13.5055
# 5 -8.2775 6.3882 -1.3784 0.0000 23.3941 0.0000
# 6 0.0000 0.0000 0.0000 13.5055 0.0000 -0.6874
#
#
#
# Elastic Compliance Matrix: (Units=1/GPa)
#
#
# Indices 1 2 3 4 5 6 
#
# 1 0.013964 -0.008036 -0.000371 0.000000 0.007113 0.000000
# 2 -0.008036 0.045906 -0.004972 0.000000 -0.015672 0.000000
# 3 -0.000371 -0.004972 0.012516 0.000000 0.001964 0.000000
# 4 0.000000 0.000000 0.000000 0.003555 0.000000 0.069853
# 5 0.007113 -0.015672 0.001964 0.000000 0.049658 0.000000
# 6 0.000000 0.000000 0.000000 0.069853 0.000000 -0.082350
#
#
# Mechanical properties :
#
#
# Convention : Reuss Voigt Hill
#
# Bulk Modulus (GPa) = 21.91684 28.74196 25.32940
# Shear Modulus (GPa) = 58.67442 18.61559 38.64501
#
# Velocity S-wave (km/s) = 5.95660 3.35515 4.83416
# Velocity P-wave (km/s) = 7.78212 5.69122 6.81731
#
# Compressibility (1/GPa) = 0.04562701
#
# Stress axis : x y z
#
# Youngs Moduli (GPa) = 71.61475 21.78376 79.89569
#
# Poissons Ratio (x) = 0.17505 0.02965
# Poissons Ratio (y) = 0.57549 0.39726
# Poissons Ratio (z) = 0.02658 0.10831
#
# Static dielectric constant tensor:
#      x y z
#    x 1.547690 0.000000 -0.000750 
#    y 0.000000 1.548180 0.000000 
#    z -0.000750 0.000000 1.569970 
# 
# From -- ./inp_files/52694.got.cif
#   From: 2010.05.17/outbox.cif.g08.bks.cpg/sg11_27_cif.got.tgz:52694.got - 2010.06.03 12:22:45.
