data_PCOD9156487
_publ_section_title
;
Structure prediction by ZEFSAII (Michael W. Deem and Ramdas Pophale) SiO2 
 PCOD9156487
Probable space group: P 21/M
;
_chemical_formula_sum "Si O2"
_cell_formula_units_Z 28
_cell_length_a 18.269892
_cell_length_b 9.147785
_cell_length_c 16.248797
_cell_angle_alpha 90.000000
_cell_angle_beta 41.879272
_cell_angle_gamma 90.000000
_cell_volume 1812.865384
_symmetry_space_group_name_H-M "P 21/M"
_symmetry_group_IT_number 11
_symmetry_cell_setting 'monoclinic'
loop_
_space_group_symop_operation_xyz
x,y,z
-x,1/2+y,-z
-x,-y,-z
x,1/2-y,z
loop_
_atom_site_type_symbol
_atom_site_label
_atom_site_fract_x
_atom_site_fract_y
_atom_site_fract_z
Si Si1 0.208876 0.422265 0.588888
Si Si2 0.412195 0.574667 0.132580
Si Si3 0.162189 0.924781 0.330795
Si Si4 0.947146 0.574164 0.420581
Si Si5 0.672320 0.082074 0.369719
Si Si6 0.429017 0.422204 0.294681
Si Si7 0.448995 0.081556 0.666574
O O1 0.199977 0.250000 0.616084
O O2 0.103782 0.471216 0.623981
O O3 0.236937 0.511073 0.647236
O O4 0.313146 0.437830 0.439926
O O5 0.425018 0.750000 0.122398
O O6 0.287978 0.539567 0.207765
O O7 0.424594 0.510640 0.213884
O O8 0.500000 0.500000 0.000000
O O9 0.155495 0.750000 0.350017
O O10 0.073534 0.962105 0.334535
O O11 0.122295 0.003971 0.447138
O O12 0.934580 0.750000 0.435522
O O13 0.696719 0.250000 0.329512
O O14 0.559973 0.080383 0.517975
O O15 0.644284 0.990047 0.311963
O O16 0.446317 0.250000 0.265244
O O17 0.520690 0.487623 0.278840
O O18 0.425299 0.250000 0.706614
#
# Coordination Sequence:
#
# PCOD9156487 Si02
#       7
#     4   4   4   4   4   4   4
#     4   9  16  25  40  61  87 116 144 174 214 264
#     4  11  22  34  47  64  87 117 153 192 229 264
#     4   9  18  30  45  64  86 112 147 186 224 264
#     4   9  16  28  45  65  88 115 145 180 221 267
#     4   9  16  24  36  56  83 114 146 178 211 251
#     4  10  18  29  44  62  84 113 148 183 221 265
#     4   9  16  26  39  56  81 113 146 179 215 258
#
# _framework density 15.445164
#
# number of rings (size 3 to 8) (size 9 to 14) (size 15 to 20)
#    0.000    2.571    1.429    1.714    0.000    5.143 
#    0.000    0.000    0.000    0.000    0.000    0.000 
#    0.000    1.143    0.000    3.143    0.000    4.571 
#
# Total GULP energy -155995.003970 kJ/mol
# GULP energy per Si atom -5571.250142 kJ/mol
# Density = 1.541001 g / cm^3
# Si number density = 15.445164 Si / 1000 Ang^3
#
#
#
# Elastic Constant Matrix: (Units=GPa)
#
#
# Indices 1 2 3 4 5 6 
#
# 1 158.5105 58.1052 30.3682 0.0000 -8.7041 0.0000
# 2 58.1052 71.2379 25.9567 0.0000 -4.1864 0.0000
# 3 30.3682 25.9567 37.8246 0.0000 -10.6853 0.0000
# 4 0.0000 0.0000 0.0000 15.0156 0.0000 5.6715
# 5 -8.7041 -4.1864 -10.6853 0.0000 10.9681 0.0000
# 6 0.0000 0.0000 0.0000 5.6715 0.0000 27.6456
#
#
#
# Elastic Compliance Matrix: (Units=1/GPa)
#
#
# Indices 1 2 3 4 5 6 
#
# 1 0.009307 -0.006656 -0.002120 0.000000 0.002781 0.000000
# 2 -0.006656 0.023924 -0.013778 0.000000 -0.009574 0.000000
# 3 -0.002120 -0.013778 0.049165 0.000000 0.040956 0.000000
# 4 0.000000 0.000000 0.000000 0.072191 0.000000 -0.014810
# 5 0.002781 -0.009574 0.040956 0.000000 0.129627 0.000000
# 6 0.000000 0.000000 0.000000 -0.014810 0.000000 0.039210
#
#
# Mechanical properties :
#
#
# Convention : Reuss Voigt Hill
#
# Bulk Modulus (GPa) = 26.81773 55.15925 40.98849
# Shear Modulus (GPa) = 13.12469 20.93537 17.03003
#
# Velocity S-wave (km/s) = 2.91823 3.68566 3.32416
# Velocity P-wave (km/s) = 5.36243 7.34184 6.42877
#
# Compressibility (1/GPa) = 0.03728877
#
# Stress axis : x y z
#
# Youngs Moduli (GPa) = 107.44225 41.79892 20.33977
#
# Poissons Ratio (x) = 0.27821 0.04311
# Poissons Ratio (y) = 0.71512 0.28025
# Poissons Ratio (z) = 0.22773 0.57592
#
# Static dielectric constant tensor:
#      x y z
#    x 1.537560 0.000000 -0.013500 
#    y 0.000000 1.514890 0.000000 
#    z -0.013500 0.000000 1.472330 
# 
# From -- ./inp_files/42608.got.cif
#   From: 2010.05.17/outbox.cif.g08.bks.cpg/sg11_22_cif.got.tgz:42608.got - 2010.06.03 12:22:45.
