data_PCOD9156120
_publ_section_title
;
Structure prediction by ZEFSAII (Michael W. Deem and Ramdas Pophale) SiO2 
 PCOD9156120
Probable space group: P 21/M
;
_chemical_formula_sum "Si O2"
_cell_formula_units_Z 32
_cell_length_a 11.822536
_cell_length_b 18.434648
_cell_length_c 10.518721
_cell_angle_alpha 90.000000
_cell_angle_beta 49.727394
_cell_angle_gamma 90.000000
_cell_volume 1749.122199
_symmetry_space_group_name_H-M "P 21/M"
_symmetry_group_IT_number 11
_symmetry_cell_setting 'monoclinic'
loop_
_space_group_symop_operation_xyz
x,y,z
-x,1/2+y,-z
-x,-y,-z
x,1/2-y,z
loop_
_atom_site_type_symbol
_atom_site_label
_atom_site_fract_x
_atom_site_fract_y
_atom_site_fract_z
Si Si1 0.950612 0.924978 0.308509
Si Si2 0.129572 0.961356 0.820666
Si Si3 0.493811 0.169089 0.011834
Si Si4 0.717285 0.462698 0.865707
Si Si5 0.415097 0.008919 0.764223
Si Si6 0.637490 0.831642 0.168140
Si Si7 0.324277 0.420161 0.327118
Si Si8 0.968258 0.833948 0.036636
O O1 0.829326 0.899763 0.496729
O O2 0.955472 0.871286 0.184144
O O3 0.114833 0.936944 0.240314
O O4 0.894260 0.003280 0.298415
O O5 0.289313 0.981743 0.759175
O O6 0.090208 0.877732 0.867565
O O7 0.000000 0.000000 0.000000
O O8 0.557257 0.250000 0.975279
O O9 0.403778 0.147561 0.202941
O O10 0.616098 0.106671 0.908153
O O11 0.389138 0.167546 0.963877
O O12 0.701694 0.521947 0.767184
O O13 0.657509 0.496073 0.042329
O O14 0.561922 0.959964 0.659187
O O15 0.441521 0.094877 0.725372
O O16 0.591269 0.750000 0.245676
O O17 0.809061 0.840793 0.082836
O O18 0.004683 0.750000 0.022906
#
# Coordination Sequence:
#
# PCOD9156120 Si02
#       8
#     4   4   4   4   4   4   4   4
#     4  11  22  35  55  84 114 144 175 225 282 329
#     4  10  18  34  57  78 108 138 189 233 263 319
#     4  10  21  36  57  81 107 143 186 226 266 321
#     4  11  19  36  56  79 109 147 186 223 263 322
#     4  11  17  36  58  80 102 143 193 231 261 313
#     4  10  17  31  57  81 102 136 186 232 265 309
#     4  11  23  34  54  84 114 144 178 224 277 330
#     4  10  20  35  58  82 105 142 186 230 272 321
#
# _framework density 18.294889999999999
#
# number of rings (size 3 to 8) (size 9 to 14) (size 15 to 20)
#    0.000    1.500    7.500    1.125    0.000    1.500 
#    0.000    0.000    0.000    1.500    0.000    0.000 
#    0.000    0.000    0.000    0.000    0.000    0.000 
#
# Total GULP energy -178500.573772 kJ/mol
# GULP energy per Si atom -5578.142930 kJ/mol
# Density = 1.825325 g / cm^3
# Si number density = 18.294890 Si / 1000 Ang^3
#
#
#
# Elastic Constant Matrix: (Units=GPa)
#
#
# Indices 1 2 3 4 5 6 
#
# 1 95.1781 17.8267 9.7372 0.0000 -15.6017 0.0000
# 2 17.8267 105.1020 -6.0110 0.0000 2.2761 0.0000
# 3 9.7372 -6.0110 22.1740 0.0000 -7.6546 0.0000
# 4 0.0000 0.0000 0.0000 10.3084 0.0000 -1.1502
# 5 -15.6017 2.2761 -7.6546 0.0000 16.8147 0.0000
# 6 0.0000 0.0000 0.0000 -1.1502 0.0000 25.3057
#
#
#
# Elastic Compliance Matrix: (Units=1/GPa)
#
#
# Indices 1 2 3 4 5 6 
#
# 1 0.013121 -0.002617 -0.002547 0.000000 0.011370 0.000000
# 2 -0.002617 0.010187 0.003081 0.000000 -0.002405 0.000000
# 3 -0.002547 0.003081 0.054685 0.000000 0.022115 0.000000
# 4 0.000000 0.000000 0.000000 0.097503 0.000000 0.004432
# 5 0.011370 -0.002405 0.022115 0.000000 0.080414 0.000000
# 6 0.000000 0.000000 0.000000 0.004432 0.000000 0.039718
#
#
# Mechanical properties :
#
#
# Convention : Reuss Voigt Hill
#
# Bulk Modulus (GPa) = 13.54524 29.50665 21.52595
# Shear Modulus (GPa) = 15.41289 23.87918 19.64603
#
# Velocity S-wave (km/s) = 2.90568 3.61673 3.28053
# Velocity P-wave (km/s) = 4.32172 5.79692 5.11280
#
# Compressibility (1/GPa) = 0.07382666
#
# Stress axis : x y z
#
# Youngs Moduli (GPa) = 76.21320 98.16645 18.28642
#
# Poissons Ratio (x) = 0.25694 0.04657
# Poissons Ratio (y) = 0.19948 -0.05633
# Poissons Ratio (z) = 0.19408 -0.30241
#
# Static dielectric constant tensor:
#      x y z
#    x 1.628990 0.000000 0.010780 
#    y 0.000000 1.662420 0.000000 
#    z 0.010780 0.000000 1.620960 
# 
# From -- ./inp_files/36013.got.cif
#   From: 2010.05.17/outbox.cif.g08.bks.cpg/sg11_19_cif.got.tgz:36013.got - 2010.06.03 12:22:45.
