data_PCOD9156338
_publ_section_title
;
Structure prediction by ZEFSAII (Michael W. Deem and Ramdas Pophale) SiO2 
 PCOD9156338
Probable space group: P 21/M
;
_chemical_formula_sum "Si O2"
_cell_formula_units_Z 32
_cell_length_a 24.550301
_cell_length_b 7.892805
_cell_length_c 34.431590
_cell_angle_alpha 90.000000
_cell_angle_beta 164.327038
_cell_angle_gamma 90.000000
_cell_volume 1802.370233
_symmetry_space_group_name_H-M "P 21/M"
_symmetry_group_IT_number 11
_symmetry_cell_setting 'monoclinic'
loop_
_space_group_symop_operation_xyz
x,y,z
-x,1/2+y,-z
-x,-y,-z
x,1/2-y,z
loop_
_atom_site_type_symbol
_atom_site_label
_atom_site_fract_x
_atom_site_fract_y
_atom_site_fract_z
Si Si1 0.374911 0.952904 0.952577
Si Si2 0.385918 0.551111 0.806979
Si Si3 0.258388 0.051174 0.099993
Si Si4 0.508614 0.549872 0.346667
Si Si5 0.533545 0.947332 0.221782
Si Si6 0.873619 0.453720 0.874714
Si Si7 0.948159 0.957425 0.628937
Si Si8 0.962291 0.542884 0.548387
O O1 0.375561 0.750000 0.956743
O O2 0.145143 0.010587 0.787872
O O3 0.500000 0.000000 0.000000
O O4 0.481024 0.027110 0.063287
O O5 0.368554 0.750000 0.786669
O O6 0.479426 0.467933 0.833107
O O7 0.161336 0.483708 0.662449
O O8 0.258319 0.250000 0.109490
O O9 0.401375 0.968029 0.230908
O O10 0.356584 0.027928 0.125554
O O11 0.027256 0.988788 0.946459
O O12 0.529524 0.750000 0.368658
O O13 0.350649 0.478995 0.270073
O O14 0.734259 0.480045 0.498466
O O15 0.530365 0.750000 0.229896
O O16 0.752588 0.015028 0.385673
O O17 0.854326 0.250000 0.858653
O O18 0.000000 0.500000 0.000000
O O19 0.945066 0.750000 0.626741
O O20 0.970273 0.008055 0.598999
O O21 0.966325 0.750000 0.550278
#
# Coordination Sequence:
#
# PCOD9156338 Si02
#       8
#     4   4   4   4   4   4   4   4
#     4  11  21  35  53  72  95 126 164 204 243 284
#     4  11  22  37  52  69  96 127 162 205 248 282
#     4  10  18  28  42  68 102 130 155 191 237 283
#     4   9  15  28  48  68  93 128 163 195 232 279
#     4  11  21  34  51  71  95 128 168 198 232 287
#     4   8  15  25  41  65  94 126 158 188 228 282
#     4   9  16  29  50  73  95 124 162 201 237 276
#     4   9  17  31  50  71  96 126 160 198 237 281
#
# _framework density 17.754398999999999
#
# number of rings (size 3 to 8) (size 9 to 14) (size 15 to 20)
#    0.000    2.250    2.500    1.875    0.000    0.500 
#    0.000    4.375    0.000    0.000    0.000    0.875 
#    0.000    0.000    0.000    0.000    0.000    0.000 
#
# Total GULP energy -178400.609848 kJ/mol
# GULP energy per Si atom -5575.019058 kJ/mol
# Density = 1.771399 g / cm^3
# Si number density = 17.754399 Si / 1000 Ang^3
#
#
#
# Elastic Constant Matrix: (Units=GPa)
#
#
# Indices 1 2 3 4 5 6 
#
# 1 107.1271 -6.5522 57.0145 0.0000 27.9986 0.0000
# 2 -6.5522 20.7182 -2.9699 0.0000 4.1662 0.0000
# 3 57.0145 -2.9699 76.8484 0.0000 34.5521 0.0000
# 4 0.0000 0.0000 0.0000 11.8898 0.0000 -2.4067
# 5 27.9986 4.1662 34.5521 0.0000 37.5540 0.0000
# 6 0.0000 0.0000 0.0000 -2.4067 0.0000 16.2452
#
#
#
# Elastic Compliance Matrix: (Units=1/GPa)
#
#
# Indices 1 2 3 4 5 6 
#
# 1 0.015797 0.004058 -0.010344 0.000000 -0.002710 0.000000
# 2 0.004058 0.053048 0.005195 0.000000 -0.013690 0.000000
# 3 -0.010344 0.005195 0.030153 0.000000 -0.020607 0.000000
# 4 0.000000 0.000000 0.000000 0.086705 0.000000 0.012845
# 5 -0.002710 -0.013690 -0.020607 0.000000 0.049127 0.000000
# 6 0.000000 0.000000 0.000000 0.012845 0.000000 0.063460
#
#
# Mechanical properties :
#
#
# Convention : Reuss Voigt Hill
#
# Bulk Modulus (GPa) = 10.32912 33.29759 21.81336
# Shear Modulus (GPa) = 15.02655 23.61790 19.32222
#
# Velocity S-wave (km/s) = 2.91238 3.65122 3.30253
# Velocity P-wave (km/s) = 4.14001 6.04736 5.18219
#
# Compressibility (1/GPa) = 0.09681363
#
# Stress axis : x y z
#
# Youngs Moduli (GPa) = 63.30486 18.85097 33.16411
#
# Poissons Ratio (x) = -0.07649 0.34306
# Poissons Ratio (y) = -0.25688 -0.17228
# Poissons Ratio (z) = 0.65485 -0.09793
#
# Static dielectric constant tensor:
#      x y z
#    x 1.623160 0.000000 0.039280 
#    y 0.000000 1.666580 0.000000 
#    z 0.039280 0.000000 1.627860 
# 
# From -- ./inp_files/64205.got.cif
#   From: 2010.05.17/outbox.cif.g08.bks.cpg/sg11_33_cif.got.tgz:64205.got - 2010.06.03 12:22:45.
