data_PCOD9156782
_publ_section_title
;
Structure prediction by ZEFSAII (Michael W. Deem and Ramdas Pophale) SiO2 
 PCOD9156782
Probable space group: P 21/M
;
_chemical_formula_sum "Si O2"
_cell_formula_units_Z 24
_cell_length_a 16.553244
_cell_length_b 9.204174
_cell_length_c 15.640200
_cell_angle_alpha 90.000000
_cell_angle_beta 143.014162
_cell_angle_gamma 90.000000
_cell_volume 1433.609184
_symmetry_space_group_name_H-M "P 21/M"
_symmetry_group_IT_number 11
_symmetry_cell_setting 'monoclinic'
loop_
_space_group_symop_operation_xyz
x,y,z
-x,1/2+y,-z
-x,-y,-z
x,1/2-y,z
loop_
_atom_site_type_symbol
_atom_site_label
_atom_site_fract_x
_atom_site_fract_y
_atom_site_fract_z
Si Si1 0.639304 0.076299 0.595640
Si Si2 0.106624 0.921135 0.858833
Si Si3 0.214720 0.421416 0.437387
Si Si4 0.869712 0.076573 0.928699
Si Si5 0.820929 0.082448 0.420122
Si Si6 0.854543 0.916988 0.279024
O O1 0.624140 0.250000 0.573408
O O2 0.744095 0.048837 0.761262
O O3 0.500000 0.000000 0.500000
O O4 0.702055 0.006739 0.563425
O O5 0.135813 0.750000 0.871707
O O6 0.944328 0.936915 0.718296
O O7 0.166946 0.010639 0.831260
O O8 0.152303 0.968792 0.991623
O O9 0.245950 0.250000 0.463126
O O10 0.235517 0.490486 0.548448
O O11 0.894474 0.250000 0.951367
O O12 0.000000 0.000000 0.000000
O O13 0.777436 0.250000 0.385825
O O14 0.983374 0.081743 0.569676
O O15 0.794242 0.008323 0.306368
O O16 0.810709 0.750000 0.244432
#
# Coordination Sequence:
#
# PCOD9156782 Si02
#       6
#     4   4   4   4   4   4
#     4  11  23  37  53  74 103 137 175 215 257 304
#     4   9  17  29  46  70  99 130 163 204 254 302
#     4  10  18  30  49  71  98 131 168 209 255 303
#     4  10  20  34  53  76 101 133 172 213 257 306
#     4   9  16  26  41  63  95 131 165 202 248 299
#     4   9  16  25  39  64  96 129 164 202 246 296
#
# _framework density 16.740964999999999
#
# number of rings (size 3 to 8) (size 9 to 14) (size 15 to 20)
#    0.000    2.333    1.667    2.000    0.000    6.000 
#    0.000    0.000    0.000    0.000    0.000    1.167 
#    0.000    0.000    0.000    0.000    0.000    0.000 
#
# Total GULP energy -133849.356043 kJ/mol
# GULP energy per Si atom -5577.056502 kJ/mol
# Density = 1.670286 g / cm^3
# Si number density = 16.740965 Si / 1000 Ang^3
#
#
#
# Elastic Constant Matrix: (Units=GPa)
#
#
# Indices 1 2 3 4 5 6 
#
# 1 127.3296 83.2041 65.2847 0.0000 -44.9733 0.0000
# 2 83.2041 119.0356 58.9611 0.0000 -20.2859 0.0000
# 3 65.2847 58.9611 63.9190 0.0000 -22.0382 0.0000
# 4 0.0000 0.0000 0.0000 16.2431 0.0000 -6.3445
# 5 -44.9733 -20.2859 -22.0382 0.0000 30.1843 0.0000
# 6 0.0000 0.0000 0.0000 -6.3445 0.0000 35.0596
#
#
#
# Elastic Compliance Matrix: (Units=1/GPa)
#
#
# Indices 1 2 3 4 5 6 
#
# 1 0.033216 -0.011831 -0.011614 0.000000 0.033060 0.000000
# 2 -0.011831 0.019682 -0.010142 0.000000 -0.011804 0.000000
# 3 -0.011614 -0.010142 0.038150 0.000000 0.003733 0.000000
# 4 0.000000 0.000000 0.000000 0.066247 0.000000 0.011988
# 5 0.033060 -0.011804 0.003733 0.000000 0.077180 0.000000
# 6 0.000000 0.000000 0.000000 0.011988 0.000000 0.030692
#
#
# Mechanical properties :
#
#
# Convention : Reuss Voigt Hill
#
# Bulk Modulus (GPa) = 41.88675 80.57600 61.23138
# Shear Modulus (GPa) = 14.69292 23.15303 18.92298
#
# Velocity S-wave (km/s) = 2.96575 3.72293 3.36570
# Velocity P-wave (km/s) = 6.06650 8.16797 7.19438
#
# Compressibility (1/GPa) = 0.02387390
#
# Stress axis : x y z
#
# Youngs Moduli (GPa) = 30.10562 50.80727 26.21251
#
# Poissons Ratio (x) = 0.60109 0.30444
# Poissons Ratio (y) = 0.35617 0.26585
# Poissons Ratio (z) = 0.34966 0.51528
#
# Static dielectric constant tensor:
#      x y z
#    x 1.545890 0.000000 -0.017600 
#    y 0.000000 1.558680 0.000000 
#    z -0.017600 0.000000 1.551340 
# 
# From -- ./inp_files/25763.got.cif
#   From: 2010.05.17/outbox.cif.g08.bks.cpg/sg11_13_cif.got.tgz:25763.got - 2010.06.03 12:22:45.
