data_PCOD9156750
_publ_section_title
;
Structure prediction by ZEFSAII (Michael W. Deem and Ramdas Pophale) SiO2 
 PCOD9156750
Probable space group: P 21/M
;
_chemical_formula_sum "Si O2"
_cell_formula_units_Z 24
_cell_length_a 21.060833
_cell_length_b 8.394703
_cell_length_c 12.454980
_cell_angle_alpha 90.000000
_cell_angle_beta 141.166646
_cell_angle_gamma 90.000000
_cell_volume 1380.801349
_symmetry_space_group_name_H-M "P 21/M"
_symmetry_group_IT_number 11
_symmetry_cell_setting 'monoclinic'
loop_
_space_group_symop_operation_xyz
x,y,z
-x,1/2+y,-z
-x,-y,-z
x,1/2-y,z
loop_
_atom_site_type_symbol
_atom_site_label
_atom_site_fract_x
_atom_site_fract_y
_atom_site_fract_z
Si Si1 0.939668 0.561771 0.570263
Si Si2 0.220052 0.941018 0.469597
Si Si3 0.772094 0.555830 0.185195
Si Si4 0.888333 0.061079 0.886190
Si Si5 0.850649 0.563467 0.072785
Si Si6 0.385761 0.058424 0.840546
O O1 0.963113 0.750000 0.593082
O O2 0.861319 0.532384 0.564067
O O3 0.876105 0.507913 0.382557
O O4 0.039010 0.464451 0.729713
O O5 0.206541 0.750000 0.463836
O O6 0.193001 0.985755 0.312067
O O7 0.328138 0.988957 0.660657
O O8 0.772534 0.750000 0.184890
O O9 0.774728 0.500729 0.065428
O O10 0.680232 0.506929 0.141673
O O11 0.895893 0.250000 0.894930
O O12 0.855023 0.010501 0.960910
O O13 0.000000 0.000000 0.000000
O O14 0.832189 0.750000 0.034708
O O15 0.382271 0.250000 0.830958
O O16 0.500000 0.000000 0.000000
#
# Coordination Sequence:
#
# PCOD9156750 Si02
#       6
#     4   4   4   4   4   4
#     4  10  18  30  48  71 103 139 176 215 257 305
#     4  10  20  34  52  76 104 137 177 218 260 307
#     4   8  18  33  49  73 103 135 170 213 262 312
#     4  11  22  34  50  73 106 144 182 218 254 301
#     4  11  20  31  48  71 104 143 178 210 253 308
#     4  10  20  37  60  83 105 130 166 216 270 319
#
# _framework density 17.381211
#
# number of rings (size 3 to 8) (size 9 to 14) (size 15 to 20)
#    0.000    2.000    1.667    4.000    0.000    2.000 
#    0.000    9.167    0.000    1.000    0.000    0.000 
#    0.000    0.000    0.000    0.000    0.000    0.000 
#
# Total GULP energy -133848.427039 kJ/mol
# GULP energy per Si atom -5577.017793 kJ/mol
# Density = 1.734165 g / cm^3
# Si number density = 17.381211 Si / 1000 Ang^3
#
#
#
# Elastic Constant Matrix: (Units=GPa)
#
#
# Indices 1 2 3 4 5 6 
#
# 1 100.0145 13.2522 82.5756 0.0000 -30.6439 0.0000
# 2 13.2522 33.3225 20.3502 0.0000 -11.1445 0.0000
# 3 82.5756 20.3502 115.2838 0.0000 -17.6932 0.0000
# 4 0.0000 0.0000 0.0000 25.9332 0.0000 -1.9364
# 5 -30.6439 -11.1445 -17.6932 0.0000 34.7518 0.0000
# 6 0.0000 0.0000 0.0000 -1.9364 0.0000 16.5741
#
#
#
# Elastic Compliance Matrix: (Units=1/GPa)
#
#
# Indices 1 2 3 4 5 6 
#
# 1 0.033826 0.007106 -0.022298 0.000000 0.020754 0.000000
# 2 0.007106 0.037566 -0.009666 0.000000 0.013392 0.000000
# 3 -0.022298 -0.009666 0.024796 0.000000 -0.010138 0.000000
# 4 0.000000 0.000000 0.000000 0.038900 0.000000 0.004545
# 5 0.020754 0.013392 -0.010138 0.000000 0.046209 0.000000
# 6 0.000000 0.000000 0.000000 0.004545 0.000000 0.060866
#
#
# Mechanical properties :
#
#
# Convention : Reuss Voigt Hill
#
# Bulk Modulus (GPa) = 21.51823 53.44188 37.48005
# Shear Modulus (GPa) = 16.26705 24.28133 20.27419
#
# Velocity S-wave (km/s) = 3.06256 3.74168 3.41903
# Velocity P-wave (km/s) = 4.99127 7.03425 6.09891
#
# Compressibility (1/GPa) = 0.04647223
#
# Stress axis : x y z
#
# Youngs Moduli (GPa) = 29.56310 26.62013 40.32847
#
# Poissons Ratio (x) = -0.18917 0.89925
# Poissons Ratio (y) = -0.21008 0.38981
# Poissons Ratio (z) = 0.65920 0.25731
#
# Static dielectric constant tensor:
#      x y z
#    x 1.626630 0.000000 -0.027880 
#    y 0.000000 1.572530 0.000000 
#    z -0.027880 0.000000 1.593140 
# 
# From -- ./inp_files/36994.got.cif
#   From: 2010.05.17/outbox.cif.g08.bks.cpg/sg11_19_cif.got.tgz:36994.got - 2010.06.03 12:22:45.
