data_PCOD9156650
_publ_section_title
;
Structure prediction by ZEFSAII (Michael W. Deem and Ramdas Pophale) SiO2 
 PCOD9156650
Probable space group: P 21/M
;
_chemical_formula_sum "Si O2"
_cell_formula_units_Z 28
_cell_length_a 9.829423
_cell_length_b 8.748071
_cell_length_c 28.851218
_cell_angle_alpha 90.000000
_cell_angle_beta 39.184718
_cell_angle_gamma 90.000000
_cell_volume 1567.471392
_symmetry_space_group_name_H-M "P 21/M"
_symmetry_group_IT_number 11
_symmetry_cell_setting 'monoclinic'
loop_
_space_group_symop_operation_xyz
x,y,z
-x,1/2+y,-z
-x,-y,-z
x,1/2-y,z
loop_
_atom_site_type_symbol
_atom_site_label
_atom_site_fract_x
_atom_site_fract_y
_atom_site_fract_z
Si Si1 0.757621 0.933941 0.801529
Si Si2 0.551856 0.433893 0.765383
Si Si3 0.692243 0.432186 0.548891
Si Si4 0.839936 0.066426 0.187362
Si Si5 0.113459 0.933678 0.402649
Si Si6 0.300773 0.933019 0.081059
Si Si7 0.754934 0.432549 0.317173
O O1 0.745772 0.750000 0.807718
O O2 0.009227 0.975325 0.726192
O O3 0.612104 0.997732 0.798994
O O4 0.694486 0.004940 0.867553
O O5 0.541997 0.250000 0.769742
O O6 0.330957 0.499794 0.803326
O O7 0.740308 0.478836 0.679299
O O8 0.696258 0.250000 0.546196
O O9 0.767751 0.481826 0.580887
O O10 0.450880 0.490335 0.605420
O O11 0.874798 0.497652 0.466896
O O12 0.853079 0.250000 0.180731
O O13 0.762335 0.027933 0.260323
O O14 0.075565 0.994327 0.119814
O O15 0.098067 0.750000 0.407457
O O16 0.304205 0.750000 0.079830
O O17 0.500000 0.000000 0.000000
O O18 0.732037 0.250000 0.326833
#
# Coordination Sequence:
#
# PCOD9156650 Si02
#       7
#     4   4   4   4   4   4   4
#     4  10  22  39  58  84 115 150 187 227 279 336
#     4  11  21  36  56  83 115 150 189 233 284 335
#     4  10  18  29  49  76 104 139 187 238 283 328
#     4  10  20  35  58  86 114 149 188 229 274 329
#     4   9  19  32  47  73 109 144 183 233 283 332
#     4  11  22  40  65  91 118 148 183 225 270 325
#     4   9  18  33  53  76 106 143 186 233 279 329
#
# _framework density 17.863164999999999
#
# number of rings (size 3 to 8) (size 9 to 14) (size 15 to 20)
#    0.000    2.000    1.429    3.857    0.000    4.571 
#    0.000    1.429    0.000    0.000    0.000    0.000 
#    0.000    0.000    0.000    0.000    0.000    0.000 
#
# Total GULP energy -156342.671531 kJ/mol
# GULP energy per Si atom -5583.666840 kJ/mol
# Density = 1.782251 g / cm^3
# Si number density = 17.863165 Si / 1000 Ang^3
#
#
#
# Elastic Constant Matrix: (Units=GPa)
#
#
# Indices 1 2 3 4 5 6 
#
# 1 130.4296 50.7728 62.4159 0.0000 -14.9081 0.0000
# 2 50.7728 74.8239 54.1339 0.0000 -9.9370 0.0000
# 3 62.4159 54.1339 136.1721 0.0000 -24.6562 0.0000
# 4 0.0000 0.0000 0.0000 29.3401 0.0000 -4.0186
# 5 -14.9081 -9.9370 -24.6562 0.0000 20.3817 0.0000
# 6 0.0000 0.0000 0.0000 -4.0186 0.0000 26.3769
#
#
#
# Elastic Compliance Matrix: (Units=1/GPa)
#
#
# Indices 1 2 3 4 5 6 
#
# 1 0.011314 -0.005504 -0.002542 0.000000 0.002517 0.000000
# 2 -0.005504 0.021438 -0.006193 0.000000 -0.001065 0.000000
# 3 -0.002542 -0.006193 0.012917 0.000000 0.010747 0.000000
# 4 0.000000 0.000000 0.000000 0.034809 0.000000 0.005303
# 5 0.002517 -0.001065 0.010747 0.000000 0.063386 0.000000
# 6 0.000000 0.000000 0.000000 0.005303 0.000000 0.038720
#
#
# Mechanical properties :
#
#
# Convention : Reuss Voigt Hill
#
# Bulk Modulus (GPa) = 58.16825 75.11897 66.64361
# Shear Modulus (GPa) = 23.06370 26.82660 24.94515
#
# Velocity S-wave (km/s) = 3.59713 3.87949 3.74097
# Velocity P-wave (km/s) = 7.06303 7.88739 7.48657
#
# Compressibility (1/GPa) = 0.01719151
#
# Stress axis : x y z
#
# Youngs Moduli (GPa) = 88.38982 46.64582 77.41980
#
# Poissons Ratio (x) = 0.25672 0.19681
# Poissons Ratio (y) = 0.48646 0.47944
# Poissons Ratio (z) = 0.22469 0.28887
#
# Static dielectric constant tensor:
#      x y z
#    x 1.602840 0.000000 -0.004130 
#    y 0.000000 1.589920 0.000000 
#    z -0.004130 0.000000 1.596260 
# 
# From -- ./inp_files/29039.got.cif
#   From: 2010.05.17/outbox.cif.g08.bks.cpg/sg11_15_cif.got.tgz:29039.got - 2010.06.03 12:22:45.
