data_PCOD9156008
_publ_section_title
;
Structure prediction by ZEFSAII (Michael W. Deem and Ramdas Pophale) SiO2 
 PCOD9156008
Probable space group: P 21/M
;
_chemical_formula_sum "Si O2"
_cell_formula_units_Z 32
_cell_length_a 10.843032
_cell_length_b 19.094010
_cell_length_c 7.919912
_cell_angle_alpha 90.000000
_cell_angle_beta 57.831924
_cell_angle_gamma 90.000000
_cell_volume 1388.001845
_symmetry_space_group_name_H-M "P 21/M"
_symmetry_group_IT_number 11
_symmetry_cell_setting 'monoclinic'
loop_
_space_group_symop_operation_xyz
x,y,z
-x,1/2+y,-z
-x,-y,-z
x,1/2-y,z
loop_
_atom_site_type_symbol
_atom_site_label
_atom_site_fract_x
_atom_site_fract_y
_atom_site_fract_z
Si Si1 0.586585 0.110304 0.991856
Si Si2 0.603702 0.669459 0.587297
Si Si3 0.091808 0.589251 0.585360
Si Si4 0.075096 0.075784 0.960565
Si Si5 0.327896 0.669383 0.591375
Si Si6 0.164595 0.432362 0.439249
Si Si7 0.649091 0.544290 0.042907
Si Si8 0.864921 0.169150 0.920653
O O1 0.491004 0.164087 0.170971
O O2 0.751146 0.138066 0.867405
O O3 0.492288 0.091007 0.895692
O O4 0.598584 0.036461 0.085992
O O5 0.649109 0.750000 0.527329
O O6 0.490501 0.647768 0.524169
O O7 0.732308 0.615588 0.524424
O O8 0.991710 0.607395 0.819186
O O9 0.242557 0.626067 0.514980
O O10 0.124031 0.506287 0.551602
O O11 0.984457 0.604878 0.509183
O O12 0.006381 0.123340 0.863949
O O13 0.245431 0.065090 0.879732
O O14 0.000000 0.000000 0.000000
O O15 0.333470 0.750000 0.534724
O O16 0.233817 0.666182 0.834491
O O17 0.253088 0.450490 0.200963
O O18 0.899985 0.250000 0.860402
#
# Coordination Sequence:
#
# PCOD9156008 Si02
#       8
#     4   4   4   4   4   4   4   4
#     4   9  15  27  44  67  93 116 151 188 229 274
#     4   9  17  29  47  70  94 120 154 192 230 273
#     4   9  18  30  46  67  96 120 153 194 227 268
#     4  10  17  29  47  70  92 121 155 197 239 279
#     4   8  15  27  44  66  90 116 149 189 231 269
#     4   9  18  31  44  67  97 122 157 188 227 277
#     4   9  17  27  45  68  93 123 149 188 234 275
#     4   9  16  27  44  67  93 119 149 191 236 278
#
# _framework density 23.054724
#
# number of rings (size 3 to 8) (size 9 to 14) (size 15 to 20)
#    0.000    3.000    1.250    1.125    0.000    1.000 
#    0.000    6.875    0.000    2.250    0.000    0.000 
#    0.000    0.000    0.000    0.000    0.000    0.000 
#
# Total GULP energy -178698.665401 kJ/mol
# GULP energy per Si atom -5584.333294 kJ/mol
# Density = 2.300225 g / cm^3
# Si number density = 23.054724 Si / 1000 Ang^3
#
#
#
# Elastic Constant Matrix: (Units=GPa)
#
#
# Indices 1 2 3 4 5 6 
#
# 1 249.1389 103.8649 12.2768 0.0000 23.8206 0.0000
# 2 103.8649 81.6083 -4.5533 0.0000 16.8638 0.0000
# 3 12.2768 -4.5533 59.1267 0.0000 0.5021 0.0000
# 4 0.0000 0.0000 0.0000 9.6339 0.0000 -0.9603
# 5 23.8206 16.8638 0.5021 0.0000 37.0131 0.0000
# 6 0.0000 0.0000 0.0000 -0.9603 0.0000 36.8849
#
#
#
# Elastic Compliance Matrix: (Units=1/GPa)
#
#
# Indices 1 2 3 4 5 6 
#
# 1 0.008985 -0.011483 -0.002746 0.000000 -0.000514 0.000000
# 2 -0.011483 0.028273 0.004609 0.000000 -0.005554 0.000000
# 3 -0.002746 0.004609 0.017843 0.000000 -0.000575 0.000000
# 4 0.000000 0.000000 0.000000 0.104070 0.000000 0.002709
# 5 -0.000514 -0.005554 -0.000575 0.000000 0.029886 0.000000
# 6 0.000000 0.000000 0.000000 0.002709 0.000000 0.027182
#
#
# Mechanical properties :
#
#
# Convention : Reuss Voigt Hill
#
# Bulk Modulus (GPa) = 27.88498 68.11675 48.00087
# Shear Modulus (GPa) = 20.20741 35.25874 27.73308
#
# Velocity S-wave (km/s) = 2.96378 3.91493 3.47208
# Velocity P-wave (km/s) = 4.88195 7.07428 6.07778
#
# Compressibility (1/GPa) = 0.03586160
#
# Stress axis : x y z
#
# Youngs Moduli (GPa) = 111.29062 35.36899 56.04527
#
# Poissons Ratio (x) = 0.40615 0.15388
# Poissons Ratio (y) = 1.27796 -0.25830
# Poissons Ratio (z) = 0.30556 -0.16301
#
# Static dielectric constant tensor:
#      x y z
#    x 1.865400 0.000000 -0.002690 
#    y 0.000000 1.792350 0.000000 
#    z -0.002690 0.000000 1.930740 
# 
# From -- ./inp_files/32500.got.cif
#   From: 2010.05.17/outbox.cif.g08.bks.cpg/sg11_17_cif.got.tgz:32500.got - 2010.06.03 12:22:45.
