data_PCOD9156001
_publ_section_title
;
Structure prediction by ZEFSAII (Michael W. Deem and Ramdas Pophale) SiO2 
 PCOD9156001
Probable space group: P 21/M
;
_chemical_formula_sum "Si O2"
_cell_formula_units_Z 24
_cell_length_a 12.524389
_cell_length_b 8.597391
_cell_length_c 14.558592
_cell_angle_alpha 90.000000
_cell_angle_beta 70.609283
_cell_angle_gamma 90.000000
_cell_volume 1478.705197
_symmetry_space_group_name_H-M "P 21/M"
_symmetry_group_IT_number 11
_symmetry_cell_setting 'monoclinic'
loop_
_space_group_symop_operation_xyz
x,y,z
-x,1/2+y,-z
-x,-y,-z
x,1/2-y,z
loop_
_atom_site_type_symbol
_atom_site_label
_atom_site_fract_x
_atom_site_fract_y
_atom_site_fract_z
Si Si1 0.161876 0.062961 0.013803
Si Si2 0.742118 0.562883 0.338642
Si Si3 0.602976 0.435664 0.533326
Si Si4 0.463547 0.935885 0.727839
Si Si5 0.578540 0.562550 0.058383
Si Si6 0.940752 0.937196 0.153387
O O1 0.158625 0.250000 0.015772
O O2 0.290469 0.014251 0.994355
O O3 0.122652 0.011865 0.922694
O O4 0.067394 0.000920 0.110464
O O5 0.735280 0.750000 0.344610
O O6 0.712500 0.493388 0.446566
O O7 0.645482 0.504875 0.295092
O O8 0.862539 0.516147 0.261177
O O9 0.500000 0.500000 0.500000
O O10 0.599034 0.250000 0.536713
O O11 0.573932 0.504331 0.641100
O O12 0.458561 0.750000 0.725091
O O13 0.459630 0.995731 0.832585
O O14 0.574680 0.750000 0.062876
O O15 0.500000 0.500000 0.000000
O O16 0.944926 0.750000 0.150952
#
# Coordination Sequence:
#
# PCOD9156001 Si02
#       6
#     4   4   4   4   4   4
#     4   9  18  32  47  67  96 127 160 200 241 284
#     4  10  17  29  46  69 100 130 159 197 241 290
#     4  10  18  28  43  66  95 127 160 197 239 291
#     4  11  20  31  47  68  94 129 164 200 243 289
#     4  11  22  37  52  71  97 129 167 206 244 283
#     4   9  17  29  47  70  97 129 159 195 241 288
#
# _framework density 16.230415000000001
#
# number of rings (size 3 to 8) (size 9 to 14) (size 15 to 20)
#    0.000    2.000    1.667    6.000    0.000    2.667 
#    0.000    0.000    0.000    0.000    0.000    1.167 
#    0.000    0.000    0.000    0.000    0.000    0.000 
#
# Total GULP energy -133832.287664 kJ/mol
# GULP energy per Si atom -5576.345319 kJ/mol
# Density = 1.619347 g / cm^3
# Si number density = 16.230415 Si / 1000 Ang^3
#
#
#
# Elastic Constant Matrix: (Units=GPa)
#
#
# Indices 1 2 3 4 5 6 
#
# 1 79.1480 27.1890 68.3071 0.0000 -17.0356 0.0000
# 2 27.1890 79.6007 44.2391 0.0000 -9.7312 0.0000
# 3 68.3071 44.2391 150.8357 0.0000 -35.6985 0.0000
# 4 0.0000 0.0000 0.0000 29.6794 0.0000 -4.3014
# 5 -17.0356 -9.7312 -35.6985 0.0000 28.0053 0.0000
# 6 0.0000 0.0000 0.0000 -4.3014 0.0000 20.5065
#
#
#
# Elastic Compliance Matrix: (Units=1/GPa)
#
#
# Indices 1 2 3 4 5 6 
#
# 1 0.021097 -0.002277 -0.008644 0.000000 0.001024 0.000000
# 2 -0.002277 0.015261 -0.003605 0.000000 -0.000678 0.000000
# 3 -0.008644 -0.003605 0.014407 0.000000 0.011854 0.000000
# 4 0.000000 0.000000 0.000000 0.034750 0.000000 0.007289
# 5 0.001024 -0.000678 0.011854 0.000000 0.051205 0.000000
# 6 0.000000 0.000000 0.000000 0.007289 0.000000 0.050294
#
#
# Mechanical properties :
#
#
# Convention : Reuss Voigt Hill
#
# Bulk Modulus (GPa) = 46.05510 65.45051 55.75281
# Shear Modulus (GPa) = 22.39100 26.96152 24.67626
#
# Velocity S-wave (km/s) = 3.71829 4.08017 3.90342
# Velocity P-wave (km/s) = 6.84628 7.91268 7.39872
#
# Compressibility (1/GPa) = 0.02171312
#
# Stress axis : x y z
#
# Youngs Moduli (GPa) = 47.40028 65.52534 69.41042
#
# Poissons Ratio (x) = 0.14920 0.59997
# Poissons Ratio (y) = 0.10793 0.25025
# Poissons Ratio (z) = 0.40972 0.23624
#
# Static dielectric constant tensor:
#      x y z
#    x 1.528230 0.000000 -0.030620 
#    y 0.000000 1.545240 0.000000 
#    z -0.030620 0.000000 1.579830 
# 
# From -- ./inp_files/48698.got.cif
#   From: 2010.05.17/outbox.cif.g08.bks.cpg/sg11_25_cif.got.tgz:48698.got - 2010.06.03 12:22:45.
