data_PCOD9156421
_publ_section_title
;
Structure prediction by ZEFSAII (Michael W. Deem and Ramdas Pophale) SiO2 
 PCOD9156421
Probable space group: P 21/M
;
_chemical_formula_sum "Si O2"
_cell_formula_units_Z 28
_cell_length_a 10.177276
_cell_length_b 7.437737
_cell_length_c 27.893992
_cell_angle_alpha 90.000000
_cell_angle_beta 143.850827
_cell_angle_gamma 90.000000
_cell_volume 1245.528783
_symmetry_space_group_name_H-M "P 21/M"
_symmetry_group_IT_number 11
_symmetry_cell_setting 'monoclinic'
loop_
_space_group_symop_operation_xyz
x,y,z
-x,1/2+y,-z
-x,-y,-z
x,1/2-y,z
loop_
_atom_site_type_symbol
_atom_site_label
_atom_site_fract_x
_atom_site_fract_y
_atom_site_fract_z
Si Si1 0.258885 0.954504 0.882387
Si Si2 0.357494 0.466662 0.072761
Si Si3 0.001937 0.962559 0.895338
Si Si4 0.040381 0.966072 0.634769
Si Si5 0.885451 0.036317 0.698299
Si Si6 0.421542 0.464806 0.531512
Si Si7 0.465565 0.470362 0.212757
O O1 0.328199 0.750000 0.914122
O O2 0.461019 0.037272 0.912032
O O3 0.166736 0.040663 0.903800
O O4 0.049867 0.951137 0.784811
O O5 0.372566 0.250000 0.078441
O O6 0.420824 0.527223 0.144583
O O7 0.117316 0.515145 0.980918
O O8 0.986678 0.750000 0.881014
O O9 0.750122 0.031681 0.821306
O O10 0.042639 0.750000 0.630681
O O11 0.290408 0.030842 0.698776
O O12 0.831881 0.033995 0.541622
O O13 0.980903 0.004776 0.672865
O O14 0.885281 0.250000 0.706553
O O15 0.629762 0.968231 0.624069
O O16 0.500000 0.500000 0.500000
O O17 0.413904 0.250000 0.536164
O O18 0.466940 0.250000 0.213513
#
# Coordination Sequence:
#
# PCOD9156421 Si02
#       7
#     4   4   4   4   4   4   4
#     4  10  20  34  50  68  94 128 161 191 231 283
#     4  10  19  33  51  69  92 123 159 195 236 283
#     4  10  21  34  49  71  95 122 159 198 234 276
#     4   9  15  29  50  69  96 129 155 185 233 282
#     4  10  18  28  45  73 100 120 155 199 234 271
#     4   8  15  25  42  69  96 122 151 188 231 275
#     4   9  17  31  51  72  95 123 157 193 228 279
#
# _framework density 22.480412000000001
#
# number of rings (size 3 to 8) (size 9 to 14) (size 15 to 20)
#    0.000    2.571    1.429    1.286    0.000    1.714 
#    0.000    0.714    0.000    0.857    0.000    0.000 
#    0.000    0.000    0.000    0.000    0.000    0.714 
#
# Total GULP energy -156244.175916 kJ/mol
# GULP energy per Si atom -5580.149140 kJ/mol
# Density = 2.242925 g / cm^3
# Si number density = 22.480412 Si / 1000 Ang^3
#
#
#
# Elastic Constant Matrix: (Units=GPa)
#
#
# Indices 1 2 3 4 5 6 
#
# 1 48.6730 7.9261 -0.3999 0.0000 16.2885 0.0000
# 2 7.9261 77.9641 -2.7337 0.0000 7.3811 0.0000
# 3 -0.3999 -2.7337 117.2926 0.0000 29.1656 0.0000
# 4 0.0000 0.0000 0.0000 11.5499 0.0000 -3.0095
# 5 16.2885 7.3811 29.1656 0.0000 27.0321 0.0000
# 6 0.0000 0.0000 0.0000 -3.0095 0.0000 -5.7986
#
#
#
# Elastic Compliance Matrix: (Units=1/GPa)
#
#
# Indices 1 2 3 4 5 6 
#
# 1 0.028512 -0.000473 0.005912 0.000000 -0.023429 0.000000
# 2 -0.000473 0.013410 0.001572 0.000000 -0.005073 0.000000
# 3 0.005912 0.001572 0.013086 0.000000 -0.018110 0.000000
# 4 0.000000 0.000000 0.000000 0.076267 0.000000 -0.039583
# 5 -0.023429 -0.005073 -0.018110 0.000000 0.072035 0.000000
# 6 0.000000 0.000000 0.000000 -0.039583 0.000000 -0.151911
#
#
# Mechanical properties :
#
#
# Convention : Reuss Voigt Hill
#
# Bulk Modulus (GPa) = 14.48652 28.16830 21.32741
# Shear Modulus (GPa) = 82.80023 22.49915 52.64969
#
# Velocity S-wave (km/s) = 6.07554 3.16703 4.84470
# Velocity P-wave (km/s) = 7.46152 5.09223 6.38768
#
# Compressibility (1/GPa) = 0.06902969
#
# Stress axis : x y z
#
# Youngs Moduli (GPa) = 35.07350 74.57165 76.41918
#
# Poissons Ratio (x) = 0.03528 -0.45180
# Poissons Ratio (y) = 0.01660 -0.12016
# Poissons Ratio (z) = -0.20736 -0.11725
#
# Static dielectric constant tensor:
#      x y z
#    x 1.834260 0.000000 0.044790 
#    y 0.000000 1.824730 0.000000 
#    z 0.044790 0.000000 1.844750 
# 
# From -- ./inp_files/60074.got.cif
#   From: 2010.05.17/outbox.cif.g08.bks.cpg/sg11_31_cif.got.tgz:60074.got - 2010.06.03 12:22:45.
