data_PCOD9156652
_publ_section_title
;
Structure prediction by ZEFSAII (Michael W. Deem and Ramdas Pophale) SiO2 
 PCOD9156652
Probable space group: P 21/M
;
_chemical_formula_sum "Si O2"
_cell_formula_units_Z 32
_cell_length_a 21.814142
_cell_length_b 8.601679
_cell_length_c 17.142833
_cell_angle_alpha 90.000000
_cell_angle_beta 35.332331
_cell_angle_gamma 90.000000
_cell_volume 1860.247458
_symmetry_space_group_name_H-M "P 21/M"
_symmetry_group_IT_number 11
_symmetry_cell_setting 'monoclinic'
loop_
_space_group_symop_operation_xyz
x,y,z
-x,1/2+y,-z
-x,-y,-z
x,1/2-y,z
loop_
_atom_site_type_symbol
_atom_site_label
_atom_site_fract_x
_atom_site_fract_y
_atom_site_fract_z
Si Si1 0.153767 0.435719 0.288694
Si Si2 0.883255 0.062366 0.338068
Si Si3 0.706594 0.062000 0.244735
Si Si4 0.107016 0.936837 0.060174
Si Si5 0.271716 0.564148 0.024244
Si Si6 0.917740 0.437574 0.479076
Si Si7 0.319610 0.560259 0.549094
Si Si8 0.555917 0.936347 0.266807
O O1 0.157613 0.250000 0.284288
O O2 0.242985 0.501757 0.139059
O O3 0.153730 0.496743 0.377020
O O4 0.039062 0.485281 0.372257
O O5 0.881947 0.250000 0.340160
O O6 0.886938 0.009946 0.424459
O O7 0.779262 0.007574 0.400281
O O8 0.991555 0.009484 0.184673
O O9 0.698457 0.250000 0.249606
O O10 0.693255 0.011564 0.347552
O O11 0.617568 0.993556 0.280078
O O12 0.820559 0.019798 0.089193
O O13 0.097365 0.750000 0.071607
O O14 0.176920 0.984549 0.063176
O O15 0.274687 0.750000 0.021468
O O16 0.378821 0.501096 0.874326
O O17 0.913935 0.250000 0.485622
O O18 0.318389 0.750000 0.550342
O O19 0.434012 0.511869 0.397973
O O20 0.559036 0.750000 0.261618
#
# Coordination Sequence:
#
# PCOD9156652 Si02
#       8
#     4   4   4   4   4   4   4   4
#     4  10  18  29  49  77 103 129 163 202 242 290
#     4  10  19  33  51  70  99 136 169 199 239 298
#     4   9  18  34  52  72  99 130 164 207 257 296
#     4   9  18  30  46  70 100 131 161 199 246 294
#     4  10  19  32  51  74 103 133 160 202 254 296
#     4   9  18  30  46  72 103 134 162 196 242 294
#     4   9  19  34  52  72  97 132 169 207 250 293
#     4  10  19  32  52  76  98 125 167 213 251 289
#
# _framework density 17.202013000000001
#
# number of rings (size 3 to 8) (size 9 to 14) (size 15 to 20)
#    0.000    2.500    1.250    2.250    0.000    3.500 
#    0.000    2.500    0.000    0.750    0.000    0.000 
#    0.000    0.000    0.000    0.000    0.000    0.000 
#
# Total GULP energy -178481.071483 kJ/mol
# GULP energy per Si atom -5577.533484 kJ/mol
# Density = 1.716286 g / cm^3
# Si number density = 17.202013 Si / 1000 Ang^3
#
#
#
# Elastic Constant Matrix: (Units=GPa)
#
#
# Indices 1 2 3 4 5 6 
#
# 1 49.4860 14.8790 68.1157 0.0000 -15.6228 0.0000
# 2 14.8790 14.3216 25.3930 0.0000 -1.1525 0.0000
# 3 68.1157 25.3930 162.1336 0.0000 -5.2368 0.0000
# 4 0.0000 0.0000 0.0000 24.0896 0.0000 2.0008
# 5 -15.6228 -1.1525 -5.2368 0.0000 20.5889 0.0000
# 6 0.0000 0.0000 0.0000 2.0008 0.0000 16.7612
#
#
#
# Elastic Compliance Matrix: (Units=1/GPa)
#
#
# Indices 1 2 3 4 5 6 
#
# 1 0.095199 -0.036761 -0.032236 0.000000 0.061980 0.000000
# 2 -0.036761 0.110914 -0.002649 0.000000 -0.022359 0.000000
# 3 -0.032236 -0.002649 0.019491 0.000000 -0.019651 0.000000
# 4 0.000000 0.000000 0.000000 0.041927 0.000000 -0.005005
# 5 0.061980 -0.022359 -0.019651 0.000000 0.089350 0.000000
# 6 0.000000 0.000000 0.000000 -0.005005 0.000000 0.060259
#
#
# Mechanical properties :
#
#
# Convention : Reuss Voigt Hill
#
# Bulk Modulus (GPa) = 12.14889 49.19073 30.66981
# Shear Modulus (GPa) = 8.50528 20.12485 14.31507
#
# Velocity S-wave (km/s) = 2.22600 3.42411 2.88787
# Velocity P-wave (km/s) = 3.69927 6.65513 5.38402
#
# Compressibility (1/GPa) = 0.08231205
#
# Stress axis : x y z
#
# Youngs Moduli (GPa) = 10.50428 9.01599 51.30600
#
# Poissons Ratio (x) = 0.33144 1.65389
# Poissons Ratio (y) = 0.38615 0.13592
# Poissons Ratio (z) = 0.33861 0.02389
#
# Static dielectric constant tensor:
#      x y z
#    x 1.568350 0.000000 0.008350 
#    y 0.000000 1.581360 0.000000 
#    z 0.008350 0.000000 1.580350 
# 
# From -- ./inp_files/40661.got.cif
#   From: 2010.05.17/outbox.cif.g08.bks.cpg/sg11_21_cif.got.tgz:40661.got - 2010.06.03 12:22:45.
