data_PCOD9156883
_publ_section_title
;
Structure prediction by ZEFSAII (Michael W. Deem and Ramdas Pophale) SiO2 
 PCOD9156883
Probable space group: P 21/M
;
_chemical_formula_sum "Si O2"
_cell_formula_units_Z 32
_cell_length_a 17.902767
_cell_length_b 15.059760
_cell_length_c 8.893370
_cell_angle_alpha 90.000000
_cell_angle_beta 140.775728
_cell_angle_gamma 90.000000
_cell_volume 1516.237619
_symmetry_space_group_name_H-M "P 21/M"
_symmetry_group_IT_number 11
_symmetry_cell_setting 'monoclinic'
loop_
_space_group_symop_operation_xyz
x,y,z
-x,1/2+y,-z
-x,-y,-z
x,1/2-y,z
loop_
_atom_site_type_symbol
_atom_site_label
_atom_site_fract_x
_atom_site_fract_y
_atom_site_fract_z
Si Si1 0.546148 0.646967 0.171942
Si Si2 0.597862 0.976879 0.528920
Si Si3 0.939675 0.153617 0.183643
Si Si4 0.039484 0.095527 0.622830
Si Si5 0.810544 0.849630 0.595147
Si Si6 0.299301 0.147413 0.068052
Si Si7 0.447842 0.853039 0.704028
Si Si8 0.093976 0.474477 0.018916
O O1 0.526557 0.750000 0.184247
O O2 0.542638 0.584507 0.311240
O O3 0.681504 0.641711 0.321889
O O4 0.459974 0.625269 0.899960
O O5 0.685812 0.919925 0.770325
O O6 0.500000 0.000000 0.500000
O O7 0.626735 0.071331 0.495915
O O8 0.894369 0.250000 0.062193
O O9 0.953514 0.153995 0.385799
O O10 0.074614 0.143580 0.330929
O O11 0.875194 0.066439 0.018953
O O12 0.175225 0.121170 0.799158
O O13 0.000000 0.000000 0.500000
O O14 0.037879 0.088745 0.801554
O O15 0.815466 0.750000 0.668704
O O16 0.816075 0.922088 0.734153
O O17 0.289459 0.250000 0.102653
O O18 0.418491 0.142057 0.155403
O O19 0.409695 0.750000 0.626784
O O20 0.000000 0.500000 0.000000
#
# Coordination Sequence:
#
# PCOD9156883 Si02
#       8
#     4   4   4   4   4   4   4   4
#     4  10  18  30  51  77 101 129 166 208 254 307
#     4  10  20  32  48  74 107 138 170 214 262 307
#     4   9  17  30  47  69  98 132 165 203 250 297
#     4  10  19  30  48  73 102 134 166 205 252 300
#     4   9  17  29  48  74 101 126 160 208 256 296
#     4  10  19  33  54  80 106 134 171 216 260 306
#     4   9  19  34  53  77 105 136 171 212 260 309
#     4   9  18  30  43  66 100 133 165 202 247 298
#
# _framework density 21.104872
#
# number of rings (size 3 to 8) (size 9 to 14) (size 15 to 20)
#    0.000    2.500    0.000    2.625    0.000    4.500 
#    0.000    0.000    0.000    7.500    0.000    0.000 
#    0.000   26.000    0.000    0.000    0.000    0.000 
#
# Total GULP energy -178183.171171 kJ/mol
# GULP energy per Si atom -5568.224099 kJ/mol
# Density = 2.105684 g / cm^3
# Si number density = 21.104872 Si / 1000 Ang^3
#
#
#
# Elastic Constant Matrix: (Units=GPa)
#
#
# Indices 1 2 3 4 5 6 
#
# 1 38.5015 0.8287 8.1438 0.0000 -12.2068 0.0000
# 2 0.8287 143.4742 73.1105 0.0000 -15.2328 0.0000
# 3 8.1438 73.1105 111.4027 0.0000 -20.7337 0.0000
# 4 0.0000 0.0000 0.0000 34.1572 0.0000 -2.1778
# 5 -12.2068 -15.2328 -20.7337 0.0000 30.1462 0.0000
# 6 0.0000 0.0000 0.0000 -2.1778 0.0000 24.6703
#
#
#
# Elastic Compliance Matrix: (Units=1/GPa)
#
#
# Indices 1 2 3 4 5 6 
#
# 1 0.030051 0.001631 -0.000974 0.000000 0.012323 0.000000
# 2 0.001631 0.010571 -0.006812 0.000000 0.001317 0.000000
# 3 -0.000974 -0.006812 0.014684 0.000000 0.006263 0.000000
# 4 0.000000 0.000000 0.000000 0.029442 0.000000 0.002599
# 5 0.012323 0.001317 0.006263 0.000000 0.043134 0.000000
# 6 0.000000 0.000000 0.000000 0.002599 0.000000 0.040764
#
#
# Mechanical properties :
#
#
# Convention : Reuss Voigt Hill
#
# Bulk Modulus (GPa) = 23.25773 50.83828 37.04801
# Shear Modulus (GPa) = 25.60329 31.88109 28.74219
#
# Velocity S-wave (km/s) = 3.48680 3.89086 3.69436
# Velocity P-wave (km/s) = 5.22057 6.65776 5.98248
#
# Compressibility (1/GPa) = 0.04299645
#
# Stress axis : x y z
#
# Youngs Moduli (GPa) = 33.27714 94.59458 68.10315
#
# Poissons Ratio (x) = -0.15427 0.06631
# Poissons Ratio (y) = -0.05427 0.46391
# Poissons Ratio (z) = 0.03240 0.64436
#
# Static dielectric constant tensor:
#      x y z
#    x 1.306300 0.000000 -0.345680 
#    y 0.000000 1.809570 0.000000 
#    z -0.345680 0.000000 1.495030 
# 
# From -- ./inp_files/26861.got.cif
#   From: 2010.05.17/outbox.cif.g08.bks.cpg/sg11_14_cif.got.tgz:26861.got - 2010.06.03 12:22:45.
