data_PCOD9156049
_publ_section_title
;
Structure prediction by ZEFSAII (Michael W. Deem and Ramdas Pophale) SiO2 
 PCOD9156049
Probable space group: P 21/M
;
_chemical_formula_sum "Si O2"
_cell_formula_units_Z 32
_cell_length_a 21.757526
_cell_length_b 8.590205
_cell_length_c 13.096827
_cell_angle_alpha 90.000000
_cell_angle_beta 126.128916
_cell_angle_gamma 90.000000
_cell_volume 1977.084086
_symmetry_space_group_name_H-M "P 21/M"
_symmetry_group_IT_number 11
_symmetry_cell_setting 'monoclinic'
loop_
_space_group_symop_operation_xyz
x,y,z
-x,1/2+y,-z
-x,-y,-z
x,1/2-y,z
loop_
_atom_site_type_symbol
_atom_site_label
_atom_site_fract_x
_atom_site_fract_y
_atom_site_fract_z
Si Si1 0.660665 0.934984 0.547048
Si Si2 0.087014 0.064375 0.466414
Si Si3 0.085303 0.562108 0.081689
Si Si4 0.656792 0.437095 0.774580
Si Si5 0.817144 0.060390 0.018806
Si Si6 0.183551 0.563989 0.375540
Si Si7 0.497644 0.564453 0.613699
Si Si8 0.910466 0.061946 0.306476
O O1 0.655608 0.750000 0.551587
O O2 0.668266 0.006457 0.668824
O O3 0.734431 0.985373 0.556413
O O4 0.581909 0.999270 0.422689
O O5 0.093998 0.250000 0.463382
O O6 0.997840 0.022673 0.362900
O O7 0.139871 0.983363 0.435033
O O8 0.106056 0.012381 0.600108
O O9 0.082976 0.750000 0.077975
O O10 0.132015 0.514561 0.228065
O O11 0.130321 0.509803 0.024625
O O12 0.000000 0.500000 0.000000
O O13 0.652317 0.250000 0.768347
O O14 0.577086 0.504656 0.737042
O O15 0.730531 0.486348 0.911281
O O16 0.818121 0.250000 0.019554
O O17 0.853867 0.010485 0.161434
O O18 0.193083 0.750000 0.379845
O O19 0.500000 0.500000 0.500000
O O20 0.496079 0.750000 0.610582
O O21 0.906749 0.250000 0.312422
#
# Coordination Sequence:
#
# PCOD9156049 Si02
#       8
#     4   4   4   4   4   4   4   4
#     4  11  20  31  47  70  99 131 166 203 245 291
#     4  10  20  34  52  73  98 126 167 217 256 291
#     4  10  20  33  47  68  98 132 164 198 242 294
#     4  10  17  30  48  69  99 132 166 202 244 293
#     4   9  17  31  50  70  97 131 165 202 244 293
#     4  11  21  34  51  71  99 133 167 203 248 298
#     4  10  18  29  45  67  96 130 166 200 241 290
#     4   9  18  34  54  72  95 129 169 209 253 296
#
# _framework density 16.185451
#
# number of rings (size 3 to 8) (size 9 to 14) (size 15 to 20)
#    0.000    2.000    1.250    5.625    0.000    2.500 
#    0.000    1.875    0.000    0.000    0.000    0.875 
#    0.000    0.000    0.000    0.000    0.000    0.000 
#
# Total GULP energy -178551.834695 kJ/mol
# GULP energy per Si atom -5579.744834 kJ/mol
# Density = 1.614861 g / cm^3
# Si number density = 16.185451 Si / 1000 Ang^3
#
#
#
# Elastic Constant Matrix: (Units=GPa)
#
#
# Indices 1 2 3 4 5 6 
#
# 1 99.7281 34.5276 67.8567 0.0000 25.0505 0.0000
# 2 34.5276 64.7660 27.2459 0.0000 8.9966 0.0000
# 3 67.8567 27.2459 108.1500 0.0000 21.1434 0.0000
# 4 0.0000 0.0000 0.0000 16.2544 0.0000 5.5573
# 5 25.0505 8.9966 21.1434 0.0000 25.7870 0.0000
# 6 0.0000 0.0000 0.0000 5.5573 0.0000 25.3714
#
#
#
# Elastic Compliance Matrix: (Units=1/GPa)
#
#
# Indices 1 2 3 4 5 6 
#
# 1 0.021469 -0.005785 -0.009920 0.000000 -0.010703 0.000000
# 2 -0.005785 0.019017 -0.001147 0.000000 -0.000075 0.000000
# 3 -0.009920 -0.001147 0.016431 0.000000 -0.003436 0.000000
# 4 0.000000 0.000000 0.000000 0.066502 0.000000 -0.014566
# 5 -0.010703 -0.000075 -0.003436 0.000000 0.052020 0.000000
# 6 0.000000 0.000000 0.000000 -0.014566 0.000000 0.042605
#
#
# Mechanical properties :
#
#
# Convention : Reuss Voigt Hill
#
# Bulk Modulus (GPa) = 43.07910 59.10050 51.08980
# Shear Modulus (GPa) = 19.26898 23.01683 21.14290
#
# Velocity S-wave (km/s) = 3.45412 3.77512 3.61819
# Velocity P-wave (km/s) = 6.52546 7.45627 7.00634
#
# Compressibility (1/GPa) = 0.02321311
#
# Stress axis : x y z
#
# Youngs Moduli (GPa) = 46.57985 52.58441 60.86035
#
# Poissons Ratio (x) = 0.30421 0.60374
# Poissons Ratio (y) = 0.26947 0.06978
# Poissons Ratio (z) = 0.46208 0.06029
#
# Static dielectric constant tensor:
#      x y z
#    x 1.478390 0.000000 0.089330 
#    y 0.000000 1.545570 0.000000 
#    z 0.089330 0.000000 1.473730 
# 
# From -- ./inp_files/42568.got.cif
#   From: 2010.05.17/outbox.cif.g08.bks.cpg/sg11_22_cif.got.tgz:42568.got - 2010.06.03 12:22:45.
