data_PCOD9156232
_publ_section_title
;
Structure prediction by ZEFSAII (Michael W. Deem and Ramdas Pophale) SiO2 
 PCOD9156232
Probable space group: P 21/M
;
_chemical_formula_sum "Si O2"
_cell_formula_units_Z 32
_cell_length_a 17.585764
_cell_length_b 7.682748
_cell_length_c 22.252825
_cell_angle_alpha 90.000000
_cell_angle_beta 146.190534
_cell_angle_gamma 90.000000
_cell_volume 1672.922336
_symmetry_space_group_name_H-M "P 21/M"
_symmetry_group_IT_number 11
_symmetry_cell_setting 'monoclinic'
loop_
_space_group_symop_operation_xyz
x,y,z
-x,1/2+y,-z
-x,-y,-z
x,1/2-y,z
loop_
_atom_site_type_symbol
_atom_site_label
_atom_site_fract_x
_atom_site_fract_y
_atom_site_fract_z
Si Si1 0.021878 0.539655 0.240142
Si Si2 0.093915 0.544389 0.420699
Si Si3 0.610063 0.463810 0.347501
Si Si4 0.203451 0.955597 0.743887
Si Si5 0.547801 0.036343 0.173306
Si Si6 0.508002 0.547401 0.606037
Si Si7 0.703415 0.955933 0.632703
Si Si8 0.274508 0.039889 0.927766
O O1 0.021196 0.750000 0.241053
O O2 0.070249 0.473628 0.337746
O O3 0.135765 0.485221 0.267442
O O4 0.865005 0.482090 0.130689
O O5 0.114641 0.750000 0.426802
O O6 0.232160 0.478063 0.541581
O O7 0.951494 0.522194 0.361918
O O8 0.608962 0.250000 0.347421
O O9 0.550416 0.517152 0.244379
O O10 0.528045 0.526065 0.352454
O O11 0.195020 0.750000 0.730055
O O12 0.314778 0.023777 0.770087
O O13 0.257885 0.991007 0.847051
O O14 0.547823 0.250000 0.171728
O O15 0.413355 0.976950 0.049352
O O16 0.540605 0.750000 0.637345
O O17 0.373697 0.536387 0.475521
O O18 0.629424 0.473979 0.644104
O O19 0.675808 0.750000 0.611542
O O20 0.276766 0.250000 0.931152
#
# Coordination Sequence:
#
# PCOD9156232 Si02
#       8
#     4   4   4   4   4   4   4   4
#     4   9  16  28  46  67  92 121 152 188 227 271
#     4   9  17  30  48  68  92 126 158 184 225 279
#     4   9  16  30  50  67  91 125 158 190 222 269
#     4  10  19  30  47  72  97 117 147 198 244 272
#     4   9  18  31  49  71  90 117 160 200 230 266
#     4   9  17  30  46  67  94 124 152 180 221 274
#     4  10  18  26  44  72  97 118 147 187 228 269
#     4   9  18  33  51  69  89 119 160 197 229 271
#
# _framework density 19.128204
#
# number of rings (size 3 to 8) (size 9 to 14) (size 15 to 20)
#    0.000    2.750    1.250    1.875    0.000    3.000 
#    0.000    0.625    0.000    4.500    0.000    0.000 
#    0.000    0.000    0.000    0.000    0.000    0.625 
#
# Total GULP energy -178405.307835 kJ/mol
# GULP energy per Si atom -5575.165870 kJ/mol
# Density = 1.908467 g / cm^3
# Si number density = 19.128204 Si / 1000 Ang^3
#
#
#
# Elastic Constant Matrix: (Units=GPa)
#
#
# Indices 1 2 3 4 5 6 
#
# 1 118.8193 -9.9494 2.0096 0.0000 5.8291 0.0000
# 2 -9.9494 27.5345 -7.1170 0.0000 -1.5161 0.0000
# 3 2.0096 -7.1170 -24.1035 0.0000 -7.7775 0.0000
# 4 0.0000 0.0000 0.0000 11.3842 0.0000 5.4083
# 5 5.8291 -1.5161 -7.7775 0.0000 22.7593 0.0000
# 6 0.0000 0.0000 0.0000 5.4083 0.0000 16.0144
#
#
#
# Elastic Compliance Matrix: (Units=1/GPa)
#
#
# Indices 1 2 3 4 5 6 
#
# 1 0.008768 0.003169 0.000407 0.000000 -0.001895 0.000000
# 2 0.003169 0.034916 -0.009488 0.000000 -0.001728 0.000000
# 3 0.000407 -0.009488 -0.034600 0.000000 -0.012560 0.000000
# 4 0.000000 0.000000 0.000000 0.104628 0.000000 -0.035335
# 5 -0.001895 -0.001728 -0.012560 0.000000 0.040016 0.000000
# 6 0.000000 0.000000 0.000000 -0.035335 0.000000 0.074377
#
#
# Mechanical properties :
#
#
# Convention : Reuss Voigt Hill
#
# Bulk Modulus (GPa) = -364.94682 10.23741 -177.35471
# Shear Modulus (GPa) = 20.91917 19.18538 20.05228
#
# Velocity S-wave (km/s) = 3.31059 3.17044 3.24127
# Velocity P-wave (km/s) = 13.28874 4.33196 8.88327
#
# Compressibility (1/GPa) = -0.00274013
#
# Stress axis : x y z
#
# Youngs Moduli (GPa) = 114.05635 28.64040 -28.90199
#
# Poissons Ratio (x) = -0.09076 0.01176
# Poissons Ratio (y) = -0.36143 -0.27421
# Poissons Ratio (z) = -0.04641 0.27173
#
# Static dielectric constant tensor:
#      x y z
#    x 1.686330 0.000000 0.029540 
#    y 0.000000 1.712330 0.000000 
#    z 0.029540 0.000000 1.651250 
# 
# From -- ./inp_files/42412.got.cif
#   From: 2010.05.17/outbox.cif.g08.bks.cpg/sg11_22_cif.got.tgz:42412.got - 2010.06.03 12:22:45.
