data_PCOD9156974
_publ_section_title
;
Structure prediction by ZEFSAII (Michael W. Deem and Ramdas Pophale) SiO2 
 PCOD9156974
Probable space group: P 21/M
;
_chemical_formula_sum "Si O2"
_cell_formula_units_Z 32
_cell_length_a 15.560435
_cell_length_b 8.661759
_cell_length_c 31.952126
_cell_angle_alpha 90.000000
_cell_angle_beta 28.428895
_cell_angle_gamma 90.000000
_cell_volume 2050.200652
_symmetry_space_group_name_H-M "P 21/M"
_symmetry_group_IT_number 11
_symmetry_cell_setting 'monoclinic'
loop_
_space_group_symop_operation_xyz
x,y,z
-x,1/2+y,-z
-x,-y,-z
x,1/2-y,z
loop_
_atom_site_type_symbol
_atom_site_label
_atom_site_fract_x
_atom_site_fract_y
_atom_site_fract_z
Si Si1 0.255444 0.434277 0.068194
Si Si2 0.353381 0.063271 0.884005
Si Si3 0.958661 0.565375 0.583838
Si Si4 0.749389 0.063861 0.748240
Si Si5 0.320600 0.062042 0.801271
Si Si6 0.942563 0.064899 0.925179
Si Si7 0.673158 0.436111 0.874035
Si Si8 0.281778 0.936606 0.388384
O O1 0.243890 0.250000 0.071350
O O2 0.117121 0.506134 0.094681
O O3 0.236089 0.491694 0.123971
O O4 0.460181 0.478647 0.966658
O O5 0.344591 0.250000 0.889973
O O6 0.553937 0.017791 0.813091
O O7 0.320331 0.015594 0.850197
O O8 0.203977 0.995581 0.978789
O O9 0.949279 0.750000 0.587845
O O10 0.903631 0.502652 0.652516
O O11 0.814984 0.500577 0.611710
O O12 0.154768 0.518633 0.481744
O O13 0.756740 0.250000 0.743595
O O14 0.753648 0.016113 0.794929
O O15 0.319446 0.250000 0.801474
O O16 0.510619 0.012559 0.699741
O O17 0.140882 0.010295 0.854560
O O18 0.940656 0.250000 0.926307
O O19 0.682059 0.250000 0.873220
O O20 0.279369 0.750000 0.386447
#
# Coordination Sequence:
#
# PCOD9156974 Si02
#       8
#     4   4   4   4   4   4   4   4
#     4  10  19  33  49  67  92 123 154 191 237 278
#     4  10  18  32  48  64  92 131 165 190 224 274
#     4  10  19  28  46  73  95 117 155 200 236 273
#     4  10  18  31  50  68  95 131 155 181 230 288
#     4   9  18  32  49  65  89 130 168 191 226 274
#     4  11  21  31  46  69  94 124 163 201 227 265
#     4   9  18  32  49  69  90 120 158 189 227 280
#     4   9  17  33  49  63  91 128 159 192 235 280
#
# _framework density 15.608228
#
# number of rings (size 3 to 8) (size 9 to 14) (size 15 to 20)
#    0.000    2.250    2.500    1.500    0.000    2.000 
#    0.000    1.875    0.000    0.000    0.000    0.875 
#    0.000    0.000    0.000    0.000    0.000    0.000 
#
# Total GULP energy -178471.514553 kJ/mol
# GULP energy per Si atom -5577.234830 kJ/mol
# Density = 1.557270 g / cm^3
# Si number density = 15.608228 Si / 1000 Ang^3
#
#
#
# Elastic Constant Matrix: (Units=GPa)
#
#
# Indices 1 2 3 4 5 6 
#
# 1 122.6523 25.8629 76.2202 0.0000 11.9280 0.0000
# 2 25.8629 14.8044 24.8598 0.0000 4.1616 0.0000
# 3 76.2202 24.8598 114.7591 0.0000 16.6880 0.0000
# 4 0.0000 0.0000 0.0000 20.5388 0.0000 7.2153
# 5 11.9280 4.1616 16.6880 0.0000 25.0620 0.0000
# 6 0.0000 0.0000 0.0000 7.2153 0.0000 20.5698
#
#
#
# Elastic Compliance Matrix: (Units=1/GPa)
#
#
# Indices 1 2 3 4 5 6 
#
# 1 0.015939 -0.015812 -0.007130 0.000000 -0.000213 0.000000
# 2 -0.015812 0.122003 -0.015584 0.000000 -0.002356 0.000000
# 3 -0.007130 -0.015584 0.017666 0.000000 -0.005782 0.000000
# 4 0.000000 0.000000 0.000000 0.055531 0.000000 -0.019479
# 5 -0.000213 -0.002356 -0.005782 0.000000 0.044244 0.000000
# 6 0.000000 0.000000 0.000000 -0.019479 0.000000 0.055448
#
#
# Mechanical properties :
#
#
# Convention : Reuss Voigt Hill
#
# Bulk Modulus (GPa) = 12.72993 56.23351 34.48172
# Shear Modulus (GPa) = 12.07530 21.58564 16.83047
#
# Velocity S-wave (km/s) = 2.78447 3.72286 3.28732
# Velocity P-wave (km/s) = 4.30248 7.38823 6.04555
#
# Compressibility (1/GPa) = 0.07855505
#
# Stress axis : x y z
#
# Youngs Moduli (GPa) = 62.73991 8.19652 56.60540
#
# Poissons Ratio (x) = 0.12961 0.40359
# Poissons Ratio (y) = 0.99207 0.88215
# Poissons Ratio (z) = 0.44733 0.12774
#
# Static dielectric constant tensor:
#      x y z
#    x 1.504530 0.000000 0.004900 
#    y 0.000000 1.529290 0.000000 
#    z 0.004900 0.000000 1.522850 
# 
# From -- ./inp_files/51252.got.cif
#   From: 2010.05.17/outbox.cif.g08.bks.cpg/sg11_26_cif.got.tgz:51252.got - 2010.06.03 12:22:45.
