data_PCOD9156879
_publ_section_title
;
Structure prediction by ZEFSAII (Michael W. Deem and Ramdas Pophale) SiO2 
 PCOD9156879
Probable space group: P 21/M
;
_chemical_formula_sum "Si O2"
_cell_formula_units_Z 32
_cell_length_a 9.727519
_cell_length_b 13.731500
_cell_length_c 14.586420
_cell_angle_alpha 90.000000
_cell_angle_beta 60.598258
_cell_angle_gamma 90.000000
_cell_volume 1697.407413
_symmetry_space_group_name_H-M "P 21/M"
_symmetry_group_IT_number 11
_symmetry_cell_setting 'monoclinic'
loop_
_space_group_symop_operation_xyz
x,y,z
-x,1/2+y,-z
-x,-y,-z
x,1/2-y,z
loop_
_atom_site_type_symbol
_atom_site_label
_atom_site_fract_x
_atom_site_fract_y
_atom_site_fract_z
Si Si1 0.985792 0.867157 0.043267
Si Si2 0.640768 0.866309 0.239896
Si Si3 0.322172 0.941338 0.271906
Si Si4 0.126178 0.929202 0.505977
Si Si5 0.055664 0.865169 0.815929
Si Si6 0.216251 0.024550 0.651712
Si Si7 0.897533 0.365423 0.804261
Si Si8 0.155735 0.358341 0.285148
O O1 0.996031 0.750000 0.032642
O O2 0.808660 0.886311 0.136140
O O3 0.099632 0.895195 0.090036
O O4 0.025100 0.902300 0.928837
O O5 0.614316 0.750000 0.248390
O O6 0.503473 0.922034 0.231956
O O7 0.660646 0.906551 0.337135
O O8 0.230297 0.891806 0.388113
O O9 0.257023 0.893287 0.200749
O O10 0.267314 0.054385 0.282752
O O11 0.010241 0.862058 0.604060
O O12 0.236136 0.987666 0.541883
O O13 0.000000 0.000000 0.500000
O O14 0.093678 0.750000 0.803957
O O15 0.901397 0.875488 0.800976
O O16 0.189163 0.929916 0.724258
O O17 0.047179 0.080802 0.708913
O O18 0.925148 0.250000 0.790619
O O19 0.223621 0.250000 0.271811
#
# Coordination Sequence:
#
# PCOD9156879 Si02
#       8
#     4   4   4   4   4   4   4   4
#     4   8  17  33  54  79 104 134 174 218 264 314
#     4  10  22  36  51  75 111 144 172 212 265 314
#     4  11  20  36  51  78 110 142 174 218 262 309
#     4   9  17  33  54  79 105 127 171 222 255 300
#     4   9  16  32  59  81 103 134 173 223 264 303
#     4  10  18  35  54  79 105 133 174 218 258 313
#     4  10  18  30  51  76 102 134 179 221 256 303
#     4   9  18  33  54  80 105 134 177 222 265 310
#
# _framework density 18.85228
#
# number of rings (size 3 to 8) (size 9 to 14) (size 15 to 20)
#    0.000    2.500    3.750    1.500    0.000    3.500 
#    0.000    1.875    0.000    0.000    0.000    0.875 
#    0.000    0.000    0.000    0.000    0.000    0.000 
#
# Total GULP energy -178291.907297 kJ/mol
# GULP energy per Si atom -5571.622103 kJ/mol
# Density = 1.880937 g / cm^3
# Si number density = 18.852280 Si / 1000 Ang^3
#
#
#
# Elastic Constant Matrix: (Units=GPa)
#
#
# Indices 1 2 3 4 5 6 
#
# 1 106.7797 28.2155 34.1818 0.0000 26.3514 0.0000
# 2 28.2155 98.5545 11.8101 0.0000 10.3536 0.0000
# 3 34.1818 11.8101 72.7859 0.0000 32.7415 0.0000
# 4 0.0000 0.0000 0.0000 8.8993 0.0000 2.4123
# 5 26.3514 10.3536 32.7415 0.0000 22.2836 0.0000
# 6 0.0000 0.0000 0.0000 2.4123 0.0000 26.5642
#
#
#
# Elastic Compliance Matrix: (Units=1/GPa)
#
#
# Indices 1 2 3 4 5 6 
#
# 1 0.013839 -0.002277 0.002230 0.000000 -0.018584 0.000000
# 2 -0.002277 0.011096 0.001111 0.000000 -0.004096 0.000000
# 3 0.002230 0.001111 0.041084 0.000000 -0.063519 0.000000
# 4 0.000000 0.000000 0.000000 0.115204 0.000000 -0.010462
# 5 -0.018584 -0.004096 -0.063519 0.000000 0.162084 0.000000
# 6 0.000000 0.000000 0.000000 -0.010462 0.000000 0.038595
#
#
# Mechanical properties :
#
#
# Convention : Reuss Voigt Hill
#
# Bulk Modulus (GPa) = 14.67402 47.39276 31.03339
# Shear Modulus (GPa) = 12.42272 25.14361 18.78317
#
# Velocity S-wave (km/s) = 2.56979 3.65597 3.15990
# Velocity P-wave (km/s) = 4.07500 6.55859 5.45989
#
# Compressibility (1/GPa) = 0.06814765
#
# Stress axis : x y z
#
# Youngs Moduli (GPa) = 72.25904 90.12550 24.34031
#
# Poissons Ratio (x) = 0.20521 -0.05428
# Poissons Ratio (y) = 0.16453 -0.02705
# Poissons Ratio (z) = -0.16114 -0.10015
#
# Static dielectric constant tensor:
#      x y z
#    x 1.644280 0.000000 0.028540 
#    y 0.000000 1.711990 0.000000 
#    z 0.028540 0.000000 1.682760 
# 
# From -- ./inp_files/47604.got.cif
#   From: 2010.05.17/outbox.cif.g08.bks.cpg/sg11_24_cif.got.tgz:47604.got - 2010.06.03 12:22:45.
