data_PCOD9156428
_publ_section_title
;
Structure prediction by ZEFSAII (Michael W. Deem and Ramdas Pophale) SiO2 
 PCOD9156428
Probable space group: P 21/M
;
_chemical_formula_sum "Si O2"
_cell_formula_units_Z 32
_cell_length_a 26.876305
_cell_length_b 7.404207
_cell_length_c 16.258101
_cell_angle_alpha 90.000000
_cell_angle_beta 150.070650
_cell_angle_gamma 90.000000
_cell_volume 1614.206411
_symmetry_space_group_name_H-M "P 21/M"
_symmetry_group_IT_number 11
_symmetry_cell_setting 'monoclinic'
loop_
_space_group_symop_operation_xyz
x,y,z
-x,1/2+y,-z
-x,-y,-z
x,1/2-y,z
loop_
_atom_site_type_symbol
_atom_site_label
_atom_site_fract_x
_atom_site_fract_y
_atom_site_fract_z
Si Si1 0.611836 0.968202 0.535341
Si Si2 0.546655 0.967006 0.940083
Si Si3 0.397734 0.457705 0.156821
Si Si4 0.716777 0.529338 0.852349
Si Si5 0.815603 0.531750 0.740914
Si Si6 0.081244 0.029344 0.943856
Si Si7 0.862419 0.457446 0.621725
Si Si8 0.346925 0.534452 0.736602
O O1 0.606485 0.750000 0.526814
O O2 0.643491 0.024623 0.672630
O O3 0.703505 0.020863 0.607163
O O4 0.506808 0.040010 0.354690
O O5 0.538220 0.750000 0.920117
O O6 0.588449 0.038589 0.913951
O O7 0.436122 0.035507 0.805891
O O8 0.616807 0.004190 0.118508
O O9 0.366081 0.250000 0.099468
O O10 0.322683 0.536758 0.116721
O O11 0.714916 0.750000 0.850400
O O12 0.827983 0.475346 0.985263
O O13 0.817954 0.750000 0.739972
O O14 0.846191 0.459158 0.696687
O O15 0.887633 0.475478 0.918918
O O16 0.079477 0.250000 0.942047
O O17 0.971832 0.963350 0.763216
O O18 0.867316 0.250000 0.599744
O O19 0.762416 0.539451 0.439710
O O20 0.342564 0.750000 0.716523
#
# Coordination Sequence:
#
# PCOD9156428 Si02
#       8
#     4   4   4   4   4   4   4   4
#     4   9  17  28  42  63  92 122 147 171 206 256
#     4   9  18  31  45  63  86 109 136 173 217 262
#     4  10  18  28  46  68  87 111 146 185 217 247
#     4   8  15  28  44  63  89 119 148 176 208 251
#     4   9  17  28  42  63  92 122 147 171 206 256
#     4   8  15  28  44  63  89 119 148 176 208 251
#     4  10  18  28  46  68  87 111 146 185 217 247
#     4   9  18  31  45  63  86 109 136 173 217 262
#
# _framework density 19.823982000000001
#
# number of rings (size 3 to 8) (size 9 to 14) (size 15 to 20)
#    0.000    3.000    0.000    3.000    0.000    2.500 
#    0.000    2.500    0.000    3.000    0.000    0.000 
#    0.000    0.000    0.000    0.000    0.000    0.000 
#
# Total GULP energy -178573.819458 kJ/mol
# GULP energy per Si atom -5580.431858 kJ/mol
# Density = 1.977886 g / cm^3
# Si number density = 19.823982 Si / 1000 Ang^3
#
#
#
# Elastic Constant Matrix: (Units=GPa)
#
#
# Indices 1 2 3 4 5 6 
#
# 1 83.4752 -11.3717 70.2434 0.0000 11.3727 0.0000
# 2 -11.3717 65.2098 -4.6477 0.0000 2.2269 0.0000
# 3 70.2434 -4.6477 121.8560 0.0000 18.2936 0.0000
# 4 0.0000 0.0000 0.0000 5.9351 0.0000 -2.7338
# 5 11.3727 2.2269 18.2936 0.0000 11.0503 0.0000
# 6 0.0000 0.0000 0.0000 -2.7338 0.0000 3.4622
#
#
#
# Elastic Compliance Matrix: (Units=1/GPa)
#
#
# Indices 1 2 3 4 5 6 
#
# 1 0.024015 0.003371 -0.013177 0.000000 -0.003580 0.000000
# 2 0.003371 0.016098 -0.000428 0.000000 -0.006005 0.000000
# 3 -0.013177 -0.000428 0.018281 0.000000 -0.016615 0.000000
# 4 0.000000 0.000000 0.000000 0.264800 0.000000 0.209090
# 5 -0.003580 -0.006005 -0.016615 0.000000 0.122897 0.000000
# 6 0.000000 0.000000 0.000000 0.209090 0.000000 0.453935
#
#
# Mechanical properties :
#
#
# Convention : Reuss Voigt Hill
#
# Bulk Modulus (GPa) = 26.36772 42.10988 34.23880
# Shear Modulus (GPa) = 5.35828 18.51064 11.93446
#
# Velocity S-wave (km/s) = 1.64584 3.05905 2.45627
# Velocity P-wave (km/s) = 4.11601 5.81077 5.03520
#
# Compressibility (1/GPa) = 0.03792516
#
# Stress axis : x y z
#
# Youngs Moduli (GPa) = 41.64013 62.12115 54.70305
#
# Poissons Ratio (x) = -0.20941 0.72085
# Poissons Ratio (y) = -0.14037 0.02339
# Poissons Ratio (z) = 0.54871 0.02657
#
# Static dielectric constant tensor:
#      x y z
#    x 1.699860 0.000000 0.018300 
#    y 0.000000 1.740590 0.000000 
#    z 0.018300 0.000000 1.677900 
# 
# From -- ./inp_files/51714.got.cif
#   From: 2010.05.17/outbox.cif.g08.bks.cpg/sg11_26_cif.got.tgz:51714.got - 2010.06.03 12:22:45.
