data_PCOD9156824
_publ_section_title
;
Structure prediction by ZEFSAII (Michael W. Deem and Ramdas Pophale) SiO2 
 PCOD9156824
Probable space group: P 21/M
;
_chemical_formula_sum "Si O2"
_cell_formula_units_Z 32
_cell_length_a 10.355950
_cell_length_b 24.858771
_cell_length_c 7.651081
_cell_angle_alpha 90.000000
_cell_angle_beta 52.649842
_cell_angle_gamma 90.000000
_cell_volume 1565.770885
_symmetry_space_group_name_H-M "P 21/M"
_symmetry_group_IT_number 11
_symmetry_cell_setting 'monoclinic'
loop_
_space_group_symop_operation_xyz
x,y,z
-x,1/2+y,-z
-x,-y,-z
x,1/2-y,z
loop_
_atom_site_type_symbol
_atom_site_label
_atom_site_fract_x
_atom_site_fract_y
_atom_site_fract_z
Si Si1 0.852336 0.572067 0.542506
Si Si2 0.096680 0.909946 0.840675
Si Si3 0.455730 0.642488 0.164513
Si Si4 0.247252 0.416556 0.985211
Si Si5 0.321638 0.687826 0.620319
Si Si6 0.613121 0.023467 0.250678
Si Si7 0.559228 0.866205 0.695200
Si Si8 0.806845 0.052810 0.621969
O O1 0.819752 0.591774 0.766032
O O2 0.748295 0.615794 0.520693
O O3 0.785668 0.510562 0.602296
O O4 0.046590 0.564143 0.360627
O O5 0.174124 0.851076 0.801611
O O6 0.211866 0.952890 0.838926
O O7 0.129942 0.924378 0.612530
O O8 0.904019 0.915263 0.022560
O O9 0.354577 0.678343 0.385055
O O10 0.350644 0.588403 0.214703
O O11 0.613764 0.627220 0.148455
O O12 0.514484 0.659457 0.922068
O O13 0.340280 0.473229 0.905252
O O14 0.289075 0.750000 0.678474
O O15 0.474764 0.668105 0.612256
O O16 0.522359 0.074541 0.247183
O O17 0.500000 0.000000 0.500000
#
# Coordination Sequence:
#
# PCOD9156824 Si02
#       8
#     4   4   4   4   4   4   4   4
#     4   9  17  28  48  76 112 148 175 211 254 312
#     4   9  19  32  49  75 106 143 181 223 270 316
#     4  10  20  35  56  79 105 139 178 221 270 325
#     4  10  18  30  49  77 113 145 177 212 260 328
#     4  10  22  41  60  76 100 137 184 239 291 332
#     4  11  19  29  49  79 118 157 184 214 262 326
#     4  10  20  34  53  81 111 143 183 226 271 323
#     4   9  16  29  48  76 111 147 179 205 252 317
#
# _framework density 20.437218999999999
#
# number of rings (size 3 to 8) (size 9 to 14) (size 15 to 20)
#    0.000    2.250    0.000    4.875    0.000    2.500 
#    0.000    6.875    0.000    9.750    0.000    0.000 
#    0.000    0.000    0.000    0.000    0.000    0.000 
#
# Total GULP energy -178211.161584 kJ/mol
# GULP energy per Si atom -5569.098799 kJ/mol
# Density = 2.039070 g / cm^3
# Si number density = 20.437219 Si / 1000 Ang^3
#
#
#
# Elastic Constant Matrix: (Units=GPa)
#
#
# Indices 1 2 3 4 5 6 
#
# 1 62.3879 0.1056 -0.4919 0.0000 -6.7675 0.0000
# 2 0.1056 24.2761 -8.3018 0.0000 2.3542 0.0000
# 3 -0.4919 -8.3018 52.2479 0.0000 5.4725 0.0000
# 4 0.0000 0.0000 0.0000 4.0041 0.0000 4.5974
# 5 -6.7675 2.3542 5.4725 0.0000 23.8714 0.0000
# 6 0.0000 0.0000 0.0000 4.5974 0.0000 13.2923
#
#
#
# Elastic Compliance Matrix: (Units=1/GPa)
#
#
# Indices 1 2 3 4 5 6 
#
# 1 0.016554 -0.000704 -0.000466 0.000000 0.004869 0.000000
# 2 -0.000704 0.044453 0.007722 0.000000 -0.006354 0.000000
# 3 -0.000466 0.007722 0.020959 0.000000 -0.005698 0.000000
# 4 0.000000 0.000000 0.000000 0.414262 0.000000 -0.143282
# 5 0.004869 -0.006354 -0.005698 0.000000 0.045205 0.000000
# 6 0.000000 0.000000 0.000000 -0.143282 0.000000 0.124789
#
#
# Mechanical properties :
#
#
# Convention : Reuss Voigt Hill
#
# Bulk Modulus (GPa) = 10.51843 13.50396 12.01119
# Shear Modulus (GPa) = 7.30133 18.07354 12.68743
#
# Velocity S-wave (km/s) = 1.89217 2.97702 2.49429
# Velocity P-wave (km/s) = 3.15145 4.29403 3.76632
#
# Compressibility (1/GPa) = 0.09507126
#
# Stress axis : x y z
#
# Youngs Moduli (GPa) = 60.40661 22.49581 47.71220
#
# Poissons Ratio (x) = 0.01583 0.02223
# Poissons Ratio (y) = 0.04250 -0.36844
# Poissons Ratio (z) = 0.02815 -0.17371
#
# Static dielectric constant tensor:
#      x y z
#    x 1.890520 0.000000 -0.025490 
#    y 0.000000 1.687620 0.000000 
#    z -0.025490 0.000000 1.796850 
# 
# From -- ./inp_files/19639.got.cif
#   From: 2010.05.17/outbox.cif.g08.bks.cpg/sg11_10_cif.got.tgz:19639.got - 2010.06.03 12:22:45.
