data_PCOD9156149
_publ_section_title
;
Structure prediction by ZEFSAII (Michael W. Deem and Ramdas Pophale) SiO2 
 PCOD9156149
Probable space group: P 21/M
;
_chemical_formula_sum "Si O2"
_cell_formula_units_Z 28
_cell_length_a 7.390415
_cell_length_b 21.260958
_cell_length_c 11.890536
_cell_angle_alpha 90.000000
_cell_angle_beta 56.205325
_cell_angle_gamma 90.000000
_cell_volume 1552.648017
_symmetry_space_group_name_H-M "P 21/M"
_symmetry_group_IT_number 11
_symmetry_cell_setting 'monoclinic'
loop_
_space_group_symop_operation_xyz
x,y,z
-x,1/2+y,-z
-x,-y,-z
x,1/2-y,z
loop_
_atom_site_type_symbol
_atom_site_label
_atom_site_fract_x
_atom_site_fract_y
_atom_site_fract_z
Si Si1 0.855261 0.012572 0.417189
Si Si2 0.076835 0.677863 0.232183
Si Si3 0.287882 0.603231 0.355738
Si Si4 0.471825 0.921927 0.635089
Si Si5 0.082450 0.546530 0.137690
Si Si6 0.559293 0.821275 0.448567
Si Si7 0.346881 0.487908 0.859368
O O1 0.880384 0.057968 0.516878
O O2 0.736359 0.055979 0.364955
O O3 0.675246 0.961503 0.515941
O O4 0.038072 0.978578 0.279547
O O5 0.140592 0.750000 0.183075
O O6 0.176352 0.654949 0.316309
O O7 0.136487 0.620614 0.127430
O O8 0.815408 0.676113 0.333574
O O9 0.433240 0.636901 0.400999
O O10 0.459576 0.561477 0.225171
O O11 0.517844 0.850839 0.585833
O O12 0.427484 0.946932 0.774411
O O13 0.858854 0.537443 0.143280
O O14 0.259720 0.504586 0.012314
O O15 0.484197 0.750000 0.468000
#
# Coordination Sequence:
#
# PCOD9156149 Si02
#       7
#     4   4   4   4   4   4   4
#     4   8  14  27  50  72 101 124 159 208 251 289
#     4  11  22  33  51  77 103 132 172 208 242 306
#     4  10  19  34  52  78  99 131 168 210 257 298
#     4   8  13  28  47  74  98 127 162 205 246 292
#     4  10  17  33  52  80 104 132 169 209 255 304
#     4  10  18  32  52  73 101 135 168 209 251 297
#     4   9  18  31  55  76 105 132 165 215 258 299
#
# _framework density 18.033707
#
# number of rings (size 3 to 8) (size 9 to 14) (size 15 to 20)
#    0.000    2.571    2.857    2.143    0.000    1.143 
#    0.000    0.714    0.000    0.000    0.000    2.000 
#    0.000    0.000    0.000    0.000    0.000    0.000 
#
# Total GULP energy -156029.403322 kJ/mol
# GULP energy per Si atom -5572.478690 kJ/mol
# Density = 1.799266 g / cm^3
# Si number density = 18.033707 Si / 1000 Ang^3
#
#
#
# Elastic Constant Matrix: (Units=GPa)
#
#
# Indices 1 2 3 4 5 6 
#
# 1 58.7142 18.4340 6.9933 0.0000 1.7456 0.0000
# 2 18.4340 110.2525 31.6011 0.0000 0.3384 0.0000
# 3 6.9933 31.6011 84.0619 0.0000 6.6347 0.0000
# 4 0.0000 0.0000 0.0000 23.1735 0.0000 2.1580
# 5 1.7456 0.3384 6.6347 0.0000 15.3323 0.0000
# 6 0.0000 0.0000 0.0000 2.1580 0.0000 21.9408
#
#
#
# Elastic Compliance Matrix: (Units=1/GPa)
#
#
# Indices 1 2 3 4 5 6 
#
# 1 0.018040 -0.002940 -0.000247 0.000000 -0.001882 0.000000
# 2 -0.002940 0.010677 -0.003911 0.000000 0.001791 0.000000
# 3 -0.000247 -0.003911 0.013851 0.000000 -0.005879 0.000000
# 4 0.000000 0.000000 0.000000 0.043552 0.000000 -0.004284
# 5 -0.001882 0.001791 -0.005879 0.000000 0.067941 0.000000
# 6 0.000000 0.000000 0.000000 -0.004284 0.000000 0.045998
#
#
# Mechanical properties :
#
#
# Convention : Reuss Voigt Hill
#
# Bulk Modulus (GPa) = 35.24491 40.78727 38.01609
# Shear Modulus (GPa) = 22.35030 25.15601 23.75315
#
# Velocity S-wave (km/s) = 3.52428 3.73895 3.63320
# Velocity P-wave (km/s) = 6.01224 6.42697 6.22306
#
# Compressibility (1/GPa) = 0.02837289
#
# Stress axis : x y z
#
# Youngs Moduli (GPa) = 55.43241 93.65955 72.19866
#
# Poissons Ratio (x) = 0.27533 0.01784
# Poissons Ratio (y) = 0.16295 0.28234
# Poissons Ratio (z) = 0.01370 0.36626
#
# Static dielectric constant tensor:
#      x y z
#    x 1.674920 0.000000 0.019610 
#    y 0.000000 1.634080 0.000000 
#    z 0.019610 0.000000 1.615710 
# 
# From -- ./inp_files/25274.got.cif
#   From: 2010.05.17/outbox.cif.g08.bks.cpg/sg11_13_cif.got.tgz:25274.got - 2010.06.03 12:22:45.
