data_PCOD9156728
_publ_section_title
;
Structure prediction by ZEFSAII (Michael W. Deem and Ramdas Pophale) SiO2 
 PCOD9156728
Probable space group: P 21/M
;
_chemical_formula_sum "Si O2"
_cell_formula_units_Z 32
_cell_length_a 19.338442
_cell_length_b 7.382395
_cell_length_c 10.310961
_cell_angle_alpha 90.000000
_cell_angle_beta 89.858360
_cell_angle_gamma 90.000000
_cell_volume 1472.029719
_symmetry_space_group_name_H-M "P 21/M"
_symmetry_group_IT_number 11
_symmetry_cell_setting 'monoclinic'
loop_
_space_group_symop_operation_xyz
x,y,z
-x,1/2+y,-z
-x,-y,-z
x,1/2-y,z
loop_
_atom_site_type_symbol
_atom_site_label
_atom_site_fract_x
_atom_site_fract_y
_atom_site_fract_z
Si Si1 0.420029 0.033373 0.464633
Si Si2 0.342916 0.471043 0.717053
Si Si3 0.342602 0.471320 0.211041
Si Si4 0.923056 0.967667 0.651079
Si Si5 0.084288 0.035118 0.640869
Si Si6 0.197450 0.028592 0.845028
Si Si7 0.422151 0.465387 0.960873
Si Si8 0.190806 0.029034 0.145955
O O1 0.413513 0.250000 0.460740
O O2 0.368216 0.966597 0.576935
O O3 0.392235 0.966102 0.326574
O O4 0.500000 0.000000 0.500000
O O5 0.341342 0.250000 0.711686
O O6 0.269040 0.526168 0.775274
O O7 0.400443 0.531624 0.820361
O O8 0.344185 0.250000 0.211174
O O9 0.262437 0.523233 0.215745
O O10 0.372523 0.534474 0.073796
O O11 0.916421 0.750000 0.647292
O O12 0.904341 0.035590 0.506034
O O13 0.873431 0.032530 0.766189
O O14 0.003678 0.008006 0.672999
O O15 0.096922 0.250000 0.634152
O O16 0.134744 0.967030 0.753147
O O17 0.197755 0.250000 0.848872
O O18 0.191451 0.970412 0.995222
O O19 0.411996 0.250000 0.956662
O O20 0.500000 0.500000 0.000000
O O21 0.189265 0.250000 0.142689
#
# Coordination Sequence:
#
# PCOD9156728 Si02
#       8
#     4   4   4   4   4   4   4   4
#     4  10  20  32  48  70  95 122 154 194 237 280
#     4   9  17  29  46  70  95 119 153 196 235 269
#     4   9  17  29  46  70  95 119 153 196 235 269
#     4   9  18  31  49  73  98 124 154 189 229 274
#     4   9  18  31  49  73  98 124 154 189 229 274
#     4   9  16  28  47  72  97 120 154 198 234 266
#     4  10  18  30  48  68  91 122 154 188 231 276
#     4   9  16  28  47  72  97 120 154 198 234 266
#
# _framework density 21.738690999999999
#
# number of rings (size 3 to 8) (size 9 to 14) (size 15 to 20)
#    0.000    2.750    1.250    0.750    1.750    0.500 
#    0.000    0.000    0.000    3.000    0.000    0.000 
#    0.000    0.000    0.000    0.000    0.000    0.000 
#
# Total GULP energy -178636.515602 kJ/mol
# GULP energy per Si atom -5582.391113 kJ/mol
# Density = 2.168921 g / cm^3
# Si number density = 21.738691 Si / 1000 Ang^3
#
#
#
# Elastic Constant Matrix: (Units=GPa)
#
#
# Indices 1 2 3 4 5 6 
#
# 1 87.7411 -9.0916 25.3603 0.0000 4.6810 0.0000
# 2 -9.0916 74.3109 3.7982 0.0000 2.2524 0.0000
# 3 25.3603 3.7982 75.7874 0.0000 3.4716 0.0000
# 4 0.0000 0.0000 0.0000 -6.9397 0.0000 4.5465
# 5 4.6810 2.2524 3.4716 0.0000 41.2557 0.0000
# 6 0.0000 0.0000 0.0000 4.5465 0.0000 17.0722
#
#
#
# Elastic Compliance Matrix: (Units=1/GPa)
#
#
# Indices 1 2 3 4 5 6 
#
# 1 0.012911 0.001839 -0.004358 0.000000 -0.001199 0.000000
# 2 0.001839 0.013773 -0.001266 0.000000 -0.000854 0.000000
# 3 -0.004358 -0.001266 0.014747 0.000000 -0.000677 0.000000
# 4 0.000000 0.000000 0.000000 -0.122693 0.000000 0.032675
# 5 -0.001199 -0.000854 -0.000677 0.000000 0.024479 0.000000
# 6 0.000000 0.000000 0.000000 0.032675 0.000000 0.049873
#
#
# Mechanical properties :
#
#
# Convention : Reuss Voigt Hill
#
# Bulk Modulus (GPa) = 29.53291 30.88589 30.20940
# Shear Modulus (GPa) = 418.48071 24.79581 221.63826
#
# Velocity S-wave (km/s) = 13.88967 3.38099 10.10826
# Velocity P-wave (km/s) = 16.45738 5.42955 12.25409
#
# Compressibility (1/GPa) = 0.03386053
#
# Stress axis : x y z
#
# Youngs Moduli (GPa) = 77.45247 72.60823 67.80827
#
# Poissons Ratio (x) = -0.13350 0.29548
# Poissons Ratio (y) = -0.14241 0.08587
# Poissons Ratio (z) = 0.33751 0.09195
#
# Static dielectric constant tensor:
#      x y z
#    x 1.738730 0.000000 -0.009690 
#    y 0.000000 1.876780 0.000000 
#    z -0.009690 0.000000 1.759350 
# 
# From -- ./inp_files/24470.got.cif
#   From: 2010.05.17/outbox.cif.g08.bks.cpg/sg11_13_cif.got.tgz:24470.got - 2010.06.03 12:22:45.
