data_PCOD9156466
_publ_section_title
;
Structure prediction by ZEFSAII (Michael W. Deem and Ramdas Pophale) SiO2 
 PCOD9156466
Probable space group: P 21/M
;
_chemical_formula_sum "Si O2"
_cell_formula_units_Z 24
_cell_length_a 11.625027
_cell_length_b 8.685660
_cell_length_c 24.687115
_cell_angle_alpha 90.000000
_cell_angle_beta 35.022904
_cell_angle_gamma 90.000000
_cell_volume 1430.560637
_symmetry_space_group_name_H-M "P 21/M"
_symmetry_group_IT_number 11
_symmetry_cell_setting 'monoclinic'
loop_
_space_group_symop_operation_xyz
x,y,z
-x,1/2+y,-z
-x,-y,-z
x,1/2-y,z
loop_
_atom_site_type_symbol
_atom_site_label
_atom_site_fract_x
_atom_site_fract_y
_atom_site_fract_z
Si Si1 0.965707 0.936390 0.780217
Si Si2 0.652615 0.065051 0.812815
Si Si3 0.264471 0.565840 0.447654
Si Si4 0.425311 0.565288 0.585897
Si Si5 0.802419 0.934215 0.643268
Si Si6 0.656009 0.564851 0.983664
O O1 0.954827 0.750000 0.779081
O O2 0.195533 0.983159 0.685068
O O3 0.870247 0.979411 0.875625
O O4 0.825856 0.007978 0.787371
O O5 0.660414 0.250000 0.806523
O O6 0.693106 0.994238 0.738772
O O7 0.439097 0.017498 0.922243
O O8 0.280537 0.750000 0.442711
O O9 0.428687 0.493366 0.423412
O O10 0.281053 0.506391 0.379852
O O11 0.039245 0.523869 0.554246
O O12 0.500000 0.500000 0.500000
O O13 0.430317 0.750000 0.582147
O O14 0.789312 0.750000 0.645213
O O15 0.648390 0.750000 0.985851
O O16 0.500000 0.500000 0.000000
#
# Coordination Sequence:
#
# PCOD9156466 Si02
#       6
#     4   4   4   4   4   4
#     4   9  18  32  48  68  98 133 163 194 236 284
#     4  10  18  28  48  76 100 124 158 200 241 280
#     4  10  21  36  52  71  96 126 160 198 239 281
#     4  11  22  34  50  72  99 131 163 195 234 282
#     4  10  20  34  52  72  96 126 158 195 239 287
#     4   8  15  28  45  67  95 125 158 196 237 279
#
# _framework density 16.776638999999999
#
# number of rings (size 3 to 8) (size 9 to 14) (size 15 to 20)
#    0.000    2.333    0.000    3.000    0.000    8.000 
#    0.000    0.000    0.000    1.000    0.000    0.000 
#    0.000    0.000    0.000    0.000    0.000    0.000 
#
# Total GULP energy -133794.008903 kJ/mol
# GULP energy per Si atom -5574.750371 kJ/mol
# Density = 1.673846 g / cm^3
# Si number density = 16.776639 Si / 1000 Ang^3
#
#
#
# Elastic Constant Matrix: (Units=GPa)
#
#
# Indices 1 2 3 4 5 6 
#
# 1 86.4681 26.6075 76.4600 0.0000 5.3552 0.0000
# 2 26.6075 30.3758 38.7343 0.0000 1.8515 0.0000
# 3 76.4600 38.7343 181.2119 0.0000 19.3800 0.0000
# 4 0.0000 0.0000 0.0000 23.9869 0.0000 5.2709
# 5 5.3552 1.8515 19.3800 0.0000 27.8556 0.0000
# 6 0.0000 0.0000 0.0000 5.2709 0.0000 29.7301
#
#
#
# Elastic Compliance Matrix: (Units=1/GPa)
#
#
# Indices 1 2 3 4 5 6 
#
# 1 0.020277 -0.009274 -0.006722 0.000000 0.001395 0.000000
# 2 -0.009274 0.049919 -0.007123 0.000000 0.003421 0.000000
# 3 -0.006722 -0.007123 0.010467 0.000000 -0.005517 0.000000
# 4 0.000000 0.000000 0.000000 0.043380 0.000000 -0.007691
# 5 0.001395 0.003421 -0.005517 0.000000 0.039242 0.000000
# 6 0.000000 0.000000 0.000000 -0.007691 0.000000 0.034999
#
#
# Mechanical properties :
#
#
# Convention : Reuss Voigt Hill
#
# Bulk Modulus (GPa) = 29.04941 64.62884 46.83913
# Shear Modulus (GPa) = 19.53145 26.73144 23.13144
#
# Velocity S-wave (km/s) = 3.41575 3.99604 3.71723
# Velocity P-wave (km/s) = 5.73667 7.73937 6.81202
#
# Compressibility (1/GPa) = 0.03442410
#
# Stress axis : x y z
#
# Youngs Moduli (GPa) = 49.31805 20.03242 95.53551
#
# Poissons Ratio (x) = 0.18578 0.64222
# Poissons Ratio (y) = 0.45738 0.68050
# Poissons Ratio (z) = 0.33153 0.14269
#
# Static dielectric constant tensor:
#      x y z
#    x 1.518470 0.000000 0.004940 
#    y 0.000000 1.562810 0.000000 
#    z 0.004940 0.000000 1.606740 
# 
# From -- ./inp_files/37233.got.cif
#   From: 2010.05.17/outbox.cif.g08.bks.cpg/sg11_19_cif.got.tgz:37233.got - 2010.06.03 12:22:45.
