data_PCOD9156746
_publ_section_title
;
Structure prediction by ZEFSAII (Michael W. Deem and Ramdas Pophale) SiO2 
 PCOD9156746
Probable space group: P 21/M
;
_chemical_formula_sum "Si O2"
_cell_formula_units_Z 28
_cell_length_a 10.780507
_cell_length_b 13.798267
_cell_length_c 11.520867
_cell_angle_alpha 90.000000
_cell_angle_beta 107.758638
_cell_angle_gamma 90.000000
_cell_volume 1632.094873
_symmetry_space_group_name_H-M "P 21/M"
_symmetry_group_IT_number 11
_symmetry_cell_setting 'monoclinic'
loop_
_space_group_symop_operation_xyz
x,y,z
-x,1/2+y,-z
-x,-y,-z
x,1/2-y,z
loop_
_atom_site_type_symbol
_atom_site_label
_atom_site_fract_x
_atom_site_fract_y
_atom_site_fract_z
Si Si1 0.799583 0.495254 0.994566
Si Si2 0.751765 0.862519 0.632419
Si Si3 0.496647 0.358723 0.265400
Si Si4 0.605212 0.640415 0.025207
Si Si5 0.594345 0.360986 0.819080
Si Si6 0.582906 0.965673 0.413130
Si Si7 0.035134 0.366624 0.123809
O O1 0.708751 0.554102 0.057455
O O2 0.710317 0.436342 0.876943
O O3 0.882984 0.578002 0.952761
O O4 0.894612 0.416896 0.079830
O O5 0.755160 0.750000 0.600833
O O6 0.636509 0.870966 0.697099
O O7 0.711306 0.922203 0.507703
O O8 0.885278 0.887081 0.735397
O O9 0.544522 0.250000 0.301271
O O10 0.460566 0.367760 0.120428
O O11 0.594815 0.441223 0.334359
O O12 0.661859 0.750000 0.047961
O O13 0.498885 0.632238 0.095098
O O14 0.640409 0.250000 0.821434
O O15 0.505356 0.390390 0.684330
O O16 0.500000 0.000000 0.500000
O O17 0.031736 0.250000 0.106116
#
# Coordination Sequence:
#
# PCOD9156746 Si02
#       7
#     4   4   4   4   4   4   4
#     4  11  19  32  52  76 106 133 172 213 261 308
#     4   9  16  29  47  68  96 131 171 204 243 301
#     4   9  16  28  48  72  98 131 168 204 249 311
#     4  10  19  33  53  77 108 140 168 206 262 323
#     4  11  22  33  50  82 111 132 165 216 269 308
#     4  10  18  30  48  71 101 134 170 210 256 303
#     4  10  20  33  51  73 101 139 178 213 251 303
#
# _framework density 17.155866
#
# number of rings (size 3 to 8) (size 9 to 14) (size 15 to 20)
#    0.000    2.000    2.857    2.571    0.000    0.571 
#    0.000    0.000    0.000    2.571    0.000    0.000 
#    0.000    0.000    0.000    0.000    0.000    0.000 
#
# Total GULP energy -156067.296026 kJ/mol
# GULP energy per Si atom -5573.832001 kJ/mol
# Density = 1.711682 g / cm^3
# Si number density = 17.155866 Si / 1000 Ang^3
#
#
#
# Elastic Constant Matrix: (Units=GPa)
#
#
# Indices 1 2 3 4 5 6 
#
# 1 26.0073 32.6801 27.7642 0.0000 11.2398 0.0000
# 2 32.6801 119.3886 45.1463 0.0000 20.4259 0.0000
# 3 27.7642 45.1463 76.7439 0.0000 20.6076 0.0000
# 4 0.0000 0.0000 0.0000 29.3003 0.0000 6.1373
# 5 11.2398 20.4259 20.6076 0.0000 27.0010 0.0000
# 6 0.0000 0.0000 0.0000 6.1373 0.0000 25.4429
#
#
#
# Elastic Compliance Matrix: (Units=1/GPa)
#
#
# Indices 1 2 3 4 5 6 
#
# 1 0.077979 -0.012950 -0.018246 0.000000 -0.008738 0.000000
# 2 -0.012950 0.013309 -0.002375 0.000000 -0.002865 0.000000
# 3 -0.018246 -0.002375 0.023277 0.000000 -0.008373 0.000000
# 4 0.000000 0.000000 0.000000 0.035946 0.000000 -0.008671
# 5 -0.008738 -0.002865 -0.008373 0.000000 0.049231 0.000000
# 6 0.000000 0.000000 0.000000 -0.008671 0.000000 0.041395
#
#
# Mechanical properties :
#
#
# Convention : Reuss Voigt Hill
#
# Bulk Modulus (GPa) = 21.08732 48.14678 34.61705
# Shear Modulus (GPa) = 15.42790 24.11879 19.77334
#
# Velocity S-wave (km/s) = 3.00205 3.75355 3.39864
# Velocity P-wave (km/s) = 4.93302 6.84914 5.96848
#
# Compressibility (1/GPa) = 0.04742187
#
# Stress axis : x y z
#
# Youngs Moduli (GPa) = 12.82390 75.13656 42.96074
#
# Poissons Ratio (x) = 0.97305 0.78388
# Poissons Ratio (y) = 0.16607 0.10203
# Poissons Ratio (z) = 0.23399 0.17845
#
# Static dielectric constant tensor:
#      x y z
#    x 1.587680 0.000000 0.011930 
#    y 0.000000 1.631830 0.000000 
#    z 0.011930 0.000000 1.579890 
# 
# From -- ./inp_files/35289.got.cif
#   From: 2010.05.17/outbox.cif.g08.bks.cpg/sg11_18_cif.got.tgz:35289.got - 2010.06.03 12:22:45.
