data_PCOD9156688
_publ_section_title
;
Structure prediction by ZEFSAII (Michael W. Deem and Ramdas Pophale) SiO2 
 PCOD9156688
Probable space group: P 21/M
;
_chemical_formula_sum "Si O2"
_cell_formula_units_Z 24
_cell_length_a 14.732850
_cell_length_b 8.355649
_cell_length_c 12.647829
_cell_angle_alpha 90.000000
_cell_angle_beta 70.681731
_cell_angle_gamma 90.000000
_cell_volume 1469.314731
_symmetry_space_group_name_H-M "P 21/M"
_symmetry_group_IT_number 11
_symmetry_cell_setting 'monoclinic'
loop_
_space_group_symop_operation_xyz
x,y,z
-x,1/2+y,-z
-x,-y,-z
x,1/2-y,z
loop_
_atom_site_type_symbol
_atom_site_label
_atom_site_fract_x
_atom_site_fract_y
_atom_site_fract_z
Si Si1 0.964483 0.558089 0.898466
Si Si2 0.554654 0.940803 0.082191
Si Si3 0.653688 0.443277 0.437115
Si Si4 0.164749 0.945077 0.752993
Si Si5 0.492366 0.943916 0.335227
Si Si6 0.231997 0.940893 0.962514
O O1 0.959302 0.750000 0.899791
O O2 0.052927 0.506131 0.789134
O O3 0.857490 0.490524 0.929076
O O4 0.000000 0.500000 0.000000
O O5 0.550166 0.750000 0.085499
O O6 0.505971 0.000608 0.210249
O O7 0.665973 0.991648 0.041839
O O8 0.500000 0.000000 0.000000
O O9 0.655321 0.250000 0.437556
O O10 0.760298 0.499643 0.364880
O O11 0.603968 0.496535 0.565539
O O12 0.581421 0.496530 0.371866
O O13 0.164922 0.750000 0.753448
O O14 0.206251 0.995474 0.852220
O O15 0.494178 0.750000 0.334937
O O16 0.237670 0.750000 0.957694
#
# Coordination Sequence:
#
# PCOD9156688 Si02
#       6
#     4   4   4   4   4   4
#     4   9  16  26  40  63  92 122 152 183 220 271
#     4  11  22  34  47  66  90 122 159 195 229 268
#     4   9  15  27  46  66  92 122 146 177 223 274
#     4   8  14  24  42  66  91 120 148 172 216 274
#     4   9  18  29  43  66  91 116 151 188 224 266
#     4  10  18  30  45  64  89 121 154 189 229 272
#
# _framework density 16.334144999999999
#
# number of rings (size 3 to 8) (size 9 to 14) (size 15 to 20)
#    0.000    2.667    1.667    2.500    0.000    0.667 
#    0.000    0.833    0.000    0.000    0.000    1.167 
#    0.000    0.000    0.000    0.000    0.000    0.000 
#
# Total GULP energy -133624.169152 kJ/mol
# GULP energy per Si atom -5567.673715 kJ/mol
# Density = 1.629697 g / cm^3
# Si number density = 16.334145 Si / 1000 Ang^3
#
#
#
# Elastic Constant Matrix: (Units=GPa)
#
#
# Indices 1 2 3 4 5 6 
#
# 1 100.6404 15.1326 81.7225 0.0000 -27.7319 0.0000
# 2 15.1326 19.9481 15.9161 0.0000 -1.1514 0.0000
# 3 81.7225 15.9161 123.1313 0.0000 -31.6359 0.0000
# 4 0.0000 0.0000 0.0000 12.5436 0.0000 -1.0415
# 5 -27.7319 -1.1514 -31.6359 0.0000 34.3082 0.0000
# 6 0.0000 0.0000 0.0000 -1.0415 0.0000 23.5159
#
#
#
# Elastic Compliance Matrix: (Units=1/GPa)
#
#
# Indices 1 2 3 4 5 6 
#
# 1 0.023227 -0.007043 -0.012767 0.000000 0.006766 0.000000
# 2 -0.007043 0.059080 -0.005131 0.000000 -0.008442 0.000000
# 3 -0.012767 -0.005131 0.019084 0.000000 0.007105 0.000000
# 4 0.000000 0.000000 0.000000 0.080016 0.000000 0.003544
# 5 0.006766 -0.008442 0.007105 0.000000 0.040885 0.000000
# 6 0.000000 0.000000 0.000000 0.003544 0.000000 0.042681
#
#
# Mechanical properties :
#
#
# Convention : Reuss Voigt Hill
#
# Bulk Modulus (GPa) = 19.41446 52.14026 35.77736
# Shear Modulus (GPa) = 15.05915 22.80344 18.93130
#
# Velocity S-wave (km/s) = 3.03965 3.74044 3.40810
# Velocity P-wave (km/s) = 4.92249 7.11652 6.11865
#
# Compressibility (1/GPa) = 0.05150799
#
# Stress axis : x y z
#
# Youngs Moduli (GPa) = 43.05369 16.92629 52.40065
#
# Poissons Ratio (x) = 0.11921 0.66900
# Poissons Ratio (y) = 0.30322 0.26888
# Poissons Ratio (z) = 0.54967 0.08685
#
# Static dielectric constant tensor:
#      x y z
#    x 1.540550 0.000000 -0.056420 
#    y 0.000000 1.559820 0.000000 
#    z -0.056420 0.000000 1.584030 
# 
# From -- ./inp_files/36989.got.cif
#   From: 2010.05.17/outbox.cif.g08.bks.cpg/sg11_19_cif.got.tgz:36989.got - 2010.06.03 12:22:45.
