data_PCOD9156342
_publ_section_title
;
Structure prediction by ZEFSAII (Michael W. Deem and Ramdas Pophale) SiO2 
 PCOD9156342
Probable space group: P 21/M
;
_chemical_formula_sum "Si O2"
_cell_formula_units_Z 32
_cell_length_a 26.946011
_cell_length_b 9.115229
_cell_length_c 18.726320
_cell_angle_alpha 90.000000
_cell_angle_beta 28.713495
_cell_angle_gamma 90.000000
_cell_volume 2209.757916
_symmetry_space_group_name_H-M "P 21/M"
_symmetry_group_IT_number 11
_symmetry_cell_setting 'monoclinic'
loop_
_space_group_symop_operation_xyz
x,y,z
-x,1/2+y,-z
-x,-y,-z
x,1/2-y,z
loop_
_atom_site_type_symbol
_atom_site_label
_atom_site_fract_x
_atom_site_fract_y
_atom_site_fract_z
Si Si1 0.925106 0.919046 0.994297
Si Si2 0.836183 0.075690 0.703058
Si Si3 0.583908 0.925258 0.800126
Si Si4 0.991487 0.925262 0.246489
Si Si5 0.156304 0.918692 0.770710
Si Si6 0.767284 0.925318 0.462127
Si Si7 0.975701 0.924388 0.643155
Si Si8 0.630774 0.575381 0.906083
O O1 0.897827 0.750000 0.015070
O O2 0.851014 0.992721 0.146301
O O3 0.039844 0.920274 0.884933
O O4 0.937052 0.010323 0.906659
O O5 0.826667 0.250000 0.726305
O O6 0.918250 0.052032 0.535151
O O7 0.886343 0.998706 0.708660
O O8 0.727905 0.004670 0.818329
O O9 0.564532 0.750000 0.819709
O O10 0.669022 0.965911 0.633984
O O11 0.628086 0.953072 0.823973
O O12 0.477108 0.012119 0.928466
O O13 0.002724 0.750000 0.237442
O O14 0.872988 0.956933 0.372224
O O15 0.014838 0.001752 0.291817
O O16 0.184883 0.750000 0.746745
O O17 0.225402 0.993413 0.622659
O O18 0.765622 0.750000 0.452184
O O19 0.959157 0.750000 0.669975
O O20 0.637262 0.750000 0.908459
#
# Coordination Sequence:
#
# PCOD9156342 Si02
#       8
#     4   4   4   4   4   4   4   4
#     4   9  16  26  39  56  81 113 146 176 210 254
#     4  10  20  33  48  64  85 114 145 179 219 260
#     4   9  18  31  45  63  87 115 147 180 216 259
#     4  10  18  28  43  63  88 116 146 180 217 255
#     4   9  16  25  38  57  81 110 144 179 214 253
#     4   9  17  28  42  60  85 117 148 179 215 256
#     4  10  20  32  46  65  87 112 145 181 216 257
#     4  10  19  31  47  65  86 113 145 182 221 258
#
# _framework density 14.481223999999999
#
# number of rings (size 3 to 8) (size 9 to 14) (size 15 to 20)
#    0.000    2.500    0.000    3.000    0.000    7.000 
#    0.000    0.000    0.000    0.000    0.000    0.000 
#    0.000    1.000    0.000    3.750    0.000    5.750 
#
# Total GULP energy -178425.211552 kJ/mol
# GULP energy per Si atom -5575.787861 kJ/mol
# Density = 1.444826 g / cm^3
# Si number density = 14.481224 Si / 1000 Ang^3
#
#
#
# Elastic Constant Matrix: (Units=GPa)
#
#
# Indices 1 2 3 4 5 6 
#
# 1 94.0471 68.6574 61.6788 0.0000 11.4244 0.0000
# 2 68.6574 93.1320 65.9543 0.0000 9.6469 0.0000
# 3 61.6788 65.9543 108.5538 0.0000 15.0834 0.0000
# 4 0.0000 0.0000 0.0000 23.9192 0.0000 3.7676
# 5 11.4244 9.6469 15.0834 0.0000 26.5519 0.0000
# 6 0.0000 0.0000 0.0000 3.7676 0.0000 26.3793
#
#
#
# Elastic Compliance Matrix: (Units=1/GPa)
#
#
# Indices 1 2 3 4 5 6 
#
# 1 0.024749 -0.014521 -0.004878 0.000000 -0.002602 0.000000
# 2 -0.014521 0.027370 -0.008539 0.000000 0.001155 0.000000
# 3 -0.004878 -0.008539 0.017859 0.000000 -0.004944 0.000000
# 4 0.000000 0.000000 0.000000 0.042770 0.000000 -0.006109
# 5 -0.002602 0.001155 -0.004944 0.000000 0.041171 0.000000
# 6 0.000000 0.000000 0.000000 -0.006109 0.000000 0.038781
#
#
# Mechanical properties :
#
#
# Convention : Reuss Voigt Hill
#
# Bulk Modulus (GPa) = 70.91417 76.47932 73.69674
# Shear Modulus (GPa) = 19.74136 21.99956 20.87046
#
# Velocity S-wave (km/s) = 3.69621 3.90189 3.80044
# Velocity P-wave (km/s) = 8.20317 8.55728 8.38210
#
# Compressibility (1/GPa) = 0.01410155
#
# Stress axis : x y z
#
# Youngs Moduli (GPa) = 40.40575 36.53625 55.99558
#
# Poissons Ratio (x) = 0.53055 0.27314
# Poissons Ratio (y) = 0.58674 0.47815
# Poissons Ratio (z) = 0.19709 0.31198
#
# Static dielectric constant tensor:
#      x y z
#    x 1.450750 0.000000 0.011200 
#    y 0.000000 1.480930 0.000000 
#    z 0.011200 0.000000 1.460060 
# 
# From -- ./inp_files/60738.got.cif
#   From: 2010.05.17/outbox.cif.g08.bks.cpg/sg11_31_cif.got.tgz:60738.got - 2010.06.03 12:22:45.
