data_PCOD9156672
_publ_section_title
;
Structure prediction by ZEFSAII (Michael W. Deem and Ramdas Pophale) SiO2 
 PCOD9156672
Probable space group: P 21/M
;
_chemical_formula_sum "Si O2"
_cell_formula_units_Z 32
_cell_length_a 27.380007
_cell_length_b 13.651923
_cell_length_c 8.863586
_cell_angle_alpha 90.000000
_cell_angle_beta 33.592959
_cell_angle_gamma 90.000000
_cell_volume 1833.112132
_symmetry_space_group_name_H-M "P 21/M"
_symmetry_group_IT_number 11
_symmetry_cell_setting 'monoclinic'
loop_
_space_group_symop_operation_xyz
x,y,z
-x,1/2+y,-z
-x,-y,-z
x,1/2-y,z
loop_
_atom_site_type_symbol
_atom_site_label
_atom_site_fract_x
_atom_site_fract_y
_atom_site_fract_z
Si Si1 0.583750 0.136254 0.562165
Si Si2 0.193805 0.861264 0.715706
Si Si3 0.565827 0.969560 0.198059
Si Si4 0.279299 0.513243 0.998185
Si Si5 0.145851 0.006449 0.095377
Si Si6 0.132734 0.865847 0.559036
Si Si7 0.007291 0.634388 0.622036
Si Si8 0.397316 0.638207 0.135632
O O1 0.608823 0.250000 0.490020
O O2 0.485168 0.118060 0.753374
O O3 0.653528 0.076722 0.279569
O O4 0.584576 0.108906 0.737114
O O5 0.173310 0.750000 0.821820
O O6 0.130190 0.890624 0.741994
O O7 0.291536 0.858119 0.395432
O O8 0.192803 0.940875 0.848442
O O9 0.500000 0.000000 0.500000
O O10 0.659708 0.955131 0.039319
O O11 0.570459 0.059254 0.067593
O O12 0.215300 0.459359 0.043436
O O13 0.211901 0.579433 0.268972
O O14 0.076538 0.929562 0.347228
O O15 0.088648 0.092471 0.168976
O O16 0.152016 0.750000 0.501752
O O17 0.041788 0.882151 0.703644
O O18 0.013783 0.750000 0.572681
O O19 0.430674 0.750000 0.024990
#
# Coordination Sequence:
#
# PCOD9156672 Si02
#       8
#     4   4   4   4   4   4   4   4
#     4  10  20  33  52  75 101 132 169 213 258 300
#     4  10  18  29  50  81 103 126 164 213 261 300
#     4  10  21  33  49  75 105 135 165 204 254 307
#     4  10  18  31  49  75 101 133 170 206 254 300
#     4  10  19  32  53  77 102 134 171 211 252 299
#     4   9  17  29  49  75 102 128 161 207 254 301
#     4   9  19  34  51  74 104 135 168 206 251 304
#     4  10  19  33  53  78 102 129 165 213 264 303
#
# _framework density 17.456651000000001
#
# number of rings (size 3 to 8) (size 9 to 14) (size 15 to 20)
#    0.000    2.250    2.500    1.125    0.000    3.500 
#    0.000    0.625    0.000    1.500    0.000    0.000 
#    0.000    0.000    0.000    0.000    0.000    0.000 
#
# Total GULP energy -178168.703389 kJ/mol
# GULP energy per Si atom -5567.771981 kJ/mol
# Density = 1.741692 g / cm^3
# Si number density = 17.456651 Si / 1000 Ang^3
#
#
#
# Elastic Constant Matrix: (Units=GPa)
#
#
# Indices 1 2 3 4 5 6 
#
# 1 124.6786 15.6616 8.3349 0.0000 -20.0557 0.0000
# 2 15.6616 19.2528 2.0308 0.0000 -3.5178 0.0000
# 3 8.3349 2.0308 23.5951 0.0000 -6.5686 0.0000
# 4 0.0000 0.0000 0.0000 16.7241 0.0000 -6.9485
# 5 -20.0557 -3.5178 -6.5686 0.0000 29.3048 0.0000
# 6 0.0000 0.0000 0.0000 -6.9485 0.0000 23.0696
#
#
#
# Elastic Compliance Matrix: (Units=1/GPa)
#
#
# Indices 1 2 3 4 5 6 
#
# 1 0.009879 -0.006866 -0.001329 0.000000 0.005639 0.000000
# 2 -0.006866 0.058074 -0.002070 0.000000 0.001809 0.000000
# 3 -0.001329 -0.002070 0.045549 0.000000 0.009052 0.000000
# 4 0.000000 0.000000 0.000000 0.068347 0.000000 0.020586
# 5 0.005639 0.001809 0.009052 0.000000 0.040229 0.000000
# 6 0.000000 0.000000 0.000000 0.020586 0.000000 0.049548
#
#
# Mechanical properties :
#
#
# Convention : Reuss Voigt Hill
#
# Bulk Modulus (GPa) = 10.75570 24.39791 17.57680
# Shear Modulus (GPa) = 15.47285 23.25296 19.36291
#
# Velocity S-wave (km/s) = 2.98041 3.65367 3.33408
# Velocity P-wave (km/s) = 4.24482 5.63966 4.99120
#
# Compressibility (1/GPa) = 0.09297393
#
# Stress axis : x y z
#
# Youngs Moduli (GPa) = 101.22488 17.21927 21.95432
#
# Poissons Ratio (x) = 0.11822 0.02918
# Poissons Ratio (y) = 0.69499 0.04544
# Poissons Ratio (z) = 0.13453 0.03564
#
# Static dielectric constant tensor:
#      x y z
#    x 1.665700 0.000000 -0.012700 
#    y 0.000000 1.568490 0.000000 
#    z -0.012700 0.000000 1.578870 
# 
# From -- ./inp_files/21840.got.cif
#   From: 2010.05.17/outbox.cif.g08.bks.cpg/sg11_11_cif.got.tgz:21840.got - 2010.06.03 12:22:45.
