data_PCOD9156956
_publ_section_title
;
Structure prediction by ZEFSAII (Michael W. Deem and Ramdas Pophale) SiO2 
 PCOD9156956
Probable space group: P 21/M
;
_chemical_formula_sum "Si O2"
_cell_formula_units_Z 32
_cell_length_a 5.180327
_cell_length_b 21.683437
_cell_length_c 17.543876
_cell_angle_alpha 90.000000
_cell_angle_beta 59.243608
_cell_angle_gamma 90.000000
_cell_volume 1693.482086
_symmetry_space_group_name_H-M "P 21/M"
_symmetry_group_IT_number 11
_symmetry_cell_setting 'monoclinic'
loop_
_space_group_symop_operation_xyz
x,y,z
-x,1/2+y,-z
-x,-y,-z
x,1/2-y,z
loop_
_atom_site_type_symbol
_atom_site_label
_atom_site_fract_x
_atom_site_fract_y
_atom_site_fract_z
Si Si1 0.859803 0.984434 0.290657
Si Si2 0.328696 0.946456 0.919939
Si Si3 0.203842 0.396560 0.257905
Si Si4 0.337031 0.063074 0.408791
Si Si5 0.872300 0.471649 0.897060
Si Si6 0.262928 0.817919 0.611779
Si Si7 0.521934 0.178954 0.583769
Si Si8 0.964062 0.400060 0.606095
O O1 0.057579 0.948473 0.322239
O O2 0.539833 0.001081 0.376550
O O3 0.980505 0.053294 0.254174
O O4 0.902783 0.950329 0.203772
O O5 0.503357 0.899268 0.838627
O O6 0.570107 0.001201 0.903445
O O7 0.052076 0.974646 0.914842
O O8 0.220443 0.926019 0.020284
O O9 0.239345 0.424905 0.337144
O O10 0.044710 0.331860 0.297516
O O11 0.530004 0.124429 0.398756
O O12 0.090793 0.064564 0.512321
O O13 0.384498 0.750000 0.611980
O O14 0.242625 0.820715 0.522998
O O15 0.473207 0.250000 0.612918
O O16 0.220198 0.147912 0.596667
O O17 0.671066 0.137593 0.626278
#
# Coordination Sequence:
#
# PCOD9156956 Si02
#       8
#     4   4   4   4   4   4   4   4
#     4  10  21  31  47  72 107 132 165 199 243 306
#     4   9  17  29  48  68  96 127 159 191 242 282
#     4  10  18  31  49  70 102 131 162 203 249 296
#     4  10  19  32  44  71 102 137 163 201 247 295
#     4   9  17  30  46  69  97 129 157 195 231 287
#     4   9  19  33  48  68  95 131 172 209 245 289
#     4  10  21  37  52  70  95 127 172 217 246 281
#     4  11  22  33  51  73  99 136 166 200 251 298
#
# _framework density 18.895976999999998
#
# number of rings (size 3 to 8) (size 9 to 14) (size 15 to 20)
#    0.000    2.250    2.500    0.750    1.750    1.500 
#    0.000    0.000    0.000    0.000    0.000    1.750 
#    0.000    0.000    0.000    0.000    0.000    0.000 
#
# Total GULP energy -178214.001232 kJ/mol
# GULP energy per Si atom -5569.187539 kJ/mol
# Density = 1.885297 g / cm^3
# Si number density = 18.895977 Si / 1000 Ang^3
#
#
#
# Elastic Constant Matrix: (Units=GPa)
#
#
# Indices 1 2 3 4 5 6 
#
# 1 63.4387 13.5051 1.1164 0.0000 7.2096 0.0000
# 2 13.5051 70.3102 17.5499 0.0000 2.0604 0.0000
# 3 1.1164 17.5499 89.6539 0.0000 12.2828 0.0000
# 4 0.0000 0.0000 0.0000 17.2405 0.0000 0.2252
# 5 7.2096 2.0604 12.2828 0.0000 27.7496 0.0000
# 6 0.0000 0.0000 0.0000 0.2252 0.0000 15.9781
#
#
#
# Elastic Compliance Matrix: (Units=1/GPa)
#
#
# Indices 1 2 3 4 5 6 
#
# 1 0.016996 -0.003401 0.001091 0.000000 -0.004646 0.000000
# 2 -0.003401 0.015635 -0.003173 0.000000 0.001127 0.000000
# 3 0.001091 -0.003173 0.012528 0.000000 -0.005593 0.000000
# 4 0.000000 0.000000 0.000000 0.058013 0.000000 -0.000818
# 5 -0.004646 0.001127 -0.005593 0.000000 0.039636 0.000000
# 6 0.000000 0.000000 0.000000 -0.000818 0.000000 0.062597
#
#
# Mechanical properties :
#
#
# Convention : Reuss Voigt Hill
#
# Bulk Modulus (GPa) = 29.24566 31.97175 30.60871
# Shear Modulus (GPa) = 21.95220 24.94241 23.44730
#
# Velocity S-wave (km/s) = 3.41213 3.63710 3.52641
# Velocity P-wave (km/s) = 5.57084 5.88172 5.72839
#
# Compressibility (1/GPa) = 0.03419310
#
# Stress axis : x y z
#
# Youngs Moduli (GPa) = 58.83745 63.96008 79.82304
#
# Poissons Ratio (x) = 0.21750 -0.08705
# Poissons Ratio (y) = 0.20008 0.25324
# Poissons Ratio (z) = -0.06416 0.20292
#
# Static dielectric constant tensor:
#      x y z
#    x 1.749140 0.000000 -0.032920 
#    y 0.000000 1.658170 0.000000 
#    z -0.032920 0.000000 1.748750 
# 
# From -- ./inp_files/7062.got.cif
#   From: 2010.05.17/outbox.cif.g08.bks.cpg/sg11_4_cif.got.tgz:7062.got - 2010.06.03 12:22:45.
