data_PCOD9156664
_publ_section_title
;
Structure prediction by ZEFSAII (Michael W. Deem and Ramdas Pophale) SiO2 
 PCOD9156664
Probable space group: P 21/M
;
_chemical_formula_sum "Si O2"
_cell_formula_units_Z 32
_cell_length_a 20.412858
_cell_length_b 8.825459
_cell_length_c 12.223337
_cell_angle_alpha 90.000000
_cell_angle_beta 121.844179
_cell_angle_gamma 90.000000
_cell_volume 1870.626961
_symmetry_space_group_name_H-M "P 21/M"
_symmetry_group_IT_number 11
_symmetry_cell_setting 'monoclinic'
loop_
_space_group_symop_operation_xyz
x,y,z
-x,1/2+y,-z
-x,-y,-z
x,1/2-y,z
loop_
_atom_site_type_symbol
_atom_site_label
_atom_site_fract_x
_atom_site_fract_y
_atom_site_fract_z
Si Si1 0.326512 0.432610 0.743698
Si Si2 0.256579 0.431352 0.913099
Si Si3 0.899981 0.431024 0.308498
Si Si4 0.073955 0.430560 0.428463
Si Si5 0.537547 0.932368 0.289093
Si Si6 0.366244 0.933162 0.186186
Si Si7 0.644385 0.432116 0.569959
Si Si8 0.782612 0.069223 0.538197
O O1 0.318863 0.250000 0.727820
O O2 0.307510 0.474928 0.850971
O O3 0.410162 0.476116 0.769238
O O4 0.264504 0.508201 0.608403
O O5 0.253193 0.250000 0.915013
O O6 0.171564 0.496551 0.817227
O O7 0.297746 0.497044 0.055663
O O8 0.890743 0.250000 0.306132
O O9 0.903984 0.496644 0.435051
O O10 0.983803 0.464732 0.330193
O O11 0.082806 0.250000 0.444842
O O12 0.133454 0.495299 0.392837
O O13 0.537834 0.750000 0.295830
O O14 0.449058 0.982115 0.210422
O O15 0.581100 0.994664 0.434600
O O16 0.361499 0.750000 0.177026
O O17 0.363540 0.977865 0.311286
O O18 0.635569 0.250000 0.555846
O O19 0.728182 0.470028 0.593040
O O20 0.789360 0.250000 0.537515
#
# Coordination Sequence:
#
# PCOD9156664 Si02
#       8
#     4   4   4   4   4   4   4   4
#     4   9  18  32  48  71 103 133 165 208 256 300
#     4  11  22  34  50  72 104 139 172 209 248 299
#     4  10  20  33  51  75 104 136 167 200 244 299
#     4  10  19  31  50  78 107 132 162 203 248 295
#     4   9  18  33  54  76  98 130 169 214 262 304
#     4  10  21  36  52  71 100 137 175 213 256 302
#     4   9  19  34  52  76 102 130 169 218 259 295
#     4  10  18  29  50  77 103 132 167 206 253 303
#
# _framework density 17.106565
#
# number of rings (size 3 to 8) (size 9 to 14) (size 15 to 20)
#    0.000    2.250    1.250    1.875    0.000    4.000 
#    0.000    0.000    0.000    0.750    0.000    0.000 
#    0.000    0.000    0.000    0.000    0.000    0.000 
#
# Total GULP energy -178527.194905 kJ/mol
# GULP energy per Si atom -5578.974841 kJ/mol
# Density = 1.706763 g / cm^3
# Si number density = 17.106565 Si / 1000 Ang^3
#
#
#
# Elastic Constant Matrix: (Units=GPa)
#
#
# Indices 1 2 3 4 5 6 
#
# 1 65.8336 15.1770 17.4822 0.0000 29.4013 0.0000
# 2 15.1770 16.7963 9.4984 0.0000 10.0335 0.0000
# 3 17.4822 9.4984 55.0371 0.0000 23.7057 0.0000
# 4 0.0000 0.0000 0.0000 21.9438 0.0000 1.8411
# 5 29.4013 10.0335 23.7057 0.0000 22.1651 0.0000
# 6 0.0000 0.0000 0.0000 1.8411 0.0000 20.7977
#
#
#
# Elastic Compliance Matrix: (Units=1/GPa)
#
#
# Indices 1 2 3 4 5 6 
#
# 1 0.049677 -0.005244 0.023149 0.000000 -0.088279 0.000000
# 2 -0.005244 0.082499 0.000959 0.000000 -0.031415 0.000000
# 3 0.023149 0.000959 0.044617 0.000000 -0.078858 0.000000
# 4 0.000000 0.000000 0.000000 0.045912 0.000000 -0.004064
# 5 -0.088279 -0.031415 -0.078858 0.000000 0.260775 0.000000
# 6 0.000000 0.000000 0.000000 -0.004064 0.000000 0.048442
#
#
# Mechanical properties :
#
#
# Convention : Reuss Voigt Hill
#
# Bulk Modulus (GPa) = 4.66153 24.66468 14.66310
# Shear Modulus (GPa) = 8.83860 19.34862 14.09361
#
# Velocity S-wave (km/s) = 2.27552 3.36678 2.87343
# Velocity P-wave (km/s) = 3.10402 5.43720 4.42708
#
# Compressibility (1/GPa) = 0.21452188
#
# Stress axis : x y z
#
# Youngs Moduli (GPa) = 20.13012 12.12133 22.41302
#
# Poissons Ratio (x) = 0.06356 -0.51884
# Poissons Ratio (y) = 0.10555 -0.02149
# Poissons Ratio (z) = -0.46599 -0.01162
#
# Static dielectric constant tensor:
#      x y z
#    x 1.617230 0.000000 0.006300 
#    y 0.000000 1.570150 0.000000 
#    z 0.006300 0.000000 1.528970 
# 
# From -- ./inp_files/42772.got.cif
#   From: 2010.05.17/outbox.cif.g08.bks.cpg/sg11_22_cif.got.tgz:42772.got - 2010.06.03 12:22:45.
