data_PCOD9156876
_publ_section_title
;
Structure prediction by ZEFSAII (Michael W. Deem and Ramdas Pophale) SiO2 
 PCOD9156876
Probable space group: P 21/M
;
_chemical_formula_sum "Si O2"
_cell_formula_units_Z 32
_cell_length_a 12.104198
_cell_length_b 8.747166
_cell_length_c 20.109357
_cell_angle_alpha 90.000000
_cell_angle_beta 120.480859
_cell_angle_gamma 90.000000
_cell_volume 1834.878830
_symmetry_space_group_name_H-M "P 21/M"
_symmetry_group_IT_number 11
_symmetry_cell_setting 'monoclinic'
loop_
_space_group_symop_operation_xyz
x,y,z
-x,1/2+y,-z
-x,-y,-z
x,1/2-y,z
loop_
_atom_site_type_symbol
_atom_site_label
_atom_site_fract_x
_atom_site_fract_y
_atom_site_fract_z
Si Si1 0.611871 0.065548 0.079536
Si Si2 0.168556 0.065374 0.258795
Si Si3 0.384287 0.067867 0.772314
Si Si4 0.882959 0.426164 0.322833
Si Si5 0.848509 0.067413 0.598094
Si Si6 0.575364 0.433241 0.459654
Si Si7 0.571851 0.067397 0.710922
Si Si8 0.891266 0.073156 0.163531
O O1 0.612362 0.250000 0.077571
O O2 0.753962 0.007909 0.100458
O O3 0.596098 0.012555 0.150831
O O4 0.500000 0.000000 0.000000
O O5 0.166398 0.250000 0.261088
O O6 0.030783 0.008457 0.188776
O O7 0.179522 0.003309 0.337584
O O8 0.289231 0.007961 0.254373
O O9 0.378302 0.250000 0.780386
O O10 0.498671 0.031611 0.756776
O O11 0.248412 0.012115 0.700643
O O12 0.876425 0.250000 0.341955
O O13 0.888623 0.428588 0.243523
O O14 0.016025 0.501852 0.385625
O O15 0.858628 0.250000 0.608283
O O16 0.725991 0.032259 0.515086
O O17 0.500000 0.500000 0.500000
O O18 0.559528 0.250000 0.453548
O O19 0.514847 0.505591 0.375750
O O20 0.584343 0.250000 0.708691
O O21 0.891975 0.250000 0.142207
#
# Coordination Sequence:
#
# PCOD9156876 Si02
#       8
#     4   4   4   4   4   4   4   4
#     4  10  19  34  58  86 113 138 169 210 259 314
#     4  10  18  30  51  75 101 137 179 221 264 310
#     4  10  21  37  55  77 107 141 177 217 262 317
#     4   9  17  31  52  75 100 133 173 218 267 317
#     4  10  19  31  49  74 102 132 174 226 273 317
#     4  11  22  34  51  74 103 138 180 227 271 319
#     4  11  23  36  51  74 106 142 179 221 271 321
#     4   7  14  28  47  75 104 130 164 207 253 301
#
# _framework density 17.439843
#
# number of rings (size 3 to 8) (size 9 to 14) (size 15 to 20)
#    0.000    2.250    1.250    4.125    0.000    3.500 
#    0.000    2.500    0.000    0.750    0.000    0.000 
#    0.000    0.000    0.000    0.000    0.000    0.000 
#
# Total GULP energy -178428.457032 kJ/mol
# GULP energy per Si atom -5575.889282 kJ/mol
# Density = 1.740015 g / cm^3
# Si number density = 17.439843 Si / 1000 Ang^3
#
#
#
# Elastic Constant Matrix: (Units=GPa)
#
#
# Indices 1 2 3 4 5 6 
#
# 1 136.4937 50.3626 63.9691 0.0000 34.7974 0.0000
# 2 50.3626 59.3062 33.8632 0.0000 11.8697 0.0000
# 3 63.9691 33.8632 82.0372 0.0000 31.2178 0.0000
# 4 0.0000 0.0000 0.0000 23.6833 0.0000 5.8262
# 5 34.7974 11.8697 31.2178 0.0000 30.8166 0.0000
# 6 0.0000 0.0000 0.0000 5.8262 0.0000 28.1718
#
#
#
# Elastic Compliance Matrix: (Units=1/GPa)
#
#
# Indices 1 2 3 4 5 6 
#
# 1 0.014801 -0.008016 -0.004959 0.000000 -0.008602 0.000000
# 2 -0.008016 0.026429 -0.006883 0.000000 0.005844 0.000000
# 3 -0.004959 -0.006883 0.025643 0.000000 -0.017726 0.000000
# 4 0.000000 0.000000 0.000000 0.044487 0.000000 -0.009200
# 5 -0.008602 0.005844 -0.017726 0.000000 0.057869 0.000000
# 6 0.000000 0.000000 0.000000 -0.009200 0.000000 0.037399
#
#
# Mechanical properties :
#
#
# Convention : Reuss Voigt Hill
#
# Bulk Modulus (GPa) = 36.82236 63.80298 50.31267
# Shear Modulus (GPa) = 19.57745 25.17715 22.37730
#
# Velocity S-wave (km/s) = 3.35411 3.80367 3.58594
# Velocity P-wave (km/s) = 6.01331 7.48028 6.78655
#
# Compressibility (1/GPa) = 0.02715741
#
# Stress axis : x y z
#
# Youngs Moduli (GPa) = 67.56272 37.83729 38.99712
#
# Poissons Ratio (x) = 0.30329 0.19340
# Poissons Ratio (y) = 0.54156 0.26841
# Poissons Ratio (z) = 0.33506 0.26042
#
# Static dielectric constant tensor:
#      x y z
#    x 1.615850 0.000000 0.031480 
#    y 0.000000 1.564640 0.000000 
#    z 0.031480 0.000000 1.575650 
# 
# From -- ./inp_files/64246.got.cif
#   From: 2010.05.17/outbox.cif.g08.bks.cpg/sg11_33_cif.got.tgz:64246.got - 2010.06.03 12:22:45.
