data_PCOD9156069
_publ_section_title
;
Structure prediction by ZEFSAII (Michael W. Deem and Ramdas Pophale) SiO2 
 PCOD9156069
Probable space group: P 21/M
;
_chemical_formula_sum "Si O2"
_cell_formula_units_Z 28
_cell_length_a 7.656154
_cell_length_b 14.570816
_cell_length_c 11.091265
_cell_angle_alpha 90.000000
_cell_angle_beta 93.038224
_cell_angle_gamma 90.000000
_cell_volume 1235.562565
_symmetry_space_group_name_H-M "P 21/M"
_symmetry_group_IT_number 11
_symmetry_cell_setting 'monoclinic'
loop_
_space_group_symop_operation_xyz
x,y,z
-x,1/2+y,-z
-x,-y,-z
x,1/2-y,z
loop_
_atom_site_type_symbol
_atom_site_label
_atom_site_fract_x
_atom_site_fract_y
_atom_site_fract_z
Si Si1 0.986877 0.604091 0.958952
Si Si2 0.128585 0.850386 0.713475
Si Si3 0.280205 0.356072 0.391336
Si Si4 0.531257 0.140566 0.928633
Si Si5 0.860630 0.652523 0.196560
Si Si6 0.619278 0.942042 0.845103
Si Si7 0.162373 0.023479 0.590924
O O1 0.113045 0.632286 0.856215
O O2 0.794887 0.609154 0.895891
O O3 0.986408 0.654775 0.085769
O O4 0.000000 0.500000 0.000000
O O5 0.200472 0.750000 0.693963
O O6 0.926646 0.853595 0.656979
O O7 0.231379 0.928200 0.645801
O O8 0.335908 0.250000 0.401443
O O9 0.383591 0.412749 0.293507
O O10 0.285273 0.409941 0.518465
O O11 0.584638 0.250000 0.925456
O O12 0.335844 0.138609 0.862083
O O13 0.625149 0.052939 0.865893
O O14 0.517541 0.102847 0.065911
O O15 0.867457 0.750000 0.261400
O O16 0.905001 0.574341 0.291849
O O17 0.000000 0.000000 0.500000
#
# Coordination Sequence:
#
# PCOD9156069 Si02
#       7
#     4   4   4   4   4   4   4
#     4  10  17  30  52  76 107 133 166 212 261 310
#     4   9  17  30  47  68 101 139 168 201 252 310
#     4   9  17  30  50  73  96 131 176 209 243 304
#     4   9  18  34  55  77 102 134 175 220 263 308
#     4  10  19  32  53  77 101 136 180 217 253 306
#     4   9  18  32  54  76 103 136 172 212 264 308
#     4  10  19  31  49  72 103 134 172 215 254 300
#
# _framework density 22.661742
#
# number of rings (size 3 to 8) (size 9 to 14) (size 15 to 20)
#    0.000    2.571    1.429    1.286    0.000    4.000 
#    0.000    2.857    0.000    0.857    0.000    0.000 
#    0.000    0.000    0.000    0.000    0.000    0.000 
#
# Total GULP energy -156113.629742 kJ/mol
# GULP energy per Si atom -5575.486776 kJ/mol
# Density = 2.261016 g / cm^3
# Si number density = 22.661742 Si / 1000 Ang^3
#
#
#
# Elastic Constant Matrix: (Units=GPa)
#
#
# Indices 1 2 3 4 5 6 
#
# 1 59.5480 7.9276 9.3515 0.0000 7.2667 0.0000
# 2 7.9276 196.7116 88.1174 0.0000 -23.7255 0.0000
# 3 9.3515 88.1174 145.4489 0.0000 -18.3222 0.0000
# 4 0.0000 0.0000 0.0000 24.0451 0.0000 -3.0771
# 5 7.2667 -23.7255 -18.3222 0.0000 12.5331 0.0000
# 6 0.0000 0.0000 0.0000 -3.0771 0.0000 13.4569
#
#
#
# Elastic Compliance Matrix: (Units=1/GPa)
#
#
# Indices 1 2 3 4 5 6 
#
# 1 0.019719 -0.001959 -0.002437 0.000000 -0.018704 0.000000
# 2 -0.001959 0.008023 -0.003283 0.000000 0.011524 0.000000
# 3 -0.002437 -0.003283 0.010316 0.000000 0.010279 0.000000
# 4 0.000000 0.000000 0.000000 0.042842 0.000000 0.009797
# 5 -0.018704 0.011524 0.010279 0.000000 0.127476 0.000000
# 6 0.000000 0.000000 0.000000 0.009797 0.000000 0.076552
#
#
# Mechanical properties :
#
#
# Convention : Reuss Voigt Hill
#
# Bulk Modulus (GPa) = 44.05326 68.05574 56.05450
# Shear Modulus (GPa) = 16.24151 29.76115 23.00133
#
# Velocity S-wave (km/s) = 2.68002 3.62785 3.18934
# Velocity P-wave (km/s) = 5.39058 6.90251 6.19286
#
# Compressibility (1/GPa) = 0.02269980
#
# Stress axis : x y z
#
# Youngs Moduli (GPa) = 50.71197 124.64010 96.93927
#
# Poissons Ratio (x) = 0.24415 0.23627
# Poissons Ratio (y) = 0.09934 0.31825
# Poissons Ratio (z) = 0.12360 0.40919
#
# Static dielectric constant tensor:
#      x y z
#    x 1.995590 0.000000 0.019500 
#    y 0.000000 1.755540 0.000000 
#    z 0.019500 0.000000 1.836050 
# 
# From -- ./inp_files/34320.got.cif
#   From: 2010.05.17/outbox.cif.g08.bks.cpg/sg11_18_cif.got.tgz:34320.got - 2010.06.03 12:22:45.
