data_PCOD9156817
_publ_section_title
;
Structure prediction by ZEFSAII (Michael W. Deem and Ramdas Pophale) SiO2 
 PCOD9156817
Probable space group: P 21/M
;
_chemical_formula_sum "Si O2"
_cell_formula_units_Z 20
_cell_length_a 10.311577
_cell_length_b 10.963246
_cell_length_c 8.619716
_cell_angle_alpha 90.000000
_cell_angle_beta 124.418667
_cell_angle_gamma 90.000000
_cell_volume 803.848084
_symmetry_space_group_name_H-M "P 21/M"
_symmetry_group_IT_number 11
_symmetry_cell_setting 'monoclinic'
loop_
_space_group_symop_operation_xyz
x,y,z
-x,1/2+y,-z
-x,-y,-z
x,1/2-y,z
loop_
_atom_site_type_symbol
_atom_site_label
_atom_site_fract_x
_atom_site_fract_y
_atom_site_fract_z
Si Si1 0.407371 0.885336 0.365383
Si Si2 0.072550 0.383420 0.965967
Si Si3 0.807157 0.888085 0.288134
Si Si4 0.765080 0.382668 0.458206
Si Si5 0.411527 0.440815 0.124865
O O1 0.476050 0.750000 0.427358
O O2 0.397097 0.920872 0.178599
O O3 0.500000 0.000000 0.500000
O O4 0.419913 0.886243 0.721619
O O5 0.014377 0.250000 0.976994
O O6 0.748504 0.384881 0.633798
O O7 0.263076 0.383974 0.119270
O O8 0.000000 0.500000 0.000000
O O9 0.804020 0.750000 0.346662
O O10 0.927369 0.893502 0.223125
O O11 0.830135 0.994403 0.426684
O O12 0.643318 0.917204 0.087389
O O13 0.826972 0.250000 0.448014
#
# Coordination Sequence:
#
# PCOD9156817 Si02
#       5
#     4   4   4   4   4
#     4   9  19  32  48  73 104 136 169 202 243 297
#     4   9  19  34  51  72  98 128 167 212 251 291
#     4   9  19  33  49  73 104 132 162 205 251 296
#     4  10  18  30  49  76 107 133 160 199 245 301
#     4   9  18  32  50  72 102 133 164 202 245 291
#
# _framework density 24.880323000000001
#
# number of rings (size 3 to 8) (size 9 to 14) (size 15 to 20)
#    1.200    1.600    0.000    1.800    0.000    7.200 
#    0.000    0.000    0.000    1.200    0.000    0.000 
#    0.000    0.000    0.000    0.000    0.000    0.000 
#
# Total GULP energy -111504.368956 kJ/mol
# GULP energy per Si atom -5575.218448 kJ/mol
# Density = 2.482369 g / cm^3
# Si number density = 24.880323 Si / 1000 Ang^3
#
#
#
# Elastic Constant Matrix: (Units=GPa)
#
#
# Indices 1 2 3 4 5 6 
#
# 1 94.5824 69.6506 16.0363 0.0000 -4.1912 0.0000
# 2 69.6506 290.7946 52.1634 0.0000 -22.8112 0.0000
# 3 16.0363 52.1634 76.5292 0.0000 5.3665 0.0000
# 4 0.0000 0.0000 0.0000 35.3642 0.0000 -7.9782
# 5 -4.1912 -22.8112 5.3665 0.0000 34.5873 0.0000
# 6 0.0000 0.0000 0.0000 -7.9782 0.0000 31.7191
#
#
#
# Elastic Compliance Matrix: (Units=1/GPa)
#
#
# Indices 1 2 3 4 5 6 
#
# 1 0.012871 -0.002994 -0.000634 0.000000 -0.000316 0.000000
# 2 -0.002994 0.004956 -0.002987 0.000000 0.003369 0.000000
# 3 -0.000634 -0.002987 0.015549 0.000000 -0.004459 0.000000
# 4 0.000000 0.000000 0.000000 0.029978 0.000000 0.007540
# 5 -0.000316 0.003369 -0.004459 0.000000 0.031788 0.000000
# 6 0.000000 0.000000 0.000000 0.007540 0.000000 0.033423
#
#
# Mechanical properties :
#
#
# Convention : Reuss Voigt Hill
#
# Bulk Modulus (GPa) = 49.63923 81.95632 65.79778
# Shear Modulus (GPa) = 33.66764 41.93785 37.80275
#
# Velocity S-wave (km/s) = 3.68255 4.11004 3.90216
# Velocity P-wave (km/s) = 6.17059 7.45218 6.84146
#
# Compressibility (1/GPa) = 0.02014536
#
# Stress axis : x y z
#
# Youngs Moduli (GPa) = 77.69393 201.77245 64.31487
#
# Poissons Ratio (x) = 0.60409 0.04079
# Poissons Ratio (y) = 0.23261 0.19211
# Poissons Ratio (z) = 0.04927 0.60270
#
# Static dielectric constant tensor:
#      x y z
#    x 2.111170 0.000000 0.077710 
#    y 0.000000 1.927020 0.000000 
#    z 0.077710 0.000000 2.163430 
# 
# From -- ./inp_files/40836.got.cif
#   From: 2010.05.17/outbox.cif.g08.bks.cpg/sg11_21_cif.got.tgz:40836.got - 2010.06.03 12:22:45.
