data_PCOD9156450
_publ_section_title
;
Structure prediction by ZEFSAII (Michael W. Deem and Ramdas Pophale) SiO2 
 PCOD9156450
Probable space group: P 21/M
;
_chemical_formula_sum "Si O2"
_cell_formula_units_Z 28
_cell_length_a 9.611394
_cell_length_b 17.417225
_cell_length_c 13.020051
_cell_angle_alpha 90.000000
_cell_angle_beta 31.298808
_cell_angle_gamma 90.000000
_cell_volume 1132.308315
_symmetry_space_group_name_H-M "P 21/M"
_symmetry_group_IT_number 11
_symmetry_cell_setting 'monoclinic'
loop_
_space_group_symop_operation_xyz
x,y,z
-x,1/2+y,-z
-x,-y,-z
x,1/2-y,z
loop_
_atom_site_type_symbol
_atom_site_label
_atom_site_fract_x
_atom_site_fract_y
_atom_site_fract_z
Si Si1 0.246392 0.947851 0.684065
Si Si2 0.559057 0.157860 0.049162
Si Si3 0.389725 0.340501 0.440282
Si Si4 0.114524 0.656418 0.361373
Si Si5 0.058540 0.161392 0.249137
Si Si6 0.955542 0.603371 0.144936
Si Si7 0.392616 0.160809 0.823648
O O1 0.345123 0.889767 0.708598
O O2 0.172882 0.896842 0.633006
O O3 0.500000 0.000000 0.500000
O O4 0.028184 0.011489 0.848884
O O5 0.545213 0.250000 0.057632
O O6 0.724325 0.133315 0.843351
O O7 0.745150 0.134681 0.025945
O O8 0.255419 0.134237 0.215193
O O9 0.446470 0.250000 0.396167
O O10 0.216108 0.355888 0.654382
O O11 0.190841 0.365085 0.473612
O O12 0.111542 0.750000 0.367023
O O13 0.308826 0.632619 0.332223
O O14 0.978275 0.250000 0.316701
O O15 0.229252 0.160511 0.034568
O O16 0.783014 0.619493 0.151924
O O17 0.412594 0.250000 0.779066
#
# Coordination Sequence:
#
# PCOD9156450 Si02
#       7
#     4   4   4   4   4   4   4
#     4  10  21  32  45  69  98 128 162 192 227 276
#     4   8  14  27  48  71  92 118 154 193 233 277
#     4   9  16  30  50  66  88 127 170 202 223 263
#     4   7  12  24  44  68  88 114 156 197 230 267
#     4   9  18  33  52  71  92 121 158 195 230 276
#     4  10  18  28  46  75 103 120 145 193 250 290
#     4   9  16  28  49  74  95 116 148 195 246 287
#
# _framework density 24.728248000000001
#
# number of rings (size 3 to 8) (size 9 to 14) (size 15 to 20)
#    0.000    3.143    0.000    4.286    0.000    1.143 
#    0.000    0.714    0.000    3.429    0.000   10.000 
#    0.000    0.000    0.000    0.000    0.000    0.000 
#
# Total GULP energy -156429.633644 kJ/mol
# GULP energy per Si atom -5586.772630 kJ/mol
# Density = 2.467197 g / cm^3
# Si number density = 24.728248 Si / 1000 Ang^3
#
#
#
# Elastic Constant Matrix: (Units=GPa)
#
#
# Indices 1 2 3 4 5 6 
#
# 1 214.9943 47.4447 36.7792 0.0000 -23.1569 0.0000
# 2 47.4447 77.8246 12.1952 0.0000 -24.1856 0.0000
# 3 36.7792 12.1952 55.8779 0.0000 -23.8509 0.0000
# 4 0.0000 0.0000 0.0000 16.7334 0.0000 -13.8924
# 5 -23.1569 -24.1856 -23.8509 0.0000 60.0795 0.0000
# 6 0.0000 0.0000 0.0000 -13.8924 0.0000 -20.1119
#
#
#
# Elastic Compliance Matrix: (Units=1/GPa)
#
#
# Indices 1 2 3 4 5 6 
#
# 1 0.005883 -0.003168 -0.003320 0.000000 -0.000326 0.000000
# 2 -0.003168 0.016424 0.000965 0.000000 0.005774 0.000000
# 3 -0.003320 0.000965 0.023467 0.000000 0.008425 0.000000
# 4 0.000000 0.000000 0.000000 0.037980 0.000000 -0.026235
# 5 -0.000326 0.005774 0.008425 0.000000 0.022188 0.000000
# 6 0.000000 0.000000 0.000000 -0.026235 0.000000 -0.031600
#
#
# Mechanical properties :
#
#
# Convention : Reuss Voigt Hill
#
# Bulk Modulus (GPa) = 28.79488 60.17056 44.48272
# Shear Modulus (GPa) = 51.56601 28.15870 39.86236
#
# Velocity S-wave (km/s) = 4.57147 3.37816 4.01935
# Velocity P-wave (km/s) = 6.28763 6.29297 6.29030
#
# Compressibility (1/GPa) = 0.03472840
#
# Stress axis : x y z
#
# Youngs Moduli (GPa) = 169.97595 60.88833 42.61321
#
# Poissons Ratio (x) = 0.19287 0.14148
# Poissons Ratio (y) = 0.53840 -0.04112
# Poissons Ratio (z) = 0.56432 -0.05875
#
# Static dielectric constant tensor:
#      x y z
#    x 1.964910 0.000000 0.044820 
#    y 0.000000 1.884210 0.000000 
#    z 0.044820 0.000000 2.152730 
# 
# From -- ./inp_files/47993.got.cif
#   From: 2010.05.17/outbox.cif.g08.bks.cpg/sg11_24_cif.got.tgz:47993.got - 2010.06.03 12:22:45.
