data_PCOD9156587
_publ_section_title
;
Structure prediction by ZEFSAII (Michael W. Deem and Ramdas Pophale) SiO2 
 PCOD9156587
Probable space group: P 21/M
;
_chemical_formula_sum "Si O2"
_cell_formula_units_Z 32
_cell_length_a 16.273802
_cell_length_b 7.768609
_cell_length_c 16.136279
_cell_angle_alpha 90.000000
_cell_angle_beta 55.603811
_cell_angle_gamma 90.000000
_cell_volume 1683.329582
_symmetry_space_group_name_H-M "P 21/M"
_symmetry_group_IT_number 11
_symmetry_cell_setting 'monoclinic'
loop_
_space_group_symop_operation_xyz
x,y,z
-x,1/2+y,-z
-x,-y,-z
x,1/2-y,z
loop_
_atom_site_type_symbol
_atom_site_label
_atom_site_fract_x
_atom_site_fract_y
_atom_site_fract_z
Si Si1 0.863832 0.457457 0.908290
Si Si2 0.446456 0.049086 0.143918
Si Si3 0.169319 0.959587 0.887766
Si Si4 0.655056 0.049100 0.960629
Si Si5 0.379267 0.957999 0.691369
Si Si6 0.716094 0.039397 0.427459
Si Si7 0.588110 0.049564 0.650999
Si Si8 0.919275 0.456073 0.233358
O O1 0.860412 0.250000 0.912225
O O2 0.762775 0.523068 0.922914
O O3 0.968353 0.502987 0.807024
O O4 0.863645 0.521457 0.003601
O O5 0.448724 0.250000 0.119839
O O6 0.371697 0.965022 0.120872
O O7 0.417339 0.032846 0.255675
O O8 0.558044 0.976792 0.063777
O O9 0.164995 0.750000 0.891032
O O10 0.283871 0.004702 0.802044
O O11 0.104371 0.020780 0.846602
O O12 0.659285 0.250000 0.982031
O O13 0.387426 0.750000 0.688344
O O14 0.351304 0.010358 0.613521
O O15 0.481057 0.032252 0.667758
O O16 0.714567 0.250000 0.429914
O O17 0.668592 0.978044 0.540046
O O18 0.828727 0.983215 0.343071
O O19 0.609852 0.250000 0.652074
O O20 0.909840 0.250000 0.235664
#
# Coordination Sequence:
#
# PCOD9156587 Si02
#       8
#     4   4   4   4   4   4   4   4
#     4  10  18  29  47  71  97 124 154 190 237 283
#     4  10  20  35  54  74  96 124 156 189 230 285
#     4   8  15  28  46  67  96 131 159 187 229 280
#     4   9  19  35  53  73  99 126 150 186 239 290
#     4   9  16  30  49  68  94 130 167 196 229 279
#     4   8  17  32  48  66  94 132 166 197 236 278
#     4  11  20  30  47  72  99 126 158 197 241 283
#     4   9  17  31  48  66  92 129 168 197 224 266
#
# _framework density 19.009944000000001
#
# number of rings (size 3 to 8) (size 9 to 14) (size 15 to 20)
#    0.000    2.750    0.000    3.750    0.000    3.000 
#    0.000    6.250    0.000    0.750    0.000    0.000 
#    0.000    0.000    0.000    0.000    0.000    0.000 
#
# Total GULP energy -178493.651122 kJ/mol
# GULP energy per Si atom -5577.926598 kJ/mol
# Density = 1.896668 g / cm^3
# Si number density = 19.009944 Si / 1000 Ang^3
#
#
#
# Elastic Constant Matrix: (Units=GPa)
#
#
# Indices 1 2 3 4 5 6 
#
# 1 103.3657 -5.1273 57.8536 0.0000 -22.7824 0.0000
# 2 -5.1273 23.4211 -6.0459 0.0000 -1.4035 0.0000
# 3 57.8536 -6.0459 118.4946 0.0000 -3.0404 0.0000
# 4 0.0000 0.0000 0.0000 10.8631 0.0000 -0.5339
# 5 -22.7824 -1.4035 -3.0404 0.0000 16.8892 0.0000
# 6 0.0000 0.0000 0.0000 -0.5339 0.0000 21.0335
#
#
#
# Elastic Compliance Matrix: (Units=1/GPa)
#
#
# Indices 1 2 3 4 5 6 
#
# 1 0.021103 0.003813 -0.009414 0.000000 0.027088 0.000000
# 2 0.003813 0.044228 0.000624 0.000000 0.008931 0.000000
# 3 -0.009414 0.000624 0.012802 0.000000 -0.010342 0.000000
# 4 0.000000 0.000000 0.000000 0.092170 0.000000 0.002340
# 5 0.027088 0.008931 -0.010342 0.000000 0.094630 0.000000
# 6 0.000000 0.000000 0.000000 0.002340 0.000000 0.047602
#
#
# Mechanical properties :
#
#
# Convention : Reuss Voigt Hill
#
# Bulk Modulus (GPa) = 14.66722 37.62690 26.14706
# Shear Modulus (GPa) = 14.48376 22.99723 18.74050
#
# Velocity S-wave (km/s) = 2.76326 3.48192 3.14319
# Velocity P-wave (km/s) = 4.23238 6.00010 5.19203
#
# Compressibility (1/GPa) = 0.06817926
#
# Stress axis : x y z
#
# Youngs Moduli (GPa) = 47.38726 22.61031 78.11437
#
# Poissons Ratio (x) = -0.08621 0.73533
# Poissons Ratio (y) = -0.18069 -0.04875
# Poissons Ratio (z) = 0.44608 -0.01411
#
# Static dielectric constant tensor:
#      x y z
#    x 1.652050 0.000000 -0.019420 
#    y 0.000000 1.706740 0.000000 
#    z -0.019420 0.000000 1.664370 
# 
# From -- ./inp_files/51615.got.cif
#   From: 2010.05.17/outbox.cif.g08.bks.cpg/sg11_26_cif.got.tgz:51615.got - 2010.06.03 12:22:45.
