data_PCOD9156293
_publ_section_title
;
Structure prediction by ZEFSAII (Michael W. Deem and Ramdas Pophale) SiO2 
 PCOD9156293
Probable space group: P 21/M
;
_chemical_formula_sum "Si O2"
_cell_formula_units_Z 32
_cell_length_a 20.709350
_cell_length_b 10.904149
_cell_length_c 13.439615
_cell_angle_alpha 90.000000
_cell_angle_beta 140.924397
_cell_angle_gamma 90.000000
_cell_volume 1913.037990
_symmetry_space_group_name_H-M "P 21/M"
_symmetry_group_IT_number 11
_symmetry_cell_setting 'monoclinic'
loop_
_space_group_symop_operation_xyz
x,y,z
-x,1/2+y,-z
-x,-y,-z
x,1/2-y,z
loop_
_atom_site_type_symbol
_atom_site_label
_atom_site_fract_x
_atom_site_fract_y
_atom_site_fract_z
Si Si1 0.121359 0.385249 0.075879
Si Si2 0.349764 0.468630 0.363647
Si Si3 0.002341 0.887178 0.862905
Si Si4 0.561239 0.116413 0.700299
Si Si5 0.668131 0.110139 0.463298
Si Si6 0.512642 0.477758 0.855469
Si Si7 0.796265 0.606724 0.514153
Si Si8 0.643769 0.611781 0.167577
O O1 0.099548 0.250000 0.007010
O O2 0.242018 0.400871 0.236936
O O3 0.064135 0.390304 0.114161
O O4 0.080007 0.500241 0.963486
O O5 0.375951 0.515362 0.285009
O O6 0.445775 0.391565 0.518684
O O7 0.345317 0.582514 0.435856
O O8 0.048397 0.750000 0.911584
O O9 0.917314 0.902368 0.675522
O O10 0.605067 0.250000 0.733300
O O11 0.551703 0.092893 0.805886
O O12 0.702469 0.250000 0.487467
O O13 0.561303 0.084591 0.277631
O O14 0.742672 0.000852 0.514264
O O15 0.438164 0.402377 0.839959
O O16 0.604728 0.525183 0.033714
O O17 0.768417 0.750000 0.508738
O O18 0.751925 0.587555 0.350463
O O19 0.642223 0.750000 0.128643
#
# Coordination Sequence:
#
# PCOD9156293 Si02
#       8
#     4   4   4   4   4   4   4   4
#     4  10  19  32  49  69  96 130 164 199 241 288
#     4  10  20  32  47  69  95 130 169 202 235 279
#     4   9  18  31  47  71  98 125 161 201 241 289
#     4  10  20  33  48  67  96 133 170 200 233 283
#     4  10  18  27  43  66  96 127 158 198 237 276
#     4   9  18  29  43  67  93 123 160 199 239 283
#     4   9  17  30  47  68  94 126 159 191 236 291
#     4   9  16  28  47  66  90 123 157 195 241 289
#
# _framework density 16.727321
#
# number of rings (size 3 to 8) (size 9 to 14) (size 15 to 20)
#    0.000    2.500    1.250    1.500    0.000    4.500 
#    0.000    2.500    0.000    0.000    0.000    0.875 
#    0.000    0.000    0.000    0.000    0.000    0.000 
#
# Total GULP energy -178176.698957 kJ/mol
# GULP energy per Si atom -5568.021842 kJ/mol
# Density = 1.668925 g / cm^3
# Si number density = 16.727321 Si / 1000 Ang^3
#
#
#
# Elastic Constant Matrix: (Units=GPa)
#
#
# Indices 1 2 3 4 5 6 
#
# 1 26.6978 9.3674 3.0885 0.0000 -6.3288 0.0000
# 2 9.3674 93.6215 31.0303 0.0000 4.3715 0.0000
# 3 3.0885 31.0303 69.8501 0.0000 -3.8730 0.0000
# 4 0.0000 0.0000 0.0000 6.7037 0.0000 5.6195
# 5 -6.3288 4.3715 -3.8730 0.0000 19.8905 0.0000
# 6 0.0000 0.0000 0.0000 5.6195 0.0000 1.0026
#
#
#
# Elastic Compliance Matrix: (Units=1/GPa)
#
#
# Indices 1 2 3 4 5 6 
#
# 1 0.042778 -0.005434 0.001358 0.000000 0.015070 0.000000
# 2 -0.005434 0.013519 -0.006092 0.000000 -0.005886 0.000000
# 3 0.001358 -0.006092 0.017247 0.000000 0.005129 0.000000
# 4 0.000000 0.000000 0.000000 -0.040332 0.000000 0.226065
# 5 0.015070 -0.005886 0.005129 0.000000 0.057363 0.000000
# 6 0.000000 0.000000 0.000000 0.226065 0.000000 -0.269682
#
#
# Mechanical properties :
#
#
# Convention : Reuss Voigt Hill
#
# Bulk Modulus (GPa) = 18.79394 30.79353 24.79374
# Shear Modulus (GPa) = -35.45192 15.29824 -10.07684
#
# Velocity S-wave (km/s) = -4.60869 3.02746 -2.45708
# Velocity P-wave (km/s) = 4.13040 5.53803 2.60860
#
# Compressibility (1/GPa) = 0.05320864
#
# Stress axis : x y z
#
# Youngs Moduli (GPa) = 23.37645 73.97023 57.98130
#
# Poissons Ratio (x) = 0.40195 -0.07874
# Poissons Ratio (y) = 0.12703 0.35321
# Poissons Ratio (z) = -0.03175 0.45061
#
# Static dielectric constant tensor:
#      x y z
#    x 1.543090 0.000000 0.002700 
#    y 0.000000 1.589200 0.000000 
#    z 0.002700 0.000000 1.578440 
# 
# From -- ./inp_files/41247.got.cif
#   From: 2010.05.17/outbox.cif.g08.bks.cpg/sg11_21_cif.got.tgz:41247.got - 2010.06.03 12:22:45.
