data_PCOD9156159
_publ_section_title
;
Structure prediction by ZEFSAII (Michael W. Deem and Ramdas Pophale) SiO2 
 PCOD9156159
Probable space group: P 21/M
;
_chemical_formula_sum "Si O2"
_cell_formula_units_Z 20
_cell_length_a 4.981396
_cell_length_b 15.476080
_cell_length_c 12.691143
_cell_angle_alpha 90.000000
_cell_angle_beta 78.886029
_cell_angle_gamma 90.000000
_cell_volume 960.042665
_symmetry_space_group_name_H-M "P 21/M"
_symmetry_group_IT_number 11
_symmetry_cell_setting 'monoclinic'
loop_
_space_group_symop_operation_xyz
x,y,z
-x,1/2+y,-z
-x,-y,-z
x,1/2-y,z
loop_
_atom_site_type_symbol
_atom_site_label
_atom_site_fract_x
_atom_site_fract_y
_atom_site_fract_z
Si Si1 0.745895 0.094442 0.882283
Si Si2 0.193871 0.750000 0.960386
Si Si3 0.761188 0.750000 0.826764
Si Si4 0.499582 0.007457 0.624545
Si Si5 0.064250 0.061404 0.248719
Si Si6 0.695619 0.650864 0.232936
O O1 0.445001 0.103179 0.855849
O O2 0.980512 0.136360 0.789835
O O3 0.833371 0.993624 0.862721
O O4 0.765466 0.159713 0.979179
O O5 0.433846 0.750000 0.856154
O O6 0.892391 0.750000 0.934226
O O7 0.868994 0.661556 0.768784
O O8 0.441811 0.107013 0.657008
O O9 0.500000 0.000000 0.500000
O O10 0.769582 0.976477 0.664196
O O11 0.251253 0.956951 0.701490
O O12 0.632253 0.750000 0.226372
#
# Coordination Sequence:
#
# PCOD9156159 Si02
#       6
#     4   2   2   4   4   4
#     4  10  20  35  60  84 113 151 188 253 281 326
#     4  12  22  36  62  87 114 155 212 236 278 356
#     4  12  26  40  58  85 124 167 188 234 290 358
#     4  10  21  39  64  86 114 151 196 239 286 360
#     4  10  23  42  59  84 125 155 191 241 303 335
#     4  10  17  33  56  86 116 141 182 243 307 326
#
# _framework density 20.832405999999999
#
# number of rings (size 3 to 8) (size 9 to 14) (size 15 to 20)
#    0.000    1.600    2.000    3.000    0.000    1.600 
#    3.600    0.000    0.000    0.000    0.000    0.000 
#    0.000    0.000    0.000    0.000    0.000    0.000 
#
# Total GULP energy -111548.061989 kJ/mol
# GULP energy per Si atom -5577.403099 kJ/mol
# Density = 2.078499 g / cm^3
# Si number density = 20.832406 Si / 1000 Ang^3
#
#
#
# Elastic Constant Matrix: (Units=GPa)
#
#
# Indices 1 2 3 4 5 6 
#
# 1 68.9661 -4.5952 -3.0881 0.0000 5.1810 0.0000
# 2 -4.5952 113.1958 2.6495 0.0000 -16.0680 0.0000
# 3 -3.0881 2.6495 29.0071 0.0000 3.1091 0.0000
# 4 0.0000 0.0000 0.0000 26.2703 0.0000 -5.5899
# 5 5.1810 -16.0680 3.1091 0.0000 19.1446 0.0000
# 6 0.0000 0.0000 0.0000 -5.5899 0.0000 21.2593
#
#
#
# Elastic Compliance Matrix: (Units=1/GPa)
#
#
# Indices 1 2 3 4 5 6 
#
# 1 0.014921 -0.000072 0.002070 0.000000 -0.004435 0.000000
# 2 -0.000072 0.010128 -0.001879 0.000000 0.008825 0.000000
# 3 0.002070 -0.001879 0.035717 0.000000 -0.007938 0.000000
# 4 0.000000 0.000000 0.000000 0.040322 0.000000 0.010602
# 5 -0.004435 0.008825 -0.007938 0.000000 0.062130 0.000000
# 6 0.000000 0.000000 0.000000 0.010602 0.000000 0.049826
#
#
# Mechanical properties :
#
#
# Convention : Reuss Voigt Hill
#
# Bulk Modulus (GPa) = 16.39208 22.34459 19.36833
# Shear Modulus (GPa) = 21.44632 27.74835 24.59734
#
# Velocity S-wave (km/s) = 3.21202 3.65359 3.43990
# Velocity P-wave (km/s) = 4.65206 5.34298 5.00945
#
# Compressibility (1/GPa) = 0.06100508
#
# Stress axis : x y z
#
# Youngs Moduli (GPa) = 67.01994 98.73616 27.99773
#
# Poissons Ratio (x) = 0.00714 -0.05797
# Poissons Ratio (y) = 0.00484 0.05260
# Poissons Ratio (z) = -0.13876 0.18550
#
# Static dielectric constant tensor:
#      x y z
#    x 1.726860 0.000000 0.018460 
#    y 0.000000 1.796080 0.000000 
#    z 0.018460 0.000000 1.742590 
# 
# From -- ./inp_files/4259.got.cif
#   From: 2010.05.17/outbox.cif.g08.bks.cpg/sg11_3_cif.got.tgz:4259.got - 2010.06.03 12:22:45.
