data_PCOD9156029
_publ_section_title
;
Structure prediction by ZEFSAII (Michael W. Deem and Ramdas Pophale) SiO2 
 PCOD9156029
Probable space group: P 21/M
;
_chemical_formula_sum "Si O2"
_cell_formula_units_Z 28
_cell_length_a 15.218111
_cell_length_b 14.444677
_cell_length_c 9.924617
_cell_angle_alpha 90.000000
_cell_angle_beta 39.725772
_cell_angle_gamma 90.000000
_cell_volume 1394.313898
_symmetry_space_group_name_H-M "P 21/M"
_symmetry_group_IT_number 11
_symmetry_cell_setting 'monoclinic'
loop_
_space_group_symop_operation_xyz
x,y,z
-x,1/2+y,-z
-x,-y,-z
x,1/2-y,z
loop_
_atom_site_type_symbol
_atom_site_label
_atom_site_fract_x
_atom_site_fract_y
_atom_site_fract_z
Si Si1 0.593528 0.587723 0.933612
Si Si2 0.483913 0.637497 0.632893
Si Si3 0.943789 0.137797 0.869695
Si Si4 0.696737 0.353080 0.675753
Si Si5 0.256770 0.360842 0.519130
Si Si6 0.743629 0.447369 0.900752
Si Si7 0.286559 0.862012 0.637304
O O1 0.677716 0.619433 0.704460
O O2 0.695145 0.552609 0.931053
O O3 0.500000 0.500000 0.000000
O O4 0.469641 0.653396 0.122654
O O5 0.479580 0.750000 0.641238
O O6 0.635881 0.605440 0.494199
O O7 0.420045 0.607620 0.565473
O O8 0.379678 0.602300 0.871394
O O9 0.937256 0.250000 0.848335
O O10 0.099702 0.108785 0.712627
O O11 0.878115 0.078921 0.825607
O O12 0.845295 0.121425 0.113825
O O13 0.755534 0.250000 0.610950
O O14 0.751457 0.405624 0.741636
O O15 0.727263 0.400161 0.496598
O O16 0.252161 0.250000 0.539680
O O17 0.299036 0.750000 0.607507
#
# Coordination Sequence:
#
# PCOD9156029 Si02
#       7
#     4   4   4   4   4   4   4
#     4  10  19  29  47  75  99 121 159 199 242 276
#     4   9  15  28  49  71  90 120 163 199 230 273
#     4   9  18  32  50  72  93 124 166 196 227 284
#     4  10  17  29  51  74  98 123 155 201 242 278
#     4  10  18  30  52  73  94 123 161 201 235 275
#     4  10  18  30  50  71  97 127 158 194 236 281
#     4   8  16  29  48  72  94 120 158 197 236 282
#
# _framework density 20.081561000000001
#
# number of rings (size 3 to 8) (size 9 to 14) (size 15 to 20)
#    0.000    2.571    2.857    2.571    0.000    0.571 
#    0.000    2.857    3.143    3.429    0.000    0.000 
#    0.000    0.000    0.000    0.000    0.000    0.000 
#
# Total GULP energy -156087.531651 kJ/mol
# GULP energy per Si atom -5574.554702 kJ/mol
# Density = 2.003585 g / cm^3
# Si number density = 20.081561 Si / 1000 Ang^3
#
#
#
# Elastic Constant Matrix: (Units=GPa)
#
#
# Indices 1 2 3 4 5 6 
#
# 1 125.3947 11.1457 65.9336 0.0000 -5.1586 0.0000
# 2 11.1457 27.9320 -5.2325 0.0000 -0.3894 0.0000
# 3 65.9336 -5.2325 71.8315 0.0000 0.3639 0.0000
# 4 0.0000 0.0000 0.0000 -75.5867 0.0000 -5.5890
# 5 -5.1586 -0.3894 0.3639 0.0000 43.4639 0.0000
# 6 0.0000 0.0000 0.0000 -5.5890 0.0000 21.7054
#
#
#
# Elastic Compliance Matrix: (Units=1/GPa)
#
#
# Indices 1 2 3 4 5 6 
#
# 1 0.018182 -0.010496 -0.017465 0.000000 0.002210 0.000000
# 2 -0.010496 0.042360 0.012725 0.000000 -0.000973 0.000000
# 3 -0.017465 0.012725 0.030890 0.000000 -0.002217 0.000000
# 4 0.000000 0.000000 0.000000 -0.012983 0.000000 -0.003343
# 5 0.002210 -0.000973 -0.002217 0.000000 0.023280 0.000000
# 6 0.000000 0.000000 0.000000 -0.003343 0.000000 0.045211
#
#
# Mechanical properties :
#
#
# Convention : Reuss Voigt Hill
#
# Bulk Modulus (GPa) = 16.40425 40.98354 28.69390
# Shear Modulus (GPa) = 25.28690 8.13729 16.71209
#
# Velocity S-wave (km/s) = 3.55238 2.01517 2.88794
# Velocity P-wave (km/s) = 5.00125 5.08600 5.04380
#
# Compressibility (1/GPa) = 0.06095980
#
# Stress axis : x y z
#
# Youngs Moduli (GPa) = 55.00037 23.60745 32.37270
#
# Poissons Ratio (x) = 0.24778 0.56538
# Poissons Ratio (y) = 0.57728 -0.41193
# Poissons Ratio (z) = 0.96056 -0.30040
#
# Static dielectric constant tensor:
#      x y z
#    x 1.729310 0.000000 0.000020 
#    y 0.000000 1.917780 0.000000 
#    z 0.000020 0.000000 1.712210 
# 
# From -- ./inp_files/22699.got.cif
#   From: 2010.05.17/outbox.cif.g08.bks.cpg/sg11_12_cif.got.tgz:22699.got - 2010.06.03 12:22:45.
