data_PCOD9156365
_publ_section_title
;
Structure prediction by ZEFSAII (Michael W. Deem and Ramdas Pophale) SiO2 
 PCOD9156365
Probable space group: P 21/M
;
_chemical_formula_sum "Si O2"
_cell_formula_units_Z 32
_cell_length_a 14.647655
_cell_length_b 8.253991
_cell_length_c 32.637104
_cell_angle_alpha 90.000000
_cell_angle_beta 152.240127
_cell_angle_gamma 90.000000
_cell_volume 1837.860037
_symmetry_space_group_name_H-M "P 21/M"
_symmetry_group_IT_number 11
_symmetry_cell_setting 'monoclinic'
loop_
_space_group_symop_operation_xyz
x,y,z
-x,1/2+y,-z
-x,-y,-z
x,1/2-y,z
loop_
_atom_site_type_symbol
_atom_site_label
_atom_site_fract_x
_atom_site_fract_y
_atom_site_fract_z
Si Si1 0.882971 0.438446 0.838483
Si Si2 0.681462 0.441686 0.995293
Si Si3 0.285024 0.554202 0.402234
Si Si4 0.897186 0.050719 0.756298
Si Si5 0.509288 0.441885 0.163358
Si Si6 0.298606 0.440458 0.882759
Si Si7 0.893786 0.939354 0.284819
Si Si8 0.191839 0.058256 0.100974
O O1 0.835774 0.250000 0.821852
O O2 0.811251 0.502741 0.765799
O O3 0.816128 0.512539 0.854633
O O4 0.117109 0.462683 0.927737
O O5 0.715939 0.250000 0.015972
O O6 0.582502 0.462582 0.911416
O O7 0.518087 0.506708 0.962712
O O8 0.500000 0.500000 0.500000
O O9 0.275908 0.750000 0.398706
O O10 0.223588 0.501854 0.331839
O O11 0.114251 0.497599 0.365695
O O12 0.906040 0.250000 0.759882
O O13 0.123227 0.991003 0.840895
O O14 0.476357 0.250000 0.143621
O O15 0.741505 0.473518 0.254198
O O16 0.388299 0.495376 0.155236
O O17 0.321863 0.250000 0.901515
O O18 0.199647 0.448702 0.798060
O O19 0.900230 0.750000 0.298583
O O20 0.186623 0.250000 0.096651
O O21 0.000000 0.000000 0.000000
#
# Coordination Sequence:
#
# PCOD9156365 Si02
#       8
#     4   4   4   4   4   4   4   4
#     4  11  21  31  45  65  90 125 167 205 239 280
#     4  10  18  28  44  63  88 124 162 201 243 281
#     4   9  17  32  54  79 104 129 155 186 231 289
#     4   8  16  31  47  65  95 128 157 192 235 286
#     4  10  19  30  46  67  91 120 161 207 246 283
#     4   7  12  25  43  61  84 120 158 188 225 273
#     4   8  15  28  47  70  97 126 153 186 235 287
#     4  11  22  34  48  66  91 125 165 211 253 287
#
# _framework density 17.411553999999999
#
# number of rings (size 3 to 8) (size 9 to 14) (size 15 to 20)
#    0.000    2.750    1.250    3.750    0.000    2.500 
#    0.000    1.250    0.000    6.750    0.000    0.875 
#    0.000    0.000    0.000    0.000    0.000    0.000 
#
# Total GULP energy -178269.234993 kJ/mol
# GULP energy per Si atom -5570.913594 kJ/mol
# Density = 1.737192 g / cm^3
# Si number density = 17.411554 Si / 1000 Ang^3
#
#
#
# Elastic Constant Matrix: (Units=GPa)
#
#
# Indices 1 2 3 4 5 6 
#
# 1 165.8030 20.8815 48.3406 0.0000 -0.3472 0.0000
# 2 20.8815 18.3585 2.9995 0.0000 0.8428 0.0000
# 3 48.3406 2.9995 73.7543 0.0000 10.6157 0.0000
# 4 0.0000 0.0000 0.0000 17.2599 0.0000 4.6665
# 5 -0.3472 0.8428 10.6157 0.0000 20.8731 0.0000
# 6 0.0000 0.0000 0.0000 4.6665 0.0000 21.6610
#
#
#
# Elastic Compliance Matrix: (Units=1/GPa)
#
#
# Indices 1 2 3 4 5 6 
#
# 1 0.008976 -0.009391 -0.006018 0.000000 0.003589 0.000000
# 2 -0.009391 0.064687 0.004233 0.000000 -0.004921 0.000000
# 3 -0.006018 0.004233 0.018742 0.000000 -0.009803 0.000000
# 4 0.000000 0.000000 0.000000 0.061521 0.000000 -0.013254
# 5 0.003589 -0.004921 -0.009803 0.000000 0.053153 0.000000
# 6 0.000000 0.000000 0.000000 -0.013254 0.000000 0.049021
#
#
# Mechanical properties :
#
#
# Convention : Reuss Voigt Hill
#
# Bulk Modulus (GPa) = 14.27511 44.70656 29.49084
# Shear Modulus (GPa) = 16.56712 24.33839 20.45275
#
# Velocity S-wave (km/s) = 3.08799 3.74281 3.43106
# Velocity P-wave (km/s) = 4.57501 6.66411 5.71581
#
# Compressibility (1/GPa) = 0.07005199
#
# Stress axis : x y z
#
# Youngs Moduli (GPa) = 111.40799 15.45910 53.35742
#
# Poissons Ratio (x) = 0.14518 0.32109
# Poissons Ratio (y) = 1.04625 -0.22585
# Poissons Ratio (z) = 0.67043 -0.06543
#
# Static dielectric constant tensor:
#      x y z
#    x 1.652060 0.000000 -0.000750 
#    y 0.000000 1.652410 0.000000 
#    z -0.000750 0.000000 1.618800 
# 
# From -- ./inp_files/73310.got.cif
#   From: 2010.05.17/outbox.cif.g08.bks.cpg/sg11_37_cif.got.tgz:73310.got - 2010.06.03 12:22:45.
