data_PCOD9156184
_publ_section_title
;
Structure prediction by ZEFSAII (Michael W. Deem and Ramdas Pophale) SiO2 
 PCOD9156184
Probable space group: P 21/M
;
_chemical_formula_sum "Si O2"
_cell_formula_units_Z 28
_cell_length_a 14.306740
_cell_length_b 18.647269
_cell_length_c 6.138684
_cell_angle_alpha 90.000000
_cell_angle_beta 107.516386
_cell_angle_gamma 90.000000
_cell_volume 1561.750016
_symmetry_space_group_name_H-M "P 21/M"
_symmetry_group_IT_number 11
_symmetry_cell_setting 'monoclinic'
loop_
_space_group_symop_operation_xyz
x,y,z
-x,1/2+y,-z
-x,-y,-z
x,1/2-y,z
loop_
_atom_site_type_symbol
_atom_site_label
_atom_site_fract_x
_atom_site_fract_y
_atom_site_fract_z
Si Si1 0.585299 0.446005 0.142157
Si Si2 0.724447 0.669664 0.227969
Si Si3 0.896323 0.925850 0.353962
Si Si4 0.761657 0.477656 0.953994
Si Si5 0.452693 0.167330 0.238022
Si Si6 0.925354 0.473206 0.764041
Si Si7 0.357619 0.060987 0.474964
O O1 0.536774 0.369254 0.151437
O O2 0.617182 0.486846 0.385786
O O3 0.500000 0.500000 0.000000
O O4 0.674784 0.442201 0.033577
O O5 0.719300 0.750000 0.314008
O O6 0.836413 0.646436 0.265034
O O7 0.690738 0.610698 0.377241
O O8 0.648550 0.666861 0.973418
O O9 0.007940 0.924551 0.347049
O O10 0.896231 0.957472 0.598303
O O11 0.834871 0.985438 0.176476
O O12 0.832046 0.439881 0.824087
O O13 0.709342 0.538689 0.773987
O O14 0.471713 0.250000 0.311563
O O15 0.440688 0.112051 0.430103
O O16 0.000000 0.500000 0.000000
#
# Coordination Sequence:
#
# PCOD9156184 Si02
#       7
#     4   4   4   4   4   4   4
#     4  12  21  34  55  80 109 146 192 236 272 327
#     4  11  21  34  53  81 118 149 177 227 286 341
#     4  10  17  35  50  81 111 137 181 225 273 329
#     4  11  19  32  53  81 108 139 181 233 273 315
#     4  11  24  38  52  79 116 151 186 230 287 338
#     4   9  19  30  55  77 107 137 169 225 270 321
#     4  12  19  35  55  77 111 145 192 229 277 332
#
# _framework density 17.928605000000001
#
# number of rings (size 3 to 8) (size 9 to 14) (size 15 to 20)
#    0.000    1.143    7.143    0.857    0.000    0.000 
#    0.000    0.000    0.000    0.857    0.000   14.000 
#    0.000    0.000    0.000    0.000    0.000    0.000 
#
# Total GULP energy -155883.912019 kJ/mol
# GULP energy per Si atom -5567.282572 kJ/mol
# Density = 1.788780 g / cm^3
# Si number density = 17.928605 Si / 1000 Ang^3
#
#
#
# Elastic Constant Matrix: (Units=GPa)
#
#
# Indices 1 2 3 4 5 6 
#
# 1 126.7261 31.8818 12.0798 0.0000 -20.2466 0.0000
# 2 31.8818 62.0443 11.3013 0.0000 0.0314 0.0000
# 3 12.0798 11.3013 64.3404 0.0000 -0.2414 0.0000
# 4 0.0000 0.0000 0.0000 7.6456 0.0000 6.9036
# 5 -20.2466 0.0314 -0.2414 0.0000 26.0701 0.0000
# 6 0.0000 0.0000 0.0000 6.9036 0.0000 14.4709
#
#
#
# Elastic Compliance Matrix: (Units=1/GPa)
#
#
# Indices 1 2 3 4 5 6 
#
# 1 0.010638 -0.005281 -0.001039 0.000000 0.008259 0.000000
# 2 -0.005281 0.019272 -0.002409 0.000000 -0.004147 0.000000
# 3 -0.001039 -0.002409 0.016158 0.000000 -0.000654 0.000000
# 4 0.000000 0.000000 0.000000 0.229775 0.000000 -0.109618
# 5 0.008259 -0.004147 -0.000654 0.000000 0.044771 0.000000
# 6 0.000000 0.000000 0.000000 -0.109618 0.000000 0.121399
#
#
# Mechanical properties :
#
#
# Convention : Reuss Voigt Hill
#
# Bulk Modulus (GPa) = 34.95271 40.40408 37.67839
# Shear Modulus (GPa) = 10.66078 22.82717 16.74398
#
# Velocity S-wave (km/s) = 2.44114 3.57210 3.05933
# Velocity P-wave (km/s) = 5.24246 6.29271 5.79144
#
# Compressibility (1/GPa) = 0.02861009
#
# Stress axis : x y z
#
# Youngs Moduli (GPa) = 94.00088 51.88782 61.88863
#
# Poissons Ratio (x) = 0.27404 0.06428
# Poissons Ratio (y) = 0.49646 0.14910
# Poissons Ratio (z) = 0.09763 0.12501
#
# Static dielectric constant tensor:
#      x y z
#    x 1.720990 0.000000 -0.020190 
#    y 0.000000 1.595970 0.000000 
#    z -0.020190 0.000000 1.667610 
# 
# From -- ./inp_files/6705.got.cif
#   From: 2010.05.17/outbox.cif.g08.bks.cpg/sg11_4_cif.got.tgz:6705.got - 2010.06.03 12:22:45.
