data_PCOD9156739
_publ_section_title
;
Structure prediction by ZEFSAII (Michael W. Deem and Ramdas Pophale) SiO2 
 PCOD9156739
Probable space group: P 21/M
;
_chemical_formula_sum "Si O2"
_cell_formula_units_Z 32
_cell_length_a 21.851321
_cell_length_b 8.627996
_cell_length_c 13.158606
_cell_angle_alpha 90.000000
_cell_angle_beta 126.916424
_cell_angle_gamma 90.000000
_cell_volume 1983.456959
_symmetry_space_group_name_H-M "P 21/M"
_symmetry_group_IT_number 11
_symmetry_cell_setting 'monoclinic'
loop_
_space_group_symop_operation_xyz
x,y,z
-x,1/2+y,-z
-x,-y,-z
x,1/2-y,z
loop_
_atom_site_type_symbol
_atom_site_label
_atom_site_fract_x
_atom_site_fract_y
_atom_site_fract_z
Si Si1 0.840815 0.565511 0.455090
Si Si2 0.315312 0.562988 0.622887
Si Si3 0.410281 0.436876 0.303006
Si Si4 0.414324 0.563986 0.922257
Si Si5 0.586700 0.063106 0.473639
Si Si6 0.999956 0.435115 0.615315
Si Si7 0.683872 0.936394 0.988315
Si Si8 0.840399 0.065035 0.224622
O O1 0.846498 0.750000 0.453103
O O2 0.766846 0.514459 0.444096
O O3 0.831246 0.497526 0.331215
O O4 0.920023 0.497903 0.578785
O O5 0.305923 0.750000 0.611412
O O6 0.367433 0.526076 0.772980
O O7 0.359478 0.513294 0.565196
O O8 0.409787 0.250000 0.306804
O O9 0.388934 0.501481 0.392040
O O10 0.498207 0.486119 0.368876
O O11 0.354948 0.484646 0.156493
O O12 0.415762 0.750000 0.933812
O O13 0.500000 0.500000 0.000000
O O14 0.370383 0.491387 0.973944
O O15 0.587291 0.250000 0.476061
O O16 0.000107 0.250000 0.613936
O O17 0.079662 0.498368 0.738476
O O18 0.000000 0.500000 0.500000
O O19 0.689420 0.750000 0.996362
O O20 0.767054 0.008727 0.089394
O O21 0.843943 0.250000 0.232395
#
# Coordination Sequence:
#
# PCOD9156739 Si02
#       8
#     4   4   4   4   4   4   4   4
#     4  11  20  31  48  72 101 134 169 206 247 297
#     4  10  20  34  50  71 101 135 168 208 253 297
#     4   9  19  35  53  73  98 128 166 217 260 297
#     4  11  22  34  49  69 100 136 169 204 249 302
#     4   9  18  34  54  73  96 129 169 213 257 300
#     4  10  18  30  48  69  97 133 168 203 245 294
#     4  11  21  34  51  73 101 133 170 208 253 301
#     4  11  20  32  48  71 102 134 168 206 248 297
#
# _framework density 16.133448000000001
#
# number of rings (size 3 to 8) (size 9 to 14) (size 15 to 20)
#    0.000    1.750    1.250    6.375    0.000    4.000 
#    0.000    2.500    0.000    0.000    0.000    0.875 
#    0.000    0.000    0.000    0.000    0.000    0.000 
#
# Total GULP energy -178627.429492 kJ/mol
# GULP energy per Si atom -5582.107172 kJ/mol
# Density = 1.609673 g / cm^3
# Si number density = 16.133448 Si / 1000 Ang^3
#
#
#
# Elastic Constant Matrix: (Units=GPa)
#
#
# Indices 1 2 3 4 5 6 
#
# 1 115.8766 47.8836 80.2565 0.0000 19.6479 0.0000
# 2 47.8836 87.2874 46.1695 0.0000 9.6090 0.0000
# 3 80.2565 46.1695 117.7815 0.0000 12.2090 0.0000
# 4 0.0000 0.0000 0.0000 22.1577 0.0000 2.6037
# 5 19.6479 9.6090 12.2090 0.0000 26.9839 0.0000
# 6 0.0000 0.0000 0.0000 2.6037 0.0000 28.5356
#
#
#
# Elastic Compliance Matrix: (Units=1/GPa)
#
#
# Indices 1 2 3 4 5 6 
#
# 1 0.018795 -0.003936 -0.010483 0.000000 -0.007541 0.000000
# 2 -0.003936 0.015469 -0.003261 0.000000 -0.001167 0.000000
# 3 -0.010483 -0.003261 0.016787 0.000000 0.001199 0.000000
# 4 0.000000 0.000000 0.000000 0.045620 0.000000 -0.004162
# 5 -0.007541 -0.001167 0.001199 0.000000 0.042423 0.000000
# 6 0.000000 0.000000 0.000000 -0.004162 0.000000 0.035424
#
#
# Mechanical properties :
#
#
# Convention : Reuss Voigt Hill
#
# Bulk Modulus (GPa) = 63.72378 74.39607 69.05993
# Shear Modulus (GPa) = 23.24421 25.31118 24.27770
#
# Velocity S-wave (km/s) = 3.79983 3.96519 3.88339
# Velocity P-wave (km/s) = 7.67042 8.19614 7.93763
#
# Compressibility (1/GPa) = 0.01569273
#
# Stress axis : x y z
#
# Youngs Moduli (GPa) = 53.20521 64.64664 59.56951
#
# Poissons Ratio (x) = 0.25443 0.62444
# Poissons Ratio (y) = 0.20940 0.19424
# Poissons Ratio (z) = 0.55773 0.21080
#
# Static dielectric constant tensor:
#      x y z
#    x 1.547250 0.000000 0.019340 
#    y 0.000000 1.543500 0.000000 
#    z 0.019340 0.000000 1.533150 
# 
# From -- ./inp_files/42562.got.cif
#   From: 2010.05.17/outbox.cif.g08.bks.cpg/sg11_22_cif.got.tgz:42562.got - 2010.06.03 12:22:45.
