data_PCOD9156702
_publ_section_title
;
Structure prediction by ZEFSAII (Michael W. Deem and Ramdas Pophale) SiO2 
 PCOD9156702
Probable space group: P 21/M
;
_chemical_formula_sum "Si O2"
_cell_formula_units_Z 32
_cell_length_a 22.143346
_cell_length_b 8.816299
_cell_length_c 11.490391
_cell_angle_alpha 90.000000
_cell_angle_beta 122.723313
_cell_angle_gamma 90.000000
_cell_volume 1887.167952
_symmetry_space_group_name_H-M "P 21/M"
_symmetry_group_IT_number 11
_symmetry_cell_setting 'monoclinic'
loop_
_space_group_symop_operation_xyz
x,y,z
-x,1/2+y,-z
-x,-y,-z
x,1/2-y,z
loop_
_atom_site_type_symbol
_atom_site_label
_atom_site_fract_x
_atom_site_fract_y
_atom_site_fract_z
Si Si1 0.571146 0.423883 0.929393
Si Si2 0.728397 0.566600 0.360305
Si Si3 0.722398 0.930949 0.079782
Si Si4 0.143521 0.571448 0.886015
Si Si5 0.872823 0.922544 0.609310
Si Si6 0.008380 0.068646 0.880702
Si Si7 0.423575 0.924089 0.782597
Si Si8 0.924791 0.922170 0.401055
O O1 0.578709 0.250000 0.899019
O O2 0.495226 0.493841 0.812589
O O3 0.640922 0.520508 0.968793
O O4 0.570591 0.423586 0.070169
O O5 0.730040 0.750000 0.362598
O O6 0.736797 0.521287 0.231307
O O7 0.791717 0.514329 0.514102
O O8 0.650953 0.508144 0.319941
O O9 0.731421 0.750000 0.086803
O O10 0.776601 0.003487 0.042381
O O11 0.144920 0.750000 0.910333
O O12 0.082853 0.494314 0.903574
O O13 0.115594 0.531634 0.728108
O O14 0.872969 0.750000 0.658157
O O15 0.889976 0.910830 0.490393
O O16 0.937755 0.014135 0.735311
O O17 0.010589 0.250000 0.885092
O O18 0.000000 0.000000 0.000000
O O19 0.421207 0.750000 0.741532
O O20 0.929578 0.750000 0.357534
O O21 0.000000 0.000000 0.500000
#
# Coordination Sequence:
#
# PCOD9156702 Si02
#       8
#     4   4   4   4   4   4   4   4
#     4   9  16  26  39  59  89 130 171 205 244 291
#     4   9  17  29  45  67  98 132 165 205 248 294
#     4  10  18  30  46  69  99 132 169 208 251 295
#     4  12  23  35  52  75 104 133 168 210 253 303
#     4  10  20  35  53  75 103 132 167 209 255 302
#     4  12  26  43  60  75  96 129 170 212 259 308
#     4   9  16  25  38  59  89 129 171 206 240 288
#     4  11  20  32  50  75 102 131 164 204 252 302
#
# _framework density 16.956624000000001
#
# number of rings (size 3 to 8) (size 9 to 14) (size 15 to 20)
#    0.000    1.750    2.500    3.750    0.000    4.500 
#    0.000    0.000    0.000    0.000    0.000    0.000 
#    0.000    1.000    0.000    3.750    0.000    5.750 
#
# Total GULP energy -178279.563436 kJ/mol
# GULP energy per Si atom -5571.236357 kJ/mol
# Density = 1.691803 g / cm^3
# Si number density = 16.956624 Si / 1000 Ang^3
#
#
#
# Elastic Constant Matrix: (Units=GPa)
#
#
# Indices 1 2 3 4 5 6 
#
# 1 116.8413 52.9775 52.4186 0.0000 32.2682 0.0000
# 2 52.9775 100.6169 25.9892 0.0000 12.2398 0.0000
# 3 52.4186 25.9892 35.9757 0.0000 7.3188 0.0000
# 4 0.0000 0.0000 0.0000 18.8840 0.0000 4.2628
# 5 32.2682 12.2398 7.3188 0.0000 27.7541 0.0000
# 6 0.0000 0.0000 0.0000 4.2628 0.0000 25.9736
#
#
#
# Elastic Compliance Matrix: (Units=1/GPa)
#
#
# Indices 1 2 3 4 5 6 
#
# 1 0.046314 -0.005437 -0.056098 0.000000 -0.036656 0.000000
# 2 -0.005437 0.013138 -0.001772 0.000000 0.000994 0.000000
# 3 -0.056098 -0.001772 0.102907 0.000000 0.038866 0.000000
# 4 0.000000 0.000000 0.000000 0.054992 0.000000 -0.009025
# 5 -0.036656 0.000994 0.038866 0.000000 0.067962 0.000000
# 6 0.000000 0.000000 0.000000 -0.009025 0.000000 0.039982
#
#
# Mechanical properties :
#
#
# Convention : Reuss Voigt Hill
#
# Bulk Modulus (GPa) = 27.97433 57.35607 42.66520
# Shear Modulus (GPa) = 10.77997 22.65889 16.71943
#
# Velocity S-wave (km/s) = 2.52412 3.65949 3.14349
# Velocity P-wave (km/s) = 5.00283 7.19405 6.19608
#
# Compressibility (1/GPa) = 0.03574706
#
# Stress axis : x y z
#
# Youngs Moduli (GPa) = 21.59163 76.11559 9.71751
#
# Poissons Ratio (x) = 0.41381 0.54513
# Poissons Ratio (y) = 0.11738 0.01722
# Poissons Ratio (z) = 1.21124 0.13486
#
# Static dielectric constant tensor:
#      x y z
#    x 1.132670 0.000000 0.969770 
#    y 0.000000 1.574880 0.000000 
#    z 0.969770 0.000000 -0.324650 
# 
# From -- ./inp_files/42554.got.cif
#   From: 2010.05.17/outbox.cif.g08.bks.cpg/sg11_22_cif.got.tgz:42554.got - 2010.06.03 12:22:45.
