data_PCOD9156111
_publ_section_title
;
Structure prediction by ZEFSAII (Michael W. Deem and Ramdas Pophale) SiO2 
 PCOD9156111
Probable space group: P 21/M
;
_chemical_formula_sum "Si O2"
_cell_formula_units_Z 28
_cell_length_a 31.696072
_cell_length_b 8.574602
_cell_length_c 9.881471
_cell_angle_alpha 90.000000
_cell_angle_beta 148.525311
_cell_angle_gamma 90.000000
_cell_volume 1402.209436
_symmetry_space_group_name_H-M "P 21/M"
_symmetry_group_IT_number 11
_symmetry_cell_setting 'monoclinic'
loop_
_space_group_symop_operation_xyz
x,y,z
-x,1/2+y,-z
-x,-y,-z
x,1/2-y,z
loop_
_atom_site_type_symbol
_atom_site_label
_atom_site_fract_x
_atom_site_fract_y
_atom_site_fract_z
Si Si1 0.904337 0.564843 0.987289
Si Si2 0.682559 0.434058 0.058163
Si Si3 0.634691 0.563400 0.633755
Si Si4 0.931100 0.565942 0.496898
Si Si5 0.790399 0.560198 0.906080
Si Si6 0.870754 0.432532 0.609326
Si Si7 0.473936 0.435292 0.280770
O O1 0.900472 0.750000 0.955705
O O2 0.984807 0.523772 0.291280
O O3 0.826225 0.512977 0.859624
O O4 0.908065 0.480663 0.853962
O O5 0.668035 0.250000 0.998972
O O6 0.774306 0.457271 0.353886
O O7 0.668730 0.516611 0.875298
O O8 0.616248 0.499060 0.981426
O O9 0.628059 0.750000 0.610282
O O10 0.701691 0.508274 0.709302
O O11 0.545268 0.492023 0.377986
O O12 0.943737 0.750000 0.509865
O O13 0.903725 0.532760 0.575524
O O14 0.857500 0.512242 0.200363
O O15 0.788964 0.750000 0.904139
O O16 0.886334 0.250000 0.623543
O O17 0.500000 0.500000 0.500000
O O18 0.471870 0.250000 0.278854
#
# Coordination Sequence:
#
# PCOD9156111 Si02
#       7
#     4   4   4   4   4   4   4
#     4  11  23  39  56  79 110 145 182 222 272 325
#     4  10  19  32  51  77 107 138 177 221 266 314
#     4  10  17  31  53  78 108 139 175 217 266 317
#     4  11  21  38  60  82 107 139 182 228 274 321
#     4   9  20  36  57  82 109 142 181 223 270 323
#     4  11  23  38  56  81 110 143 183 226 271 320
#     4  10  18  28  46  76 110 140 173 214 264 315
#
# _framework density 19.968485999999999
#
# number of rings (size 3 to 8) (size 9 to 14) (size 15 to 20)
#    0.000    1.714    1.429    6.000    0.000    1.714 
#    0.000    5.000    0.000    0.857    0.000    0.000 
#    0.000    0.000    0.000    0.000    0.000    0.000 
#
# Total GULP energy -156384.037585 kJ/mol
# GULP energy per Si atom -5585.144199 kJ/mol
# Density = 1.992304 g / cm^3
# Si number density = 19.968486 Si / 1000 Ang^3
#
#
#
# Elastic Constant Matrix: (Units=GPa)
#
#
# Indices 1 2 3 4 5 6 
#
# 1 79.6207 2.1405 5.3598 0.0000 22.0179 0.0000
# 2 2.1405 57.6171 8.6300 0.0000 14.4602 0.0000
# 3 5.3598 8.6300 21.1186 0.0000 14.5966 0.0000
# 4 0.0000 0.0000 0.0000 22.4320 0.0000 8.9249
# 5 22.0179 14.4602 14.5966 0.0000 36.7524 0.0000
# 6 0.0000 0.0000 0.0000 8.9249 0.0000 16.7692
#
#
#
# Elastic Compliance Matrix: (Units=1/GPa)
#
#
# Indices 1 2 3 4 5 6 
#
# 1 0.015383 0.001762 0.003066 0.000000 -0.011127 0.000000
# 2 0.001762 0.019663 -0.003316 0.000000 -0.007475 0.000000
# 3 0.003066 -0.003316 0.066571 0.000000 -0.026972 0.000000
# 4 0.000000 0.000000 0.000000 0.056555 0.000000 -0.030099
# 5 -0.011127 -0.007475 -0.026972 0.000000 0.047528 0.000000
# 6 0.000000 0.000000 0.000000 -0.030099 0.000000 0.075652
#
#
# Mechanical properties :
#
#
# Convention : Reuss Voigt Hill
#
# Bulk Modulus (GPa) = 9.55648 21.17966 15.36807
# Shear Modulus (GPa) = 15.96386 24.67246 20.31816
#
# Velocity S-wave (km/s) = 2.83053 3.51888 3.19331
# Velocity P-wave (km/s) = 3.93430 5.20957 4.61618
#
# Compressibility (1/GPa) = 0.10464099
#
# Stress axis : x y z
#
# Youngs Moduli (GPa) = 65.00833 50.85660 15.02162
#
# Poissons Ratio (x) = -0.08959 -0.04606
# Poissons Ratio (y) = -0.11452 0.04981
# Poissons Ratio (z) = -0.19935 0.16863
#
# Static dielectric constant tensor:
#      x y z
#    x 1.736930 0.000000 0.040100 
#    y 0.000000 1.668500 0.000000 
#    z 0.040100 0.000000 1.724980 
# 
# From -- ./inp_files/28639.got.cif
#   From: 2010.05.17/outbox.cif.g08.bks.cpg/sg11_15_cif.got.tgz:28639.got - 2010.06.03 12:22:45.
