data_PCOD9156018
_publ_section_title
;
Structure prediction by ZEFSAII (Michael W. Deem and Ramdas Pophale) SiO2 
 PCOD9156018
Probable space group: P 21/M
;
_chemical_formula_sum "Si O2"
_cell_formula_units_Z 32
_cell_length_a 18.024830
_cell_length_b 15.300998
_cell_length_c 10.661561
_cell_angle_alpha 90.000000
_cell_angle_beta 155.175280
_cell_angle_gamma 90.000000
_cell_volume 1234.523531
_symmetry_space_group_name_H-M "P 21/M"
_symmetry_group_IT_number 11
_symmetry_cell_setting 'monoclinic'
loop_
_space_group_symop_operation_xyz
x,y,z
-x,1/2+y,-z
-x,-y,-z
x,1/2-y,z
loop_
_atom_site_type_symbol
_atom_site_label
_atom_site_fract_x
_atom_site_fract_y
_atom_site_fract_z
Si Si1 0.338097 0.345012 0.561829
Si Si2 0.387892 0.073818 0.227434
Si Si3 0.740879 0.354547 0.878087
Si Si4 0.839396 0.355872 0.755668
Si Si5 0.710742 0.522612 0.318774
Si Si6 0.871884 0.649336 0.000255
Si Si7 0.452624 0.344313 0.094467
Si Si8 0.708728 0.085144 0.092871
O O1 0.273674 0.250000 0.509859
O O2 0.249204 0.430299 0.488225
O O3 0.295109 0.343778 0.349506
O O4 0.549410 0.353385 0.894615
O O5 0.564591 0.086185 0.581452
O O6 0.202406 0.081753 0.013194
O O7 0.396295 0.158864 0.151910
O O8 0.383992 0.998680 0.116026
O O9 0.704124 0.250000 0.816297
O O10 0.852939 0.377542 0.924377
O O11 0.806000 0.374462 0.120163
O O12 0.844339 0.250000 0.760731
O O13 0.649752 0.384536 0.409475
O O14 0.979999 0.384283 0.868531
O O15 0.500000 0.500000 0.000000
O O16 0.699286 0.609321 0.215069
O O17 0.796059 0.450571 0.355890
O O18 0.913813 0.750000 0.106793
O O19 0.481704 0.250000 0.082474
#
# Coordination Sequence:
#
# PCOD9156018 Si02
#       8
#     4   4   4   4   4   4   4   4
#     4  10  19  31  51  76  99 129 171 209 243 295
#     4  10  18  28  48  74 104 128 158 203 253 298
#     4  10  17  29  48  71  98 130 168 203 243 299
#     4   8  17  30  47  74 105 129 158 204 253 298
#     4   9  19  32  47  71 100 128 163 212 252 280
#     4  10  18  30  49  77 105 130 161 202 251 302
#     4   9  16  30  52  75  97 129 168 205 246 299
#     4  10  19  30  48  71 101 128 163 209 254 286
#
# _framework density 25.920931
#
# number of rings (size 3 to 8) (size 9 to 14) (size 15 to 20)
#    0.000    2.500    1.250    3.000    0.000    0.000 
#    0.000    0.625    0.000    0.750    9.750    0.000 
#    0.000    0.000    0.000    0.000    0.000    0.000 
#
# Total GULP energy -178212.301342 kJ/mol
# GULP energy per Si atom -5569.134417 kJ/mol
# Density = 2.586193 g / cm^3
# Si number density = 25.920931 Si / 1000 Ang^3
#
#
#
# Elastic Constant Matrix: (Units=GPa)
#
#
# Indices 1 2 3 4 5 6 
#
# 1 124.4967 6.7882 28.8132 0.0000 17.0553 0.0000
# 2 6.7882 74.8866 -1.7821 0.0000 2.0402 0.0000
# 3 28.8132 -1.7821 28.4816 0.0000 14.0649 0.0000
# 4 0.0000 0.0000 0.0000 2.5205 0.0000 5.9405
# 5 17.0553 2.0402 14.0649 0.0000 42.3231 0.0000
# 6 0.0000 0.0000 0.0000 5.9405 0.0000 76.7181
#
#
#
# Elastic Compliance Matrix: (Units=1/GPa)
#
#
# Indices 1 2 3 4 5 6 
#
# 1 0.010617 -0.001191 -0.010445 0.000000 -0.000750 0.000000
# 2 -0.001191 0.013550 0.002558 0.000000 -0.001023 0.000000
# 3 -0.010445 0.002558 0.052423 0.000000 -0.013335 0.000000
# 4 0.000000 0.000000 0.000000 0.485318 0.000000 -0.037580
# 5 -0.000750 -0.001023 -0.013335 0.000000 0.028411 0.000000
# 6 0.000000 0.000000 0.000000 -0.037580 0.000000 0.015945
#
#
# Mechanical properties :
#
#
# Convention : Reuss Voigt Hill
#
# Bulk Modulus (GPa) = 17.11332 32.83371 24.97351
# Shear Modulus (GPa) = 7.76521 37.24872 22.50697
#
# Velocity S-wave (km/s) = 1.73270 3.79491 2.94988
# Velocity P-wave (km/s) = 3.25875 5.64767 4.61062
#
# Compressibility (1/GPa) = 0.05843402
#
# Stress axis : x y z
#
# Youngs Moduli (GPa) = 94.18500 73.79970 19.07576
#
# Poissons Ratio (x) = 0.08786 0.19925
# Poissons Ratio (y) = 0.11213 -0.04879
# Poissons Ratio (z) = 0.98378 -0.18875
#
# Static dielectric constant tensor:
#      x y z
#    x 2.100270 0.000000 -0.003510 
#    y 0.000000 2.400720 0.000000 
#    z -0.003510 0.000000 2.057790 
# 
# From -- ./inp_files/41848.got.cif
#   From: 2010.05.17/outbox.cif.g08.bks.cpg/sg11_21_cif.got.tgz:41848.got - 2010.06.03 12:22:45.
