data_PCOD9156663
_publ_section_title
;
Structure prediction by ZEFSAII (Michael W. Deem and Ramdas Pophale) SiO2 
 PCOD9156663
Probable space group: P 21/M
;
_chemical_formula_sum "Si O2"
_cell_formula_units_Z 20
_cell_length_a 12.437390
_cell_length_b 8.935455
_cell_length_c 12.856362
_cell_angle_alpha 90.000000
_cell_angle_beta 120.919514
_cell_angle_gamma 90.000000
_cell_volume 1225.732210
_symmetry_space_group_name_H-M "P 21/M"
_symmetry_group_IT_number 11
_symmetry_cell_setting 'monoclinic'
loop_
_space_group_symop_operation_xyz
x,y,z
-x,1/2+y,-z
-x,-y,-z
x,1/2-y,z
loop_
_atom_site_type_symbol
_atom_site_label
_atom_site_fract_x
_atom_site_fract_y
_atom_site_fract_z
Si Si1 0.863656 0.929004 0.422785
Si Si2 0.325848 0.928442 0.829669
Si Si3 0.397160 0.427687 0.303587
Si Si4 0.338678 0.428737 0.503816
Si Si5 0.408461 0.572209 0.098884
O O1 0.872244 0.750000 0.418357
O O2 0.779173 0.964083 0.482560
O O3 0.787250 0.995114 0.287376
O O4 0.000000 0.000000 0.500000
O O5 0.323732 0.750000 0.812288
O O6 0.456680 0.994222 0.851384
O O7 0.329010 0.957617 0.955132
O O8 0.397073 0.250000 0.287412
O O9 0.323395 0.461700 0.373747
O O10 0.538884 0.483912 0.395934
O O11 0.352086 0.509317 0.177291
O O12 0.364114 0.250000 0.525772
O O13 0.428101 0.750000 0.116668
#
# Coordination Sequence:
#
# PCOD9156663 Si02
#       5
#     4   4   4   4   4
#     4  11  22  36  54  74 103 137 172 212 253 299
#     4  10  20  33  50  74 102 134 173 209 251 303
#     4  10  18  29  50  76 103 133 166 206 253 307
#     4   9  19  33  48  72 103 134 168 209 254 298
#     4  10  19  31  49  75 107 135 162 208 260 304
#
# _framework density 16.316776999999998
#
# number of rings (size 3 to 8) (size 9 to 14) (size 15 to 20)
#    0.000    2.000    2.000    2.400    0.000    4.000 
#    0.000    0.000    0.000    1.200    0.000    0.000 
#    0.000    0.000    0.000    0.000    0.000    0.000 
#
# Total GULP energy -111588.254507 kJ/mol
# GULP energy per Si atom -5579.412725 kJ/mol
# Density = 1.627964 g / cm^3
# Si number density = 16.316777 Si / 1000 Ang^3
#
#
#
# Elastic Constant Matrix: (Units=GPa)
#
#
# Indices 1 2 3 4 5 6 
#
# 1 82.2534 49.8025 71.4957 0.0000 -5.2520 0.0000
# 2 49.8025 69.1014 66.9654 0.0000 -8.1695 0.0000
# 3 71.4957 66.9654 143.4905 0.0000 -15.8876 0.0000
# 4 0.0000 0.0000 0.0000 31.7074 0.0000 -2.8424
# 5 -5.2520 -8.1695 -15.8876 0.0000 30.9998 0.0000
# 6 0.0000 0.0000 0.0000 -2.8424 0.0000 22.4291
#
#
#
# Elastic Compliance Matrix: (Units=1/GPa)
#
#
# Indices 1 2 3 4 5 6 
#
# 1 0.025519 -0.011134 -0.007808 0.000000 -0.002613 0.000000
# 2 -0.011134 0.031292 -0.008854 0.000000 0.001822 0.000000
# 3 -0.007808 -0.008854 0.015465 0.000000 0.004269 0.000000
# 4 0.000000 0.000000 0.000000 0.031901 0.000000 0.004043
# 5 -0.002613 0.001822 0.004269 0.000000 0.034484 0.000000
# 6 0.000000 0.000000 0.000000 0.004043 0.000000 0.045097
#
#
# Mechanical properties :
#
#
# Convention : Reuss Voigt Hill
#
# Bulk Modulus (GPa) = 59.94271 74.59694 67.26982
# Shear Modulus (GPa) = 20.41553 24.13271 22.27412
#
# Velocity S-wave (km/s) = 3.54107 3.84996 3.69874
# Velocity P-wave (km/s) = 7.31679 8.09816 7.71737
#
# Compressibility (1/GPa) = 0.01668260
#
# Stress axis : x y z
#
# Youngs Moduli (GPa) = 39.18608 31.95725 64.66400
#
# Poissons Ratio (x) = 0.35581 0.50492
# Poissons Ratio (y) = 0.43630 0.57254
# Poissons Ratio (z) = 0.30598 0.28295
#
# Static dielectric constant tensor:
#      x y z
#    x 1.525700 0.000000 -0.042040 
#    y 0.000000 1.542120 0.000000 
#    z -0.042040 0.000000 1.560070 
# 
# From -- ./inp_files/33458.got.cif
#   From: 2010.05.17/outbox.cif.g08.bks.cpg/sg11_17_cif.got.tgz:33458.got - 2010.06.03 12:22:45.
