data_PCOD9156169
_publ_section_title
;
Structure prediction by ZEFSAII (Michael W. Deem and Ramdas Pophale) SiO2 
 PCOD9156169
Probable space group: P 21/M
;
_chemical_formula_sum "Si O2"
_cell_formula_units_Z 24
_cell_length_a 7.491256
_cell_length_b 13.966540
_cell_length_c 9.764256
_cell_angle_alpha 90.000000
_cell_angle_beta 68.191990
_cell_angle_gamma 90.000000
_cell_volume 948.491875
_symmetry_space_group_name_H-M "P 21/M"
_symmetry_group_IT_number 11
_symmetry_cell_setting 'monoclinic'
loop_
_space_group_symop_operation_xyz
x,y,z
-x,1/2+y,-z
-x,-y,-z
x,1/2-y,z
loop_
_atom_site_type_symbol
_atom_site_label
_atom_site_fract_x
_atom_site_fract_y
_atom_site_fract_z
Si Si1 0.326378 0.355214 0.118477
Si Si2 0.041957 0.750000 0.714474
Si Si3 0.153852 0.965958 0.070461
Si Si4 0.516620 0.581859 0.642260
Si Si5 0.749641 0.750000 0.230488
Si Si6 0.183716 0.049282 0.651038
Si Si7 0.855796 0.250000 0.016300
Si Si8 0.604464 0.250000 0.529259
O O1 0.389490 0.250000 0.045295
O O2 0.313715 0.449999 0.029830
O O3 0.440308 0.374375 0.224364
O O4 0.105368 0.336326 0.227987
O O5 0.165500 0.750000 0.541946
O O6 0.175659 0.750000 0.811407
O O7 0.204413 0.853654 0.028984
O O8 0.035691 0.970441 0.247560
O O9 0.000000 0.000000 0.000000
O O10 0.716113 0.537764 0.525488
O O11 0.335941 0.510866 0.699418
O O12 0.455948 0.658727 0.544587
O O13 0.799655 0.657913 0.304811
O O14 0.516498 0.750000 0.296135
O O15 0.908202 0.750000 0.065910
#
# Coordination Sequence:
#
# PCOD9156169 Si02
#       8
#     4   2   4   4   2   4   2   2
#     4  10  21  36  56  94 120 157 195 258 296 347
#     4  10  19  33  60  93 111 152 213 237 300 346
#     4  11  20  38  61  84 121 154 211 240 296 360
#     4  10  19  36  57  86 120 147 200 240 307 346
#     4   8  18  35  57  81 113 150 201 226 298 354
#     4   9  20  35  60  84 109 164 191 242 294 368
#     4  10  20  37  61  87 114 166 197 247 295 364
#     4  10  17  33  60  85 112 148 199 250 281 364
#
# _framework density 25.303325000000001
#
# number of rings (size 3 to 8) (size 9 to 14) (size 15 to 20)
#    0.500    1.667    2.500    1.000    0.000    0.667 
#    0.000    1.667    0.000    0.000    0.000    0.000 
#    0.000    0.000    0.000    0.000    0.000    0.000 
#
# Total GULP energy -133852.466401 kJ/mol
# GULP energy per Si atom -5577.186100 kJ/mol
# Density = 2.524573 g / cm^3
# Si number density = 25.303325 Si / 1000 Ang^3
#
#
#
# Elastic Constant Matrix: (Units=GPa)
#
#
# Indices 1 2 3 4 5 6 
#
# 1 42.9116 36.0125 35.2346 0.0000 1.1500 0.0000
# 2 36.0125 217.7468 14.8870 0.0000 11.2232 0.0000
# 3 35.2346 14.8870 107.3042 0.0000 -34.8008 0.0000
# 4 0.0000 0.0000 0.0000 22.9114 0.0000 5.8103
# 5 1.1500 11.2232 -34.8008 0.0000 42.7910 0.0000
# 6 0.0000 0.0000 0.0000 5.8103 0.0000 37.1484
#
#
#
# Elastic Compliance Matrix: (Units=1/GPa)
#
#
# Indices 1 2 3 4 5 6 
#
# 1 0.042777 -0.005095 -0.018036 0.000000 -0.014482 0.000000
# 2 -0.005095 0.005426 0.000683 0.000000 -0.000730 0.000000
# 3 -0.018036 0.000683 0.020708 0.000000 0.017147 0.000000
# 4 0.000000 0.000000 0.000000 0.045449 0.000000 -0.007109
# 5 -0.014482 -0.000730 0.017147 0.000000 0.037895 0.000000
# 6 0.000000 0.000000 0.000000 -0.007109 0.000000 0.028031
#
#
# Mechanical properties :
#
#
# Convention : Reuss Voigt Hill
#
# Bulk Modulus (GPa) = 41.64037 60.02566 50.83301
# Shear Modulus (GPa) = 21.44194 39.35873 30.40034
#
# Velocity S-wave (km/s) = 2.91417 3.94823 3.46993
# Velocity P-wave (km/s) = 5.27403 6.67523 6.01556
#
# Compressibility (1/GPa) = 0.02401516
#
# Stress axis : x y z
#
# Youngs Moduli (GPa) = 23.37680 184.29402 48.29079
#
# Poissons Ratio (x) = 0.93904 0.87098
# Poissons Ratio (y) = 0.11911 -0.03300
# Poissons Ratio (z) = 0.42163 -0.12595
#
# Static dielectric constant tensor:
#      x y z
#    x 2.050560 0.000000 -0.092990 
#    y 0.000000 2.057390 0.000000 
#    z -0.092990 0.000000 2.018330 
# 
# From -- ./inp_files/31476.got.cif
#   From: 2010.05.17/outbox.cif.g08.bks.cpg/sg11_16_cif.got.tgz:31476.got - 2010.06.03 12:22:45.
