data_PCOD9156705
_publ_section_title
;
Structure prediction by ZEFSAII (Michael W. Deem and Ramdas Pophale) SiO2 
 PCOD9156705
Probable space group: P 21/M
;
_chemical_formula_sum "Si O2"
_cell_formula_units_Z 28
_cell_length_a 12.467795
_cell_length_b 9.115239
_cell_length_c 23.688922
_cell_angle_alpha 90.000000
_cell_angle_beta 43.447863
_cell_angle_gamma 90.000000
_cell_volume 1851.392030
_symmetry_space_group_name_H-M "P 21/M"
_symmetry_group_IT_number 11
_symmetry_cell_setting 'monoclinic'
loop_
_space_group_symop_operation_xyz
x,y,z
-x,1/2+y,-z
-x,-y,-z
x,1/2-y,z
loop_
_atom_site_type_symbol
_atom_site_label
_atom_site_fract_x
_atom_site_fract_y
_atom_site_fract_z
Si Si1 0.497729 0.925185 0.724540
Si Si2 0.142638 0.424519 0.015847
Si Si3 0.766042 0.418347 0.560405
Si Si4 0.341321 0.572990 0.228737
Si Si5 0.181001 0.076277 0.867245
Si Si6 0.969954 0.418361 0.598505
Si Si7 0.460385 0.426056 0.956259
O O1 0.496720 0.750000 0.726504
O O2 0.615490 0.984301 0.631634
O O3 0.566046 0.990233 0.757208
O O4 0.325083 0.990813 0.784975
O O5 0.113863 0.250000 0.033316
O O6 0.985956 0.513875 0.087860
O O7 0.186544 0.447734 0.933158
O O8 0.289642 0.467264 0.997816
O O9 0.722787 0.250000 0.566556
O O10 0.869214 0.421401 0.578745
O O11 0.880252 0.481736 0.469003
O O12 0.358149 0.750000 0.231650
O O13 0.158086 0.537883 0.305989
O O14 0.415404 0.536826 0.140291
O O15 0.193835 0.250000 0.852416
O O16 0.018007 0.250000 0.589370
O O17 0.462147 0.250000 0.961751
O O18 0.500000 0.500000 0.000000
#
# Coordination Sequence:
#
# PCOD9156705 Si02
#       7
#     4   4   4   4   4   4   4
#     4  11  19  26  41  64  89 116 151 184 217 267
#     4   9  18  32  47  64  88 116 149 188 229 267
#     4   9  16  25  37  55  84 116 144 176 218 261
#     4   9  17  31  45  59  84 118 151 187 228 265
#     4  10  18  30  47  65  89 117 149 185 227 273
#     4   8  14  24  39  56  78 110 147 181 217 261
#     4  10  20  34  49  66  91 120 153 192 230 267
#
# _framework density 15.123756
#
# number of rings (size 3 to 8) (size 9 to 14) (size 15 to 20)
#    0.000    2.571    1.429    3.000    0.000    5.143 
#    0.000    0.000    0.000    0.000    0.000    0.000 
#    0.000    1.143    0.000    3.429    0.000    5.571 
#
# Total GULP energy -156015.381874 kJ/mol
# GULP energy per Si atom -5571.977924 kJ/mol
# Density = 1.508933 g / cm^3
# Si number density = 15.123756 Si / 1000 Ang^3
#
#
#
# Elastic Constant Matrix: (Units=GPa)
#
#
# Indices 1 2 3 4 5 6 
#
# 1 66.1535 35.8524 55.9064 0.0000 -9.7235 0.0000
# 2 35.8524 74.4034 64.3496 0.0000 -20.9441 0.0000
# 3 55.9064 64.3496 122.2123 0.0000 -29.6306 0.0000
# 4 0.0000 0.0000 0.0000 25.9103 0.0000 -5.3184
# 5 -9.7235 -20.9441 -29.6306 0.0000 20.6916 0.0000
# 6 0.0000 0.0000 0.0000 -5.3184 0.0000 20.4068
#
#
#
# Elastic Compliance Matrix: (Units=1/GPa)
#
#
# Indices 1 2 3 4 5 6 
#
# 1 0.026417 -0.005455 -0.011552 0.000000 -0.009650 0.000000
# 2 -0.005455 0.027163 -0.008827 0.000000 0.012290 0.000000
# 3 -0.011552 -0.008827 0.022415 0.000000 0.017734 0.000000
# 4 0.000000 0.000000 0.000000 0.040776 0.000000 0.010627
# 5 -0.009650 0.012290 0.017734 0.000000 0.081630 0.000000
# 6 0.000000 0.000000 0.000000 0.010627 0.000000 0.051773
#
#
# Mechanical properties :
#
#
# Convention : Reuss Voigt Hill
#
# Bulk Modulus (GPa) = 41.10764 63.88733 52.49749
# Shear Modulus (GPa) = 16.13166 20.51246 18.32206
#
# Velocity S-wave (km/s) = 3.26949 3.68680 3.48440
# Velocity P-wave (km/s) = 6.44148 7.77548 7.13970
#
# Compressibility (1/GPa) = 0.02432638
#
# Stress axis : x y z
#
# Youngs Moduli (GPa) = 37.85474 36.81521 44.61388
#
# Poissons Ratio (x) = 0.20082 0.51538
# Poissons Ratio (y) = 0.20649 0.39381
# Poissons Ratio (z) = 0.43730 0.32497
#
# Static dielectric constant tensor:
#      x y z
#    x 1.470540 0.000000 -0.022580 
#    y 0.000000 1.504700 0.000000 
#    z -0.022580 0.000000 1.517270 
# 
# From -- ./inp_files/60667.got.cif
#   From: 2010.05.17/outbox.cif.g08.bks.cpg/sg11_31_cif.got.tgz:60667.got - 2010.06.03 12:22:45.
