data_PCOD9156895
_publ_section_title
;
Structure prediction by ZEFSAII (Michael W. Deem and Ramdas Pophale) SiO2 
 PCOD9156895
Probable space group: P 21/M
;
_chemical_formula_sum "Si O2"
_cell_formula_units_Z 28
_cell_length_a 15.283235
_cell_length_b 8.131938
_cell_length_c 19.605104
_cell_angle_alpha 90.000000
_cell_angle_beta 37.655087
_cell_angle_gamma 90.000000
_cell_volume 1488.515418
_symmetry_space_group_name_H-M "P 21/M"
_symmetry_group_IT_number 11
_symmetry_cell_setting 'monoclinic'
loop_
_space_group_symop_operation_xyz
x,y,z
-x,1/2+y,-z
-x,-y,-z
x,1/2-y,z
loop_
_atom_site_type_symbol
_atom_site_label
_atom_site_fract_x
_atom_site_fract_y
_atom_site_fract_z
Si Si1 0.028391 0.561100 0.197120
Si Si2 0.314690 0.445623 0.351350
Si Si3 0.611922 0.948988 0.132216
Si Si4 0.236457 0.048919 0.248421
Si Si5 0.081227 0.555208 0.603120
Si Si6 0.335739 0.059599 0.046763
Si Si7 0.933650 0.946495 0.969719
O O1 0.075185 0.750000 0.172407
O O2 0.166126 0.449755 0.131461
O O3 0.987294 0.519667 0.145336
O O4 0.911583 0.527447 0.327110
O O5 0.298144 0.250000 0.360863
O O6 0.480276 0.491182 0.258238
O O7 0.275264 0.509611 0.299775
O O8 0.208826 0.514281 0.473412
O O9 0.610276 0.750000 0.129941
O O10 0.594779 0.014566 0.064498
O O11 0.767243 0.999665 0.064216
O O12 0.243729 0.250000 0.242912
O O13 0.335264 0.988784 0.123893
O O14 0.071877 0.001783 0.334448
O O15 0.074554 0.750000 0.616896
O O16 0.378561 0.250000 0.024988
O O17 0.937547 0.750000 0.962467
O O18 0.000000 0.000000 0.000000
#
# Coordination Sequence:
#
# PCOD9156895 Si02
#       7
#     4   4   4   4   4   4   4
#     4  10  18  30  51  79 105 128 162 206 251 297
#     4  11  21  31  46  71 102 135 175 219 256 294
#     4   9  19  34  50  71 102 137 167 198 248 309
#     4   8  16  30  48  70  96 130 174 222 261 292
#     4  10  19  34  52  68  96 138 179 215 254 297
#     4   8  15  31  50  67  95 134 172 210 253 300
#     4  10  20  36  59  84 107 130 160 199 245 300
#
# _framework density 18.810689
#
# number of rings (size 3 to 8) (size 9 to 14) (size 15 to 20)
#    0.000    2.571    0.000    4.714    0.000    3.429 
#    0.000    6.429    0.000    0.857    0.000    0.000 
#    0.000    0.000    0.000    0.000    0.000    0.000 
#
# Total GULP energy -156178.827661 kJ/mol
# GULP energy per Si atom -5577.815274 kJ/mol
# Density = 1.876788 g / cm^3
# Si number density = 18.810689 Si / 1000 Ang^3
#
#
#
# Elastic Constant Matrix: (Units=GPa)
#
#
# Indices 1 2 3 4 5 6 
#
# 1 94.4117 16.4238 45.9936 0.0000 21.5688 0.0000
# 2 16.4238 45.6330 15.7160 0.0000 3.0669 0.0000
# 3 45.9936 15.7160 134.6855 0.0000 11.4934 0.0000
# 4 0.0000 0.0000 0.0000 18.7180 0.0000 3.3429
# 5 21.5688 3.0669 11.4934 0.0000 23.0103 0.0000
# 6 0.0000 0.0000 0.0000 3.3429 0.0000 18.4261
#
#
#
# Elastic Compliance Matrix: (Units=1/GPa)
#
#
# Indices 1 2 3 4 5 6 
#
# 1 0.016018 -0.003549 -0.003985 0.000000 -0.012551 0.000000
# 2 -0.003549 0.023689 -0.001636 0.000000 0.000987 0.000000
# 3 -0.003985 -0.001636 0.009024 0.000000 -0.000554 0.000000
# 4 0.000000 0.000000 0.000000 0.055213 0.000000 -0.010017
# 5 -0.012551 0.000987 -0.000554 0.000000 0.055369 0.000000
# 6 0.000000 0.000000 0.000000 -0.010017 0.000000 0.056088
#
#
# Mechanical properties :
#
#
# Convention : Reuss Voigt Hill
#
# Bulk Modulus (GPa) = 32.90596 47.88855 40.39726
# Shear Modulus (GPa) = 20.50265 25.13732 22.81999
#
# Velocity S-wave (km/s) = 3.30502 3.65955 3.48679
# Velocity P-wave (km/s) = 5.66528 6.58558 6.14269
#
# Compressibility (1/GPa) = 0.03038963
#
# Stress axis : x y z
#
# Youngs Moduli (GPa) = 62.43021 42.21448 110.81963
#
# Poissons Ratio (x) = 0.14982 0.44159
# Poissons Ratio (y) = 0.22157 0.18134
# Poissons Ratio (z) = 0.24877 0.06908
#
# Static dielectric constant tensor:
#      x y z
#    x 1.660100 0.000000 0.015240 
#    y 0.000000 1.661580 0.000000 
#    z 0.015240 0.000000 1.675820 
# 
# From -- ./inp_files/53240.got.cif
#   From: 2010.05.17/outbox.cif.g08.bks.cpg/sg11_27_cif.got.tgz:53240.got - 2010.06.03 12:22:45.
