data_PCOD9156106
_publ_section_title
;
Structure prediction by ZEFSAII (Michael W. Deem and Ramdas Pophale) SiO2 
 PCOD9156106
Probable space group: P 21/M
;
_chemical_formula_sum "Si O2"
_cell_formula_units_Z 32
_cell_length_a 20.744045
_cell_length_b 7.778909
_cell_length_c 20.451818
_cell_angle_alpha 90.000000
_cell_angle_beta 30.266904
_cell_angle_gamma 90.000000
_cell_volume 1663.410428
_symmetry_space_group_name_H-M "P 21/M"
_symmetry_group_IT_number 11
_symmetry_cell_setting 'monoclinic'
loop_
_space_group_symop_operation_xyz
x,y,z
-x,1/2+y,-z
-x,-y,-z
x,1/2-y,z
loop_
_atom_site_type_symbol
_atom_site_label
_atom_site_fract_x
_atom_site_fract_y
_atom_site_fract_z
Si Si1 0.905213 0.548895 0.679173
Si Si2 0.368209 0.538740 0.852547
Si Si3 0.650035 0.543271 0.647262
Si Si4 0.319790 0.043577 0.609766
Si Si5 0.132246 0.951659 0.144442
Si Si6 0.176937 0.545610 0.387294
Si Si7 0.601635 0.456129 0.320720
Si Si8 0.848877 0.960960 0.361342
O O1 0.919151 0.750000 0.680725
O O2 0.852110 0.467119 0.791408
O O3 0.821466 0.525465 0.687434
O O4 0.046519 0.478190 0.536431
O O5 0.369030 0.750000 0.853168
O O6 0.507104 0.482499 0.756995
O O7 0.355177 0.484285 0.788370
O O8 0.251565 0.476895 0.999477
O O9 0.647823 0.750000 0.644658
O O10 0.704796 0.495829 0.669984
O O11 0.751449 0.482403 0.503723
O O12 0.323267 0.250000 0.602183
O O13 0.458257 0.978403 0.462970
O O14 0.209865 0.984877 0.656731
O O15 0.310989 0.998782 0.693658
O O16 0.126817 0.750000 0.132759
O O17 0.992313 0.023215 0.248915
O O18 0.163536 0.750000 0.393406
O O19 0.592724 0.250000 0.324997
O O20 0.850137 0.750000 0.362037
#
# Coordination Sequence:
#
# PCOD9156106 Si02
#       8
#     4   4   4   4   4   4   4   4
#     4  10  20  34  52  76 105 135 164 202 252 298
#     4   9  18  32  52  75 102 134 168 205 249 302
#     4  10  17  31  53  76 100 130 167 207 250 294
#     4   9  16  28  47  71  96 126 166 208 247 292
#     4  10  19  33  53  76 100 132 170 206 247 299
#     4  10  20  33  52  79 105 129 164 210 249 291
#     4   9  16  29  47  69  97 129 164 204 250 295
#     4   9  16  28  50  74  97 127 167 207 244 293
#
# _framework density 19.237584999999999
#
# number of rings (size 3 to 8) (size 9 to 14) (size 15 to 20)
#    0.000    2.500    2.500    0.750    0.000    1.000 
#    0.000    4.375    0.000    0.000    0.000    0.000 
#    0.000    0.000    0.000    0.000    0.000    0.000 
#
# Total GULP energy -178499.364272 kJ/mol
# GULP energy per Si atom -5578.105133 kJ/mol
# Density = 1.919380 g / cm^3
# Si number density = 19.237585 Si / 1000 Ang^3
#
#
#
# Elastic Constant Matrix: (Units=GPa)
#
#
# Indices 1 2 3 4 5 6 
#
# 1 165.7853 -6.5911 84.6952 0.0000 6.9877 0.0000
# 2 -6.5911 23.0104 5.8458 0.0000 -4.0854 0.0000
# 3 84.6952 5.8458 130.6270 0.0000 5.1209 0.0000
# 4 0.0000 0.0000 0.0000 4.6057 0.0000 3.9802
# 5 6.9877 -4.0854 5.1209 0.0000 23.4008 0.0000
# 6 0.0000 0.0000 0.0000 3.9802 0.0000 23.4681
#
#
#
# Elastic Compliance Matrix: (Units=1/GPa)
#
#
# Indices 1 2 3 4 5 6 
#
# 1 0.009434 0.004169 -0.006275 0.000000 -0.000716 0.000000
# 2 0.004169 0.047408 -0.005145 0.000000 0.008158 0.000000
# 3 -0.006275 -0.005145 0.012019 0.000000 -0.001655 0.000000
# 4 0.000000 0.000000 0.000000 0.254407 0.000000 -0.043147
# 5 -0.000716 0.008158 -0.001655 0.000000 0.044734 0.000000
# 6 0.000000 0.000000 0.000000 -0.043147 0.000000 0.049929
#
#
# Mechanical properties :
#
#
# Convention : Reuss Voigt Hill
#
# Bulk Modulus (GPa) = 18.39587 54.14695 36.27141
# Shear Modulus (GPa) = 11.09753 25.99311 18.54532
#
# Velocity S-wave (km/s) = 2.40441 3.67980 3.10823
# Velocity P-wave (km/s) = 4.15830 6.80163 5.63709
#
# Compressibility (1/GPa) = 0.05436004
#
# Stress axis : x y z
#
# Youngs Moduli (GPa) = 106.00471 21.09336 83.20147
#
# Poissons Ratio (x) = -0.08794 0.52209
# Poissons Ratio (y) = -0.44196 0.42804
# Poissons Ratio (z) = 0.66518 0.10852
#
# Static dielectric constant tensor:
#      x y z
#    x 1.667800 0.000000 -0.002840 
#    y 0.000000 1.702000 0.000000 
#    z -0.002840 0.000000 1.657860 
# 
# From -- ./inp_files/66403.got.cif
#   From: 2010.05.17/outbox.cif.g08.bks.cpg/sg11_34_cif.got.tgz:66403.got - 2010.06.03 12:22:45.
