data_PCOD9156794
_publ_section_title
;
Structure prediction by ZEFSAII (Michael W. Deem and Ramdas Pophale) SiO2 
 PCOD9156794
Probable space group: P 21/M
;
_chemical_formula_sum "Si O2"
_cell_formula_units_Z 28
_cell_length_a 10.580890
_cell_length_b 10.704432
_cell_length_c 16.479954
_cell_angle_alpha 90.000000
_cell_angle_beta 120.633118
_cell_angle_gamma 90.000000
_cell_volume 1606.076672
_symmetry_space_group_name_H-M "P 21/M"
_symmetry_group_IT_number 11
_symmetry_cell_setting 'monoclinic'
loop_
_space_group_symop_operation_xyz
x,y,z
-x,1/2+y,-z
-x,-y,-z
x,1/2-y,z
loop_
_atom_site_type_symbol
_atom_site_label
_atom_site_fract_x
_atom_site_fract_y
_atom_site_fract_z
Si Si1 0.302255 0.607022 0.900883
Si Si2 0.054516 0.615860 0.104532
Si Si3 0.785068 0.397014 0.417081
Si Si4 0.094253 0.106445 0.426542
Si Si5 0.248303 0.488797 0.048643
Si Si6 0.457995 0.600237 0.788456
Si Si7 0.050183 0.110648 0.223577
O O1 0.352969 0.750000 0.930568
O O2 0.376152 0.556483 0.843685
O O3 0.127023 0.610609 0.830256
O O4 0.322947 0.527900 0.988720
O O5 0.072248 0.750000 0.150536
O O6 0.162625 0.602386 0.063419
O O7 0.088109 0.500083 0.174554
O O8 0.887396 0.601849 0.017770
O O9 0.774050 0.250000 0.438913
O O10 0.820820 0.496705 0.498798
O O11 0.638375 0.435964 0.320769
O O12 0.924110 0.402325 0.400546
O O13 0.140823 0.250000 0.461678
O O14 0.104413 0.091169 0.333064
O O15 0.373893 0.440066 0.149176
O O16 0.451530 0.750000 0.787908
O O17 0.096189 0.250000 0.210840
#
# Coordination Sequence:
#
# PCOD9156794 Si02
#       7
#     4   4   4   4   4   4   4
#     4   9  16  29  48  71  99 133 166 199 243 297
#     4  10  21  35  50  73 100 131 173 217 252 286
#     4   9  17  29  49  75 103 132 163 197 243 297
#     4   9  16  30  50  74 103 133 163 197 242 298
#     4  10  20  32  50  69  99 135 172 208 247 294
#     4  10  18  30  49  73 101 133 167 202 243 299
#     4   9  17  31  53  75  99 133 169 203 244 297
#
# _framework density 17.433789000000001
#
# number of rings (size 3 to 8) (size 9 to 14) (size 15 to 20)
#    0.000    2.571    1.429    1.286    0.000    4.571 
#    0.000    1.429    0.000    1.714    0.000    0.000 
#    0.000    0.000    0.000    0.000    0.000    0.000 
#
# Total GULP energy -155937.939670 kJ/mol
# GULP energy per Si atom -5569.212131 kJ/mol
# Density = 1.739411 g / cm^3
# Si number density = 17.433789 Si / 1000 Ang^3
#
#
#
# Elastic Constant Matrix: (Units=GPa)
#
#
# Indices 1 2 3 4 5 6 
#
# 1 25.4578 18.1305 16.8539 0.0000 0.6434 0.0000
# 2 18.1305 99.1463 60.3244 0.0000 -7.2594 0.0000
# 3 16.8539 60.3244 110.1533 0.0000 10.7914 0.0000
# 4 0.0000 0.0000 0.0000 21.8205 0.0000 -3.6401
# 5 0.6434 -7.2594 10.7914 0.0000 12.0708 0.0000
# 6 0.0000 0.0000 0.0000 -3.6401 0.0000 -0.7793
#
#
#
# Elastic Compliance Matrix: (Units=1/GPa)
#
#
# Indices 1 2 3 4 5 6 
#
# 1 0.046273 -0.007071 -0.002794 0.000000 -0.004220 0.000000
# 2 -0.007071 0.020936 -0.012773 0.000000 0.024387 0.000000
# 3 -0.002794 -0.012773 0.018893 0.000000 -0.024423 0.000000
# 4 0.000000 0.000000 0.000000 0.025757 0.000000 -0.120318
# 5 -0.004220 0.024387 -0.024423 0.000000 0.119570 0.000000
# 6 0.000000 0.000000 0.000000 -0.120318 0.000000 -0.721242
#
#
# Mechanical properties :
#
#
# Convention : Reuss Voigt Hill
#
# Bulk Modulus (GPa) = 24.49362 47.26388 35.87875
# Shear Modulus (GPa) = -11.60285 15.91899 2.15807
#
# Velocity S-wave (km/s) = -2.58260 3.02505 1.11380
# Velocity P-wave (km/s) = 2.27748 6.27460 4.72004
#
# Compressibility (1/GPa) = 0.04082696
#
# Stress axis : x y z
#
# Youngs Moduli (GPa) = 21.61102 47.76451 52.92869
#
# Poissons Ratio (x) = 0.33772 0.14790
# Poissons Ratio (y) = 0.15280 0.67604
# Poissons Ratio (z) = 0.06039 0.61008
#
# Static dielectric constant tensor:
#      x y z
#    x 1.594450 0.000000 -0.002070 
#    y 0.000000 1.614390 0.000000 
#    z -0.002070 0.000000 1.596180 
# 
# From -- ./inp_files/47113.got.cif
#   From: 2010.05.17/outbox.cif.g08.bks.cpg/sg11_24_cif.got.tgz:47113.got - 2010.06.03 12:22:45.
