data_PCOD9156689
_publ_section_title
;
Structure prediction by ZEFSAII (Michael W. Deem and Ramdas Pophale) SiO2 
 PCOD9156689
Probable space group: P 21/M
;
_chemical_formula_sum "Si O2"
_cell_formula_units_Z 28
_cell_length_a 17.483205
_cell_length_b 9.164502
_cell_length_c 14.641305
_cell_angle_alpha 90.000000
_cell_angle_beta 129.581572
_cell_angle_gamma 90.000000
_cell_volume 1808.028751
_symmetry_space_group_name_H-M "P 21/M"
_symmetry_group_IT_number 11
_symmetry_cell_setting 'monoclinic'
loop_
_space_group_symop_operation_xyz
x,y,z
-x,1/2+y,-z
-x,-y,-z
x,1/2-y,z
loop_
_atom_site_type_symbol
_atom_site_label
_atom_site_fract_x
_atom_site_fract_y
_atom_site_fract_z
Si Si1 0.734690 0.422577 0.948906
Si Si2 0.106597 0.924903 0.083789
Si Si3 0.361899 0.923562 0.571995
Si Si4 0.412016 0.081468 0.295742
Si Si5 0.588115 0.075537 0.183207
Si Si6 0.255023 0.079924 0.334684
Si Si7 0.640559 0.923463 0.039649
O O1 0.729940 0.250000 0.960308
O O2 0.832207 0.456380 0.963061
O O3 0.644133 0.475192 0.815952
O O4 0.720519 0.506358 0.032822
O O5 0.099216 0.750000 0.087356
O O6 0.171723 0.991471 0.215850
O O7 0.000000 0.000000 0.000000
O O8 0.342225 0.750000 0.550763
O O9 0.471639 0.948882 0.613388
O O10 0.371645 0.963497 0.686096
O O11 0.282603 0.011412 0.452759
O O12 0.400797 0.250000 0.253813
O O13 0.354066 0.070899 0.346906
O O14 0.599006 0.250000 0.179820
O O15 0.640482 0.992500 0.140183
O O16 0.470034 0.044189 0.084963
O O17 0.227580 0.250000 0.320478
O O18 0.651558 0.750000 0.051953
#
# Coordination Sequence:
#
# PCOD9156689 Si02
#       7
#     4   4   4   4   4   4   4
#     4  10  19  30  48  72  97 125 160 199 241 289
#     4  10  21  37  55  75  97 123 156 199 247 292
#     4  10  18  30  45  64  96 133 166 199 236 278
#     4   9  17  30  44  63  94 130 165 198 233 276
#     4   9  18  30  44  64  94 132 169 205 239 273
#     4  10  20  31  47  70  96 126 161 199 238 287
#     4  10  18  30  46  66  94 129 167 204 241 281
#
# _framework density 15.48648
#
# number of rings (size 3 to 8) (size 9 to 14) (size 15 to 20)
#    0.000    2.286    1.429    2.143    0.000    4.000 
#    0.000    0.000    0.000    0.000    0.000    1.000 
#    0.000    0.000    0.000    0.000    0.000    0.000 
#
# Total GULP energy -156147.546290 kJ/mol
# GULP energy per Si atom -5576.698082 kJ/mol
# Density = 1.545123 g / cm^3
# Si number density = 15.486480 Si / 1000 Ang^3
#
#
#
# Elastic Constant Matrix: (Units=GPa)
#
#
# Indices 1 2 3 4 5 6 
#
# 1 80.6085 62.2946 63.8492 0.0000 -6.2156 0.0000
# 2 62.2946 70.8925 57.8849 0.0000 -5.4290 0.0000
# 3 63.8492 57.8849 94.2503 0.0000 -12.6346 0.0000
# 4 0.0000 0.0000 0.0000 27.4704 0.0000 -3.6898
# 5 -6.2156 -5.4290 -12.6346 0.0000 19.3908 0.0000
# 6 0.0000 0.0000 0.0000 -3.6898 0.0000 23.5687
#
#
#
# Elastic Compliance Matrix: (Units=1/GPa)
#
#
# Indices 1 2 3 4 5 6 
#
# 1 0.044959 -0.029223 -0.012792 0.000000 -0.002105 0.000000
# 2 -0.029223 0.047538 -0.009719 0.000000 -0.002391 0.000000
# 3 -0.012792 -0.009719 0.026659 0.000000 0.010549 0.000000
# 4 0.000000 0.000000 0.000000 0.037185 0.000000 0.005821
# 5 -0.002105 -0.002391 0.010549 0.000000 0.057100 0.000000
# 6 0.000000 0.000000 0.000000 0.005821 0.000000 0.043340
#
#
# Mechanical properties :
#
#
# Convention : Reuss Voigt Hill
#
# Bulk Modulus (GPa) = 63.74473 68.20098 65.97285
# Shear Modulus (GPa) = 13.68067 18.20083 15.94075
#
# Velocity S-wave (km/s) = 2.97542 3.43194 3.21180
# Velocity P-wave (km/s) = 7.28389 7.73557 7.51312
#
# Compressibility (1/GPa) = 0.01568757
#
# Stress axis : x y z
#
# Youngs Moduli (GPa) = 22.24232 21.03597 37.51050
#
# Poissons Ratio (x) = 0.61473 0.47983
# Poissons Ratio (y) = 0.64999 0.36458
# Poissons Ratio (z) = 0.28452 0.20446
#
# Static dielectric constant tensor:
#      x y z
#    x 1.518760 0.000000 -0.017280 
#    y 0.000000 1.516530 0.000000 
#    z -0.017280 0.000000 1.492770 
# 
# From -- ./inp_files/51115.got.cif
#   From: 2010.05.17/outbox.cif.g08.bks.cpg/sg11_26_cif.got.tgz:51115.got - 2010.06.03 12:22:45.
