data_PCOD9156408
_publ_section_title
;
Structure prediction by ZEFSAII (Michael W. Deem and Ramdas Pophale) SiO2 
 PCOD9156408
Probable space group: P 21/M
;
_chemical_formula_sum "Si O2"
_cell_formula_units_Z 32
_cell_length_a 7.404249
_cell_length_b 15.266443
_cell_length_c 14.744341
_cell_angle_alpha 90.000000
_cell_angle_beta 117.666528
_cell_angle_gamma 90.000000
_cell_volume 1476.093070
_symmetry_space_group_name_H-M "P 21/M"
_symmetry_group_IT_number 11
_symmetry_cell_setting 'monoclinic'
loop_
_space_group_symop_operation_xyz
x,y,z
-x,1/2+y,-z
-x,-y,-z
x,1/2-y,z
loop_
_atom_site_type_symbol
_atom_site_label
_atom_site_fract_x
_atom_site_fract_y
_atom_site_fract_z
Si Si1 0.951030 0.481088 0.884396
Si Si2 0.194423 0.488278 0.419371
Si Si3 0.836109 0.351134 0.718009
Si Si4 0.083075 0.353145 0.250233
Si Si5 0.317860 0.342373 0.775401
Si Si6 0.710669 0.002795 0.356685
Si Si7 0.393766 0.092320 0.976860
Si Si8 0.609446 0.347422 0.205152
O O1 0.813253 0.403183 0.809197
O O2 0.900795 0.574380 0.826136
O O3 0.165768 0.439024 0.907875
O O4 0.000000 0.500000 0.000000
O O5 0.312482 0.491706 0.541669
O O6 0.239958 0.575945 0.372008
O O7 0.206516 0.400383 0.361007
O O8 0.953113 0.489036 0.390873
O O9 0.760892 0.250000 0.700492
O O10 0.075900 0.342484 0.743886
O O11 0.133893 0.250000 0.245932
O O12 0.840141 0.354401 0.218745
O O13 0.365439 0.250000 0.743041
O O14 0.357542 0.419828 0.716448
O O15 0.440862 0.352460 0.898287
O O16 0.598322 0.084503 0.284326
O O17 0.454544 0.135493 0.085959
O O18 0.500000 0.000000 0.000000
O O19 0.579788 0.250000 0.232861
#
# Coordination Sequence:
#
# PCOD9156408 Si02
#       8
#     4   4   4   4   4   4   4   4
#     4  10  20  32  48  71  96 123 157 195 232 271
#     4   8  15  25  40  61  91 126 153 185 239 280
#     4   8  15  28  44  61  86 119 155 188 224 272
#     4   9  17  30  45  66  94 126 160 194 235 284
#     4   9  16  25  40  62  88 121 156 187 224 269
#     4   9  15  25  38  62  95 121 152 196 230 275
#     4  11  17  31  48  64  95 128 154 185 230 280
#     4  10  18  28  45  68  94 127 160 193 235 281
#
# _framework density 21.678851000000002
#
# number of rings (size 3 to 8) (size 9 to 14) (size 15 to 20)
#    0.000    2.750    2.500    1.875    0.000    2.000 
#    0.000    5.000    0.000    0.000    0.000    3.500 
#    0.000    2.000    0.000    0.000    0.000    0.000 
#
# Total GULP energy -178231.023349 kJ/mol
# GULP energy per Si atom -5569.719480 kJ/mol
# Density = 2.162951 g / cm^3
# Si number density = 21.678851 Si / 1000 Ang^3
#
#
#
# Elastic Constant Matrix: (Units=GPa)
#
#
# Indices 1 2 3 4 5 6 
#
# 1 41.0685 15.4812 7.3562 0.0000 9.1714 0.0000
# 2 15.4812 231.2063 106.5744 0.0000 -10.9285 0.0000
# 3 7.3562 106.5744 167.7364 0.0000 -11.9318 0.0000
# 4 0.0000 0.0000 0.0000 1022.4555 0.0000 -483.4392
# 5 9.1714 -10.9285 -11.9318 0.0000 23.6595 0.0000
# 6 0.0000 0.0000 0.0000 -483.4392 0.0000 230.8021
#
#
#
# Elastic Compliance Matrix: (Units=1/GPa)
#
#
# Indices 1 2 3 4 5 6 
#
# 1 0.028005 -0.002101 -0.000762 0.000000 -0.012211 0.000000
# 2 -0.002101 0.006293 -0.003777 0.000000 0.001816 0.000000
# 3 -0.000762 -0.003777 0.008600 0.000000 0.002888 0.000000
# 4 0.000000 0.000000 0.000000 0.101610 0.000000 0.212833
# 5 -0.012211 0.001816 0.002888 0.000000 0.049295 0.000000
# 6 0.000000 0.000000 0.000000 0.212833 0.000000 0.450134
#
#
# Mechanical properties :
#
#
# Convention : Reuss Voigt Hill
#
# Bulk Modulus (GPa) = 33.76280 77.64829 55.70554
# Shear Modulus (GPa) = 7.49525 276.09006 141.79265
#
# Velocity S-wave (km/s) = 1.86143 11.29739 8.09617
# Velocity P-wave (km/s) = 4.49753 14.35514 10.63715
#
# Compressibility (1/GPa) = 0.02961840
#
# Stress axis : x y z
#
# Youngs Moduli (GPa) = 35.70793 158.91734 116.27634
#
# Poissons Ratio (x) = 0.33392 0.08857
# Poissons Ratio (y) = 0.07503 0.43915
# Poissons Ratio (z) = 0.02720 0.60019
#
# Static dielectric constant tensor:
#      x y z
#    x 1.696010 0.000000 0.087060 
#    y 0.000000 1.781580 0.000000 
#    z 0.087060 0.000000 1.749770 
# 
# From -- ./inp_files/35499.got.cif
#   From: 2010.05.17/outbox.cif.g08.bks.cpg/sg11_18_cif.got.tgz:35499.got - 2010.06.03 12:22:45.
