data_PCOD9156757
_publ_section_title
;
Structure prediction by ZEFSAII (Michael W. Deem and Ramdas Pophale) SiO2 
 PCOD9156757
Probable space group: P 21/M
;
_chemical_formula_sum "Si O2"
_cell_formula_units_Z 32
_cell_length_a 15.272029
_cell_length_b 9.000167
_cell_length_c 21.034765
_cell_angle_alpha 90.000000
_cell_angle_beta 138.021932
_cell_angle_gamma 90.000000
_cell_volume 1933.798266
_symmetry_space_group_name_H-M "P 21/M"
_symmetry_group_IT_number 11
_symmetry_cell_setting 'monoclinic'
loop_
_space_group_symop_operation_xyz
x,y,z
-x,1/2+y,-z
-x,-y,-z
x,1/2-y,z
loop_
_atom_site_type_symbol
_atom_site_label
_atom_site_fract_x
_atom_site_fract_y
_atom_site_fract_z
Si Si1 0.925334 0.929705 0.018944
Si Si2 0.110254 0.571693 0.513617
Si Si3 0.293238 0.578715 0.819922
Si Si4 0.980604 0.924166 0.662657
Si Si5 0.329538 0.418019 0.963465
Si Si6 0.615436 0.425596 0.275105
Si Si7 0.355502 0.926035 0.107584
Si Si8 0.013538 0.419717 0.808451
O O1 0.921265 0.750000 0.013993
O O2 0.997730 0.970621 0.124611
O O3 0.777716 0.992789 0.942631
O O4 0.000000 0.000000 0.000000
O O5 0.097868 0.750000 0.511272
O O6 0.088169 0.515851 0.430138
O O7 0.256117 0.531010 0.615813
O O8 0.000000 0.500000 0.500000
O O9 0.315405 0.750000 0.850626
O O10 0.355894 0.474572 0.906948
O O11 0.343824 0.554992 0.776559
O O12 0.136595 0.557188 0.735193
O O13 0.950185 0.750000 0.640672
O O14 0.955340 0.982421 0.720379
O O15 0.376556 0.250000 0.000079
O O16 0.171035 0.416777 0.883159
O O17 0.374804 0.524125 0.044469
O O18 0.590251 0.250000 0.271602
O O19 0.482981 0.516823 0.213828
O O20 0.340400 0.750000 0.103883
O O21 0.966444 0.250000 0.777297
#
# Coordination Sequence:
#
# PCOD9156757 Si02
#       8
#     4   4   4   4   4   4   4   4
#     4  10  20  36  59  85 111 136 164 201 248 305
#     4  11  21  34  51  71  97 133 178 225 268 306
#     4   9  17  30  46  66  93 129 173 215 255 300
#     4  10  18  30  48  72 100 133 173 219 262 299
#     4   9  17  30  47  67  94 130 169 209 252 298
#     4  10  21  36  49  66  96 134 174 217 261 303
#     4  11  22  35  51  73 100 133 169 208 253 303
#     4   8  16  30  48  74 103 133 166 203 247 297
#
# _framework density 16.547744999999999
#
# number of rings (size 3 to 8) (size 9 to 14) (size 15 to 20)
#    0.000    2.250    1.250    3.375    0.000    6.000 
#    0.000    0.000    0.000    0.000    0.000    0.875 
#    0.000    0.000    0.000    0.000    0.000    0.000 
#
# Total GULP energy -178529.585122 kJ/mol
# GULP energy per Si atom -5579.049535 kJ/mol
# Density = 1.651008 g / cm^3
# Si number density = 16.547745 Si / 1000 Ang^3
#
#
#
# Elastic Constant Matrix: (Units=GPa)
#
#
# Indices 1 2 3 4 5 6 
#
# 1 63.8116 36.9343 45.5154 0.0000 -11.1519 0.0000
# 2 36.9343 78.6506 54.3458 0.0000 -3.3011 0.0000
# 3 45.5154 54.3458 98.4075 0.0000 -7.2919 0.0000
# 4 0.0000 0.0000 0.0000 24.7747 0.0000 -4.7476
# 5 -11.1519 -3.3011 -7.2919 0.0000 16.9611 0.0000
# 6 0.0000 0.0000 0.0000 -4.7476 0.0000 23.0413
#
#
#
# Elastic Compliance Matrix: (Units=1/GPa)
#
#
# Indices 1 2 3 4 5 6 
#
# 1 0.027746 -0.006931 -0.008009 0.000000 0.013451 0.000000
# 2 -0.006931 0.022305 -0.009429 0.000000 -0.004270 0.000000
# 3 -0.008009 -0.009429 0.019157 0.000000 0.001135 0.000000
# 4 0.000000 0.000000 0.000000 0.042023 0.000000 0.008659
# 5 0.013451 -0.004270 0.001135 0.000000 0.067460 0.000000
# 6 0.000000 0.000000 0.000000 0.008659 0.000000 0.045184
#
#
# Mechanical properties :
#
#
# Convention : Reuss Voigt Hill
#
# Bulk Modulus (GPa) = 48.84872 57.16227 53.00550
# Shear Modulus (GPa) = 17.89320 19.89371 18.89345
#
# Velocity S-wave (km/s) = 3.29189 3.47104 3.38265
# Velocity P-wave (km/s) = 6.63571 7.11920 6.88170
#
# Compressibility (1/GPa) = 0.02047137
#
# Stress axis : x y z
#
# Youngs Moduli (GPa) = 36.04125 44.83278 52.20011
#
# Poissons Ratio (x) = 0.31074 0.41805
# Poissons Ratio (y) = 0.24981 0.49217
# Poissons Ratio (z) = 0.28864 0.42271
#
# Static dielectric constant tensor:
#      x y z
#    x 1.552260 0.000000 0.002850 
#    y 0.000000 1.564720 0.000000 
#    z 0.002850 0.000000 1.568320 
# 
# From -- ./inp_files/65241.got.cif
#   From: 2010.05.17/outbox.cif.g08.bks.cpg/sg11_33_cif.got.tgz:65241.got - 2010.06.03 12:22:45.
