data_PCOD9156154
_publ_section_title
;
Structure prediction by ZEFSAII (Michael W. Deem and Ramdas Pophale) SiO2 
 PCOD9156154
Probable space group: P 21/M
;
_chemical_formula_sum "Si O2"
_cell_formula_units_Z 32
_cell_length_a 13.076399
_cell_length_b 15.395465
_cell_length_c 7.208647
_cell_angle_alpha 90.000000
_cell_angle_beta 100.843737
_cell_angle_gamma 90.000000
_cell_volume 1425.311761
_symmetry_space_group_name_H-M "P 21/M"
_symmetry_group_IT_number 11
_symmetry_cell_setting 'monoclinic'
loop_
_space_group_symop_operation_xyz
x,y,z
-x,1/2+y,-z
-x,-y,-z
x,1/2-y,z
loop_
_atom_site_type_symbol
_atom_site_label
_atom_site_fract_x
_atom_site_fract_y
_atom_site_fract_z
Si Si1 0.872955 0.022222 0.159032
Si Si2 0.481066 0.149136 0.142123
Si Si3 0.250821 0.390942 0.070045
Si Si4 0.979077 0.843176 0.327979
Si Si5 0.603907 0.478142 0.425175
Si Si6 0.643320 0.844555 0.253614
Si Si7 0.182544 0.569177 0.448978
Si Si8 0.923024 0.609798 0.721567
O O1 0.785855 0.989979 0.985849
O O2 0.927999 0.929981 0.227685
O O3 0.823750 0.061404 0.328512
O O4 0.968195 0.085786 0.139154
O O5 0.500585 0.250000 0.197587
O O6 0.566651 0.082907 0.243123
O O7 0.367923 0.120114 0.186311
O O8 0.458891 0.145825 0.913174
O O9 0.266816 0.348251 0.872283
O O10 0.163628 0.351470 0.172912
O O11 0.950832 0.750000 0.237543
O O12 0.103672 0.856590 0.360703
O O13 0.948907 0.844591 0.536781
O O14 0.500000 0.500000 0.500000
O O15 0.650958 0.570436 0.377791
O O16 0.696796 0.428767 0.561430
O O17 0.643898 0.750000 0.345433
O O18 0.129016 0.480824 0.360234
#
# Coordination Sequence:
#
# PCOD9156154 Si02
#       8
#     4   4   4   4   4   4   4   4
#     4   9  17  32  53  77 105 137 176 217 268 325
#     4   9  21  37  54  80 110 144 185 226 273 332
#     4  10  17  33  55  80 108 138 171 224 279 317
#     4   9  19  32  50  73 105 142 174 213 260 320
#     4  12  22  36  60  82 106 147 189 230 282 329
#     4   9  21  38  54  79 113 140 177 231 281 332
#     4   9  18  36  49  75 107 136 180 222 264 318
#     4   9  18  31  52  79 107 136 177 218 262 326
#
# _framework density 22.451228
#
# number of rings (size 3 to 8) (size 9 to 14) (size 15 to 20)
#    0.750    1.750    1.250    3.000    0.000    3.000 
#    0.000    0.000    0.000    0.000    0.000    0.000 
#    0.000    0.000    0.000    0.000    0.000    0.000 
#
# Total GULP energy -178394.099422 kJ/mol
# GULP energy per Si atom -5574.815607 kJ/mol
# Density = 2.240013 g / cm^3
# Si number density = 22.451228 Si / 1000 Ang^3
#
#
#
# Elastic Constant Matrix: (Units=GPa)
#
#
# Indices 1 2 3 4 5 6 
#
# 1 90.3593 13.4308 -1.8348 0.0000 -3.6247 0.0000
# 2 13.4308 72.5222 2.7544 0.0000 6.6277 0.0000
# 3 -1.8348 2.7544 34.8838 0.0000 -7.5751 0.0000
# 4 0.0000 0.0000 0.0000 3.4724 0.0000 8.2507
# 5 -3.6247 6.6277 -7.5751 0.0000 29.9111 0.0000
# 6 0.0000 0.0000 0.0000 8.2507 0.0000 12.3867
#
#
#
# Elastic Compliance Matrix: (Units=1/GPa)
#
#
# Indices 1 2 3 4 5 6 
#
# 1 0.011539 -0.002392 0.001285 0.000000 0.002254 0.000000
# 2 -0.002392 0.014689 -0.002175 0.000000 -0.004095 0.000000
# 3 0.001285 -0.002175 0.030735 0.000000 0.008421 0.000000
# 4 0.000000 0.000000 0.000000 -0.494238 0.000000 0.329208
# 5 0.002254 -0.004095 0.008421 0.000000 0.036746 0.000000
# 6 0.000000 0.000000 0.000000 0.329208 0.000000 -0.138551
#
#
# Mechanical properties :
#
#
# Convention : Reuss Voigt Hill
#
# Bulk Modulus (GPa) = 19.84157 25.16292 22.50225
# Shear Modulus (GPa) = -9.69521 21.38169 5.84324
#
# Velocity S-wave (km/s) = -2.08032 3.08938 1.61502
# Velocity P-wave (km/s) = 1.75685 4.89468 3.67725
#
# Compressibility (1/GPa) = 0.05039923
#
# Stress axis : x y z
#
# Youngs Moduli (GPa) = 86.66312 68.07962 32.53662
#
# Poissons Ratio (x) = 0.16283 -0.04181
# Poissons Ratio (y) = 0.20728 0.07076
# Poissons Ratio (z) = -0.11138 0.14807
#
# Static dielectric constant tensor:
#      x y z
#    x 1.901890 0.000000 0.014190 
#    y 0.000000 1.824840 0.000000 
#    z 0.014190 0.000000 1.908930 
# 
# From -- ./inp_files/18629.got.cif
#   From: 2010.05.17/outbox.cif.g08.bks.cpg/sg11_10_cif.got.tgz:18629.got - 2010.06.03 12:22:45.
