data_PCOD9156238
_publ_section_title
;
Structure prediction by ZEFSAII (Michael W. Deem and Ramdas Pophale) SiO2 
 PCOD9156238
Probable space group: P 21/M
;
_chemical_formula_sum "Si O2"
_cell_formula_units_Z 32
_cell_length_a 16.820653
_cell_length_b 8.902994
_cell_length_c 14.398441
_cell_angle_alpha 90.000000
_cell_angle_beta 94.911719
_cell_angle_gamma 90.000000
_cell_volume 2148.308535
_symmetry_space_group_name_H-M "P 21/M"
_symmetry_group_IT_number 11
_symmetry_cell_setting 'monoclinic'
loop_
_space_group_symop_operation_xyz
x,y,z
-x,1/2+y,-z
-x,-y,-z
x,1/2-y,z
loop_
_atom_site_type_symbol
_atom_site_label
_atom_site_fract_x
_atom_site_fract_y
_atom_site_fract_z
Si Si1 0.934409 0.567822 0.925030
Si Si2 0.148699 0.930493 0.658499
Si Si3 0.723438 0.570580 0.192305
Si Si4 0.239205 0.069663 0.017306
Si Si5 0.599446 0.422704 0.918755
Si Si6 0.975556 0.931694 0.721797
Si Si7 0.084513 0.430874 0.476254
Si Si8 0.560376 0.422749 0.136132
O O1 0.939193 0.750000 0.928396
O O2 0.951695 0.516249 0.821489
O O3 0.846006 0.524746 0.950065
O O4 0.000000 0.500000 0.000000
O O5 0.149433 0.750000 0.653407
O O6 0.065103 0.977813 0.700306
O O7 0.221133 0.991011 0.726856
O O8 0.146669 0.999526 0.554803
O O9 0.728434 0.750000 0.202088
O O10 0.753930 0.529294 0.091287
O O11 0.631859 0.516876 0.188419
O O12 0.246494 0.250000 0.023500
O O13 0.314016 0.997891 0.077934
O O14 0.601721 0.250000 0.889734
O O15 0.527560 0.508918 0.861217
O O16 0.578083 0.425981 0.026867
O O17 0.977140 0.750000 0.724755
O O18 0.914154 0.971399 0.632833
O O19 0.083409 0.250000 0.484513
O O20 0.000000 0.500000 0.500000
O O21 0.563454 0.250000 0.166468
#
# Coordination Sequence:
#
# PCOD9156238 Si02
#       8
#     4   4   4   4   4   4   4   4
#     4  10  19  31  44  60  83 112 145 178 209 241
#     4  10  18  28  42  61  83 109 139 172 212 254
#     4  10  18  27  39  59  86 113 140 170 205 247
#     4   9  18  29  41  58  82 112 145 177 207 241
#     4   9  16  26  41  58  78 106 139 173 207 244
#     4   8  16  29  44  59  79 108 141 175 210 247
#     4   9  16  28  44  61  79 103 135 172 213 254
#     4   9  16  26  40  58  80 107 137 169 206 247
#
# _framework density 14.895439
#
# number of rings (size 3 to 8) (size 9 to 14) (size 15 to 20)
#    0.000    2.750    0.000    3.375    0.000    4.000 
#    0.000    3.125    0.000    0.000    0.000    0.000 
#    0.000    1.000    0.000    2.750    0.000    4.000 
#
# Total GULP energy -178215.882421 kJ/mol
# GULP energy per Si atom -5569.246326 kJ/mol
# Density = 1.486154 g / cm^3
# Si number density = 14.895439 Si / 1000 Ang^3
#
#
#
# Elastic Constant Matrix: (Units=GPa)
#
#
# Indices 1 2 3 4 5 6 
#
# 1 109.9020 36.4552 53.9435 0.0000 16.2705 0.0000
# 2 36.4552 50.2322 32.7648 0.0000 10.5479 0.0000
# 3 53.9435 32.7648 97.9990 0.0000 16.8080 0.0000
# 4 0.0000 0.0000 0.0000 17.9250 0.0000 8.8066
# 5 16.2705 10.5479 16.8080 0.0000 18.2302 0.0000
# 6 0.0000 0.0000 0.0000 8.8066 0.0000 24.9756
#
#
#
# Elastic Compliance Matrix: (Units=1/GPa)
#
#
# Indices 1 2 3 4 5 6 
#
# 1 0.014272 -0.006121 -0.005027 0.000000 -0.004561 0.000000
# 2 -0.006121 0.029154 -0.005252 0.000000 -0.006563 0.000000
# 3 -0.005027 -0.005252 0.015961 0.000000 -0.007190 0.000000
# 4 0.000000 0.000000 0.000000 0.067478 0.000000 -0.023793
# 5 -0.004561 -0.006563 -0.007190 0.000000 0.069351 0.000000
# 6 0.000000 0.000000 0.000000 -0.023793 0.000000 0.048429
#
#
# Mechanical properties :
#
#
# Convention : Reuss Voigt Hill
#
# Bulk Modulus (GPa) = 37.61474 56.05114 46.83294
# Shear Modulus (GPa) = 17.46379 21.22413 19.34396
#
# Velocity S-wave (km/s) = 3.42778 3.77885 3.60759
# Velocity P-wave (km/s) = 6.40106 7.53333 6.99016
#
# Compressibility (1/GPa) = 0.02658532
#
# Stress axis : x y z
#
# Youngs Moduli (GPa) = 70.06610 34.30103 62.65396
#
# Poissons Ratio (x) = 0.20995 0.31499
# Poissons Ratio (y) = 0.42886 0.32908
# Poissons Ratio (z) = 0.35225 0.18016
#
# Static dielectric constant tensor:
#      x y z
#    x 1.484220 0.000000 0.006980 
#    y 0.000000 1.498920 0.000000 
#    z 0.006980 0.000000 1.496910 
# 
# From -- ./inp_files/51362.got.cif
#   From: 2010.05.17/outbox.cif.g08.bks.cpg/sg11_26_cif.got.tgz:51362.got - 2010.06.03 12:22:45.
