data_PCOD9156192
_publ_section_title
;
Structure prediction by ZEFSAII (Michael W. Deem and Ramdas Pophale) SiO2 
 PCOD9156192
Probable space group: P 21/M
;
_chemical_formula_sum "Si O2"
_cell_formula_units_Z 20
_cell_length_a 9.257082
_cell_length_b 17.770740
_cell_length_c 9.562101
_cell_angle_alpha 90.000000
_cell_angle_beta 139.966656
_cell_angle_gamma 90.000000
_cell_volume 1011.815846
_symmetry_space_group_name_H-M "P 21/M"
_symmetry_group_IT_number 11
_symmetry_cell_setting 'monoclinic'
loop_
_space_group_symop_operation_xyz
x,y,z
-x,1/2+y,-z
-x,-y,-z
x,1/2-y,z
loop_
_atom_site_type_symbol
_atom_site_label
_atom_site_fract_x
_atom_site_fract_y
_atom_site_fract_z
Si Si1 0.278829 0.165285 0.937379
Si Si2 0.229053 0.487169 0.772525
Si Si3 0.822630 0.336512 0.764579
Si Si4 0.383720 0.570918 0.642128
Si Si5 0.192466 0.536781 0.047952
O O1 0.297327 0.250000 0.898275
O O2 0.083276 0.163372 0.909944
O O3 0.211572 0.102990 0.773082
O O4 0.503059 0.135727 0.178524
O O5 0.199444 0.527860 0.601452
O O6 0.500000 0.500000 0.000000
O O7 0.132505 0.525713 0.840998
O O8 0.745237 0.250000 0.704060
O O9 0.704506 0.389106 0.561355
O O10 0.787710 0.377791 0.885946
O O11 0.579160 0.510221 0.756107
O O12 0.000000 0.500000 0.000000
#
# Coordination Sequence:
#
# PCOD9156192 Si02
#       5
#     4   4   4   4   4
#     4   9  17  32  51  75 107 135 171 220 264 309
#     4   8  17  33  54  78 101 138 178 205 265 313
#     4  11  21  33  55  83 104 139 181 220 267 315
#     4  10  20  35  55  79 106 139 180 216 263 319
#     4  10  17  36  56  78 105 142 175 217 264 314
#
# _framework density 19.766442000000001
#
# number of rings (size 3 to 8) (size 9 to 14) (size 15 to 20)
#    0.000    2.800    4.000    1.200    0.000    0.800 
#    0.000   10.000    0.000    0.000    0.000    0.000 
#    0.000    0.000    0.000    0.000    0.000    0.000 
#
# Total GULP energy -111506.560952 kJ/mol
# GULP energy per Si atom -5575.328048 kJ/mol
# Density = 1.972145 g / cm^3
# Si number density = 19.766442 Si / 1000 Ang^3
#
#
#
# Elastic Constant Matrix: (Units=GPa)
#
#
# Indices 1 2 3 4 5 6 
#
# 1 98.6397 51.6678 17.9879 0.0000 -15.3031 0.0000
# 2 51.6678 178.6829 42.2493 0.0000 -20.5997 0.0000
# 3 17.9879 42.2493 71.5729 0.0000 -27.3552 0.0000
# 4 0.0000 0.0000 0.0000 27.3638 0.0000 -2.5012
# 5 -15.3031 -20.5997 -27.3552 0.0000 24.9967 0.0000
# 6 0.0000 0.0000 0.0000 -2.5012 0.0000 33.0926
#
#
#
# Elastic Compliance Matrix: (Units=1/GPa)
#
#
# Indices 1 2 3 4 5 6 
#
# 1 0.012575 -0.003175 0.001128 0.000000 0.006316 0.000000
# 2 -0.003175 0.007364 -0.003391 0.000000 0.000415 0.000000
# 3 0.001128 -0.003391 0.025588 0.000000 0.025899 0.000000
# 4 0.000000 0.000000 0.000000 0.036799 0.000000 0.002781
# 5 0.006316 0.000415 0.025899 0.000000 0.072556 0.000000
# 6 0.000000 0.000000 0.000000 0.002781 0.000000 0.030428
#
#
# Mechanical properties :
#
#
# Convention : Reuss Voigt Hill
#
# Bulk Modulus (GPa) = 28.85815 63.63395 46.24605
# Shear Modulus (GPa) = 24.06893 32.89000 28.47947
#
# Velocity S-wave (km/s) = 3.49329 4.08356 3.79990
# Velocity P-wave (km/s) = 5.55896 7.38219 6.53448
#
# Compressibility (1/GPa) = 0.03465225
#
# Stress axis : x y z
#
# Youngs Moduli (GPa) = 79.52236 135.79588 39.08029
#
# Poissons Ratio (x) = 0.43110 -0.04407
# Poissons Ratio (y) = 0.25246 0.13251
# Poissons Ratio (z) = -0.08968 0.46043
#
# Static dielectric constant tensor:
#      x y z
#    x 1.745340 0.000000 0.064800 
#    y 0.000000 1.703570 0.000000 
#    z 0.064800 0.000000 1.860790 
# 
# From -- ./inp_files/12799.got.cif
#   From: 2010.05.17/outbox.cif.g08.bks.cpg/sg11_7_cif.got.tgz:12799.got - 2010.06.03 12:22:45.
