data_PCOD9156118
_publ_section_title
;
Structure prediction by ZEFSAII (Michael W. Deem and Ramdas Pophale) SiO2 
 PCOD9156118
Probable space group: P 21/M
;
_chemical_formula_sum "Si O2"
_cell_formula_units_Z 20
_cell_length_a 8.912705
_cell_length_b 13.855142
_cell_length_c 14.229566
_cell_angle_alpha 90.000000
_cell_angle_beta 31.638879
_cell_angle_gamma 90.000000
_cell_volume 921.744243
_symmetry_space_group_name_H-M "P 21/M"
_symmetry_group_IT_number 11
_symmetry_cell_setting 'monoclinic'
loop_
_space_group_symop_operation_xyz
x,y,z
-x,1/2+y,-z
-x,-y,-z
x,1/2-y,z
loop_
_atom_site_type_symbol
_atom_site_label
_atom_site_fract_x
_atom_site_fract_y
_atom_site_fract_z
Si Si1 0.764306 0.250000 0.676991
Si Si2 0.279391 0.106333 0.912028
Si Si3 0.011672 0.581051 0.119169
Si Si4 0.754708 0.393688 0.318965
Si Si5 0.587997 0.250000 0.070634
Si Si6 0.938283 0.250000 0.369223
Si Si7 0.393948 0.250000 0.396445
O O1 0.567766 0.155388 0.791138
O O2 0.863959 0.250000 0.516688
O O3 0.053393 0.250000 0.579846
O O4 0.186894 0.128341 0.854850
O O5 0.029478 0.142748 0.112741
O O6 0.239038 0.991023 0.945322
O O7 0.807431 0.508915 0.287343
O O8 0.212710 0.658766 0.059631
O O9 0.501139 0.344632 0.395862
O O10 0.797802 0.343393 0.395336
O O11 0.284300 0.250000 0.180038
O O12 0.517203 0.250000 0.222508
#
# Coordination Sequence:
#
# PCOD9156118 Si02
#       7
#     2   4   4   4   2   2   2
#     4  11  21  32  57  93 124 137 185 237 287 336
#     4   9  17  35  63  87  99 152 201 234 260 329
#     4   9  18  32  67  82 103 144 212 240 255 330
#     4   9  18  39  60  79 110 160 192 217 288 338
#     4  11  17  33  52  96 105 142 196 250 282 311
#     4  10  23  32  53  83 129 149 167 239 309 338
#     4  10  17  31  56  82 118 148 182 228 282 345
#
# _framework density 21.697994000000001
#
# number of rings (size 3 to 8) (size 9 to 14) (size 15 to 20)
#    1.200    1.200    2.000    1.800    0.000    0.800 
#    0.000   10.000   17.600    0.000    0.000    0.000 
#    0.000    0.000    0.000    0.000    0.000    0.000 
#
# Total GULP energy -111480.029845 kJ/mol
# GULP energy per Si atom -5574.001492 kJ/mol
# Density = 2.164861 g / cm^3
# Si number density = 21.697994 Si / 1000 Ang^3
#
#
#
# Elastic Constant Matrix: (Units=GPa)
#
#
# Indices 1 2 3 4 5 6 
#
# 1 88.8501 25.2140 40.3313 0.0000 -28.2924 0.0000
# 2 25.2140 93.9772 28.1956 0.0000 -18.8326 0.0000
# 3 40.3313 28.1956 77.8662 0.0000 -36.5969 0.0000
# 4 0.0000 0.0000 0.0000 -460.4746 0.0000 51.6547
# 5 -28.2924 -18.8326 -36.5969 0.0000 38.7229 0.0000
# 6 0.0000 0.0000 0.0000 51.6547 0.0000 -25.9451
#
#
#
# Elastic Compliance Matrix: (Units=1/GPa)
#
#
# Indices 1 2 3 4 5 6 
#
# 1 0.015849 -0.001577 -0.004599 0.000000 0.006467 0.000000
# 2 -0.001577 0.012304 -0.002461 0.000000 0.002507 0.000000
# 3 -0.004599 -0.002461 0.025142 0.000000 0.019204 0.000000
# 4 0.000000 0.000000 0.000000 -0.002796 0.000000 -0.005567
# 5 0.006467 0.002507 0.019204 0.000000 0.049918 0.000000
# 6 0.000000 0.000000 0.000000 -0.005567 0.000000 -0.049626
#
#
# Mechanical properties :
#
#
# Convention : Reuss Voigt Hill
#
# Bulk Modulus (GPa) = 27.76033 49.79728 38.77880
# Shear Modulus (GPa) = 62.44437 -78.40920 -7.98241
#
# Velocity S-wave (km/s) = 5.37041 -6.01790 -1.92012
# Velocity P-wave (km/s) = 7.16079 5.02859 3.60487
#
# Compressibility (1/GPa) = 0.03602263
#
# Stress axis : x y z
#
# Youngs Moduli (GPa) = 63.09517 81.27118 39.77478
#
# Poissons Ratio (x) = 0.12813 0.18292
# Poissons Ratio (y) = 0.09948 0.09788
# Poissons Ratio (z) = 0.29017 0.19999
#
# Static dielectric constant tensor:
#      x y z
#    x 1.767950 0.000000 0.027120 
#    y 0.000000 1.866800 0.000000 
#    z 0.027120 0.000000 1.820370 
# 
# From -- ./inp_files/47805.got.cif
#   From: 2010.05.17/outbox.cif.g08.bks.cpg/sg11_24_cif.got.tgz:47805.got - 2010.06.03 12:22:45.
