data_PCOD9156800
_publ_section_title
;
Structure prediction by ZEFSAII (Michael W. Deem and Ramdas Pophale) SiO2 
 PCOD9156800
Probable space group: P 21/M
;
_chemical_formula_sum "Si O2"
_cell_formula_units_Z 28
_cell_length_a 10.082924
_cell_length_b 8.632502
_cell_length_c 31.218628
_cell_angle_alpha 90.000000
_cell_angle_beta 143.847200
_cell_angle_gamma 90.000000
_cell_volume 1603.043661
_symmetry_space_group_name_H-M "P 21/M"
_symmetry_group_IT_number 11
_symmetry_cell_setting 'monoclinic'
loop_
_space_group_symop_operation_xyz
x,y,z
-x,1/2+y,-z
-x,-y,-z
x,1/2-y,z
loop_
_atom_site_type_symbol
_atom_site_label
_atom_site_fract_x
_atom_site_fract_y
_atom_site_fract_z
Si Si1 0.040232 0.564209 0.057559
Si Si2 0.837269 0.563416 0.776470
Si Si3 0.650526 0.564722 0.500001
Si Si4 0.269784 0.436489 0.348065
Si Si5 0.747563 0.064208 0.057558
Si Si6 0.970544 0.936488 0.348063
Si Si7 0.454924 0.936584 0.223531
O O1 0.031103 0.750000 0.054598
O O2 0.280896 0.516427 0.140688
O O3 0.854230 0.500004 0.041692
O O4 0.000000 0.500000 0.000000
O O5 0.827662 0.750000 0.775032
O O6 0.802323 0.515154 0.718371
O O7 0.647627 0.499998 0.759051
O O8 0.077454 0.516431 0.859312
O O9 0.500000 0.500000 0.500000
O O10 0.649504 0.750000 0.500003
O O11 0.517300 0.500850 0.424321
O O12 0.895699 0.500844 0.575682
O O13 0.273064 0.250000 0.351829
O O14 0.096964 0.499998 0.338784
O O15 0.741888 0.250000 0.054595
O O16 0.500000 0.000000 0.000000
O O17 0.986082 0.750000 0.351824
O O18 0.710470 0.984846 0.281627
O O19 0.452506 0.750000 0.224968
#
# Coordination Sequence:
#
# PCOD9156800 Si02
#       7
#     4   4   4   4   4   4   4
#     4  10  20  36  55  78 105 137 173 213 258 307
#     4   9  20  36  54  75 103 135 170 208 253 302
#     4  10  18  30  49  74 101 132 166 206 252 298
#     4  10  19  33  52  76 102 132 168 209 251 298
#     4  10  20  36  55  78 105 137 173 213 258 307
#     4  10  19  33  52  76 102 132 168 209 251 298
#     4   9  20  36  54  75 103 135 170 208 253 302
#
# _framework density 17.466771999999999
#
# number of rings (size 3 to 8) (size 9 to 14) (size 15 to 20)
#    0.000    2.286    0.000    4.714    0.000    4.571 
#    0.000    3.571    0.000    0.000    0.000    0.000 
#    0.000    0.000    0.000    0.000    0.000    0.000 
#
# Total GULP energy -156183.207911 kJ/mol
# GULP energy per Si atom -5577.971711 kJ/mol
# Density = 1.742702 g / cm^3
# Si number density = 17.466772 Si / 1000 Ang^3
#
#
#
# Elastic Constant Matrix: (Units=GPa)
#
#
# Indices 1 2 3 4 5 6 
#
# 1 102.1630 36.9956 116.4124 0.0000 -1.1572 0.0000
# 2 36.9956 66.8990 51.2470 0.0000 -0.1927 0.0000
# 3 116.4124 51.2470 173.0727 0.0000 0.1991 0.0000
# 4 0.0000 0.0000 0.0000 27.1162 0.0000 0.0305
# 5 -1.1572 -0.1927 0.1991 0.0000 35.7408 0.0000
# 6 0.0000 0.0000 0.0000 0.0305 0.0000 29.3960
#
#
#
# Elastic Compliance Matrix: (Units=1/GPa)
#
#
# Indices 1 2 3 4 5 6 
#
# 1 0.042208 -0.002054 -0.027783 0.000000 0.001510 0.000000
# 2 -0.002054 0.019434 -0.004373 0.000000 0.000063 0.000000
# 3 -0.027783 -0.004373 0.025762 0.000000 -0.001067 0.000000
# 4 0.000000 0.000000 0.000000 0.036878 0.000000 -0.000038
# 5 0.001510 0.000063 -0.001067 0.000000 0.028034 0.000000
# 6 0.000000 0.000000 0.000000 -0.000038 0.000000 0.034018
#
#
# Mechanical properties :
#
#
# Convention : Reuss Voigt Hill
#
# Bulk Modulus (GPa) = 52.67935 83.49387 68.08661
# Shear Modulus (GPa) = 19.15108 27.61592 23.38350
#
# Velocity S-wave (km/s) = 3.31483 3.98056 3.66285
# Velocity P-wave (km/s) = 6.69896 8.30854 7.54678
#
# Compressibility (1/GPa) = 0.01898277
#
# Stress axis : x y z
#
# Youngs Moduli (GPa) = 23.69240 51.45696 38.81731
#
# Poissons Ratio (x) = 0.10568 1.07848
# Poissons Ratio (y) = 0.04866 0.16975
# Poissons Ratio (z) = 0.65825 0.22502
#
# Static dielectric constant tensor:
#      x y z
#    x 1.560020 0.000000 -0.000870 
#    y 0.000000 1.591400 0.000000 
#    z -0.000870 0.000000 1.624960 
# 
# From -- ./inp_files/72764.got.cif
#   From: 2010.05.17/outbox.cif.g08.bks.cpg/sg11_37_cif.got.tgz:72764.got - 2010.06.03 12:22:45.
