data_PCOD9156218
_publ_section_title
;
Structure prediction by ZEFSAII (Michael W. Deem and Ramdas Pophale) SiO2 
 PCOD9156218
Probable space group: P 21/M
;
_chemical_formula_sum "Si O2"
_cell_formula_units_Z 20
_cell_length_a 14.190691
_cell_length_b 5.713469
_cell_length_c 11.843477
_cell_angle_alpha 90.000000
_cell_angle_beta 125.295225
_cell_angle_gamma 90.000000
_cell_volume 783.739338
_symmetry_space_group_name_H-M "P 21/M"
_symmetry_group_IT_number 11
_symmetry_cell_setting 'monoclinic'
loop_
_space_group_symop_operation_xyz
x,y,z
-x,1/2+y,-z
-x,-y,-z
x,1/2-y,z
loop_
_atom_site_type_symbol
_atom_site_label
_atom_site_fract_x
_atom_site_fract_y
_atom_site_fract_z
Si Si1 0.295216 0.250000 0.042931
Si Si2 0.155633 0.250000 0.145767
Si Si3 0.836410 0.000738 0.572082
Si Si4 0.087209 0.750000 0.106302
Si Si5 0.176051 0.750000 0.909674
Si Si6 0.563074 0.503492 0.422188
Si Si7 0.473862 0.750000 0.922826
Si Si8 0.797800 0.250000 0.324158
O O1 0.241559 0.498243 0.964316
O O2 0.275162 0.250000 0.163579
O O3 0.424165 0.250000 0.095297
O O4 0.050573 0.250000 0.981114
O O5 0.140120 0.507130 0.186612
O O6 0.893363 0.250000 0.644296
O O7 0.825622 0.034361 0.427910
O O8 0.890139 0.750000 0.635708
O O9 0.703037 0.991937 0.522512
O O10 0.106394 0.750000 0.981443
O O11 0.138376 0.750000 0.751754
O O12 0.500000 0.500000 0.500000
O O13 0.527083 0.750000 0.340495
O O14 0.540717 0.250000 0.357732
O O15 0.339393 0.750000 0.795383
O O16 0.500000 0.500000 0.000000
#
# Coordination Sequence:
#
# PCOD9156218 Si02
#       8
#     2   2   4   2   2   4   2   2
#     4  10  18  30  36  52  59  84 108 139 171 198
#     4   8  14  24  40  48  68  71  96 127 164 206
#     4   8  16  24  33  46  60  80 103 128 163 184
#     4   8  14  24  36  56  60  80  90 123 168 203
#     4  10  18  26  40  48  68  79 107 133 168 205
#     4   8  12  20  32  45  59  74  95 124 155 182
#     4  12  22  30  38  48  63  88 119 146 171 196
#     4  10  20  26  38  44  68  86 110 142 160 196
#
# _framework density 25.518685999999999
#
# number of rings (size 3 to 8) (size 9 to 14) (size 15 to 20)
#    0.600    2.400    2.000    0.000    2.800    0.000 
#    0.000    0.000    0.000    0.000    0.000    0.000 
#    0.000    0.000    0.000    0.000    0.000    0.000 
#
# Total GULP energy -111386.978590 kJ/mol
# GULP energy per Si atom -5569.348929 kJ/mol
# Density = 2.546060 g / cm^3
# Si number density = 25.518686 Si / 1000 Ang^3
#
#
#
# Elastic Constant Matrix: (Units=GPa)
#
#
# Indices 1 2 3 4 5 6 
#
# 1 107.5812 36.9880 37.3221 0.0000 12.2149 0.0000
# 2 36.9880 321.4010 52.9357 0.0000 -12.8127 0.0000
# 3 37.3221 52.9357 58.6203 0.0000 -15.8660 0.0000
# 4 0.0000 0.0000 0.0000 20.7930 0.0000 -1.5850
# 5 12.2149 -12.8127 -15.8660 0.0000 14.7479 0.0000
# 6 0.0000 0.0000 0.0000 -1.5850 0.0000 18.9341
#
#
#
# Elastic Compliance Matrix: (Units=1/GPa)
#
#
# Indices 1 2 3 4 5 6 
#
# 1 0.027641 -0.000005 -0.033564 0.000000 -0.059007 0.000000
# 2 -0.000005 0.003658 -0.003440 0.000000 -0.000519 0.000000
# 3 -0.033564 -0.003440 0.068071 0.000000 0.098042 0.000000
# 4 0.000000 0.000000 0.000000 0.048402 0.000000 0.004052
# 5 -0.059007 -0.000519 0.098042 0.000000 0.221702 0.000000
# 6 0.000000 0.000000 0.000000 0.004052 0.000000 0.053154
#
#
# Mechanical properties :
#
#
# Convention : Reuss Voigt Hill
#
# Bulk Modulus (GPa) = 39.44736 82.45490 60.95113
# Shear Modulus (GPa) = 9.89909 34.91877 22.40893
#
# Velocity S-wave (km/s) = 1.97169 3.70315 2.96655
# Velocity P-wave (km/s) = 4.54700 7.11802 5.97249
#
# Compressibility (1/GPa) = 0.02535024
#
# Stress axis : x y z
#
# Youngs Moduli (GPa) = 36.17833 273.37907 14.69061
#
# Poissons Ratio (x) = 0.00143 0.49308
# Poissons Ratio (y) = 0.00019 0.05054
# Poissons Ratio (z) = 1.21429 0.94051
#
# Static dielectric constant tensor:
#      x y z
#    x 2.158320 0.000000 -0.109620 
#    y 0.000000 1.908440 0.000000 
#    z -0.109620 0.000000 2.025680 
# 
# From -- ./inp_files/43603.got.cif
#   From: 2010.05.17/outbox.cif.g08.bks.cpg/sg11_22_cif.got.tgz:43603.got - 2010.06.03 12:22:45.
