data_PCOD9156246
_publ_section_title
;
Structure prediction by ZEFSAII (Michael W. Deem and Ramdas Pophale) SiO2 
 PCOD9156246
Probable space group: P 21/M
;
_chemical_formula_sum "Si O2"
_cell_formula_units_Z 32
_cell_length_a 13.895328
_cell_length_b 9.229335
_cell_length_c 27.477256
_cell_angle_alpha 90.000000
_cell_angle_beta 39.441694
_cell_angle_gamma 90.000000
_cell_volume 2238.651092
_symmetry_space_group_name_H-M "P 21/M"
_symmetry_group_IT_number 11
_symmetry_cell_setting 'monoclinic'
loop_
_space_group_symop_operation_xyz
x,y,z
-x,1/2+y,-z
-x,-y,-z
x,1/2-y,z
loop_
_atom_site_type_symbol
_atom_site_label
_atom_site_fract_x
_atom_site_fract_y
_atom_site_fract_z
Si Si1 0.936347 0.921898 0.452584
Si Si2 0.982756 0.916694 0.930360
Si Si3 0.790196 0.577959 0.224417
Si Si4 0.777705 0.921494 0.618577
Si Si5 0.236551 0.917127 0.917193
Si Si6 0.626443 0.576125 0.386265
Si Si7 0.461079 0.422020 0.761168
Si Si8 0.686276 0.576288 0.473789
O O1 0.971665 0.750000 0.435970
O O2 0.834286 0.943249 0.540871
O O3 0.834816 0.964511 0.446079
O O4 0.088765 0.012223 0.400519
O O5 0.943625 0.750000 0.935993
O O6 0.107826 0.917739 0.925063
O O7 0.067233 0.991635 0.852344
O O8 0.840964 0.005839 0.006527
O O9 0.823591 0.750000 0.211218
O O10 0.734261 0.533364 0.299663
O O11 0.650143 0.555638 0.241759
O O12 0.760720 0.750000 0.633208
O O13 0.620914 0.002936 0.688943
O O14 0.275303 0.750000 0.911745
O O15 0.375776 0.005603 0.840198
O O16 0.605760 0.750000 0.391433
O O17 0.692298 0.541722 0.414005
O O18 0.463169 0.500515 0.446953
O O19 0.477940 0.250000 0.761500
O O20 0.667991 0.750000 0.485792
#
# Coordination Sequence:
#
# PCOD9156246 Si02
#       8
#     4   4   4   4   4   4   4   4
#     4   9  18  31  44  58  79 107 137 170 208 246
#     4   9  16  25  38  56  78 106 138 168 199 236
#     4   9  17  27  39  57  82 111 139 167 200 238
#     4  10  19  29  42  60  80 104 137 173 207 244
#     4   9  16  26  39  55  78 107 137 167 199 237
#     4   9  17  28  42  61  83 107 137 170 203 241
#     4  10  18  27  40  58  82 110 138 168 201 238
#     4   9  17  29  44  60  80 107 137 170 207 244
#
# _framework density 14.294321999999999
#
# number of rings (size 3 to 8) (size 9 to 14) (size 15 to 20)
#    0.000    2.750    0.000    2.250    0.000    5.000 
#    0.000    0.000    0.000    0.000    0.000    0.000 
#    0.000    1.000    0.000    2.750    0.000    4.000 
#
# Total GULP energy -178316.156672 kJ/mol
# GULP energy per Si atom -5572.379896 kJ/mol
# Density = 1.426179 g / cm^3
# Si number density = 14.294322 Si / 1000 Ang^3
#
#
#
# Elastic Constant Matrix: (Units=GPa)
#
#
# Indices 1 2 3 4 5 6 
#
# 1 45.6028 29.0095 23.8436 0.0000 1.5945 0.0000
# 2 29.0095 75.2323 60.4100 0.0000 -0.9818 0.0000
# 3 23.8436 60.4100 101.0474 0.0000 10.0530 0.0000
# 4 0.0000 0.0000 0.0000 29.9838 0.0000 -2.4131
# 5 1.5945 -0.9818 10.0530 0.0000 20.1127 0.0000
# 6 0.0000 0.0000 0.0000 -2.4131 0.0000 15.0049
#
#
#
# Elastic Compliance Matrix: (Units=1/GPa)
#
#
# Indices 1 2 3 4 5 6 
#
# 1 0.029225 -0.011568 0.000322 0.000000 -0.003043 0.000000
# 2 -0.011568 0.031932 -0.017476 0.000000 0.011211 0.000000
# 3 0.000322 -0.017476 0.021421 0.000000 -0.011585 0.000000
# 4 0.000000 0.000000 0.000000 0.033789 0.000000 0.005434
# 5 -0.003043 0.011211 -0.011585 0.000000 0.056299 0.000000
# 6 0.000000 0.000000 0.000000 0.005434 0.000000 0.067519
#
#
# Mechanical properties :
#
#
# Convention : Reuss Voigt Hill
#
# Bulk Modulus (GPa) = 39.78530 49.82319 44.80424
# Shear Modulus (GPa) = 16.33966 20.26157 18.30062
#
# Velocity S-wave (km/s) = 3.38463 3.76900 3.58197
# Velocity P-wave (km/s) = 6.57021 7.33971 6.96559
#
# Compressibility (1/GPa) = 0.02513491
#
# Stress axis : x y z
#
# Youngs Moduli (GPa) = 34.21740 31.31701 46.68408
#
# Poissons Ratio (x) = 0.36226 -0.01504
# Poissons Ratio (y) = 0.39581 0.81584
# Poissons Ratio (z) = -0.01102 0.54729
#
# Static dielectric constant tensor:
#      x y z
#    x 1.453890 0.000000 0.013020 
#    y 0.000000 1.476120 0.000000 
#    z 0.013020 0.000000 1.454200 
# 
# From -- ./inp_files/52965.got.cif
#   From: 2010.05.17/outbox.cif.g08.bks.cpg/sg11_27_cif.got.tgz:52965.got - 2010.06.03 12:22:45.
