data_PCOD9156292
_publ_section_title
;
Structure prediction by ZEFSAII (Michael W. Deem and Ramdas Pophale) SiO2 
 PCOD9156292
Probable space group: P 21/M
;
_chemical_formula_sum "Si O2"
_cell_formula_units_Z 32
_cell_length_a 22.398238
_cell_length_b 21.025845
_cell_length_c 9.327801
_cell_angle_alpha 90.000000
_cell_angle_beta 149.293471
_cell_angle_gamma 90.000000
_cell_volume 2243.169959
_symmetry_space_group_name_H-M "P 21/M"
_symmetry_group_IT_number 11
_symmetry_cell_setting 'monoclinic'
loop_
_space_group_symop_operation_xyz
x,y,z
-x,1/2+y,-z
-x,-y,-z
x,1/2-y,z
loop_
_atom_site_type_symbol
_atom_site_label
_atom_site_fract_x
_atom_site_fract_y
_atom_site_fract_z
Si Si1 0.794553 0.425916 0.237872
Si Si2 0.076661 0.677106 0.309697
Si Si3 0.599452 0.072241 0.078105
Si Si4 0.110170 0.086036 0.172059
Si Si5 0.278366 0.824526 0.488878
Si Si6 0.341002 0.029640 0.553203
Si Si7 0.972566 0.974530 0.714973
Si Si8 0.214637 0.922708 0.111988
O O1 0.870725 0.367876 0.458965
O O2 0.682783 0.430716 0.111827
O O3 0.875636 0.488935 0.421212
O O4 0.762300 0.414035 0.007555
O O5 0.073704 0.750000 0.347652
O O6 0.163218 0.670519 0.351795
O O7 0.952330 0.650365 0.003557
O O8 0.624741 0.137058 0.218874
O O9 0.638822 0.016130 0.267706
O O10 0.463867 0.060630 0.765341
O O11 0.243050 0.079800 0.397914
O O12 0.090079 0.070191 0.297389
O O13 0.039445 0.029935 0.942718
O O14 0.304393 0.750000 0.520660
O O15 0.252287 0.863566 0.289998
O O16 0.286290 0.983530 0.319863
O O17 0.076457 0.937618 0.849258
#
# Coordination Sequence:
#
# PCOD9156292 Si02
#       8
#     4   4   4   4   4   4   4   4
#     4  10  18  27  43  66  95 118 139 173 220 265
#     4   9  17  29  45  64  86 113 147 182 213 254
#     4   9  17  30  45  64  87 114 148 185 215 249
#     4   9  14  26  47  63  84 112 141 181 217 247
#     4   9  17  30  46  63  85 113 147 184 216 250
#     4   9  17  29  46  64  87 114 146 181 217 254
#     4   9  15  26  42  66  90 112 138 172 219 265
#     4  10  18  27  43  68  93 116 140 171 219 274
#
# _framework density 14.265527000000001
#
# number of rings (size 3 to 8) (size 9 to 14) (size 15 to 20)
#    0.000    2.750    2.500    0.375    0.000    1.000 
#    0.000    0.625    0.000    0.000    0.000    0.000 
#    0.000    0.000    0.000    0.000    0.000    0.000 
#
# Total GULP energy -178158.341493 kJ/mol
# GULP energy per Si atom -5567.448172 kJ/mol
# Density = 1.423306 g / cm^3
# Si number density = 14.265527 Si / 1000 Ang^3
#
#
#
# Elastic Constant Matrix: (Units=GPa)
#
#
# Indices 1 2 3 4 5 6 
#
# 1 83.0420 41.9797 48.7770 0.0000 -8.4831 0.0000
# 2 41.9797 76.8087 44.4868 0.0000 6.2732 0.0000
# 3 48.7770 44.4868 83.6174 0.0000 9.6696 0.0000
# 4 0.0000 0.0000 0.0000 11.6862 0.0000 2.8897
# 5 -8.4831 6.2732 9.6696 0.0000 25.1759 0.0000
# 6 0.0000 0.0000 0.0000 2.8897 0.0000 13.7064
#
#
#
# Elastic Compliance Matrix: (Units=1/GPa)
#
#
# Indices 1 2 3 4 5 6 
#
# 1 0.024361 -0.007660 -0.011831 0.000000 0.014661 0.000000
# 2 -0.007660 0.021245 -0.006200 0.000000 -0.005494 0.000000
# 3 -0.011831 -0.006200 0.023485 0.000000 -0.011462 0.000000
# 4 0.000000 0.000000 0.000000 0.090277 0.000000 -0.019033
# 5 0.014661 -0.005494 -0.011462 0.000000 0.050432 0.000000
# 6 0.000000 0.000000 0.000000 -0.019033 0.000000 0.076971
#
#
# Mechanical properties :
#
#
# Convention : Reuss Voigt Hill
#
# Bulk Modulus (GPa) = 56.46429 57.10609 56.78519
# Shear Modulus (GPa) = 14.53256 17.32867 15.93062
#
# Velocity S-wave (km/s) = 3.19520 3.48907 3.34536
# Velocity P-wave (km/s) = 7.29926 7.50661 7.40366
#
# Compressibility (1/GPa) = 0.01771031
#
# Stress axis : x y z
#
# Youngs Moduli (GPa) = 41.04888 47.06960 42.58121
#
# Poissons Ratio (x) = 0.36053 0.50378
# Poissons Ratio (y) = 0.31442 0.26399
# Poissons Ratio (z) = 0.48565 0.29181
#
# Static dielectric constant tensor:
#      x y z
#    x 1.458580 0.000000 0.004440 
#    y 0.000000 1.461910 0.000000 
#    z 0.004440 0.000000 1.466400 
# 
# From -- ./inp_files/14817.got.cif
#   From: 2010.05.17/outbox.cif.g08.bks.cpg/sg11_8_cif.got.tgz:14817.got - 2010.06.03 12:22:45.
