data_PCOD9156831
_publ_section_title
;
Structure prediction by ZEFSAII (Michael W. Deem and Ramdas Pophale) SiO2 
 PCOD9156831
Probable space group: P 21/M
;
_chemical_formula_sum "Si O2"
_cell_formula_units_Z 32
_cell_length_a 24.839637
_cell_length_b 8.110054
_cell_length_c 12.942582
_cell_angle_alpha 90.000000
_cell_angle_beta 46.322740
_cell_angle_gamma 90.000000
_cell_volume 1885.702293
_symmetry_space_group_name_H-M "P 21/M"
_symmetry_group_IT_number 11
_symmetry_cell_setting 'monoclinic'
loop_
_space_group_symop_operation_xyz
x,y,z
-x,1/2+y,-z
-x,-y,-z
x,1/2-y,z
loop_
_atom_site_type_symbol
_atom_site_label
_atom_site_fract_x
_atom_site_fract_y
_atom_site_fract_z
Si Si1 0.161420 0.548375 0.404627
Si Si2 0.000451 0.053396 0.379286
Si Si3 0.319199 0.948920 0.274210
Si Si4 0.421149 0.446564 0.556759
Si Si5 0.411936 0.951424 0.951398
Si Si6 0.160641 0.947846 0.165181
Si Si7 0.422409 0.051009 0.320316
Si Si8 0.316651 0.551014 0.877552
O O1 0.161702 0.750000 0.403894
O O2 0.234607 0.493065 0.368146
O O3 0.167465 0.496236 0.276052
O O4 0.080336 0.495547 0.554051
O O5 0.001355 0.250000 0.373353
O O6 0.079000 0.992391 0.231667
O O7 0.000000 0.000000 0.500000
O O8 0.318059 0.750000 0.271277
O O9 0.357198 0.999936 0.330034
O O10 0.370033 0.006660 0.110404
O O11 0.500000 0.500000 0.500000
O O12 0.421785 0.250000 0.550907
O O13 0.413397 0.509759 0.449789
O O14 0.355938 0.499609 0.720169
O O15 0.411493 0.750000 0.952573
O O16 0.497353 0.006099 0.829496
O O17 0.366577 0.003291 0.909426
O O18 0.164384 0.750000 0.163689
O O19 0.232178 0.008004 0.007181
O O20 0.424927 0.250000 0.319608
O O21 0.316106 0.750000 0.880923
#
# Coordination Sequence:
#
# PCOD9156831 Si02
#       8
#     4   4   4   4   4   4   4   4
#     4   8  14  26  44  66  93 127 159 186 227 282
#     4   9  16  26  42  65  96 129 160 193 232 282
#     4  10  18  30  50  71  92 125 168 197 224 282
#     4  11  22  36  53  70  93 125 163 205 246 287
#     4   9  16  30  50  68  93 128 158 190 236 282
#     4   9  16  28  47  69  96 128 158 190 237 290
#     4  10  21  35  47  65  96 128 158 198 248 283
#     4  10  18  32  53  73  96 129 162 196 242 290
#
# _framework density 16.969805999999998
#
# number of rings (size 3 to 8) (size 9 to 14) (size 15 to 20)
#    0.000    2.500    2.500    1.875    0.000    1.500 
#    0.000    3.750    0.000    0.000    0.000    0.875 
#    0.000    0.000    0.000    0.000    0.000    0.000 
#
# Total GULP energy -178350.712140 kJ/mol
# GULP energy per Si atom -5573.459754 kJ/mol
# Density = 1.693118 g / cm^3
# Si number density = 16.969806 Si / 1000 Ang^3
#
#
#
# Elastic Constant Matrix: (Units=GPa)
#
#
# Indices 1 2 3 4 5 6 
#
# 1 149.9544 10.5030 94.9751 0.0000 -21.2420 0.0000
# 2 10.5030 10.1575 8.9644 0.0000 -3.9245 0.0000
# 3 94.9751 8.9644 105.3670 0.0000 -24.9718 0.0000
# 4 0.0000 0.0000 0.0000 20.8226 0.0000 -2.1729
# 5 -21.2420 -3.9245 -24.9718 0.0000 35.0350 0.0000
# 6 0.0000 0.0000 0.0000 -2.1729 0.0000 20.6833
#
#
#
# Elastic Compliance Matrix: (Units=1/GPa)
#
#
# Indices 1 2 3 4 5 6 
#
# 1 0.015719 -0.004235 -0.014033 0.000000 -0.000946 0.000000
# 2 -0.004235 0.108858 -0.003806 0.000000 0.006914 0.000000
# 3 -0.014033 -0.003806 0.024481 0.000000 0.008515 0.000000
# 4 0.000000 0.000000 0.000000 0.048557 0.000000 0.005101
# 5 -0.000946 0.006914 0.008515 0.000000 0.034813 0.000000
# 6 0.000000 0.000000 0.000000 0.005101 0.000000 0.048884
#
#
# Mechanical properties :
#
#
# Convention : Reuss Voigt Hill
#
# Bulk Modulus (GPa) = 9.53180 54.92930 32.23055
# Shear Modulus (GPa) = 13.87236 25.37727 19.62481
#
# Velocity S-wave (km/s) = 2.86225 3.87128 3.40436
# Velocity P-wave (km/s) = 4.06847 7.24027 5.87256
#
# Compressibility (1/GPa) = 0.10491200
#
# Stress axis : x y z
#
# Youngs Moduli (GPa) = 63.61740 9.18628 40.84802
#
# Poissons Ratio (x) = 0.03890 0.57320
# Poissons Ratio (y) = 0.26941 0.15546
# Poissons Ratio (z) = 0.89271 0.03496
#
# Static dielectric constant tensor:
#      x y z
#    x 1.574590 0.000000 -0.029530 
#    y 0.000000 1.607630 0.000000 
#    z -0.029530 0.000000 1.571570 
# 
# From -- ./inp_files/42748.got.cif
#   From: 2010.05.17/outbox.cif.g08.bks.cpg/sg11_22_cif.got.tgz:42748.got - 2010.06.03 12:22:45.
