data_PCOD9156582
_publ_section_title
;
Structure prediction by ZEFSAII (Michael W. Deem and Ramdas Pophale) SiO2 
 PCOD9156582
Probable space group: P 21/M
;
_chemical_formula_sum "Si O2"
_cell_formula_units_Z 32
_cell_length_a 21.106273
_cell_length_b 7.703987
_cell_length_c 26.172839
_cell_angle_alpha 90.000000
_cell_angle_beta 22.244133
_cell_angle_gamma 90.000000
_cell_volume 1611.037256
_symmetry_space_group_name_H-M "P 21/M"
_symmetry_group_IT_number 11
_symmetry_cell_setting 'monoclinic'
loop_
_space_group_symop_operation_xyz
x,y,z
-x,1/2+y,-z
-x,-y,-z
x,1/2-y,z
loop_
_atom_site_type_symbol
_atom_site_label
_atom_site_fract_x
_atom_site_fract_y
_atom_site_fract_z
Si Si1 0.165840 0.458228 0.343400
Si Si2 0.631251 0.956574 0.715602
Si Si3 0.655015 0.458107 0.347499
Si Si4 0.036776 0.960984 0.597929
Si Si5 0.896876 0.049238 0.340155
Si Si6 0.341374 0.048840 0.859077
Si Si7 0.516721 0.950801 0.625435
Si Si8 0.019606 0.963833 0.834785
O O1 0.183442 0.250000 0.327498
O O2 0.315951 0.522970 0.267399
O O3 0.000000 0.500000 0.500000
O O4 0.117026 0.520796 0.323246
O O5 0.607300 0.750000 0.736093
O O6 0.789795 0.989756 0.559780
O O7 0.467390 0.035536 0.812680
O O8 0.500000 0.500000 0.500000
O O9 0.672734 0.250000 0.331351
O O10 0.603512 0.520525 0.329599
O O11 0.825968 0.523182 0.245313
O O12 0.034939 0.750000 0.600385
O O13 0.038256 0.027497 0.654788
O O14 0.950975 0.250000 0.299579
O O15 0.953645 0.975198 0.243445
O O16 0.695203 0.043943 0.492880
O O17 0.323622 0.250000 0.858074
O O18 0.427703 0.959944 0.746353
O O19 0.158963 0.981062 0.010006
O O20 0.555042 0.750000 0.584967
O O21 0.022328 0.750000 0.831871
#
# Coordination Sequence:
#
# PCOD9156582 Si02
#       8
#     4   4   4   4   4   4   4   4
#     4   8  15  26  41  68 103 133 163 205 256 306
#     4  10  18  29  47  71 104 138 167 212 265 304
#     4  10  20  36  57  80 106 134 167 212 260 310
#     4   9  16  27  48  77 102 130 171 209 253 314
#     4  10  18  32  56  79 102 134 172 213 255 305
#     4  11  22  36  53  73 102 142 181 216 252 304
#     4  11  22  34  53  81 108 133 167 214 264 310
#     4   9  20  37  55  76 103 136 176 215 255 304
#
# _framework density 19.862981000000001
#
# number of rings (size 3 to 8) (size 9 to 14) (size 15 to 20)
#    0.000    2.250    2.500    1.125    0.000    1.500 
#    0.000    2.500    0.000    0.750    0.000    0.000 
#    0.000    0.000    0.000    0.000    0.000    0.750 
#
# Total GULP energy -178466.040668 kJ/mol
# GULP energy per Si atom -5577.063771 kJ/mol
# Density = 1.981777 g / cm^3
# Si number density = 19.862981 Si / 1000 Ang^3
#
#
#
# Elastic Constant Matrix: (Units=GPa)
#
#
# Indices 1 2 3 4 5 6 
#
# 1 139.5186 -3.4813 23.7531 0.0000 -17.3768 0.0000
# 2 -3.4813 35.1585 -10.4714 0.0000 1.9655 0.0000
# 3 23.7531 -10.4714 68.0551 0.0000 -6.5879 0.0000
# 4 0.0000 0.0000 0.0000 -8.2322 0.0000 6.6577
# 5 -17.3768 1.9655 -6.5879 0.0000 23.9082 0.0000
# 6 0.0000 0.0000 0.0000 6.6577 0.0000 10.9061
#
#
#
# Elastic Compliance Matrix: (Units=1/GPa)
#
#
# Indices 1 2 3 4 5 6 
#
# 1 0.008234 -0.000194 -0.002387 0.000000 0.005343 0.000000
# 2 -0.000194 0.029848 0.004530 0.000000 -0.001347 0.000000
# 3 -0.002387 0.004530 0.016459 0.000000 0.002428 0.000000
# 4 0.000000 0.000000 0.000000 -0.081324 0.000000 0.049645
# 5 0.005343 -0.001347 0.002428 0.000000 0.046490 0.000000
# 6 0.000000 0.000000 0.000000 0.049645 0.000000 0.061386
#
#
# Mechanical properties :
#
#
# Convention : Reuss Voigt Hill
#
# Bulk Modulus (GPa) = 17.11166 29.14810 23.12988
# Shear Modulus (GPa) = 51.72003 20.84520 36.28262
#
# Velocity S-wave (km/s) = 5.10832 3.24304 4.27856
# Velocity P-wave (km/s) = 6.58990 5.35999 6.00651
#
# Compressibility (1/GPa) = 0.05843970
#
# Stress axis : x y z
#
# Youngs Moduli (GPa) = 121.44039 33.50319 60.75671
#
# Poissons Ratio (x) = 0.00651 0.14501
# Poissons Ratio (y) = 0.02358 -0.27523
# Poissons Ratio (z) = 0.28984 -0.15177
#
# Static dielectric constant tensor:
#      x y z
#    x 1.745920 0.000000 -0.026330 
#    y 0.000000 1.750890 0.000000 
#    z -0.026330 0.000000 1.634430 
# 
# From -- ./inp_files/72043.got.cif
#   From: 2010.05.17/outbox.cif.g08.bks.cpg/sg11_37_cif.got.tgz:72043.got - 2010.06.03 12:22:45.
