data_PCOD9156999
_publ_section_title
;
Structure prediction by ZEFSAII (Michael W. Deem and Ramdas Pophale) SiO2 
 PCOD9156999
Probable space group: P 21/M
;
_chemical_formula_sum "Si O2"
_cell_formula_units_Z 32
_cell_length_a 19.753812
_cell_length_b 14.780605
_cell_length_c 9.053785
_cell_angle_alpha 90.000000
_cell_angle_beta 34.782826
_cell_angle_gamma 90.000000
_cell_volume 1508.009724
_symmetry_space_group_name_H-M "P 21/M"
_symmetry_group_IT_number 11
_symmetry_cell_setting 'monoclinic'
loop_
_space_group_symop_operation_xyz
x,y,z
-x,1/2+y,-z
-x,-y,-z
x,1/2-y,z
loop_
_atom_site_type_symbol
_atom_site_label
_atom_site_fract_x
_atom_site_fract_y
_atom_site_fract_z
Si Si1 0.580157 0.388718 0.062309
Si Si2 0.367882 0.093893 0.971917
Si Si3 0.052617 0.644266 0.867610
Si Si4 0.854206 0.150531 0.626207
Si Si5 0.419260 0.850307 0.613688
Si Si6 0.209497 0.993081 0.035339
Si Si7 0.353214 0.347559 0.315978
Si Si8 0.830841 0.526842 0.218503
O O1 0.589517 0.496403 0.044260
O O2 0.527729 0.359904 0.315770
O O3 0.494315 0.354241 0.089894
O O4 0.715325 0.354353 0.825212
O O5 0.477832 0.136793 0.688886
O O6 0.264896 0.070640 0.039395
O O7 0.327043 0.145948 0.189637
O O8 0.056273 0.750000 0.906584
O O9 0.074409 0.641269 0.652655
O O10 0.148991 0.576417 0.766417
O O11 0.928517 0.592788 0.118254
O O12 0.876928 0.250000 0.649504
O O13 0.869235 0.071620 0.719038
O O14 0.366560 0.750000 0.693834
O O15 0.319991 0.928227 0.787136
O O16 0.154770 0.028529 0.983321
O O17 0.311667 0.250000 0.448568
O O18 0.293027 0.430354 0.509484
#
# Coordination Sequence:
#
# PCOD9156999 Si02
#       8
#     4   4   4   4   4   4   4   4
#     4  10  19  34  55  80 115 155 191 233 288 340
#     4  10  20  34  51  77 116 157 196 235 282 338
#     4  10  23  43  65  86 112 149 193 240 289 344
#     4   9  18  36  59  86 118 151 192 238 285 336
#     4  10  18  31  50  78 115 152 191 231 279 340
#     4  10  20  35  57  82 112 149 188 237 293 341
#     4  12  23  36  56  85 120 158 198 239 288 342
#     4  11  23  41  63  86 116 151 192 239 289 345
#
# _framework density 21.220023000000001
#
# number of rings (size 3 to 8) (size 9 to 14) (size 15 to 20)
#    0.000    2.000    0.000    7.875    0.000    2.500 
#    0.000    3.125    0.000    3.000    0.000    0.000 
#    0.000    0.000    0.000    0.000    0.000    0.000 
#
# Total GULP energy -178653.297631 kJ/mol
# GULP energy per Si atom -5582.915551 kJ/mol
# Density = 2.117173 g / cm^3
# Si number density = 21.220023 Si / 1000 Ang^3
#
#
#
# Elastic Constant Matrix: (Units=GPa)
#
#
# Indices 1 2 3 4 5 6 
#
# 1 54.5536 38.1892 -9.1074 0.0000 10.1348 0.0000
# 2 38.1892 110.7357 6.0710 0.0000 -1.8253 0.0000
# 3 -9.1074 6.0710 30.7043 0.0000 7.2856 0.0000
# 4 0.0000 0.0000 0.0000 27.3424 0.0000 14.7396
# 5 10.1348 -1.8253 7.2856 0.0000 17.3727 0.0000
# 6 0.0000 0.0000 0.0000 14.7396 0.0000 16.6456
#
#
#
# Elastic Compliance Matrix: (Units=1/GPa)
#
#
# Indices 1 2 3 4 5 6 
#
# 1 0.039139 -0.015301 0.022692 0.000000 -0.033956 0.000000
# 2 -0.015301 0.015169 -0.011143 0.000000 0.015193 0.000000
# 3 0.022692 -0.011143 0.049886 0.000000 -0.035329 0.000000
# 4 0.000000 0.000000 0.000000 0.069976 0.000000 -0.061963
# 5 -0.033956 0.015193 -0.035329 0.000000 0.093783 0.000000
# 6 0.000000 0.000000 0.000000 -0.061963 0.000000 0.114943
#
#
# Mechanical properties :
#
#
# Convention : Reuss Voigt Hill
#
# Bulk Modulus (GPa) = 10.34254 29.58880 19.96567
# Shear Modulus (GPa) = 11.83070 22.99489 17.41280
#
# Velocity S-wave (km/s) = 2.36376 3.29544 2.86769
# Velocity P-wave (km/s) = 3.51203 5.33423 4.51599
#
# Compressibility (1/GPa) = 0.09668805
#
# Stress axis : x y z
#
# Youngs Moduli (GPa) = 25.55019 65.92466 20.04583
#
# Poissons Ratio (x) = 1.00874 -0.45488
# Poissons Ratio (y) = 0.39095 0.22337
# Poissons Ratio (z) = -0.57978 0.73460
#
# Static dielectric constant tensor:
#      x y z
#    x 1.762880 0.000000 -0.004100 
#    y 0.000000 1.795900 0.000000 
#    z -0.004100 0.000000 1.758830 
# 
# From -- ./inp_files/26818.got.cif
#   From: 2010.05.17/outbox.cif.g08.bks.cpg/sg11_14_cif.got.tgz:26818.got - 2010.06.03 12:22:45.
