data_PCOD9156752
_publ_section_title
;
Structure prediction by ZEFSAII (Michael W. Deem and Ramdas Pophale) SiO2 
 PCOD9156752
Probable space group: P 21/M
;
_chemical_formula_sum "Si O2"
_cell_formula_units_Z 28
_cell_length_a 6.961662
_cell_length_b 9.934199
_cell_length_c 20.468286
_cell_angle_alpha 90.000000
_cell_angle_beta 121.088860
_cell_angle_gamma 90.000000
_cell_volume 1212.236739
_symmetry_space_group_name_H-M "P 21/M"
_symmetry_group_IT_number 11
_symmetry_cell_setting 'monoclinic'
loop_
_space_group_symop_operation_xyz
x,y,z
-x,1/2+y,-z
-x,-y,-z
x,1/2-y,z
loop_
_atom_site_type_symbol
_atom_site_label
_atom_site_fract_x
_atom_site_fract_y
_atom_site_fract_z
Si Si1 0.890363 0.106211 0.147144
Si Si2 0.086400 0.402906 0.320850
Si Si3 0.572997 0.094790 0.275794
Si Si4 0.788735 0.604511 0.039595
Si Si5 0.324804 0.406457 0.590986
Si Si6 0.805295 0.405401 0.549095
Si Si7 0.765500 0.984823 0.888923
O O1 0.782163 0.250000 0.142856
O O2 0.034218 0.067667 0.235816
O O3 0.065797 0.117504 0.118387
O O4 0.731442 0.992721 0.089764
O O5 0.182912 0.250000 0.344409
O O6 0.837129 0.395529 0.308184
O O7 0.200388 0.522609 0.381282
O O8 0.494095 0.250000 0.270925
O O9 0.545661 0.999063 0.333603
O O10 0.455975 0.025070 0.193020
O O11 0.688833 0.750000 0.031980
O O12 0.063639 0.609591 0.087778
O O13 0.735298 0.549839 0.958642
O O14 0.398367 0.250000 0.598313
O O15 0.309768 0.491097 0.521456
O O16 0.066189 0.399483 0.571675
O O17 0.724035 0.250000 0.533135
#
# Coordination Sequence:
#
# PCOD9156752 Si02
#       7
#     4   4   4   4   4   4   4
#     4   9  17  31  49  69  93 124 160 193 231 282
#     4   9  18  30  47  71  98 125 155 193 237 279
#     4  10  18  30  48  71  97 124 155 195 239 280
#     4   9  18  31  51  71  90 121 163 200 231 276
#     4   9  17  28  44  68  97 124 156 195 234 273
#     4   9  16  28  46  67  93 128 161 190 227 278
#     4   9  19  30  53  69  92 121 162 196 234 278
#
# _framework density 23.097798999999998
#
# number of rings (size 3 to 8) (size 9 to 14) (size 15 to 20)
#    0.857    2.000    0.000    2.143    0.000    4.571 
#    0.000    0.714    0.000    0.857    0.000    0.000 
#    0.000    0.000    0.000    0.000    0.000    0.000 
#
# Total GULP energy -156060.609171 kJ/mol
# GULP energy per Si atom -5573.593185 kJ/mol
# Density = 2.304523 g / cm^3
# Si number density = 23.097799 Si / 1000 Ang^3
#
#
#
# Elastic Constant Matrix: (Units=GPa)
#
#
# Indices 1 2 3 4 5 6 
#
# 1 57.3408 20.0491 4.3098 0.0000 2.4816 0.0000
# 2 20.0491 160.4656 116.0551 0.0000 -17.2594 0.0000
# 3 4.3098 116.0551 180.5746 0.0000 -14.6741 0.0000
# 4 0.0000 0.0000 0.0000-1182.5409 0.0000 122.5369
# 5 2.4816 -17.2594 -14.6741 0.0000 25.7215 0.0000
# 6 0.0000 0.0000 0.0000 122.5369 0.0000 -20.3431
#
#
#
# Elastic Compliance Matrix: (Units=1/GPa)
#
#
# Indices 1 2 3 4 5 6 
#
# 1 0.018887 -0.004119 0.001912 0.000000 -0.003495 0.000000
# 2 -0.004119 0.012892 -0.007814 0.000000 0.004590 0.000000
# 3 0.001912 -0.007814 0.010563 0.000000 0.000598 0.000000
# 4 0.000000 0.000000 0.000000 -0.002250 0.000000 -0.013553
# 5 -0.003495 0.004590 0.000598 0.000000 0.042636 0.000000
# 6 0.000000 0.000000 0.000000 -0.013553 0.000000 -0.130793
#
#
# Mechanical properties :
#
#
# Convention : Reuss Voigt Hill
#
# Bulk Modulus (GPa) = 44.84175 75.46766 60.15470
# Shear Modulus (GPa) = -242.83318 -218.23470 -230.53394
#
# Velocity S-wave (km/s) = -10.26454 -9.73078 -10.00122
# Velocity P-wave (km/s) = 11.00114 9.66988 10.35692
#
# Compressibility (1/GPa) = 0.02230065
#
# Stress axis : x y z
#
# Youngs Moduli (GPa) = 52.94576 77.56933 94.66998
#
# Poissons Ratio (x) = 0.31950 -0.18105
# Poissons Ratio (y) = 0.21808 0.73977
# Poissons Ratio (z) = -0.10125 0.60614
#
# Static dielectric constant tensor:
#      x y z
#    x 1.982610 0.000000 0.019040 
#    y 0.000000 1.736140 0.000000 
#    z 0.019040 0.000000 1.842720 
# 
# From -- ./inp_files/64268.got.cif
#   From: 2010.05.17/outbox.cif.g08.bks.cpg/sg11_33_cif.got.tgz:64268.got - 2010.06.03 12:22:45.
