data_PCOD9156241
_publ_section_title
;
Structure prediction by ZEFSAII (Michael W. Deem and Ramdas Pophale) SiO2 
 PCOD9156241
Probable space group: P 21/M
;
_chemical_formula_sum "Si O2"
_cell_formula_units_Z 32
_cell_length_a 27.296590
_cell_length_b 9.171336
_cell_length_c 14.071097
_cell_angle_alpha 90.000000
_cell_angle_beta 139.682891
_cell_angle_gamma 90.000000
_cell_volume 2279.213342
_symmetry_space_group_name_H-M "P 21/M"
_symmetry_group_IT_number 11
_symmetry_cell_setting 'monoclinic'
loop_
_space_group_symop_operation_xyz
x,y,z
-x,1/2+y,-z
-x,-y,-z
x,1/2-y,z
loop_
_atom_site_type_symbol
_atom_site_label
_atom_site_fract_x
_atom_site_fract_y
_atom_site_fract_z
Si Si1 0.458192 0.075034 0.299149
Si Si2 0.388207 0.424675 0.790493
Si Si3 0.917483 0.582692 0.986406
Si Si4 0.473080 0.074534 0.105707
Si Si5 0.764302 0.425077 0.739533
Si Si6 0.233793 0.426060 0.462702
Si Si7 0.385192 0.575497 0.364840
Si Si8 0.066639 0.417518 0.220678
O O1 0.449837 0.250000 0.292029
O O2 0.450503 0.029190 0.178346
O O3 0.543043 0.038779 0.461580
O O4 0.400970 0.001059 0.288011
O O5 0.396908 0.250000 0.793248
O O6 0.448237 0.502793 0.810551
O O7 0.302974 0.461626 0.634474
O O8 0.412454 0.462727 0.933938
O O9 0.906968 0.750000 0.999591
O O10 0.843132 0.487741 0.896389
O O11 0.926522 0.580871 0.884565
O O12 0.995065 0.515439 0.140978
O O13 0.482392 0.250000 0.120246
O O14 0.768138 0.250000 0.736867
O O15 0.753904 0.495405 0.619913
O O16 0.692906 0.464773 0.699528
O O17 0.232346 0.250000 0.445109
O O18 0.150133 0.465938 0.376972
O O19 0.385624 0.750000 0.352598
O O20 0.053282 0.250000 0.229469
#
# Coordination Sequence:
#
# PCOD9156241 Si02
#       8
#     4   4   4   4   4   4   4   4
#     4   9  17  29  43  57  76 103 132 163 197 230
#     4   9  17  28  42  60  81 105 133 164 196 231
#     4   9  16  25  37  54  76 102 132 161 190 229
#     4   9  17  29  43  59  80 105 133 164 198 235
#     4  10  18  27  40  57  79 106 133 163 197 231
#     4   9  17  27  39  57  80 106 135 164 193 228
#     4   9  18  29  40  57  78 101 132 165 195 230
#     4   8  14  24  36  51  74 103 132 159 188 225
#
# _framework density 14.039930999999999
#
# number of rings (size 3 to 8) (size 9 to 14) (size 15 to 20)
#    0.000    3.000    0.000    2.250    0.000    6.000 
#    0.000    2.500    0.000    0.000    0.000    0.000 
#    0.000    1.000    0.000    2.000    0.000    2.875 
#
# Total GULP energy -178164.731507 kJ/mol
# GULP energy per Si atom -5567.647860 kJ/mol
# Density = 1.400798 g / cm^3
# Si number density = 14.039931 Si / 1000 Ang^3
#
#
#
# Elastic Constant Matrix: (Units=GPa)
#
#
# Indices 1 2 3 4 5 6 
#
# 1 76.5188 31.0581 48.2261 0.0000 7.0124 0.0000
# 2 31.0581 28.8795 31.6356 0.0000 8.1815 0.0000
# 3 48.2261 31.6356 100.6491 0.0000 16.9470 0.0000
# 4 0.0000 0.0000 0.0000 17.6984 0.0000 4.1656
# 5 7.0124 8.1815 16.9470 0.0000 24.2492 0.0000
# 6 0.0000 0.0000 0.0000 4.1656 0.0000 21.4804
#
#
#
# Elastic Compliance Matrix: (Units=1/GPa)
#
#
# Indices 1 2 3 4 5 6 
#
# 1 0.025333 -0.021909 -0.005965 0.000000 0.004235 0.000000
# 2 -0.021909 0.072842 -0.010570 0.000000 -0.010854 0.000000
# 3 -0.005965 -0.010570 0.017256 0.000000 -0.006768 0.000000
# 4 0.000000 0.000000 0.000000 0.059205 0.000000 -0.011481
# 5 0.004235 -0.010854 -0.006768 0.000000 0.048406 0.000000
# 6 0.000000 0.000000 0.000000 -0.011481 0.000000 0.048781
#
#
# Mechanical properties :
#
#
# Convention : Reuss Voigt Hill
#
# Bulk Modulus (GPa) = 25.94570 47.54300 36.74435
# Shear Modulus (GPa) = 13.82907 19.02744 16.42825
#
# Velocity S-wave (km/s) = 3.14185 3.68535 3.42440
# Velocity P-wave (km/s) = 5.62864 7.21424 6.47020
#
# Compressibility (1/GPa) = 0.03854204
#
# Stress axis : x y z
#
# Youngs Moduli (GPa) = 39.47482 13.72828 57.95251
#
# Poissons Ratio (x) = 0.30078 0.34567
# Poissons Ratio (y) = 0.86487 0.61256
# Poissons Ratio (z) = 0.23546 0.14511
#
# Static dielectric constant tensor:
#      x y z
#    x 1.434820 0.000000 0.011520 
#    y 0.000000 1.470590 0.000000 
#    z 0.011520 0.000000 1.474990 
# 
# From -- ./inp_files/56013.got.cif
#   From: 2010.05.17/outbox.cif.g08.bks.cpg/sg11_29_cif.got.tgz:56013.got - 2010.06.03 12:22:45.
