data_PCOD9156977
_publ_section_title
;
Structure prediction by ZEFSAII (Michael W. Deem and Ramdas Pophale) SiO2 
 PCOD9156977
Probable space group: P 21/M
;
_chemical_formula_sum "Si O2"
_cell_formula_units_Z 24
_cell_length_a 24.046758
_cell_length_b 8.346772
_cell_length_c 11.857312
_cell_angle_alpha 90.000000
_cell_angle_beta 151.247767
_cell_angle_gamma 90.000000
_cell_volume 1144.793400
_symmetry_space_group_name_H-M "P 21/M"
_symmetry_group_IT_number 11
_symmetry_cell_setting 'monoclinic'
loop_
_space_group_symop_operation_xyz
x,y,z
-x,1/2+y,-z
-x,-y,-z
x,1/2-y,z
loop_
_atom_site_type_symbol
_atom_site_label
_atom_site_fract_x
_atom_site_fract_y
_atom_site_fract_z
Si Si1 0.362888 0.055941 0.513012
Si Si2 0.788609 0.442109 0.544705
Si Si3 0.426542 0.942832 0.976197
Si Si4 0.785591 0.940106 0.954286
Si Si5 0.979001 0.563819 0.737165
Si Si6 0.881336 0.060686 0.344939
O O1 0.360874 0.250000 0.511752
O O2 0.493084 0.002081 0.777124
O O3 0.271978 0.999350 0.447534
O O4 0.316944 0.004060 0.309765
O O5 0.793687 0.250000 0.556093
O O6 0.914285 0.507068 0.734737
O O7 0.700437 0.494812 0.287452
O O8 0.422006 0.750000 0.974490
O O9 0.500000 0.000000 0.000000
O O10 0.779397 0.750000 0.961117
O O11 0.789925 0.021676 0.084670
O O12 0.904216 0.975070 0.095105
O O13 0.007169 0.750000 0.794277
O O14 0.887721 0.530850 0.473759
O O15 0.882773 0.250000 0.369498
O O16 0.000000 0.000000 0.500000
#
# Coordination Sequence:
#
# PCOD9156977 Si02
#       6
#     4   4   4   4   4   4
#     4   9  18  32  50  72  98 127 157 191 233 282
#     4  10  19  31  49  72  98 126 158 196 236 279
#     4   8  15  29  48  69  92 121 157 194 231 273
#     4  10  19  32  50  72  98 126 157 192 233 281
#     4  11  21  33  49  69  96 127 160 196 235 280
#     4  10  18  31  50  70  93 121 158 197 233 277
#
# _framework density 20.964483999999999
#
# number of rings (size 3 to 8) (size 9 to 14) (size 15 to 20)
#    0.000    2.333    0.000    6.000    0.000    2.667 
#    0.000    0.000    0.000    1.000    0.000    0.000 
#    0.000    0.000    0.000    0.000    0.000    0.000 
#
# Total GULP energy -133730.445821 kJ/mol
# GULP energy per Si atom -5572.101909 kJ/mol
# Density = 2.091677 g / cm^3
# Si number density = 20.964484 Si / 1000 Ang^3
#
#
#
# Elastic Constant Matrix: (Units=GPa)
#
#
# Indices 1 2 3 4 5 6 
#
# 1 16.6538 -12.9807 -9.3463 0.0000 3.6945 0.0000
# 2 -12.9807 32.1850 -4.0853 0.0000 -0.9058 0.0000
# 3 -9.3463 -4.0853 96.8014 0.0000 -31.2718 0.0000
# 4 0.0000 0.0000 0.0000 17.4390 0.0000 -7.6302
# 5 3.6945 -0.9058 -31.2718 0.0000 19.2030 0.0000
# 6 0.0000 0.0000 0.0000 -7.6302 0.0000 9.3823
#
#
#
# Elastic Compliance Matrix: (Units=1/GPa)
#
#
# Indices 1 2 3 4 5 6 
#
# 1 0.098465 0.041334 0.012157 0.000000 0.002803 0.000000
# 2 0.041334 0.049130 0.008955 0.000000 0.008948 0.000000
# 3 0.012157 0.008955 0.023766 0.000000 0.036786 0.000000
# 4 0.000000 0.000000 0.000000 0.089018 0.000000 0.072394
# 5 0.002803 0.008948 0.036786 0.000000 0.111863 0.000000
# 6 0.000000 0.000000 0.000000 0.072394 0.000000 0.165458
#
#
# Mechanical properties :
#
#
# Convention : Reuss Voigt Hill
#
# Bulk Modulus (GPa) = 3.37549 10.31286 6.84417
# Shear Modulus (GPa) = 9.77407 20.67501 15.22454
#
# Velocity S-wave (km/s) = 2.16156 3.14378 2.69775
# Velocity P-wave (km/s) = 2.80060 4.25531 3.60215
#
# Compressibility (1/GPa) = 0.29625312
#
# Stress axis : x y z
#
# Youngs Moduli (GPa) = 10.15590 20.35427 42.07716
#
# Poissons Ratio (x) = -0.84133 -0.51153
# Poissons Ratio (y) = -0.41979 -0.37680
# Poissons Ratio (z) = -0.12346 -0.18227
#
# Static dielectric constant tensor:
#      x y z
#    x 1.718200 0.000000 -0.031020 
#    y 0.000000 1.705210 0.000000 
#    z -0.031020 0.000000 1.854160 
# 
# From -- ./inp_files/40490.got.cif
#   From: 2010.05.17/outbox.cif.g08.bks.cpg/sg11_21_cif.got.tgz:40490.got - 2010.06.03 12:22:45.
