data_PCOD9156959
_publ_section_title
;
Structure prediction by ZEFSAII (Michael W. Deem and Ramdas Pophale) SiO2 
 PCOD9156959
Probable space group: P 21/M
;
_chemical_formula_sum "Si O2"
_cell_formula_units_Z 32
_cell_length_a 15.124432
_cell_length_b 9.071922
_cell_length_c 20.494856
_cell_angle_alpha 90.000000
_cell_angle_beta 136.222195
_cell_angle_gamma 90.000000
_cell_volume 1945.555797
_symmetry_space_group_name_H-M "P 21/M"
_symmetry_group_IT_number 11
_symmetry_cell_setting 'monoclinic'
loop_
_space_group_symop_operation_xyz
x,y,z
-x,1/2+y,-z
-x,-y,-z
x,1/2-y,z
loop_
_atom_site_type_symbol
_atom_site_label
_atom_site_fract_x
_atom_site_fract_y
_atom_site_fract_z
Si Si1 0.561096 0.073585 0.718659
Si Si2 0.641507 0.925048 0.885161
Si Si3 0.617771 0.573221 0.025609
Si Si4 0.094257 0.917849 0.963278
Si Si5 0.116517 0.579905 0.817195
Si Si6 0.855512 0.423234 0.667283
Si Si7 0.159628 0.921744 0.183785
Si Si8 0.590578 0.572272 0.492552
O O1 0.558241 0.250000 0.726303
O O2 0.701696 0.032526 0.766831
O O3 0.464907 0.037005 0.608823
O O4 0.548979 0.995666 0.781912
O O5 0.643643 0.750000 0.879245
O O6 0.608690 0.960237 0.943045
O O7 0.783639 0.989544 0.949594
O O8 0.618062 0.750000 0.033022
O O9 0.500000 0.500000 0.000000
O O10 0.751204 0.506243 0.122882
O O11 0.106766 0.750000 0.992034
O O12 0.100139 0.918554 0.887235
O O13 0.957195 0.985434 0.906463
O O14 0.123846 0.750000 0.799418
O O15 0.991274 0.498110 0.722978
O O16 0.853961 0.250000 0.649105
O O17 0.841872 0.433122 0.738604
O O18 0.733019 0.508513 0.574528
O O19 0.139509 0.750000 0.157889
O O20 0.500000 0.500000 0.500000
O O21 0.588402 0.750000 0.499598
#
# Coordination Sequence:
#
# PCOD9156959 Si02
#       8
#     4   4   4   4   4   4   4   4
#     4  10  21  35  48  66  95 132 172 213 255 297
#     4  10  21  35  50  71  98 129 163 203 248 297
#     4  10  20  35  56  82 108 133 162 200 247 305
#     4   9  17  29  46  67  92 127 167 204 244 292
#     4   9  17  30  49  76 104 132 166 205 249 300
#     4  10  18  31  49  71 100 134 172 218 261 296
#     4   9  17  30  45  64  92 128 169 211 250 289
#     4  11  21  34  50  71  97 132 178 224 264 300
#
# _framework density 16.447742999999999
#
# number of rings (size 3 to 8) (size 9 to 14) (size 15 to 20)
#    0.000    2.250    1.250    2.250    0.000    7.000 
#    0.000    0.000    0.000    0.000    0.000    0.875 
#    0.000    0.000    0.000    0.000    0.000    0.000 
#
# Total GULP energy -178548.169919 kJ/mol
# GULP energy per Si atom -5579.630310 kJ/mol
# Density = 1.641031 g / cm^3
# Si number density = 16.447743 Si / 1000 Ang^3
#
#
#
# Elastic Constant Matrix: (Units=GPa)
#
#
# Indices 1 2 3 4 5 6 
#
# 1 73.8401 49.9482 60.4249 0.0000 20.7716 0.0000
# 2 49.9482 89.0320 72.1542 0.0000 8.6408 0.0000
# 3 60.4249 72.1542 134.9970 0.0000 11.7408 0.0000
# 4 0.0000 0.0000 0.0000 28.9268 0.0000 5.4293
# 5 20.7716 8.6408 11.7408 0.0000 21.6473 0.0000
# 6 0.0000 0.0000 0.0000 5.4293 0.0000 22.1570
#
#
#
# Elastic Compliance Matrix: (Units=1/GPa)
#
#
# Indices 1 2 3 4 5 6 
#
# 1 0.033220 -0.010505 -0.007186 0.000000 -0.023786 0.000000
# 2 -0.010505 0.023244 -0.008177 0.000000 0.005237 0.000000
# 3 -0.007186 -0.008177 0.014810 0.000000 0.002127 0.000000
# 4 0.000000 0.000000 0.000000 0.036237 0.000000 -0.008879
# 5 -0.023786 0.005237 0.002127 0.000000 0.065774 0.000000
# 6 0.000000 0.000000 0.000000 -0.008879 0.000000 0.047308
#
#
# Mechanical properties :
#
#
# Convention : Reuss Voigt Hill
#
# Bulk Modulus (GPa) = 51.18260 73.65820 62.42040
# Shear Modulus (GPa) = 17.93136 22.23568 20.08352
#
# Velocity S-wave (km/s) = 3.30540 3.68081 3.49814
# Velocity P-wave (km/s) = 6.76413 7.93378 7.37219
#
# Compressibility (1/GPa) = 0.01953789
#
# Stress axis : x y z
#
# Youngs Moduli (GPa) = 30.10229 43.02203 67.52353
#
# Poissons Ratio (x) = 0.45193 0.48523
# Poissons Ratio (y) = 0.31621 0.55215
# Poissons Ratio (z) = 0.21632 0.35180
#
# Static dielectric constant tensor:
#      x y z
#    x 1.542680 0.000000 -0.017920 
#    y 0.000000 1.554060 0.000000 
#    z -0.017920 0.000000 1.557980 
# 
# From -- ./inp_files/54353.got.cif
#   From: 2010.05.17/outbox.cif.g08.bks.cpg/sg11_28_cif.got.tgz:54353.got - 2010.06.03 12:22:45.
