data_PCOD9156661
_publ_section_title
;
Structure prediction by ZEFSAII (Michael W. Deem and Ramdas Pophale) SiO2 
 PCOD9156661
Probable space group: P 21/M
;
_chemical_formula_sum "Si O2"
_cell_formula_units_Z 28
_cell_length_a 16.013688
_cell_length_b 12.346673
_cell_length_c 14.048501
_cell_angle_alpha 90.000000
_cell_angle_beta 38.815867
_cell_angle_gamma 90.000000
_cell_volume 1741.060532
_symmetry_space_group_name_H-M "P 21/M"
_symmetry_group_IT_number 11
_symmetry_cell_setting 'monoclinic'
loop_
_space_group_symop_operation_xyz
x,y,z
-x,1/2+y,-z
-x,-y,-z
x,1/2-y,z
loop_
_atom_site_type_symbol
_atom_site_label
_atom_site_fract_x
_atom_site_fract_y
_atom_site_fract_z
Si Si1 0.136099 0.877469 0.195871
Si Si2 0.343718 0.973069 0.869525
Si Si3 0.826132 0.879096 0.485065
Si Si4 0.586286 0.626186 0.339905
Si Si5 0.595445 0.561417 0.546562
Si Si6 0.280793 0.004787 0.234736
Si Si7 0.533597 0.876637 0.074210
O O1 0.156695 0.750000 0.196654
O O2 0.187656 0.947462 0.239567
O O3 0.979512 0.896345 0.320284
O O4 0.224522 0.912172 0.026581
O O5 0.463628 0.899298 0.721400
O O6 0.309354 0.052852 0.812208
O O7 0.411807 0.050676 0.887902
O O8 0.804695 0.750000 0.514544
O O9 0.723241 0.923105 0.497892
O O10 0.796058 0.939098 0.610902
O O11 0.585892 0.750000 0.310173
O O12 0.608676 0.617023 0.432591
O O13 0.448238 0.562998 0.437794
O O14 0.372694 0.092772 0.098522
O O15 0.385203 0.916493 0.181866
O O16 0.538790 0.750000 0.090274
#
# Coordination Sequence:
#
# PCOD9156661 Si02
#       7
#     4   4   4   4   4   4   4
#     4  10  22  35  51  73 104 140 172 209 257 303
#     4   9  18  34  50  78 101 128 170 212 250 299
#     4  11  21  35  52  74 104 140 172 208 256 302
#     4   9  17  33  57  81 105 131 164 210 260 301
#     4   9  19  34  54  83 101 131 171 210 251 303
#     4  10  19  34  48  74 102 134 175 212 247 302
#     4  10  18  29  50  76 101 129 166 214 260 292
#
# _framework density 16.082152000000001
#
# number of rings (size 3 to 8) (size 9 to 14) (size 15 to 20)
#    0.857    1.429    1.429    2.143    0.000    1.143 
#    0.000    0.714    0.000    7.714    0.000    0.000 
#    0.000    0.000    0.000    0.000    0.000    0.000 
#
# Total GULP energy -155876.612264 kJ/mol
# GULP energy per Si atom -5567.021867 kJ/mol
# Density = 1.604555 g / cm^3
# Si number density = 16.082152 Si / 1000 Ang^3
#
#
#
# Elastic Constant Matrix: (Units=GPa)
#
#
# Indices 1 2 3 4 5 6 
#
# 1 75.1376 34.9127 69.1630 0.0000 7.5565 0.0000
# 2 34.9127 53.7474 23.4193 0.0000 -4.4526 0.0000
# 3 69.1630 23.4193 96.8533 0.0000 2.5399 0.0000
# 4 0.0000 0.0000 0.0000 11.9553 0.0000 -4.7589
# 5 7.5565 -4.4526 2.5399 0.0000 20.1527 0.0000
# 6 0.0000 0.0000 0.0000 -4.7589 0.0000 7.6159
#
#
#
# Elastic Compliance Matrix: (Units=1/GPa)
#
#
# Indices 1 2 3 4 5 6 
#
# 1 0.063022 -0.026441 -0.037963 0.000000 -0.024688 0.000000
# 2 -0.026441 0.032458 0.010620 0.000000 0.015747 0.000000
# 3 -0.037963 0.010620 0.034546 0.000000 0.012227 0.000000
# 4 0.000000 0.000000 0.000000 0.111338 0.000000 0.069572
# 5 -0.024688 0.015747 0.012227 0.000000 0.060816 0.000000
# 6 0.000000 0.000000 0.000000 0.069572 0.000000 0.174777
#
#
# Mechanical properties :
#
#
# Convention : Reuss Voigt Hill
#
# Bulk Modulus (GPa) = 44.52798 53.41426 48.97112
# Shear Modulus (GPa) = 8.44580 14.49434 11.47007
#
# Velocity S-wave (km/s) = 2.29414 3.00537 2.67351
# Velocity P-wave (km/s) = 5.89621 6.73264 6.32826
#
# Compressibility (1/GPa) = 0.02245779
#
# Stress axis : x y z
#
# Youngs Moduli (GPa) = 15.86755 30.80932 28.94718
#
# Poissons Ratio (x) = 0.81462 1.09892
# Poissons Ratio (y) = 0.41955 -0.30742
# Poissons Ratio (z) = 0.60238 -0.32720
#
# Static dielectric constant tensor:
#      x y z
#    x 1.528760 0.000000 0.024010 
#    y 0.000000 1.528290 0.000000 
#    z 0.024010 0.000000 1.546060 
# 
# From -- ./inp_files/52108.got.cif
#   From: 2010.05.17/outbox.cif.g08.bks.cpg/sg11_27_cif.got.tgz:52108.got - 2010.06.03 12:22:45.
