data_PCOD9156948
_publ_section_title
;
Structure prediction by ZEFSAII (Michael W. Deem and Ramdas Pophale) SiO2 
 PCOD9156948
Probable space group: P 21/M
;
_chemical_formula_sum "Si O2"
_cell_formula_units_Z 32
_cell_length_a 10.015730
_cell_length_b 11.541392
_cell_length_c 13.893498
_cell_angle_alpha 90.000000
_cell_angle_beta 107.198651
_cell_angle_gamma 90.000000
_cell_volume 1534.212473
_symmetry_space_group_name_H-M "P 21/M"
_symmetry_group_IT_number 11
_symmetry_cell_setting 'monoclinic'
loop_
_space_group_symop_operation_xyz
x,y,z
-x,1/2+y,-z
-x,-y,-z
x,1/2-y,z
loop_
_atom_site_type_symbol
_atom_site_label
_atom_site_fract_x
_atom_site_fract_y
_atom_site_fract_z
Si Si1 0.828271 0.879687 0.007486
Si Si2 0.140941 0.574235 0.299541
Si Si3 0.176531 0.123743 0.762529
Si Si4 0.107494 0.120567 0.425051
Si Si5 0.504232 0.625760 0.622159
Si Si6 0.159918 0.880020 0.077539
Si Si7 0.437190 0.873512 0.390473
Si Si8 0.207148 0.948187 0.611632
O O1 0.773144 0.750000 0.968368
O O2 0.815256 0.888511 0.120650
O O3 0.994039 0.877213 0.016984
O O4 0.775593 0.002390 0.953509
O O5 0.137688 0.439807 0.329111
O O6 0.162029 0.602885 0.192850
O O7 0.272792 0.627765 0.380643
O O8 0.989506 0.620224 0.297580
O O9 0.232037 0.250000 0.746890
O O10 0.239815 0.019758 0.715770
O O11 0.158515 0.250000 0.440720
O O12 0.940300 0.115804 0.405866
O O13 0.177556 0.042467 0.521978
O O14 0.564603 0.750000 0.668723
O O15 0.548680 0.495472 0.662165
O O16 0.519168 0.622518 0.508914
O O17 0.340611 0.625417 0.612936
O O18 0.215749 0.750000 0.066033
O O19 0.470915 0.750000 0.349279
#
# Coordination Sequence:
#
# PCOD9156948 Si02
#       8
#     4   4   4   4   4   4   4   4
#     4   8  15  28  43  67  98 127 157 193 237 285
#     4  10  18  31  47  72  99 129 164 200 241 289
#     4   9  17  29  49  72  99 131 164 199 239 289
#     4  10  20  30  45  71 101 129 162 203 242 287
#     4  10  21  36  50  67  94 130 167 206 247 286
#     4   9  16  27  46  68  93 129 162 192 234 291
#     4  10  20  34  51  69  91 128 169 207 243 283
#     4  10  19  33  47  69  94 132 166 199 240 290
#
# _framework density 20.857606000000001
#
# number of rings (size 3 to 8) (size 9 to 14) (size 15 to 20)
#    0.000    2.500    1.250    2.625    0.000    2.000 
#    0.000    6.875    0.000    0.000    0.000    0.875 
#    0.000    0.000    0.000    0.000    0.000    0.000 
#
# Total GULP energy -178225.086413 kJ/mol
# GULP energy per Si atom -5569.533950 kJ/mol
# Density = 2.081013 g / cm^3
# Si number density = 20.857606 Si / 1000 Ang^3
#
#
#
# Elastic Constant Matrix: (Units=GPa)
#
#
# Indices 1 2 3 4 5 6 
#
# 1 44.8132 20.4678 -0.0085 0.0000 -6.5544 0.0000
# 2 20.4678 219.4327 27.0154 0.0000 -12.3567 0.0000
# 3 -0.0085 27.0154 17.0810 0.0000 -6.7599 0.0000
# 4 0.0000 0.0000 0.0000 7.5417 0.0000 -1.5066
# 5 -6.5544 -12.3567 -6.7599 0.0000 10.1463 0.0000
# 6 0.0000 0.0000 0.0000 -1.5066 0.0000 5.1330
#
#
#
# Elastic Compliance Matrix: (Units=1/GPa)
#
#
# Indices 1 2 3 4 5 6 
#
# 1 0.027023 -0.002915 0.013753 0.000000 0.023070 0.000000
# 2 -0.002915 0.005985 -0.009953 0.000000 -0.001224 0.000000
# 3 0.013753 -0.009953 0.099156 0.000000 0.062827 0.000000
# 4 0.000000 0.000000 0.000000 0.140855 0.000000 0.041343
# 5 0.023070 -0.001224 0.062827 0.000000 0.153829 0.000000
# 6 0.000000 0.000000 0.000000 0.041343 0.000000 0.206953
#
#
# Mechanical properties :
#
#
# Convention : Reuss Voigt Hill
#
# Bulk Modulus (GPa) = 7.46619 41.80849 24.63734
# Shear Modulus (GPa) = 7.38907 20.15434 13.77171
#
# Velocity S-wave (km/s) = 1.88423 3.11188 2.57236
# Velocity P-wave (km/s) = 2.88464 5.74456 4.54539
#
# Compressibility (1/GPa) = 0.13393709
#
# Stress axis : x y z
#
# Youngs Moduli (GPa) = 37.00561 167.07197 10.08508
#
# Poissons Ratio (x) = 0.48697 -0.13870
# Poissons Ratio (y) = 0.10786 0.10037
# Poissons Ratio (z) = -0.50896 1.66280
#
# Static dielectric constant tensor:
#      x y z
#    x 1.768680 0.000000 0.011440 
#    y 0.000000 1.849620 0.000000 
#    z 0.011440 0.000000 1.732260 
# 
# From -- ./inp_files/38947.got.cif
#   From: 2010.05.17/outbox.cif.g08.bks.cpg/sg11_20_cif.got.tgz:38947.got - 2010.06.03 12:22:45.
