data_PCOD9156737
_publ_section_title
;
Structure prediction by ZEFSAII (Michael W. Deem and Ramdas Pophale) SiO2 
 PCOD9156737
Probable space group: P 21/M
;
_chemical_formula_sum "Si O2"
_cell_formula_units_Z 32
_cell_length_a 7.627714
_cell_length_b 8.761712
_cell_length_c 21.372427
_cell_angle_alpha 90.000000
_cell_angle_beta 92.736995
_cell_angle_gamma 90.000000
_cell_volume 1426.729079
_symmetry_space_group_name_H-M "P 21/M"
_symmetry_group_IT_number 11
_symmetry_cell_setting 'monoclinic'
loop_
_space_group_symop_operation_xyz
x,y,z
-x,1/2+y,-z
-x,-y,-z
x,1/2-y,z
loop_
_atom_site_type_symbol
_atom_site_label
_atom_site_fract_x
_atom_site_fract_y
_atom_site_fract_z
Si Si1 0.987839 0.566975 0.226032
Si Si2 0.321048 0.434904 0.026739
Si Si3 0.846475 0.923408 0.095699
Si Si4 0.458341 0.922554 0.147978
Si Si5 0.116820 0.572667 0.651459
Si Si6 0.365207 0.067154 0.267286
Si Si7 0.703685 0.573081 0.600875
Si Si8 0.191210 0.932564 0.519694
O O1 0.978437 0.750000 0.222939
O O2 0.941335 0.502639 0.156551
O O3 0.870539 0.514308 0.283001
O O4 0.180613 0.508348 0.245527
O O5 0.323339 0.250000 0.027396
O O6 0.324011 0.498083 0.097203
O O7 0.500000 0.500000 0.000000
O O8 0.174911 0.489505 0.974271
O O9 0.914534 0.750000 0.089462
O O10 0.646198 0.914088 0.117498
O O11 0.399155 0.750000 0.159962
O O12 0.484910 0.012755 0.212695
O O13 0.160228 0.750000 0.663489
O O14 0.223034 0.517884 0.592006
O O15 0.909925 0.566563 0.626465
O O16 0.349998 0.250000 0.267640
O O17 0.401292 0.019779 0.339451
O O18 0.661146 0.750000 0.588078
O O19 0.688345 0.484497 0.535728
O O20 0.180960 0.750000 0.520446
O O21 0.000000 0.000000 0.500000
#
# Coordination Sequence:
#
# PCOD9156737 Si02
#       8
#     4   4   4   4   4   4   4   4
#     4  10  18  30  48  69  93 125 157 186 226 277
#     4   9  16  30  50  71  95 121 150 191 234 272
#     4   8  17  32  50  72  96 118 149 192 231 268
#     4  10  19  33  52  73  94 120 155 194 231 274
#     4   8  15  26  37  57  89 120 147 185 229 268
#     4  10  20  33  46  67  98 127 153 189 233 276
#     4   8  15  26  39  56  84 116 147 184 226 267
#     4   9  15  22  35  55  82 113 148 185 223 264
#
# _framework density 22.428925
#
# number of rings (size 3 to 8) (size 9 to 14) (size 15 to 20)
#    0.000    3.000    0.000    4.125    0.000    5.500 
#    0.000    8.125    0.000    0.000    0.000    0.875 
#    0.000    0.000    0.000    0.000    0.000    0.000 
#
# Total GULP energy -178394.692144 kJ/mol
# GULP energy per Si atom -5574.834130 kJ/mol
# Density = 2.237788 g / cm^3
# Si number density = 22.428925 Si / 1000 Ang^3
#
#
#
# Elastic Constant Matrix: (Units=GPa)
#
#
# Indices 1 2 3 4 5 6 
#
# 1 25.6358 15.5379 86.2781 0.0000 11.3356 0.0000
# 2 15.5379 49.0994 17.6639 0.0000 -2.5497 0.0000
# 3 86.2781 17.6639 40.1567 0.0000 -12.1660 0.0000
# 4 0.0000 0.0000 0.0000 37.6553 0.0000 -6.9286
# 5 11.3356 -2.5497 -12.1660 0.0000 30.9579 0.0000
# 6 0.0000 0.0000 0.0000 -6.9286 0.0000 3.8797
#
#
#
# Elastic Compliance Matrix: (Units=1/GPa)
#
#
# Indices 1 2 3 4 5 6 
#
# 1 -0.004385 -0.002806 0.012569 0.000000 0.006314 0.000000
# 2 -0.002806 0.022570 -0.003433 0.000000 0.001537 0.000000
# 3 0.012569 -0.003433 -0.002353 0.000000 -0.005810 0.000000
# 4 0.000000 0.000000 0.000000 0.039554 0.000000 0.070637
# 5 0.006314 0.001537 -0.005810 0.000000 0.027833 0.000000
# 6 0.000000 0.000000 0.000000 0.070637 0.000000 0.383896
#
#
# Mechanical properties :
#
#
# Convention : Reuss Voigt Hill
#
# Bulk Modulus (GPa) = 35.09792 39.31686 37.20739
# Shear Modulus (GPa) = 10.77699 14.19273 12.48486
#
# Velocity S-wave (km/s) = 2.19440 2.51825 2.36188
# Velocity P-wave (km/s) = 4.70138 5.10128 4.90541
#
# Compressibility (1/GPa) = 0.02849172
#
# Stress axis : x y z
#
# Youngs Moduli (GPa) = -228.03590 44.30716 -424.95993
#
# Poissons Ratio (x) = 0.12434 5.34142
# Poissons Ratio (y) = -0.63992 -1.45879
# Poissons Ratio (z) = 2.86624 0.15210
#
# Static dielectric constant tensor:
#      x y z
#    x 1.929020 0.000000 -0.042470 
#    y 0.000000 1.764090 0.000000 
#    z -0.042470 0.000000 1.913170 
# 
# From -- ./inp_files/64090.got.cif
#   From: 2010.05.17/outbox.cif.g08.bks.cpg/sg11_33_cif.got.tgz:64090.got - 2010.06.03 12:22:45.
