data_PCOD9156674
_publ_section_title
;
Structure prediction by ZEFSAII (Michael W. Deem and Ramdas Pophale) SiO2 
 PCOD9156674
Probable space group: P 21/M
;
_chemical_formula_sum "Si O2"
_cell_formula_units_Z 24
_cell_length_a 7.932583
_cell_length_b 20.347886
_cell_length_c 7.491850
_cell_angle_alpha 90.000000
_cell_angle_beta 61.420952
_cell_angle_gamma 90.000000
_cell_volume 1061.929387
_symmetry_space_group_name_H-M "P 21/M"
_symmetry_group_IT_number 11
_symmetry_cell_setting 'monoclinic'
loop_
_space_group_symop_operation_xyz
x,y,z
-x,1/2+y,-z
-x,-y,-z
x,1/2-y,z
loop_
_atom_site_type_symbol
_atom_site_label
_atom_site_fract_x
_atom_site_fract_y
_atom_site_fract_z
Si Si1 0.736905 0.677442 0.203857
Si Si2 0.456596 0.050212 0.763028
Si Si3 0.847860 0.675727 0.541596
Si Si4 0.910874 0.177152 0.245461
Si Si5 0.130742 0.531823 0.776316
Si Si6 0.239206 0.459900 0.253160
O O1 0.654017 0.750000 0.248123
O O2 0.568255 0.624960 0.281956
O O3 0.862449 0.668918 0.320806
O O4 0.883336 0.672774 0.963558
O O5 0.323772 0.008979 0.696297
O O6 0.662395 0.018825 0.689553
O O7 0.352805 0.045732 0.008721
O O8 0.765267 0.750000 0.614828
O O9 0.037111 0.674748 0.570540
O O10 0.738385 0.610300 0.660682
O O11 0.830024 0.250000 0.244607
O O12 0.815866 0.109074 0.233162
O O13 0.981006 0.527763 0.689454
O O14 0.000000 0.500000 0.000000
#
# Coordination Sequence:
#
# PCOD9156674 Si02
#       6
#     4   4   4   4   4   4
#     4  10  18  29  51  75  96 131 169 202 246 298
#     4  10  18  31  53  74 101 130 165 204 249 296
#     4   9  17  30  49  74  99 129 170 203 241 297
#     4   9  16  30  49  70  99 132 163 204 249 289
#     4   9  15  30  51  72  99 131 160 205 244 290
#     4   9  18  31  49  75 100 131 163 204 248 290
#
# _framework density 22.600372
#
# number of rings (size 3 to 8) (size 9 to 14) (size 15 to 20)
#    0.000    2.667    5.000    0.000    0.000    0.667 
#    0.000    4.167    0.000    7.000    0.000    9.333 
#    0.000    0.000    0.000    0.000    0.000    0.000 
#
# Total GULP energy -133823.088176 kJ/mol
# GULP energy per Si atom -5575.962007 kJ/mol
# Density = 2.254893 g / cm^3
# Si number density = 22.600372 Si / 1000 Ang^3
#
#
#
# Elastic Constant Matrix: (Units=GPa)
#
#
# Indices 1 2 3 4 5 6 
#
# 1 76.2349 52.5510 24.3364 0.0000 -2.8834 0.0000
# 2 52.5510 169.7093 5.2980 0.0000 16.1929 0.0000
# 3 24.3364 5.2980 75.9848 0.0000 15.2260 0.0000
# 4 0.0000 0.0000 0.0000 17.3880 0.0000 23.9466
# 5 -2.8834 16.1929 15.2260 0.0000 28.7654 0.0000
# 6 0.0000 0.0000 0.0000 23.9466 0.0000 16.9810
#
#
#
# Elastic Compliance Matrix: (Units=1/GPa)
#
#
# Indices 1 2 3 4 5 6 
#
# 1 0.021297 -0.007357 -0.008463 0.000000 0.010756 0.000000
# 2 -0.007357 0.008774 0.003224 0.000000 -0.007383 0.000000
# 3 -0.008463 0.003224 0.018100 0.000000 -0.012244 0.000000
# 4 0.000000 0.000000 0.000000 -0.061045 0.000000 0.086085
# 5 0.010756 -0.007383 -0.012244 0.000000 0.046479 0.000000
# 6 0.000000 0.000000 0.000000 0.086085 0.000000 -0.062508
#
#
# Mechanical properties :
#
#
# Convention : Reuss Voigt Hill
#
# Bulk Modulus (GPa) = 43.51850 54.03330 48.77590
# Shear Modulus (GPa) = 1265.86467 28.60979 647.23723
#
# Velocity S-wave (km/s) = 23.69227 3.56181 16.94123
# Velocity P-wave (km/s) = 27.70793 6.39338 20.10727
#
# Compressibility (1/GPa) = 0.02297874
#
# Stress axis : x y z
#
# Youngs Moduli (GPa) = 46.95439 113.96881 55.24901
#
# Poissons Ratio (x) = 0.83845 0.46760
# Poissons Ratio (y) = 0.34544 -0.17812
# Poissons Ratio (z) = 0.39740 -0.36743
#
# Static dielectric constant tensor:
#      x y z
#    x 1.805760 0.000000 0.013960 
#    y 0.000000 1.904060 0.000000 
#    z 0.013960 0.000000 1.889940 
# 
# From -- ./inp_files/13784.got.cif
#   From: 2010.05.17/outbox.cif.g08.bks.cpg/sg11_7_cif.got.tgz:13784.got - 2010.06.03 12:22:45.
