data_PCOD9156141
_publ_section_title
;
Structure prediction by ZEFSAII (Michael W. Deem and Ramdas Pophale) SiO2 
 PCOD9156141
Probable space group: P 21/M
;
_chemical_formula_sum "Si O2"
_cell_formula_units_Z 28
_cell_length_a 8.971646
_cell_length_b 18.595288
_cell_length_c 17.207453
_cell_angle_alpha 90.000000
_cell_angle_beta 31.397204
_cell_angle_gamma 90.000000
_cell_volume 1495.555933
_symmetry_space_group_name_H-M "P 21/M"
_symmetry_group_IT_number 11
_symmetry_cell_setting 'monoclinic'
loop_
_space_group_symop_operation_xyz
x,y,z
-x,1/2+y,-z
-x,-y,-z
x,1/2-y,z
loop_
_atom_site_type_symbol
_atom_site_label
_atom_site_fract_x
_atom_site_fract_y
_atom_site_fract_z
Si Si1 0.316988 0.409541 0.142679
Si Si2 0.057985 0.952573 0.092014
Si Si3 0.608379 0.669099 0.051390
Si Si4 0.756208 0.904152 0.655181
Si Si5 0.874143 0.106419 0.104221
Si Si6 0.831854 0.426966 0.657946
Si Si7 0.822397 0.973172 0.351457
O O1 0.240187 0.373000 0.259360
O O2 0.050001 0.461167 0.243129
O O3 0.609333 0.453705 0.029970
O O4 0.384811 0.359550 0.039737
O O5 0.043759 0.901812 0.023210
O O6 0.948988 0.029961 0.111213
O O7 0.876253 0.929811 0.247955
O O8 0.498264 0.750000 0.103906
O O9 0.421294 0.616538 0.188977
O O10 0.929865 0.663742 0.940753
O O11 0.464194 0.881543 0.743502
O O12 0.030149 0.891541 0.479676
O O13 0.742045 0.991575 0.674355
O O14 0.077643 0.434492 0.614371
O O15 0.500000 0.000000 0.500000
#
# Coordination Sequence:
#
# PCOD9156141 Si02
#       7
#     4   4   4   4   4   4   4
#     4  10  20  36  55  83 115 148 190 224 285 340
#     4  10  17  32  57  85 111 144 176 250 295 342
#     4  12  24  39  57  78 116 164 202 227 267 350
#     4   9  20  36  63  90 115 141 179 256 302 349
#     4  10  19  32  57  84 111 142 194 233 295 330
#     4  10  20  36  57  93 121 143 186 232 312 347
#     4  11  19  28  57  91 118 137 174 242 302 341
#
# _framework density 18.722137
#
# number of rings (size 3 to 8) (size 9 to 14) (size 15 to 20)
#    0.000    1.714    2.857    4.714    0.000    2.286 
#    0.000    4.286    0.000    0.000    0.000    0.000 
#    0.000    0.000    0.000    0.000    0.000    0.000 
#
# Total GULP energy -156207.984919 kJ/mol
# GULP energy per Si atom -5578.856604 kJ/mol
# Density = 1.867952 g / cm^3
# Si number density = 18.722137 Si / 1000 Ang^3
#
#
#
# Elastic Constant Matrix: (Units=GPa)
#
#
# Indices 1 2 3 4 5 6 
#
# 1 92.8284 7.4150 43.7531 0.0000 1.1715 0.0000
# 2 7.4150 28.7158 5.2104 0.0000 6.3088 0.0000
# 3 43.7531 5.2104 110.9588 0.0000 20.2371 0.0000
# 4 0.0000 0.0000 0.0000 7.7997 0.0000 -0.1297
# 5 1.1715 6.3088 20.2371 0.0000 35.5576 0.0000
# 6 0.0000 0.0000 0.0000 -0.1297 0.0000 7.7123
#
#
#
# Elastic Compliance Matrix: (Units=1/GPa)
#
#
# Indices 1 2 3 4 5 6 
#
# 1 0.013777 -0.003251 -0.005916 0.000000 0.003490 0.000000
# 2 -0.003251 0.037038 0.000805 0.000000 -0.006923 0.000000
# 3 -0.005916 0.000805 0.012607 0.000000 -0.007123 0.000000
# 4 0.000000 0.000000 0.000000 0.128246 0.000000 0.002156
# 5 0.003490 -0.006923 -0.007123 0.000000 0.033290 0.000000
# 6 0.000000 0.000000 0.000000 0.002156 0.000000 0.129700
#
#
# Mechanical properties :
#
#
# Convention : Reuss Voigt Hill
#
# Bulk Modulus (GPa) = 21.41429 38.36222 29.88825
# Shear Modulus (GPa) = 12.92165 21.95554 17.43859
#
# Velocity S-wave (km/s) = 2.62998 3.42819 3.05527
# Velocity P-wave (km/s) = 4.54809 6.01704 5.33338
#
# Compressibility (1/GPa) = 0.04669779
#
# Stress axis : x y z
#
# Youngs Moduli (GPa) = 72.58614 26.99913 79.32399
#
# Poissons Ratio (x) = 0.08777 0.46930
# Poissons Ratio (y) = 0.23596 -0.06387
# Poissons Ratio (z) = 0.42944 -0.02174
#
# Static dielectric constant tensor:
#      x y z
#    x 1.696650 0.000000 0.030500 
#    y 0.000000 1.650070 0.000000 
#    z 0.030500 0.000000 1.670770 
# 
# From -- ./inp_files/58378.got.cif
#   From: 2010.05.17/outbox.cif.g08.bks.cpg/sg11_30_cif.got.tgz:58378.got - 2010.06.03 12:22:45.
