data_PCOD9156541
_publ_section_title
;
Structure prediction by ZEFSAII (Michael W. Deem and Ramdas Pophale) SiO2 
 PCOD9156541
Probable space group: P 21/M
;
_chemical_formula_sum "Si O2"
_cell_formula_units_Z 32
_cell_length_a 22.915291
_cell_length_b 7.447614
_cell_length_c 17.029365
_cell_angle_alpha 90.000000
_cell_angle_beta 148.253775
_cell_angle_gamma 90.000000
_cell_volume 1529.174625
_symmetry_space_group_name_H-M "P 21/M"
_symmetry_group_IT_number 11
_symmetry_cell_setting 'monoclinic'
loop_
_space_group_symop_operation_xyz
x,y,z
-x,1/2+y,-z
-x,-y,-z
x,1/2-y,z
loop_
_atom_site_type_symbol
_atom_site_label
_atom_site_fract_x
_atom_site_fract_y
_atom_site_fract_z
Si Si1 0.391078 0.037829 0.326142
Si Si2 0.454904 0.549443 0.229222
Si Si3 0.779961 0.032051 0.056041
Si Si4 0.180230 0.467694 0.189730
Si Si5 0.139200 0.453497 0.434615
Si Si6 0.938320 0.538944 0.094677
Si Si7 0.012479 0.534978 0.605722
Si Si8 0.292576 0.471182 0.478359
O O1 0.380885 0.250000 0.298251
O O2 0.288259 0.984751 0.261910
O O3 0.500000 0.000000 0.500000
O O4 0.410280 0.940104 0.266917
O O5 0.469442 0.750000 0.212319
O O6 0.578692 0.470713 0.377369
O O7 0.343799 0.465002 0.064863
O O8 0.775334 0.250000 0.051440
O O9 0.872241 0.971200 0.224246
O O10 0.830520 0.979943 0.028410
O O11 0.171290 0.250000 0.182631
O O12 0.213193 0.529042 0.314868
O O13 0.082678 0.528660 0.018395
O O14 0.173126 0.250000 0.492385
O O15 0.238702 0.533211 0.498170
O O16 0.036929 0.448647 0.255607
O O17 0.087473 0.536559 0.453887
O O18 0.963314 0.750000 0.118635
O O19 0.012022 0.750000 0.616385
O O20 0.000000 0.500000 0.500000
O O21 0.292430 0.250000 0.474435
#
# Coordination Sequence:
#
# PCOD9156541 Si02
#       8
#     4   4   4   4   4   4   4   4
#     4  11  19  29  43  65  96 130 171 217 249 277
#     4  10  18  30  50  72  95 129 165 200 245 288
#     4   9  18  31  49  76 103 121 155 201 238 286
#     4   9  17  27  42  66  94 126 167 206 239 275
#     4   9  19  35  52  70  95 125 162 201 235 285
#     4  10  18  29  46  68  97 130 164 204 248 283
#     4   9  18  33  53  78  98 117 148 192 241 293
#     4   9  17  31  49  67  93 133 170 199 235 280
#
# _framework density 20.926323
#
# number of rings (size 3 to 8) (size 9 to 14) (size 15 to 20)
#    0.000    2.500    2.500    1.500    0.000    2.500 
#    0.000    0.625    0.000    0.750    0.000    0.000 
#    0.000    0.000    0.000    0.000    0.000    0.500 
#
# Total GULP energy -178360.309475 kJ/mol
# GULP energy per Si atom -5573.759671 kJ/mol
# Density = 2.087869 g / cm^3
# Si number density = 20.926323 Si / 1000 Ang^3
#
#
#
# Elastic Constant Matrix: (Units=GPa)
#
#
# Indices 1 2 3 4 5 6 
#
# 1 123.1702 1.4738 43.8541 0.0000 -13.4363 0.0000
# 2 1.4738 71.4005 -4.0663 0.0000 -0.1948 0.0000
# 3 43.8541 -4.0663 61.9325 0.0000 -16.2797 0.0000
# 4 0.0000 0.0000 0.0000 9.8085 0.0000 -3.7571
# 5 -13.4363 -0.1948 -16.2797 0.0000 26.8748 0.0000
# 6 0.0000 0.0000 0.0000 -3.7571 0.0000 10.6027
#
#
#
# Elastic Compliance Matrix: (Units=1/GPa)
#
#
# Indices 1 2 3 4 5 6 
#
# 1 0.010905 -0.000652 -0.007532 0.000000 0.000885 0.000000
# 2 -0.000652 0.014111 0.001581 0.000000 0.000734 0.000000
# 3 -0.007532 0.001581 0.024498 0.000000 0.011086 0.000000
# 4 0.000000 0.000000 0.000000 0.117964 0.000000 0.041801
# 5 0.000885 0.000734 0.011086 0.000000 0.044372 0.000000
# 6 0.000000 0.000000 0.000000 0.041801 0.000000 0.109127
#
#
# Mechanical properties :
#
#
# Convention : Reuss Voigt Hill
#
# Bulk Modulus (GPa) = 27.54197 37.66958 32.60577
# Shear Modulus (GPa) = 14.43894 23.80664 19.12279
#
# Velocity S-wave (km/s) = 2.62961 3.37655 3.02622
# Velocity P-wave (km/s) = 4.73390 5.76555 5.27501
#
# Compressibility (1/GPa) = 0.03630823
#
# Stress axis : x y z
#
# Youngs Moduli (GPa) = 91.70234 70.86678 40.82021
#
# Poissons Ratio (x) = 0.04618 0.30745
# Poissons Ratio (y) = 0.05975 -0.06453
# Poissons Ratio (z) = 0.69069 -0.11203
#
# Static dielectric constant tensor:
#      x y z
#    x 1.752540 0.000000 0.025770 
#    y 0.000000 1.642310 0.000000 
#    z 0.025770 0.000000 1.800990 
# 
# From -- ./inp_files/42952.got.cif
#   From: 2010.05.17/outbox.cif.g08.bks.cpg/sg11_22_cif.got.tgz:42952.got - 2010.06.03 12:22:45.
