data_PCOD9156543
_publ_section_title
;
Structure prediction by ZEFSAII (Michael W. Deem and Ramdas Pophale) SiO2 
 PCOD9156543
Probable space group: P 21/M
;
_chemical_formula_sum "Si O2"
_cell_formula_units_Z 28
_cell_length_a 22.759268
_cell_length_b 8.693945
_cell_length_c 14.013804
_cell_angle_alpha 90.000000
_cell_angle_beta 39.568068
_cell_angle_gamma 90.000000
_cell_volume 1766.309802
_symmetry_space_group_name_H-M "P 21/M"
_symmetry_group_IT_number 11
_symmetry_cell_setting 'monoclinic'
loop_
_space_group_symop_operation_xyz
x,y,z
-x,1/2+y,-z
-x,-y,-z
x,1/2-y,z
loop_
_atom_site_type_symbol
_atom_site_label
_atom_site_fract_x
_atom_site_fract_y
_atom_site_fract_z
Si Si1 0.468378 0.065826 0.639835
Si Si2 0.102948 0.435109 0.474524
Si Si3 0.892990 0.433222 0.743328
Si Si4 0.390899 0.567219 0.033718
Si Si5 0.290385 0.433754 0.975811
Si Si6 0.287493 0.433487 0.345576
Si Si7 0.433856 0.565859 0.287486
O O1 0.473042 0.250000 0.628999
O O2 0.363379 0.025605 0.801663
O O3 0.533296 0.017778 0.647756
O O4 0.500000 0.000000 0.500000
O O5 0.108143 0.250000 0.453361
O O6 0.118794 0.513508 0.352052
O O7 0.183081 0.478224 0.448125
O O8 0.998779 0.472181 0.636668
O O9 0.881316 0.250000 0.763526
O O10 0.814933 0.515561 0.903428
O O11 0.392044 0.750000 0.045955
O O12 0.348708 0.486004 0.178666
O O13 0.327489 0.519797 0.023406
O O14 0.491577 0.506568 0.878441
O O15 0.296141 0.250000 0.984500
O O16 0.291659 0.250000 0.350185
O O17 0.333764 0.510711 0.379574
O O18 0.440683 0.750000 0.272857
#
# Coordination Sequence:
#
# PCOD9156543 Si02
#       7
#     4   4   4   4   4   4   4
#     4   9  20  36  54  73  95 120 151 194 245 291
#     4   9  19  31  44  64  97 132 165 204 238 270
#     4  10  18  29  46  69  93 128 170 201 235 278
#     4  11  20  30  45  67  93 127 166 199 229 277
#     4  10  19  32  48  70  99 129 157 196 243 286
#     4  11  20  31  46  66  95 132 164 196 235 275
#     4  10  21  35  48  67  95 125 156 194 237 287
#
# _framework density 15.852258000000001
#
# number of rings (size 3 to 8) (size 9 to 14) (size 15 to 20)
#    0.000    2.000    1.429    4.286    0.000    4.571 
#    0.000    0.000    0.000    0.000    0.000    1.000 
#    0.000    0.000    0.000    0.000    0.000    0.000 
#
# Total GULP energy -156201.108900 kJ/mol
# GULP energy per Si atom -5578.611032 kJ/mol
# Density = 1.581618 g / cm^3
# Si number density = 15.852258 Si / 1000 Ang^3
#
#
#
# Elastic Constant Matrix: (Units=GPa)
#
#
# Indices 1 2 3 4 5 6 
#
# 1 100.8210 22.3403 58.5935 0.0000 -24.2761 0.0000
# 2 22.3403 31.2654 19.7616 0.0000 -8.4050 0.0000
# 3 58.5935 19.7616 91.7098 0.0000 -7.8069 0.0000
# 4 0.0000 0.0000 0.0000 24.4722 0.0000 -1.4385
# 5 -24.2761 -8.4050 -7.8069 0.0000 21.0341 0.0000
# 6 0.0000 0.0000 0.0000 -1.4385 0.0000 25.2984
#
#
#
# Elastic Compliance Matrix: (Units=1/GPa)
#
#
# Indices 1 2 3 4 5 6 
#
# 1 0.022387 -0.003024 -0.011932 0.000000 0.020200 0.000000
# 2 -0.003024 0.040750 -0.005947 0.000000 0.010585 0.000000
# 3 -0.011932 -0.005947 0.019036 0.000000 -0.009082 0.000000
# 4 0.000000 0.000000 0.000000 0.041000 0.000000 0.002331
# 5 0.020200 0.010585 -0.009082 0.000000 0.071714 0.000000
# 6 0.000000 0.000000 0.000000 0.002331 0.000000 0.039661
#
#
# Mechanical properties :
#
#
# Convention : Reuss Voigt Hill
#
# Bulk Modulus (GPa) = 24.77367 47.24300 36.00834
# Shear Modulus (GPa) = 17.25268 22.36766 19.81017
#
# Velocity S-wave (km/s) = 3.30258 3.76041 3.53891
# Velocity P-wave (km/s) = 5.49586 6.98005 6.28194
#
# Compressibility (1/GPa) = 0.04036543
#
# Stress axis : x y z
#
# Youngs Moduli (GPa) = 44.66875 24.53985 52.53301
#
# Poissons Ratio (x) = 0.07422 0.62681
# Poissons Ratio (y) = 0.13509 0.31244
# Poissons Ratio (z) = 0.53298 0.14595
#
# Static dielectric constant tensor:
#      x y z
#    x 1.566120 0.000000 -0.037610 
#    y 0.000000 1.530800 0.000000 
#    z -0.037610 0.000000 1.518180 
# 
# From -- ./inp_files/42322.got.cif
#   From: 2010.05.17/outbox.cif.g08.bks.cpg/sg11_22_cif.got.tgz:42322.got - 2010.06.03 12:22:45.
