data_PCOD9156109
_publ_section_title
;
Structure prediction by ZEFSAII (Michael W. Deem and Ramdas Pophale) SiO2 
 PCOD9156109
Probable space group: P 21/M
;
_chemical_formula_sum "Si O2"
_cell_formula_units_Z 32
_cell_length_a 11.963622
_cell_length_b 19.525967
_cell_length_c 10.779765
_cell_angle_alpha 90.000000
_cell_angle_beta 52.330464
_cell_angle_gamma 90.000000
_cell_volume 1993.251477
_symmetry_space_group_name_H-M "P 21/M"
_symmetry_group_IT_number 11
_symmetry_cell_setting 'monoclinic'
loop_
_space_group_symop_operation_xyz
x,y,z
-x,1/2+y,-z
-x,-y,-z
x,1/2-y,z
loop_
_atom_site_type_symbol
_atom_site_label
_atom_site_fract_x
_atom_site_fract_y
_atom_site_fract_z
Si Si1 0.100562 0.672763 0.783503
Si Si2 0.711635 0.507456 0.425975
Si Si3 0.310162 0.532884 0.018507
Si Si4 0.399250 0.963603 0.241320
Si Si5 0.654191 0.174648 0.586817
Si Si6 0.017032 0.471629 0.126910
Si Si7 0.503503 0.114421 0.475117
Si Si8 0.327122 0.829214 0.854230
O O1 0.042806 0.750000 0.819928
O O2 0.203022 0.665275 0.593005
O O3 0.199859 0.666940 0.838841
O O4 0.991754 0.610752 0.861961
O O5 0.676919 0.503360 0.595120
O O6 0.646165 0.577524 0.419624
O O7 0.620030 0.446560 0.421653
O O8 0.875366 0.496889 0.291719
O O9 0.336952 0.527420 0.147078
O O10 0.161107 0.500303 0.084044
O O11 0.439504 0.490496 0.868892
O O12 0.312514 0.611270 0.966373
O O13 0.376229 0.884885 0.295914
O O14 0.657310 0.250000 0.639604
O O15 0.532564 0.167021 0.565370
O O16 0.000000 0.500000 0.000000
O O17 0.538550 0.149799 0.321400
O O18 0.335196 0.750000 0.891382
#
# Coordination Sequence:
#
# PCOD9156109 Si02
#       8
#     4   4   4   4   4   4   4   4
#     4   9  17  32  53  79 107 137 174 217 274 330
#     4  10  18  31  54  77 108 140 172 214 271 302
#     4  11  23  35  53  82 108 140 187 220 267 310
#     4  10  21  38  54  75 109 146 180 226 252 319
#     4   9  17  31  56  82 102 138 185 221 260 313
#     4  12  21  33  55  87 107 136 174 226 273 325
#     4   9  15  28  54  80 103 131 173 220 256 316
#     4  10  17  31  53  78 106 137 174 217 268 321
#
# _framework density 16.054172000000001
#
# number of rings (size 3 to 8) (size 9 to 14) (size 15 to 20)
#    0.000    2.000    6.250    1.125    3.500    1.000 
#    0.000    0.625    0.000    2.250    0.000    0.000 
#    0.000    0.000    0.000    0.000    0.000    0.000 
#
# Total GULP energy -178219.036339 kJ/mol
# GULP energy per Si atom -5569.344886 kJ/mol
# Density = 1.601763 g / cm^3
# Si number density = 16.054172 Si / 1000 Ang^3
#
#
#
# Elastic Constant Matrix: (Units=GPa)
#
#
# Indices 1 2 3 4 5 6 
#
# 1 70.5350 34.2856 46.5373 0.0000 -11.1320 0.0000
# 2 34.2856 111.1708 33.0325 0.0000 -8.0227 0.0000
# 3 46.5373 33.0325 86.9332 0.0000 -0.7260 0.0000
# 4 0.0000 0.0000 0.0000 21.7655 0.0000 -2.5172
# 5 -11.1320 -8.0227 -0.7260 0.0000 20.6358 0.0000
# 6 0.0000 0.0000 0.0000 -2.5172 0.0000 12.2799
#
#
#
# Elastic Compliance Matrix: (Units=1/GPa)
#
#
# Indices 1 2 3 4 5 6 
#
# 1 0.026057 -0.003422 -0.012546 0.000000 0.012285 0.000000
# 2 -0.003422 0.010898 -0.002290 0.000000 0.002310 0.000000
# 3 -0.012546 -0.002290 0.019031 0.000000 -0.006989 0.000000
# 4 0.000000 0.000000 0.000000 0.047060 0.000000 0.009647
# 5 0.012285 0.002310 -0.006989 0.000000 0.055739 0.000000
# 6 0.000000 0.000000 0.000000 0.009647 0.000000 0.083411
#
#
# Mechanical properties :
#
#
# Convention : Reuss Voigt Hill
#
# Bulk Modulus (GPa) = 51.36026 55.14997 53.25511
# Shear Modulus (GPa) = 17.53147 21.25513 19.39330
#
# Velocity S-wave (km/s) = 3.30816 3.64258 3.47939
# Velocity P-wave (km/s) = 6.83031 7.21929 7.02749
#
# Compressibility (1/GPa) = 0.01947031
#
# Stress axis : x y z
#
# Youngs Moduli (GPa) = 38.37729 91.76392 52.54570
#
# Poissons Ratio (x) = 0.31399 0.65925
# Poissons Ratio (y) = 0.13131 0.12032
# Poissons Ratio (z) = 0.48149 0.21012
#
# Static dielectric constant tensor:
#      x y z
#    x 1.519320 0.000000 0.007770 
#    y 0.000000 1.568720 0.000000 
#    z 0.007770 0.000000 1.542540 
# 
# From -- ./inp_files/36327.got.cif
#   From: 2010.05.17/outbox.cif.g08.bks.cpg/sg11_19_cif.got.tgz:36327.got - 2010.06.03 12:22:45.
