data_PCOD9156488
_publ_section_title
;
Structure prediction by ZEFSAII (Michael W. Deem and Ramdas Pophale) SiO2 
 PCOD9156488
Probable space group: P 21/M
;
_chemical_formula_sum "Si O2"
_cell_formula_units_Z 28
_cell_length_a 16.629652
_cell_length_b 8.579512
_cell_length_c 14.091011
_cell_angle_alpha 90.000000
_cell_angle_beta 65.746135
_cell_angle_gamma 90.000000
_cell_volume 1832.973607
_symmetry_space_group_name_H-M "P 21/M"
_symmetry_group_IT_number 11
_symmetry_cell_setting 'monoclinic'
loop_
_space_group_symop_operation_xyz
x,y,z
-x,1/2+y,-z
-x,-y,-z
x,1/2-y,z
loop_
_atom_site_type_symbol
_atom_site_label
_atom_site_fract_x
_atom_site_fract_y
_atom_site_fract_z
Si Si1 0.635234 0.061976 0.893466
Si Si2 0.998565 0.936884 0.393038
Si Si3 0.547672 0.562028 0.117302
Si Si4 0.807864 0.439674 0.699445
Si Si5 0.813568 0.436454 0.475574
Si Si6 0.532168 0.938413 0.339072
Si Si7 0.636597 0.936590 0.475000
O O1 0.636990 0.250000 0.893617
O O2 0.549589 0.014425 0.873153
O O3 0.725100 0.005367 0.800995
O O4 0.617289 0.003047 0.008206
O O5 0.993808 0.750000 0.396294
O O6 0.095319 0.983453 0.307977
O O7 0.000000 0.000000 0.500000
O O8 0.908507 0.003161 0.393943
O O9 0.551297 0.750000 0.112800
O O10 0.558422 0.511287 0.220768
O O11 0.805001 0.250000 0.699844
O O12 0.801488 0.488663 0.591900
O O13 0.814724 0.250000 0.475187
O O14 0.731455 0.496758 0.455374
O O15 0.526296 0.750000 0.342250
O O16 0.600308 0.985038 0.388791
O O17 0.436874 0.003223 0.415368
O O18 0.639377 0.750000 0.476697
#
# Coordination Sequence:
#
# PCOD9156488 Si02
#       7
#     4   4   4   4   4   4   4
#     4   9  16  27  43  62  83 110 144 174 203 244
#     4   9  16  27  42  62  87 114 145 177 212 255
#     4   9  17  29  43  60  85 115 142 170 207 249
#     4   8  15  27  43  61  84 115 143 169 208 254
#     4  10  18  29  44  62  88 119 144 171 213 258
#     4   9  18  32  46  60  85 117 143 172 213 256
#     4  10  19  29  44  66  86 109 145 180 209 248
#
# _framework density 15.275726000000001
#
# number of rings (size 3 to 8) (size 9 to 14) (size 15 to 20)
#    0.000    2.857    0.000    3.000    0.000    3.429 
#    0.000    7.143    0.000    0.000    0.000    1.000 
#    0.000    0.000    0.000    0.000    0.000    0.000 
#
# Total GULP energy -155945.946333 kJ/mol
# GULP energy per Si atom -5569.498083 kJ/mol
# Density = 1.524096 g / cm^3
# Si number density = 15.275726 Si / 1000 Ang^3
#
#
#
# Elastic Constant Matrix: (Units=GPa)
#
#
# Indices 1 2 3 4 5 6 
#
# 1 105.0359 20.5970 48.4848 0.0000 -19.6423 0.0000
# 2 20.5970 15.4141 14.1273 0.0000 -2.7617 0.0000
# 3 48.4848 14.1273 101.3716 0.0000 -11.4847 0.0000
# 4 0.0000 0.0000 0.0000 20.0525 0.0000 -2.6846
# 5 -19.6423 -2.7617 -11.4847 0.0000 26.6484 0.0000
# 6 0.0000 0.0000 0.0000 -2.6846 0.0000 22.9755
#
#
#
# Elastic Compliance Matrix: (Units=1/GPa)
#
#
# Indices 1 2 3 4 5 6 
#
# 1 0.016406 -0.016161 -0.004641 0.000000 0.008418 0.000000
# 2 -0.016161 0.090591 -0.005447 0.000000 -0.004871 0.000000
# 3 -0.004641 -0.005447 0.013028 0.000000 0.001629 0.000000
# 4 0.000000 0.000000 0.000000 0.050662 0.000000 0.005920
# 5 0.008418 -0.004871 0.001629 0.000000 0.043928 0.000000
# 6 0.000000 0.000000 0.000000 0.005920 0.000000 0.044216
#
#
# Mechanical properties :
#
#
# Convention : Reuss Voigt Hill
#
# Bulk Modulus (GPa) = 14.80894 43.13776 28.97335
# Shear Modulus (GPa) = 14.97736 23.17611 19.07673
#
# Velocity S-wave (km/s) = 3.13464 3.89933 3.53771
# Velocity P-wave (km/s) = 4.77669 6.96949 5.97455
#
# Compressibility (1/GPa) = 0.06752678
#
# Stress axis : x y z
#
# Youngs Moduli (GPa) = 60.95300 11.03868 76.75699
#
# Poissons Ratio (x) = 0.17840 0.35623
# Poissons Ratio (y) = 0.98506 0.41810
# Poissons Ratio (z) = 0.28288 0.06013
#
# Static dielectric constant tensor:
#      x y z
#    x 1.514460 0.000000 -0.010490 
#    y 0.000000 1.518650 0.000000 
#    z -0.010490 0.000000 1.499190 
# 
# From -- ./inp_files/51121.got.cif
#   From: 2010.05.17/outbox.cif.g08.bks.cpg/sg11_26_cif.got.tgz:51121.got - 2010.06.03 12:22:45.
