data_PCOD9156813
_publ_section_title
;
Structure prediction by ZEFSAII (Michael W. Deem and Ramdas Pophale) SiO2 
 PCOD9156813
Probable space group: P 21/M
;
_chemical_formula_sum "Si O2"
_cell_formula_units_Z 28
_cell_length_a 14.011974
_cell_length_b 7.615852
_cell_length_c 12.826409
_cell_angle_alpha 90.000000
_cell_angle_beta 54.451465
_cell_angle_gamma 90.000000
_cell_volume 1113.643761
_symmetry_space_group_name_H-M "P 21/M"
_symmetry_group_IT_number 11
_symmetry_cell_setting 'monoclinic'
loop_
_space_group_symop_operation_xyz
x,y,z
-x,1/2+y,-z
-x,-y,-z
x,1/2-y,z
loop_
_atom_site_type_symbol
_atom_site_label
_atom_site_fract_x
_atom_site_fract_y
_atom_site_fract_z
Si Si1 0.446480 0.946105 0.643144
Si Si2 0.833853 0.048676 0.200318
Si Si3 0.557120 0.944991 0.130018
Si Si4 0.175131 0.956591 0.019660
Si Si5 0.833673 0.044522 0.428124
Si Si6 0.307459 0.534152 0.290810
Si Si7 0.914587 0.036877 0.705773
O O1 0.485089 0.750000 0.646014
O O2 0.307141 0.942802 0.716547
O O3 0.500000 0.000000 0.500000
O O4 0.470251 0.062956 0.728285
O O5 0.879227 0.250000 0.173954
O O6 0.861787 0.966630 0.069334
O O7 0.853436 0.963242 0.300929
O O8 0.570693 0.750000 0.078328
O O9 0.434609 0.026003 0.168656
O O10 0.685072 0.031217 0.045282
O O11 0.149481 0.750000 0.028617
O O12 0.108354 0.027892 0.161700
O O13 0.806101 0.250000 0.428372
O O14 0.731673 0.975626 0.568139
O O15 0.957953 0.030304 0.407901
O O16 0.312049 0.750000 0.287705
O O17 0.198635 0.482136 0.287785
O O18 0.917895 0.250000 0.702139
#
# Coordination Sequence:
#
# PCOD9156813 Si02
#       7
#     4   4   4   4   4   4   4
#     4  10  18  30  49  75 108 143 176 212 261 316
#     4   8  16  31  50  71  99 135 168 204 258 315
#     4  10  19  33  54  78 104 136 176 218 261 315
#     4   9  19  36  54  75 106 140 171 210 266 323
#     4  10  19  34  55  76 100 133 175 216 257 311
#     4   9  19  35  54  76 104 139 173 213 271 322
#     4  10  21  37  54  73 103 140 176 217 265 316
#
# _framework density 25.142690000000002
#
# number of rings (size 3 to 8) (size 9 to 14) (size 15 to 20)
#    0.000    2.571    0.000    3.000    0.000    4.000 
#    0.000    7.857    0.000    0.000    0.000    0.000 
#    0.000    0.000    0.000    0.000    0.000    0.000 
#
# Total GULP energy -156336.683388 kJ/mol
# GULP energy per Si atom -5583.452978 kJ/mol
# Density = 2.508546 g / cm^3
# Si number density = 25.142690 Si / 1000 Ang^3
#
#
#
# Elastic Constant Matrix: (Units=GPa)
#
#
# Indices 1 2 3 4 5 6 
#
# 1 81.2176 2.7893 13.0067 0.0000 -12.9978 0.0000
# 2 2.7893 64.6205 0.0838 0.0000 5.2699 0.0000
# 3 13.0067 0.0838 87.4811 0.0000 -6.9644 0.0000
# 4 0.0000 0.0000 0.0000 0.5014 0.0000 -6.1104
# 5 -12.9978 5.2699 -6.9644 0.0000 41.2705 0.0000
# 6 0.0000 0.0000 0.0000 -6.1104 0.0000 16.7813
#
#
#
# Elastic Compliance Matrix: (Units=1/GPa)
#
#
# Indices 1 2 3 4 5 6 
#
# 1 0.013249 -0.000897 -0.001650 0.000000 0.004009 0.000000
# 2 -0.000897 0.015701 -0.000065 0.000000 -0.002298 0.000000
# 3 -0.001650 -0.000065 0.011794 0.000000 0.001479 0.000000
# 4 0.000000 0.000000 0.000000 -0.580211 0.000000 -0.211267
# 5 0.004009 -0.002298 0.001479 0.000000 0.026036 0.000000
# 6 0.000000 0.000000 0.000000 -0.211267 0.000000 -0.017337
#
#
# Mechanical properties :
#
#
# Convention : Reuss Voigt Hill
#
# Bulk Modulus (GPa) = 28.15155 29.45319 28.80237
# Shear Modulus (GPa) = -9.73323 26.20660 8.23669
#
# Velocity S-wave (km/s) = -1.96967 3.23199 1.81193
# Velocity P-wave (km/s) = 2.45931 5.06632 3.98220
#
# Compressibility (1/GPa) = 0.03552202
#
# Stress axis : x y z
#
# Youngs Moduli (GPa) = 75.47634 63.68948 84.78783
#
# Poissons Ratio (x) = 0.05711 0.13989
# Poissons Ratio (y) = 0.06768 0.00548
# Poissons Ratio (z) = 0.12453 0.00412
#
# Static dielectric constant tensor:
#      x y z
#    x 2.037910 0.000000 0.055300 
#    y 0.000000 1.926890 0.000000 
#    z 0.055300 0.000000 2.018160 
# 
# From -- ./inp_files/51574.got.cif
#   From: 2010.05.17/outbox.cif.g08.bks.cpg/sg11_26_cif.got.tgz:51574.got - 2010.06.03 12:22:45.
