data_PCOD9156556
_publ_section_title
;
Structure prediction by ZEFSAII (Michael W. Deem and Ramdas Pophale) SiO2 
 PCOD9156556
Probable space group: P 21/M
;
_chemical_formula_sum "Si O2"
_cell_formula_units_Z 28
_cell_length_a 14.078557
_cell_length_b 7.404959
_cell_length_c 16.596434
_cell_angle_alpha 90.000000
_cell_angle_beta 42.209503
_cell_angle_gamma 90.000000
_cell_volume 1162.421601
_symmetry_space_group_name_H-M "P 21/M"
_symmetry_group_IT_number 11
_symmetry_cell_setting 'monoclinic'
loop_
_space_group_symop_operation_xyz
x,y,z
-x,1/2+y,-z
-x,-y,-z
x,1/2-y,z
loop_
_atom_site_type_symbol
_atom_site_label
_atom_site_fract_x
_atom_site_fract_y
_atom_site_fract_z
Si Si1 0.424895 0.465962 0.462834
Si Si2 0.082136 0.536631 0.531000
Si Si3 0.332687 0.535325 0.107684
Si Si4 0.382683 0.956628 0.801917
Si Si5 0.840939 0.027289 0.938217
Si Si6 0.650656 0.030786 0.727241
Si Si7 0.111176 0.455972 0.685390
O O1 0.500000 0.500000 0.500000
O O2 0.412961 0.250000 0.455375
O O3 0.527778 0.539585 0.327765
O O4 0.265011 0.539323 0.572752
O O5 0.082186 0.750000 0.543132
O O6 0.241127 0.473322 0.410025
O O7 0.035899 0.453938 0.644656
O O8 0.000000 0.500000 0.500000
O O9 0.311232 0.750000 0.120947
O O10 0.250892 0.465282 0.081481
O O11 0.291071 0.468946 0.222925
O O12 0.500000 0.500000 0.000000
O O13 0.351274 0.750000 0.798772
O O14 0.496220 0.959376 0.803742
O O15 0.239415 0.033277 0.930443
O O16 0.839706 0.250000 0.939767
O O17 0.000711 0.967631 0.819111
O O18 0.644726 0.250000 0.731521
O O19 0.137099 0.250000 0.694463
#
# Coordination Sequence:
#
# PCOD9156556 Si02
#       7
#     4   4   4   4   4   4   4
#     4  10  22  39  63  88 111 142 186 236 291 351
#     4  11  22  35  53  79 114 156 195 237 283 331
#     4  10  18  29  46  72 107 150 189 224 265 318
#     4  10  19  35  58  83 106 141 187 227 274 337
#     4   9  18  33  55  79 113 151 185 230 282 328
#     4  10  20  32  49  76 110 147 189 235 280 320
#     4  10  20  38  60  84 113 148 189 236 287 343
#
# _framework density 24.087645999999999
#
# number of rings (size 3 to 8) (size 9 to 14) (size 15 to 20)
#    0.000    2.000    2.857    1.286    0.000    4.000 
#    0.000    3.571    0.000    0.000    0.000    0.000 
#    0.000    0.000    0.000    0.000    0.000    0.000 
#
# Total GULP energy -156385.673890 kJ/mol
# GULP energy per Si atom -5585.202639 kJ/mol
# Density = 2.403282 g / cm^3
# Si number density = 24.087646 Si / 1000 Ang^3
#
#
#
# Elastic Constant Matrix: (Units=GPa)
#
#
# Indices 1 2 3 4 5 6 
#
# 1 68.0204 -7.0026 49.1648 0.0000 4.1455 0.0000
# 2 -7.0026 94.2924 8.1802 0.0000 0.1781 0.0000
# 3 49.1648 8.1802 249.5489 0.0000 -4.7376 0.0000
# 4 0.0000 0.0000 0.0000 2.5155 0.0000 1.6575
# 5 4.1455 0.1781 -4.7376 0.0000 23.6287 0.0000
# 6 0.0000 0.0000 0.0000 1.6575 0.0000 17.5083
#
#
#
# Elastic Compliance Matrix: (Units=1/GPa)
#
#
# Indices 1 2 3 4 5 6 
#
# 1 0.017719 0.001637 -0.003618 0.000000 -0.003846 0.000000
# 2 0.001637 0.010787 -0.000686 0.000000 -0.000506 0.000000
# 3 -0.003618 -0.000686 0.004773 0.000000 0.001597 0.000000
# 4 0.000000 0.000000 0.000000 0.423973 0.000000 -0.040136
# 5 -0.003846 -0.000506 0.001597 0.000000 0.043320 0.000000
# 6 0.000000 0.000000 0.000000 -0.040136 0.000000 0.060915
#
#
# Mechanical properties :
#
#
# Convention : Reuss Voigt Hill
#
# Bulk Modulus (GPa) = 35.78249 56.94961 46.36605
# Shear Modulus (GPa) = 8.67850 32.83180 20.75515
#
# Velocity S-wave (km/s) = 1.90019 3.69591 2.93857
# Velocity P-wave (km/s) = 4.43865 6.47356 5.55016
#
# Compressibility (1/GPa) = 0.02794663
#
# Stress axis : x y z
#
# Youngs Moduli (GPa) = 56.43587 92.70135 209.52287
#
# Poissons Ratio (x) = -0.15175 0.75798
# Poissons Ratio (y) = -0.09239 0.14368
# Poissons Ratio (z) = 0.20416 0.06357
#
# Static dielectric constant tensor:
#      x y z
#    x 1.895990 0.000000 -0.017910 
#    y 0.000000 1.889150 0.000000 
#    z -0.017910 0.000000 1.990380 
# 
# From -- ./inp_files/48900.got.cif
#   From: 2010.05.17/outbox.cif.g08.bks.cpg/sg11_25_cif.got.tgz:48900.got - 2010.06.03 12:22:45.
