data_PCOD9156144
_publ_section_title
;
Structure prediction by ZEFSAII (Michael W. Deem and Ramdas Pophale) SiO2 
 PCOD9156144
Probable space group: P 21/M
;
_chemical_formula_sum "Si O2"
_cell_formula_units_Z 32
_cell_length_a 13.567247
_cell_length_b 17.381549
_cell_length_c 9.159340
_cell_angle_alpha 90.000000
_cell_angle_beta 122.140169
_cell_angle_gamma 90.000000
_cell_volume 1828.938759
_symmetry_space_group_name_H-M "P 21/M"
_symmetry_group_IT_number 11
_symmetry_cell_setting 'monoclinic'
loop_
_space_group_symop_operation_xyz
x,y,z
-x,1/2+y,-z
-x,-y,-z
x,1/2-y,z
loop_
_atom_site_type_symbol
_atom_site_label
_atom_site_fract_x
_atom_site_fract_y
_atom_site_fract_z
Si Si1 0.577327 0.066119 0.633622
Si Si2 0.188421 0.882257 0.541756
Si Si3 0.551735 0.162267 0.339569
Si Si4 0.995299 0.075115 0.181072
Si Si5 0.824873 0.977375 0.254234
Si Si6 0.426387 0.480859 0.084929
Si Si7 0.151251 0.940242 0.202489
Si Si8 0.954922 0.664452 0.504866
O O1 0.553497 0.140877 0.514573
O O2 0.500000 0.000000 0.500000
O O3 0.559245 0.052861 0.791588
O O4 0.713025 0.049724 0.717146
O O5 0.316451 0.846826 0.620543
O O6 0.089601 0.839879 0.557334
O O7 0.201062 0.965334 0.630411
O O8 0.137272 0.893090 0.339923
O O9 0.513188 0.250000 0.287114
O O10 0.475317 0.096527 0.200109
O O11 0.094112 0.023278 0.184881
O O12 0.043905 0.140664 0.324118
O O13 0.921034 0.019409 0.229676
O O14 0.910073 0.099282 0.983547
O O15 0.880599 0.899456 0.360134
O O16 0.707327 0.969305 0.068616
O O17 0.500000 0.500000 0.000000
O O18 0.910086 0.750000 0.446487
#
# Coordination Sequence:
#
# PCOD9156144 Si02
#       8
#     4   4   4   4   4   4   4   4
#     4   9  20  35  56  83 111 148 187 228 282 342
#     4  10  18  35  58  83 109 151 191 229 275 342
#     4  10  21  37  58  85 117 148 187 241 297 334
#     4  10  19  33  58  80 107 141 190 234 270 324
#     4  11  19  36  58  84 109 149 200 227 274 340
#     4  11  21  37  61  86 111 149 199 238 276 346
#     4  10  17  32  60  83 101 137 194 237 262 322
#     4  11  22  35  51  81 122 153 181 228 292 340
#
# _framework density 17.496483999999999
#
# number of rings (size 3 to 8) (size 9 to 14) (size 15 to 20)
#    0.000    1.750    5.000    1.125    0.000    0.500 
#    0.000    3.750    0.000    6.000    0.000    0.000 
#    0.000    0.000    0.000    0.000    0.000    0.000 
#
# Total GULP energy -178317.385934 kJ/mol
# GULP energy per Si atom -5572.418310 kJ/mol
# Density = 1.745666 g / cm^3
# Si number density = 17.496484 Si / 1000 Ang^3
#
#
#
# Elastic Constant Matrix: (Units=GPa)
#
#
# Indices 1 2 3 4 5 6 
#
# 1 32.4187 11.3984 9.8826 0.0000 -11.9584 0.0000
# 2 11.3984 93.3339 32.0456 0.0000 -4.1292 0.0000
# 3 9.8826 32.0456 104.0386 0.0000 -9.5911 0.0000
# 4 0.0000 0.0000 0.0000 14.0310 0.0000 2.5672
# 5 -11.9584 -4.1292 -9.5911 0.0000 33.1090 0.0000
# 6 0.0000 0.0000 0.0000 2.5672 0.0000 11.6735
#
#
#
# Elastic Compliance Matrix: (Units=1/GPa)
#
#
# Indices 1 2 3 4 5 6 
#
# 1 0.037127 -0.003539 -0.001275 0.000000 0.012599 0.000000
# 2 -0.003539 0.012325 -0.003530 0.000000 -0.000764 0.000000
# 3 -0.001275 -0.003530 0.011032 0.000000 0.002295 0.000000
# 4 0.000000 0.000000 0.000000 0.074259 0.000000 -0.016331
# 5 0.012599 -0.000764 0.002295 0.000000 0.035323 0.000000
# 6 0.000000 0.000000 0.000000 -0.016331 0.000000 0.089255
#
#
# Mechanical properties :
#
#
# Convention : Reuss Voigt Hill
#
# Bulk Modulus (GPa) = 22.83400 37.38270 30.10835
# Shear Modulus (GPa) = 17.20530 23.52702 20.36616
#
# Velocity S-wave (km/s) = 3.13926 3.67095 3.41547
# Velocity P-wave (km/s) = 5.12044 6.27536 5.72708
#
# Compressibility (1/GPa) = 0.04379434
#
# Stress axis : x y z
#
# Youngs Moduli (GPa) = 26.93479 81.13724 90.64573
#
# Poissons Ratio (x) = 0.28714 0.11559
# Poissons Ratio (y) = 0.09532 0.32002
# Poissons Ratio (z) = 0.03435 0.28645
#
# Static dielectric constant tensor:
#      x y z
#    x 1.604560 0.000000 -0.016260 
#    y 0.000000 1.568020 0.000000 
#    z -0.016260 0.000000 1.626270 
# 
# From -- ./inp_files/22200.got.cif
#   From: 2010.05.17/outbox.cif.g08.bks.cpg/sg11_12_cif.got.tgz:22200.got - 2010.06.03 12:22:45.
