data_PCOD9156665
_publ_section_title
;
Structure prediction by ZEFSAII (Michael W. Deem and Ramdas Pophale) SiO2 
 PCOD9156665
Probable space group: P 21/M
;
_chemical_formula_sum "Si O2"
_cell_formula_units_Z 32
_cell_length_a 12.347305
_cell_length_b 9.188885
_cell_length_c 21.404921
_cell_angle_alpha 90.000000
_cell_angle_beta 127.737603
_cell_angle_gamma 90.000000
_cell_volume 1920.557770
_symmetry_space_group_name_H-M "P 21/M"
_symmetry_group_IT_number 11
_symmetry_cell_setting 'monoclinic'
loop_
_space_group_symop_operation_xyz
x,y,z
-x,1/2+y,-z
-x,-y,-z
x,1/2-y,z
loop_
_atom_site_type_symbol
_atom_site_label
_atom_site_fract_x
_atom_site_fract_y
_atom_site_fract_z
Si Si1 0.440427 0.577333 0.340889
Si Si2 0.783519 0.922195 0.939892
Si Si3 0.722817 0.422639 0.455597
Si Si4 0.244525 0.577255 0.680514
Si Si5 0.838318 0.923635 0.722195
Si Si6 0.524448 0.422276 0.795263
Si Si7 0.002031 0.422584 0.097159
Si Si8 0.055772 0.423730 0.379235
O O1 0.446706 0.750000 0.354064
O O2 0.576799 0.499893 0.414471
O O3 0.303734 0.508526 0.320844
O O4 0.439877 0.552599 0.265584
O O5 0.765436 0.750000 0.940926
O O6 0.877907 0.946744 0.911553
O O7 0.640064 0.000315 0.877039
O O8 0.870708 0.989426 0.027278
O O9 0.710885 0.250000 0.461504
O O10 0.761068 0.446888 0.396251
O O11 0.838296 0.491422 0.539826
O O12 0.266537 0.750000 0.698125
O O13 0.374500 0.489861 0.751859
O O14 0.100056 0.535281 0.659638
O O15 0.811371 0.750000 0.718785
O O16 0.906861 0.950054 0.679595
O O17 0.938643 0.964509 0.814608
O O18 0.524224 0.250000 0.805885
O O19 0.971221 0.250000 0.086169
O O20 0.068978 0.250000 0.395853
#
# Coordination Sequence:
#
# PCOD9156665 Si02
#       8
#     4   4   4   4   4   4   4   4
#     4  10  20  33  51  75 103 134 169 208 252 300
#     4  10  18  29  50  77 105 134 165 203 248 298
#     4  10  20  34  54  76 101 131 167 213 259 300
#     4   9  19  35  54  76 101 131 168 212 257 299
#     4  10  20  35  53  73 103 139 169 203 249 303
#     4  10  19  31  51  78 105 132 165 210 256 297
#     4   9  18  31  48  73 105 136 165 200 245 299
#     4  10  21  36  54  75 100 133 172 210 252 301
#
# _framework density 16.661826000000001
#
# number of rings (size 3 to 8) (size 9 to 14) (size 15 to 20)
#    0.000    2.250    1.250    1.875    0.000    4.000 
#    0.000    0.000    0.000    0.750    0.000    0.000 
#    0.000    0.000    0.000    0.000    0.000    0.000 
#
# Total GULP energy -178598.416103 kJ/mol
# GULP energy per Si atom -5581.200503 kJ/mol
# Density = 1.662390 g / cm^3
# Si number density = 16.661826 Si / 1000 Ang^3
#
#
#
# Elastic Constant Matrix: (Units=GPa)
#
#
# Indices 1 2 3 4 5 6 
#
# 1 97.7216 71.9109 93.9066 0.0000 18.2511 0.0000
# 2 71.9109 67.3073 75.1384 0.0000 20.8576 0.0000
# 3 93.9066 75.1384 115.2017 0.0000 42.8002 0.0000
# 4 0.0000 0.0000 0.0000 32.6657 0.0000 8.6752
# 5 18.2511 20.8576 42.8002 0.0000 18.0838 0.0000
# 6 0.0000 0.0000 0.0000 8.6752 0.0000 21.5460
#
#
#
# Elastic Compliance Matrix: (Units=1/GPa)
#
#
# Indices 1 2 3 4 5 6 
#
# 1 0.003273 -0.031193 0.045887 0.000000 -0.075930 0.000000
# 2 -0.031193 0.076391 -0.027836 0.000000 0.009256 0.000000
# 3 0.045887 -0.027836 -0.043841 0.000000 0.089555 0.000000
# 4 0.000000 0.000000 0.000000 0.034279 0.000000 -0.013802
# 5 -0.075930 0.009256 0.089555 0.000000 -0.090701 0.000000
# 6 0.000000 0.000000 0.000000 -0.013802 0.000000 0.051970
#
#
# Mechanical properties :
#
#
# Convention : Reuss Voigt Hill
#
# Bulk Modulus (GPa) = 104.83818 84.68249 94.76034
# Shear Modulus (GPa) = 82.19227 17.07740 49.63483
#
# Velocity S-wave (km/s) = 7.03113 3.20494 5.46390
# Velocity P-wave (km/s) = 11.35665 8.03929 9.83879
#
# Compressibility (1/GPa) = 0.00953851
#
# Stress axis : x y z
#
# Youngs Moduli (GPa) = 305.57572 13.09062 -22.80991
#
# Poissons Ratio (x) = 0.40834 1.04669
# Poissons Ratio (y) = 9.53181 -0.63495
# Poissons Ratio (z) = -14.02206 0.36440
#
# Static dielectric constant tensor:
#      x y z
#    x 1.538140 0.000000 -0.005590 
#    y 0.000000 1.552580 0.000000 
#    z -0.005590 0.000000 1.539660 
# 
# From -- ./inp_files/42850.got.cif
#   From: 2010.05.17/outbox.cif.g08.bks.cpg/sg11_22_cif.got.tgz:42850.got - 2010.06.03 12:22:45.
