data_PCOD9156399
_publ_section_title
;
Structure prediction by ZEFSAII (Michael W. Deem and Ramdas Pophale) SiO2 
 PCOD9156399
Probable space group: P 21/M
;
_chemical_formula_sum "Si O2"
_cell_formula_units_Z 32
_cell_length_a 20.896964
_cell_length_b 8.983026
_cell_length_c 14.742469
_cell_angle_alpha 90.000000
_cell_angle_beta 136.563692
_cell_angle_gamma 90.000000
_cell_volume 1902.737907
_symmetry_space_group_name_H-M "P 21/M"
_symmetry_group_IT_number 11
_symmetry_cell_setting 'monoclinic'
loop_
_space_group_symop_operation_xyz
x,y,z
-x,1/2+y,-z
-x,-y,-z
x,1/2-y,z
loop_
_atom_site_type_symbol
_atom_site_label
_atom_site_fract_x
_atom_site_fract_y
_atom_site_fract_z
Si Si1 0.958764 0.080410 0.344465
Si Si2 0.192291 0.419496 0.705944
Si Si3 0.826703 0.419721 0.029385
Si Si4 0.885000 0.927867 0.633123
Si Si5 0.489691 0.570149 0.889603
Si Si6 0.280497 0.926367 0.626562
Si Si7 0.016179 0.427768 0.918963
Si Si8 0.325534 0.078116 0.019952
O O1 0.961717 0.250000 0.382097
O O2 0.056416 0.038184 0.398928
O O3 0.908701 0.971528 0.363187
O O4 0.890116 0.081910 0.185858
O O5 0.189992 0.250000 0.668406
O O6 0.236936 0.528079 0.678618
O O7 0.259636 0.421970 0.862891
O O8 0.820184 0.250000 0.990103
O O9 0.727896 0.484286 0.959110
O O10 0.884269 0.519649 0.018552
O O11 0.889183 0.750000 0.650169
O O12 0.781359 0.986420 0.510280
O O13 0.938737 0.008641 0.769709
O O14 0.495583 0.750000 0.905249
O O15 0.389193 0.533364 0.744386
O O16 0.574548 0.522901 0.912029
O O17 0.500000 0.500000 0.000000
O O18 0.271906 0.750000 0.603474
O O19 0.011458 0.250000 0.917775
O O20 0.000000 0.500000 0.000000
O O21 0.333945 0.250000 0.058272
#
# Coordination Sequence:
#
# PCOD9156399 Si02
#       8
#     4   4   4   4   4   4   4   4
#     4   8  16  30  46  64  91 126 165 207 249 295
#     4  10  18  28  45  66  91 128 172 215 257 299
#     4   9  17  30  49  76 105 133 167 206 251 302
#     4  10  21  37  53  72 100 132 168 209 252 302
#     4  10  20  33  49  70  97 133 181 229 268 306
#     4  11  22  33  47  68  97 134 174 217 264 307
#     4  11  21  36  59  85 111 136 163 198 245 303
#     4   9  17  30  47  69  98 133 175 222 265 302
#
# _framework density 16.817869000000002
#
# number of rings (size 3 to 8) (size 9 to 14) (size 15 to 20)
#    0.000    2.250    1.250    3.375    0.000    5.500 
#    0.000    0.000    0.000    0.000    0.000    0.875 
#    0.000    0.000    0.000    0.000    0.000    0.000 
#
# Total GULP energy -178586.923821 kJ/mol
# GULP energy per Si atom -5580.841369 kJ/mol
# Density = 1.677959 g / cm^3
# Si number density = 16.817869 Si / 1000 Ang^3
#
#
#
# Elastic Constant Matrix: (Units=GPa)
#
#
# Indices 1 2 3 4 5 6 
#
# 1 108.6820 56.0638 58.3107 0.0000 18.4277 0.0000
# 2 56.0638 91.1591 44.4303 0.0000 5.2315 0.0000
# 3 58.3107 44.4303 72.7292 0.0000 19.5186 0.0000
# 4 0.0000 0.0000 0.0000 22.1142 0.0000 -0.6667
# 5 18.4277 5.2315 19.5186 0.0000 33.6651 0.0000
# 6 0.0000 0.0000 0.0000 -0.6667 0.0000 26.3212
#
#
#
# Elastic Compliance Matrix: (Units=1/GPa)
#
#
# Indices 1 2 3 4 5 6 
#
# 1 0.018338 -0.006195 -0.010045 0.000000 -0.003251 0.000000
# 2 -0.006195 0.018108 -0.007402 0.000000 0.004869 0.000000
# 3 -0.010045 -0.007402 0.029063 0.000000 -0.010202 0.000000
# 4 0.000000 0.000000 0.000000 0.045254 0.000000 0.001146
# 5 -0.003251 0.004869 -0.010202 0.000000 0.036642 0.000000
# 6 0.000000 0.000000 0.000000 0.001146 0.000000 0.038021
#
#
# Mechanical properties :
#
#
# Convention : Reuss Voigt Hill
#
# Bulk Modulus (GPa) = 54.87167 65.57555 60.22361
# Shear Modulus (GPa) = 20.93928 24.00446 22.47187
#
# Velocity S-wave (km/s) = 3.53237 3.78209 3.65936
# Velocity P-wave (km/s) = 7.02387 7.62551 7.33087
#
# Compressibility (1/GPa) = 0.01822434
#
# Stress axis : x y z
#
# Youngs Moduli (GPa) = 54.53236 55.22337 34.40826
#
# Poissons Ratio (x) = 0.34214 0.34563
# Poissons Ratio (y) = 0.33785 0.25468
# Poissons Ratio (z) = 0.54778 0.40875
#
# Static dielectric constant tensor:
#      x y z
#    x 1.560330 0.000000 0.017530 
#    y 0.000000 1.570020 0.000000 
#    z 0.017530 0.000000 1.592280 
# 
# From -- ./inp_files/54335.got.cif
#   From: 2010.05.17/outbox.cif.g08.bks.cpg/sg11_28_cif.got.tgz:54335.got - 2010.06.03 12:22:45.
