data_PCOD9156610
_publ_section_title
;
Structure prediction by ZEFSAII (Michael W. Deem and Ramdas Pophale) SiO2 
 PCOD9156610
Probable space group: P 21/M
;
_chemical_formula_sum "Si O2"
_cell_formula_units_Z 32
_cell_length_a 27.747085
_cell_length_b 7.701837
_cell_length_c 19.510259
_cell_angle_alpha 90.000000
_cell_angle_beta 22.543721
_cell_angle_gamma 90.000000
_cell_volume 1598.503493
_symmetry_space_group_name_H-M "P 21/M"
_symmetry_group_IT_number 11
_symmetry_cell_setting 'monoclinic'
loop_
_space_group_symop_operation_xyz
x,y,z
-x,1/2+y,-z
-x,-y,-z
x,1/2-y,z
loop_
_atom_site_type_symbol
_atom_site_label
_atom_site_fract_x
_atom_site_fract_y
_atom_site_fract_z
Si Si1 0.382989 0.042287 0.201364
Si Si2 0.392509 0.954836 0.347663
Si Si3 0.153601 0.451488 0.922279
Si Si4 0.596433 0.550656 0.178000
Si Si5 0.118826 0.537320 0.703207
Si Si6 0.113396 0.451443 0.549381
Si Si7 0.848189 0.453083 0.918046
Si Si8 0.424884 0.459185 0.529123
O O1 0.372062 0.250000 0.221048
O O2 0.248191 0.973896 0.350277
O O3 0.400269 0.974553 0.255822
O O4 0.500000 0.000000 0.000000
O O5 0.393275 0.750000 0.362916
O O6 0.514700 0.030495 0.224070
O O7 0.254719 0.019721 0.553002
O O8 0.150790 0.250000 0.905955
O O9 0.281381 0.525955 0.723018
O O10 0.169952 0.460446 0.983680
O O11 0.013616 0.521953 0.090438
O O12 0.627840 0.750000 0.120678
O O13 0.501554 0.541105 0.366617
O O14 0.725806 0.467284 0.032406
O O15 0.117475 0.750000 0.702364
O O16 0.117304 0.468935 0.627117
O O17 0.112569 0.250000 0.529041
O O18 0.975022 0.524179 0.715531
O O19 0.869507 0.250000 0.905493
O O20 0.500000 0.500000 0.500000
O O21 0.423977 0.250000 0.522011
#
# Coordination Sequence:
#
# PCOD9156610 Si02
#       8
#     4   4   4   4   4   4   4   4
#     4  10  19  33  56  83 109 131 157 196 241 293
#     4   9  19  35  53  73 100 133 168 203 245 297
#     4   9  17  29  47  69  93 121 162 214 258 294
#     4  11  22  34  48  69 100 136 171 208 251 298
#     4   8  14  28  49  69  90 122 162 205 248 292
#     4   8  16  29  46  73 102 126 156 199 244 285
#     4  10  18  29  48  71  96 128 167 208 249 291
#     4  11  21  32  47  69  98 131 169 215 258 299
#
# _framework density 20.018723999999999
#
# number of rings (size 3 to 8) (size 9 to 14) (size 15 to 20)
#    0.000    2.500    1.250    1.500    0.000    2.500 
#    0.000    0.625    0.000    0.750    0.000    0.000 
#    0.000    0.000    0.000    0.000    0.000    0.000 
#
# Total GULP energy -178270.470573 kJ/mol
# GULP energy per Si atom -5570.952205 kJ/mol
# Density = 1.997316 g / cm^3
# Si number density = 20.018724 Si / 1000 Ang^3
#
#
#
# Elastic Constant Matrix: (Units=GPa)
#
#
# Indices 1 2 3 4 5 6 
#
# 1 52.2154 -8.8899 36.1847 0.0000 -22.1093 0.0000
# 2 -8.8899 42.8089 -9.2840 0.0000 -3.2237 0.0000
# 3 36.1847 -9.2840 169.9321 0.0000 -32.0408 0.0000
# 4 0.0000 0.0000 0.0000 17.3411 0.0000 -2.5103
# 5 -22.1093 -3.2237 -32.0408 0.0000 23.8023 0.0000
# 6 0.0000 0.0000 0.0000 -2.5103 0.0000 5.9551
#
#
#
# Elastic Compliance Matrix: (Units=1/GPa)
#
#
# Indices 1 2 3 4 5 6 
#
# 1 0.035348 0.009673 -0.000751 0.000000 0.033132 0.000000
# 2 0.009673 0.027092 0.002421 0.000000 0.015912 0.000000
# 3 -0.000751 0.002421 0.008184 0.000000 0.010647 0.000000
# 4 0.000000 0.000000 0.000000 0.061414 0.000000 0.025888
# 5 0.033132 0.015912 0.010647 0.000000 0.089276 0.000000
# 6 0.000000 0.000000 0.000000 0.025888 0.000000 0.178837
#
#
# Mechanical properties :
#
#
# Convention : Reuss Voigt Hill
#
# Bulk Modulus (GPa) = 10.71721 33.44202 22.07961
# Shear Modulus (GPa) = 12.23783 25.88273 19.06028
#
# Velocity S-wave (km/s) = 2.47517 3.59963 3.08900
# Velocity P-wave (km/s) = 3.67884 5.83250 4.87606
#
# Compressibility (1/GPa) = 0.09330785
#
# Stress axis : x y z
#
# Youngs Moduli (GPa) = 28.29023 36.91195 122.18226
#
# Poissons Ratio (x) = -0.35703 0.09180
# Poissons Ratio (y) = -0.27364 -0.29577
# Poissons Ratio (z) = 0.02125 -0.08935
#
# Static dielectric constant tensor:
#      x y z
#    x 1.712760 0.000000 -0.061370 
#    y 0.000000 1.656060 0.000000 
#    z -0.061370 0.000000 1.772620 
# 
# From -- ./inp_files/42480.got.cif
#   From: 2010.05.17/outbox.cif.g08.bks.cpg/sg11_22_cif.got.tgz:42480.got - 2010.06.03 12:22:45.
