data_PCOD9156985
_publ_section_title
;
Structure prediction by ZEFSAII (Michael W. Deem and Ramdas Pophale) SiO2 
 PCOD9156985
Probable space group: P 21/M
;
_chemical_formula_sum "Si O2"
_cell_formula_units_Z 32
_cell_length_a 15.440521
_cell_length_b 8.870588
_cell_length_c 23.787848
_cell_angle_alpha 90.000000
_cell_angle_beta 39.574991
_cell_angle_gamma 90.000000
_cell_volume 2075.719530
_symmetry_space_group_name_H-M "P 21/M"
_symmetry_group_IT_number 11
_symmetry_cell_setting 'monoclinic'
loop_
_space_group_symop_operation_xyz
x,y,z
-x,1/2+y,-z
-x,-y,-z
x,1/2-y,z
loop_
_atom_site_type_symbol
_atom_site_label
_atom_site_fract_x
_atom_site_fract_y
_atom_site_fract_z
Si Si1 0.296647 0.430480 0.618275
Si Si2 0.990898 0.069114 0.384902
Si Si3 0.549624 0.429737 0.564372
Si Si4 0.279063 0.431253 0.295829
Si Si5 0.299271 0.569111 0.073331
Si Si6 0.455557 0.929675 0.110458
Si Si7 0.995572 0.431348 0.746175
Si Si8 0.279882 0.430819 0.425322
O O1 0.308893 0.250000 0.602074
O O2 0.397651 0.467239 0.618952
O O3 0.352867 0.514618 0.535063
O O4 0.138191 0.465740 0.705032
O O5 0.978572 0.250000 0.390627
O O6 0.128632 0.026876 0.348994
O O7 0.001722 0.008314 0.316101
O O8 0.859423 0.998532 0.480221
O O9 0.561606 0.250000 0.564317
O O10 0.599191 0.509371 0.595911
O O11 0.289256 0.250000 0.287248
O O12 0.389213 0.502193 0.199182
O O13 0.295722 0.475636 0.352378
O O14 0.309544 0.750000 0.062061
O O15 0.360242 0.529478 0.104441
O O16 0.141340 0.524756 0.152706
O O17 0.396132 0.492273 0.979367
O O18 0.458848 0.750000 0.112619
O O19 0.989086 0.250000 0.740885
O O20 0.272963 0.250000 0.432081
#
# Coordination Sequence:
#
# PCOD9156985 Si02
#       8
#     4   4   4   4   4   4   4   4
#     4   9  18  31  49  70  97 127 157 197 244 290
#     4  11  21  32  47  70  97 127 164 205 237 274
#     4  10  19  31  47  71  96 124 162 202 242 281
#     4  10  22  36  49  67  95 130 167 203 241 283
#     4   9  18  31  48  70  97 127 158 192 236 289
#     4  10  19  31  49  72  95 125 161 198 239 281
#     4  10  18  31  50  72  97 130 161 190 236 292
#     4  11  22  35  49  66  94 134 169 199 239 286
#
# _framework density 15.41634
#
# number of rings (size 3 to 8) (size 9 to 14) (size 15 to 20)
#    0.000    2.000    2.500    1.875    0.000    3.000 
#    0.000    0.000    0.000    0.000    0.000    0.875 
#    0.000    0.000    0.000    0.000    0.000    0.000 
#
# Total GULP energy -178544.965449 kJ/mol
# GULP energy per Si atom -5579.530170 kJ/mol
# Density = 1.538125 g / cm^3
# Si number density = 15.416340 Si / 1000 Ang^3
#
#
#
# Elastic Constant Matrix: (Units=GPa)
#
#
# Indices 1 2 3 4 5 6 
#
# 1 119.4146 39.0356 75.2598 0.0000 -12.0525 0.0000
# 2 39.0356 27.8053 37.8886 0.0000 -3.4795 0.0000
# 3 75.2598 37.8886 107.4503 0.0000 -11.8677 0.0000
# 4 0.0000 0.0000 0.0000 20.7769 0.0000 2.6380
# 5 -12.0525 -3.4795 -11.8677 0.0000 23.9534 0.0000
# 6 0.0000 0.0000 0.0000 2.6380 0.0000 20.2983
#
#
#
# Elastic Compliance Matrix: (Units=1/GPa)
#
#
# Indices 1 2 3 4 5 6 
#
# 1 0.018165 -0.015887 -0.006735 0.000000 0.003495 0.000000
# 2 -0.015887 0.083227 -0.018796 0.000000 -0.005216 0.000000
# 3 -0.006735 -0.018796 0.021132 0.000000 0.004351 0.000000
# 4 0.000000 0.000000 0.000000 0.048938 0.000000 -0.006360
# 5 0.003495 -0.005216 0.004351 0.000000 0.044904 0.000000
# 6 0.000000 0.000000 0.000000 -0.006360 0.000000 0.050092
#
#
# Mechanical properties :
#
#
# Convention : Reuss Voigt Hill
#
# Bulk Modulus (GPa) = 25.19613 62.11533 43.65573
# Shear Modulus (GPa) = 13.79226 19.83813 16.81520
#
# Velocity S-wave (km/s) = 2.99432 3.59113 3.30622
# Velocity P-wave (km/s) = 5.32296 7.58777 6.55393
#
# Compressibility (1/GPa) = 0.03968863
#
# Stress axis : x y z
#
# Youngs Moduli (GPa) = 55.05147 12.01539 47.32133
#
# Poissons Ratio (x) = 0.19088 0.31871
# Poissons Ratio (y) = 0.87458 0.88944
# Poissons Ratio (z) = 0.37077 0.22584
#
# Static dielectric constant tensor:
#      x y z
#    x 1.518640 0.000000 -0.021660 
#    y 0.000000 1.514270 0.000000 
#    z -0.021660 0.000000 1.486900 
# 
# From -- ./inp_files/51372.got.cif
#   From: 2010.05.17/outbox.cif.g08.bks.cpg/sg11_26_cif.got.tgz:51372.got - 2010.06.03 12:22:45.
