data_PCOD9156244
_publ_section_title
;
Structure prediction by ZEFSAII (Michael W. Deem and Ramdas Pophale) SiO2 
 PCOD9156244
Probable space group: P 21/M
;
_chemical_formula_sum "Si O2"
_cell_formula_units_Z 32
_cell_length_a 19.012459
_cell_length_b 9.014058
_cell_length_c 19.035422
_cell_angle_alpha 90.000000
_cell_angle_beta 43.379300
_cell_angle_gamma 90.000000
_cell_volume 2240.614910
_symmetry_space_group_name_H-M "P 21/M"
_symmetry_group_IT_number 11
_symmetry_cell_setting 'monoclinic'
loop_
_space_group_symop_operation_xyz
x,y,z
-x,1/2+y,-z
-x,-y,-z
x,1/2-y,z
loop_
_atom_site_type_symbol
_atom_site_label
_atom_site_fract_x
_atom_site_fract_y
_atom_site_fract_z
Si Si1 0.715578 0.427690 0.019013
Si Si2 0.582977 0.079404 0.845651
Si Si3 0.652584 0.580198 0.927480
Si Si4 0.512518 0.573048 0.604597
Si Si5 0.102955 0.928407 0.009862
Si Si6 0.344432 0.427692 0.628352
Si Si7 0.127303 0.071723 0.841641
Si Si8 0.509686 0.571125 0.229908
O O1 0.703134 0.250000 0.029826
O O2 0.619377 0.502854 0.128347
O O3 0.712901 0.483924 0.940851
O O4 0.819020 0.469030 0.985066
O O5 0.617583 0.250000 0.822575
O O6 0.569772 0.029871 0.774735
O O7 0.649087 0.983460 0.851427
O O8 0.465818 0.077247 0.959761
O O9 0.686851 0.750000 0.904223
O O10 0.504731 0.750000 0.620165
O O11 0.412538 0.512674 0.636388
O O12 0.606513 0.541262 0.483269
O O13 0.521256 0.491950 0.672433
O O14 0.106842 0.750000 0.999667
O O15 0.984137 0.971495 0.107425
O O16 0.136598 0.000379 0.911893
O O17 0.355264 0.250000 0.632441
O O18 0.225842 0.468211 0.723884
O O19 0.127292 0.250000 0.849354
O O20 0.517624 0.750000 0.224786
#
# Coordination Sequence:
#
# PCOD9156244 Si02
#       8
#     4   4   4   4   4   4   4   4
#     4  10  18  27  40  58  82 109 136 167 199 233
#     4   8  15  26  38  53  75 104 135 163 192 230
#     4   9  16  25  38  56  78 105 135 163 194 234
#     4  10  19  29  42  61  82 104 134 169 202 238
#     4   9  18  29  41  60  81 103 134 168 200 234
#     4   9  18  31  45  59  78 107 137 166 202 240
#     4   9  17  30  45  58  77 105 135 167 201 237
#     4  10  19  29  41  58  81 109 138 166 198 236
#
# _framework density 14.281793
#
# number of rings (size 3 to 8) (size 9 to 14) (size 15 to 20)
#    0.000    2.750    0.000    3.000    0.000    7.500 
#    0.000    0.000    0.000    0.000    0.000    0.000 
#    0.000    1.000    0.000    2.000    0.000    2.875 
#
# Total GULP energy -178235.902543 kJ/mol
# GULP energy per Si atom -5569.871954 kJ/mol
# Density = 1.424929 g / cm^3
# Si number density = 14.281793 Si / 1000 Ang^3
#
#
#
# Elastic Constant Matrix: (Units=GPa)
#
#
# Indices 1 2 3 4 5 6 
#
# 1 113.4438 46.2098 57.4030 0.0000 17.0678 0.0000
# 2 46.2098 44.4382 32.2341 0.0000 9.5647 0.0000
# 3 57.4030 32.2341 77.5503 0.0000 8.1951 0.0000
# 4 0.0000 0.0000 0.0000 14.7931 0.0000 5.5981
# 5 17.0678 9.5647 8.1951 0.0000 24.9923 0.0000
# 6 0.0000 0.0000 0.0000 5.5981 0.0000 22.6763
#
#
#
# Elastic Compliance Matrix: (Units=1/GPa)
#
#
# Indices 1 2 3 4 5 6 
#
# 1 0.018876 -0.012518 -0.008197 0.000000 -0.005412 0.000000
# 2 -0.012518 0.042236 -0.007754 0.000000 -0.005073 0.000000
# 3 -0.008197 -0.007754 0.022044 0.000000 0.001337 0.000000
# 4 0.000000 0.000000 0.000000 0.074565 0.000000 -0.018408
# 5 -0.005412 -0.005073 0.001337 0.000000 0.045211 0.000000
# 6 0.000000 0.000000 0.000000 -0.018408 0.000000 0.048643
#
#
# Mechanical properties :
#
#
# Convention : Reuss Voigt Hill
#
# Bulk Modulus (GPa) = 38.14057 56.34736 47.24396
# Shear Modulus (GPa) = 15.76032 19.13137 17.44585
#
# Velocity S-wave (km/s) = 3.32554 3.66398 3.49885
# Velocity P-wave (km/s) = 6.44277 7.57887 7.03380
#
# Compressibility (1/GPa) = 0.02621880
#
# Stress axis : x y z
#
# Youngs Moduli (GPa) = 52.97788 23.67641 45.36382
#
# Poissons Ratio (x) = 0.29637 0.37185
# Poissons Ratio (y) = 0.66315 0.35175
# Poissons Ratio (z) = 0.43426 0.18359
#
# Static dielectric constant tensor:
#      x y z
#    x 1.470080 0.000000 0.004410 
#    y 0.000000 1.479770 0.000000 
#    z 0.004410 0.000000 1.460020 
# 
# From -- ./inp_files/52925.got.cif
#   From: 2010.05.17/outbox.cif.g08.bks.cpg/sg11_27_cif.got.tgz:52925.got - 2010.06.03 12:22:45.
