data_PCOD9156649
_publ_section_title
;
Structure prediction by ZEFSAII (Michael W. Deem and Ramdas Pophale) SiO2 
 PCOD9156649
Probable space group: P 21/M
;
_chemical_formula_sum "Si O2"
_cell_formula_units_Z 28
_cell_length_a 10.364000
_cell_length_b 14.439369
_cell_length_c 15.626933
_cell_angle_alpha 90.000000
_cell_angle_beta 41.452979
_cell_angle_gamma 90.000000
_cell_volume 1548.141869
_symmetry_space_group_name_H-M "P 21/M"
_symmetry_group_IT_number 11
_symmetry_cell_setting 'monoclinic'
loop_
_space_group_symop_operation_xyz
x,y,z
-x,1/2+y,-z
-x,-y,-z
x,1/2-y,z
loop_
_atom_site_type_symbol
_atom_site_label
_atom_site_fract_x
_atom_site_fract_y
_atom_site_fract_z
Si Si1 0.286627 0.480699 0.507814
Si Si2 0.719220 0.357305 0.048382
Si Si3 0.279035 0.444869 0.698164
Si Si4 0.027288 0.141351 0.309367
Si Si5 0.867083 0.966942 0.906284
Si Si6 0.866260 0.646934 0.069464
Si Si7 0.300603 0.143022 0.339425
O O1 0.259790 0.420022 0.607614
O O2 0.512989 0.508455 0.392624
O O3 0.239385 0.424671 0.445989
O O4 0.156966 0.573247 0.584493
O O5 0.712974 0.250000 0.021691
O O6 0.519695 0.376846 0.197352
O O7 0.761125 0.433525 0.954417
O O8 0.906628 0.365712 0.017739
O O9 0.248363 0.367653 0.785065
O O10 0.097953 0.513834 0.803415
O O11 0.977609 0.250000 0.319254
O O12 0.144513 0.098840 0.170056
O O13 0.159624 0.135655 0.328010
O O14 0.799813 0.921487 0.028323
O O15 0.841817 0.750000 0.048587
O O16 0.298172 0.250000 0.370373
#
# Coordination Sequence:
#
# PCOD9156649 Si02
#       7
#     4   4   4   4   4   4   4
#     4  10  19  35  54  72 100 136 168 207 255 296
#     4   9  18  32  52  76 100 128 164 208 254 300
#     4   9  19  32  50  76 102 128 165 208 250 304
#     4  10  22  36  51  73 100 135 176 210 243 292
#     4  10  18  33  53  74 104 133 162 204 256 307
#     4  10  18  29  49  76 104 131 159 200 255 308
#     4  10  20  35  54  75 100 133 174 211 244 292
#
# _framework density 18.086198
#
# number of rings (size 3 to 8) (size 9 to 14) (size 15 to 20)
#    0.000    2.286    0.000    4.286    0.000    1.714 
#    0.000    9.286    0.000    0.857    0.000    0.000 
#    0.000    0.000    0.000    0.000    0.000    0.000 
#
# Total GULP energy -156000.571872 kJ/mol
# GULP energy per Si atom -5571.448995 kJ/mol
# Density = 1.804503 g / cm^3
# Si number density = 18.086198 Si / 1000 Ang^3
#
#
#
# Elastic Constant Matrix: (Units=GPa)
#
#
# Indices 1 2 3 4 5 6 
#
# 1 39.5392 32.7378 26.5924 0.0000 17.8964 0.0000
# 2 32.7378 108.5355 52.7143 0.0000 23.1888 0.0000
# 3 26.5924 52.7143 84.1171 0.0000 11.6354 0.0000
# 4 0.0000 0.0000 0.0000 27.1774 0.0000 5.8269
# 5 17.8964 23.1888 11.6354 0.0000 19.6545 0.0000
# 6 0.0000 0.0000 0.0000 5.8269 0.0000 18.4440
#
#
#
# Elastic Compliance Matrix: (Units=1/GPa)
#
#
# Indices 1 2 3 4 5 6 
#
# 1 0.050696 -0.002924 -0.009025 0.000000 -0.037368 0.000000
# 2 -0.002924 0.016430 -0.007688 0.000000 -0.012170 0.000000
# 3 -0.009025 -0.007688 0.018699 0.000000 0.006219 0.000000
# 4 0.000000 0.000000 0.000000 0.039469 0.000000 -0.012469
# 5 -0.037368 -0.012170 0.006219 0.000000 0.095581 0.000000
# 6 0.000000 0.000000 0.000000 -0.012469 0.000000 0.058157
#
#
# Mechanical properties :
#
#
# Convention : Reuss Voigt Hill
#
# Bulk Modulus (GPa) = 21.48249 50.69785 36.09017
# Shear Modulus (GPa) = 14.97787 21.06502 18.02145
#
# Velocity S-wave (km/s) = 2.88086 3.41647 3.16004
# Velocity P-wave (km/s) = 4.79264 6.60720 5.77168
#
# Compressibility (1/GPa) = 0.04654953
#
# Stress axis : x y z
#
# Youngs Moduli (GPa) = 19.72525 60.86437 53.47789
#
# Poissons Ratio (x) = 0.17799 0.48266
# Poissons Ratio (y) = 0.05768 0.41116
# Poissons Ratio (z) = 0.17803 0.46795
#
# Static dielectric constant tensor:
#      x y z
#    x 1.606740 0.000000 0.013800 
#    y 0.000000 1.642530 0.000000 
#    z 0.013800 0.000000 1.628740 
# 
# From -- ./inp_files/47575.got.cif
#   From: 2010.05.17/outbox.cif.g08.bks.cpg/sg11_24_cif.got.tgz:47575.got - 2010.06.03 12:22:45.
