data_PCOD9156703
_publ_section_title
;
Structure prediction by ZEFSAII (Michael W. Deem and Ramdas Pophale) SiO2 
 PCOD9156703
Probable space group: P 21/M
;
_chemical_formula_sum "Si O2"
_cell_formula_units_Z 32
_cell_length_a 28.128633
_cell_length_b 8.376313
_cell_length_c 19.873232
_cell_angle_alpha 90.000000
_cell_angle_beta 155.546142
_cell_angle_gamma 90.000000
_cell_volume 1938.334423
_symmetry_space_group_name_H-M "P 21/M"
_symmetry_group_IT_number 11
_symmetry_cell_setting 'monoclinic'
loop_
_space_group_symop_operation_xyz
x,y,z
-x,1/2+y,-z
-x,-y,-z
x,1/2-y,z
loop_
_atom_site_type_symbol
_atom_site_label
_atom_site_fract_x
_atom_site_fract_y
_atom_site_fract_z
Si Si1 0.728779 0.056845 0.820492
Si Si2 0.006640 0.940426 0.820782
Si Si3 0.098165 0.559223 0.177414
Si Si4 0.980674 0.059497 0.640329
Si Si5 0.331738 0.555012 0.409221
Si Si6 0.118131 0.058678 0.617848
Si Si7 0.776384 0.555445 0.112705
Si Si8 0.586564 0.557315 0.765165
O O1 0.726451 0.250000 0.820454
O O2 0.686603 0.007586 0.692143
O O3 0.649266 0.990568 0.776959
O O4 0.860669 0.003920 0.000946
O O5 0.007661 0.750000 0.827043
O O6 0.933743 0.006551 0.788786
O O7 0.962395 0.991149 0.690700
O O8 0.099027 0.750000 0.175458
O O9 0.222270 0.501248 0.311403
O O10 0.000000 0.500000 0.000000
O O11 0.983967 0.250000 0.647977
O O12 0.106632 0.004511 0.775254
O O13 0.887446 0.008890 0.464409
O O14 0.331911 0.750000 0.410312
O O15 0.455323 0.500243 0.594999
O O16 0.117573 0.250000 0.613480
O O17 0.213004 0.008149 0.795254
O O18 0.000000 0.000000 0.500000
O O19 0.776950 0.750000 0.112340
O O20 0.666114 0.499468 0.929224
O O21 0.584356 0.750000 0.765579
#
# Coordination Sequence:
#
# PCOD9156703 Si02
#       8
#     4   4   4   4   4   4   4   4
#     4  10  19  32  46  68 100 128 159 200 240 285
#     4  11  21  33  50  72  98 130 163 201 248 290
#     4  11  21  36  53  71  94 126 166 209 249 288
#     4  10  18  30  46  70  98 126 163 201 238 292
#     4   9  19  34  50  68  95 127 164 205 243 283
#     4   9  16  27  42  65  97 131 161 195 236 288
#     4   8  15  26  43  68  96 124 159 191 228 286
#     4  10  18  31  50  71  96 130 164 196 236 287
#
# _framework density 16.50902
#
# number of rings (size 3 to 8) (size 9 to 14) (size 15 to 20)
#    0.000    2.250    2.500    2.625    0.000    0.500 
#    0.000    1.875    0.000    0.000    0.000    0.875 
#    0.000    0.000    0.000    0.000    0.000    0.000 
#
# Total GULP energy -178423.417391 kJ/mol
# GULP energy per Si atom -5575.731793 kJ/mol
# Density = 1.647144 g / cm^3
# Si number density = 16.509020 Si / 1000 Ang^3
#
#
#
# Elastic Constant Matrix: (Units=GPa)
#
#
# Indices 1 2 3 4 5 6 
#
# 1 107.9904 12.2402 95.9124 0.0000 -15.9879 0.0000
# 2 12.2402 19.5244 16.4554 0.0000 -0.7692 0.0000
# 3 95.9124 16.4554 129.5784 0.0000 -10.1885 0.0000
# 4 0.0000 0.0000 0.0000 12.7539 0.0000 -3.9165
# 5 -15.9879 -0.7692 -10.1885 0.0000 29.4178 0.0000
# 6 0.0000 0.0000 0.0000 -3.9165 0.0000 25.5850
#
#
#
# Elastic Compliance Matrix: (Units=1/GPa)
#
#
# Indices 1 2 3 4 5 6 
#
# 1 0.028984 -0.000358 -0.020735 0.000000 0.008562 0.000000
# 2 -0.000358 0.057393 -0.007115 0.000000 -0.001158 0.000000
# 3 -0.020735 -0.007115 0.023714 0.000000 -0.003242 0.000000
# 4 0.000000 0.000000 0.000000 0.082275 0.000000 0.012594
# 5 0.008562 -0.001158 -0.003242 0.000000 0.037493 0.000000
# 6 0.000000 0.000000 0.000000 0.012594 0.000000 0.041013
#
#
# Mechanical properties :
#
#
# Convention : Reuss Voigt Hill
#
# Bulk Modulus (GPa) = 18.63037 56.25658 37.44347
# Shear Modulus (GPa) = 14.48524 22.38369 18.43447
#
# Velocity S-wave (km/s) = 2.96533 3.68618 3.34523
# Velocity P-wave (km/s) = 4.79934 7.22962 6.13601
#
# Compressibility (1/GPa) = 0.05367581
#
# Stress axis : x y z
#
# Youngs Moduli (GPa) = 34.50151 17.42378 42.16937
#
# Poissons Ratio (x) = 0.00623 0.87439
# Poissons Ratio (y) = 0.01234 0.30003
# Poissons Ratio (z) = 0.71540 0.12397
#
# Static dielectric constant tensor:
#      x y z
#    x 1.536830 0.000000 -0.019450 
#    y 0.000000 1.575020 0.000000 
#    z -0.019450 0.000000 1.574070 
# 
# From -- ./inp_files/44504.got.cif
#   From: 2010.05.17/outbox.cif.g08.bks.cpg/sg11_23_cif.got.tgz:44504.got - 2010.06.03 12:22:45.
