data_PCOD9156804
_publ_section_title
;
Structure prediction by ZEFSAII (Michael W. Deem and Ramdas Pophale) SiO2 
 PCOD9156804
Probable space group: P 21/M
;
_chemical_formula_sum "Si O2"
_cell_formula_units_Z 28
_cell_length_a 9.943191
_cell_length_b 8.568850
_cell_length_c 32.610237
_cell_angle_alpha 90.000000
_cell_angle_beta 145.876402
_cell_angle_gamma 90.000000
_cell_volume 1558.653759
_symmetry_space_group_name_H-M "P 21/M"
_symmetry_group_IT_number 11
_symmetry_cell_setting 'monoclinic'
loop_
_space_group_symop_operation_xyz
x,y,z
-x,1/2+y,-z
-x,-y,-z
x,1/2-y,z
loop_
_atom_site_type_symbol
_atom_site_label
_atom_site_fract_x
_atom_site_fract_y
_atom_site_fract_z
Si Si1 0.724536 0.437054 0.199054
Si Si2 0.126987 0.439908 0.239173
Si Si3 0.196583 0.935722 0.080791
Si Si4 0.178928 0.435111 0.690036
Si Si5 0.709198 0.562236 0.808192
Si Si6 0.953933 0.564078 0.554729
Si Si7 0.372405 0.561839 0.595516
O O1 0.696154 0.250000 0.190919
O O2 0.462765 0.513355 0.133923
O O3 0.853615 0.483803 0.274173
O O4 0.888771 0.489544 0.202664
O O5 0.127782 0.250000 0.239774
O O6 0.156843 0.487145 0.199480
O O7 0.364935 0.489130 0.323944
O O8 0.183896 0.750000 0.079841
O O9 0.166756 0.006367 0.118794
O O10 0.000000 0.000000 0.000000
O O11 0.182527 0.250000 0.696236
O O12 0.441160 0.492426 0.741029
O O13 0.991331 0.484868 0.607978
O O14 0.687525 0.750000 0.803054
O O15 0.956305 0.750000 0.560351
O O16 0.181082 0.520506 0.582943
O O17 0.723636 0.510943 0.470758
O O18 0.369593 0.750000 0.591112
#
# Coordination Sequence:
#
# PCOD9156804 Si02
#       7
#     4   4   4   4   4   4   4
#     4  10  20  36  58  82 109 143 176 215 267 321
#     4   9  18  34  56  81 110 142 177 217 269 324
#     4  11  22  39  60  86 112 141 177 216 258 309
#     4  11  20  32  50  76 106 142 185 228 267 315
#     4  10  18  34  58  84 109 140 177 219 264 315
#     4  10  18  30  49  74 103 138 183 231 276 317
#     4   9  17  31  49  74 106 138 175 225 275 320
#
# _framework density 17.964220999999998
#
# number of rings (size 3 to 8) (size 9 to 14) (size 15 to 20)
#    0.000    2.000    1.429    5.571    0.000    0.571 
#    0.000    5.714    0.000    0.000    0.000    0.000 
#    0.000    0.000    0.000    0.000    0.000    0.000 
#
# Total GULP energy -156300.488395 kJ/mol
# GULP energy per Si atom -5582.160300 kJ/mol
# Density = 1.792333 g / cm^3
# Si number density = 17.964221 Si / 1000 Ang^3
#
#
#
# Elastic Constant Matrix: (Units=GPa)
#
#
# Indices 1 2 3 4 5 6 
#
# 1 101.7339 -0.3434 34.4276 0.0000 -9.5432 0.0000
# 2 -0.3434 36.6000 1.7675 0.0000 1.2670 0.0000
# 3 34.4276 1.7675 103.9011 0.0000 -16.6407 0.0000
# 4 0.0000 0.0000 0.0000 31.1872 0.0000 -1.6004
# 5 -9.5432 1.2670 -16.6407 0.0000 18.3876 0.0000
# 6 0.0000 0.0000 0.0000 -1.6004 0.0000 6.6847
#
#
#
# Elastic Compliance Matrix: (Units=1/GPa)
#
#
# Indices 1 2 3 4 5 6 
#
# 1 0.011200 0.000164 -0.003257 0.000000 0.002854 0.000000
# 2 0.000164 0.027462 -0.000948 0.000000 -0.002666 0.000000
# 3 -0.003257 -0.000948 0.012233 0.000000 0.009446 0.000000
# 4 0.000000 0.000000 0.000000 0.032463 0.000000 0.007772
# 5 0.002854 -0.002666 0.009446 0.000000 0.064598 0.000000
# 6 0.000000 0.000000 0.000000 0.007772 0.000000 0.151457
#
#
# Mechanical properties :
#
#
# Convention : Reuss Voigt Hill
#
# Bulk Modulus (GPa) = 23.35816 34.88204 29.12010
# Shear Modulus (GPa) = 15.53923 25.01076 20.27500
#
# Velocity S-wave (km/s) = 2.94430 3.73534 3.36316
# Velocity P-wave (km/s) = 4.95876 6.16955 5.59699
#
# Compressibility (1/GPa) = 0.04281160
#
# Stress axis : x y z
#
# Youngs Moduli (GPa) = 89.28592 36.41389 81.74880
#
# Poissons Ratio (x) = -0.00596 0.26624
# Poissons Ratio (y) = -0.01460 0.07752
# Poissons Ratio (z) = 0.29078 0.03453
#
# Static dielectric constant tensor:
#      x y z
#    x 1.620010 0.000000 -0.007050 
#    y 0.000000 1.603100 0.000000 
#    z -0.007050 0.000000 1.600720 
# 
# From -- ./inp_files/72763.got.cif
#   From: 2010.05.17/outbox.cif.g08.bks.cpg/sg11_37_cif.got.tgz:72763.got - 2010.06.03 12:22:45.
