data_PCOD9156009
_publ_section_title
;
Structure prediction by ZEFSAII (Michael W. Deem and Ramdas Pophale) SiO2 
 PCOD9156009
Probable space group: P 21/M
;
_chemical_formula_sum "Si O2"
_cell_formula_units_Z 32
_cell_length_a 8.523370
_cell_length_b 18.750144
_cell_length_c 9.595306
_cell_angle_alpha 90.000000
_cell_angle_beta 106.592854
_cell_angle_gamma 90.000000
_cell_volume 1469.611835
_symmetry_space_group_name_H-M "P 21/M"
_symmetry_group_IT_number 11
_symmetry_cell_setting 'monoclinic'
loop_
_space_group_symop_operation_xyz
x,y,z
-x,1/2+y,-z
-x,-y,-z
x,1/2-y,z
loop_
_atom_site_type_symbol
_atom_site_label
_atom_site_fract_x
_atom_site_fract_y
_atom_site_fract_z
Si Si1 0.419610 0.044894 0.105100
Si Si2 0.095596 0.444530 0.862532
Si Si3 0.743625 0.669684 0.271172
Si Si4 0.569584 0.169813 0.012050
Si Si5 0.947138 0.059287 0.370422
Si Si6 0.310023 0.082971 0.466012
Si Si7 0.727996 0.084861 0.808788
Si Si8 0.338878 0.588040 0.517768
O O1 0.235444 0.064071 0.012340
O O2 0.528190 0.116040 0.127535
O O3 0.500000 0.000000 0.000000
O O4 0.393801 0.983557 0.212819
O O5 0.116796 0.378702 0.761243
O O6 0.123988 0.515546 0.778201
O O7 0.912203 0.442990 0.868926
O O8 0.794754 0.750000 0.316642
O O9 0.597362 0.672261 0.121954
O O10 0.680480 0.628553 0.390451
O O11 0.613937 0.250000 0.064737
O O12 0.692734 0.135942 0.930105
O O13 0.805583 0.105399 0.409045
O O14 0.121258 0.093502 0.369088
O O15 0.000000 0.000000 0.500000
O O16 0.467727 0.104571 0.413603
O O17 0.326716 0.998687 0.503079
O O18 0.705413 0.116078 0.648515
#
# Coordination Sequence:
#
# PCOD9156009 Si02
#       8
#     4   4   4   4   4   4   4   4
#     4   9  21  33  52  75 103 135 172 221 267 306
#     4  11  19  33  49  75 112 128 173 216 268 313
#     4  10  18  30  48  69 104 141 167 205 257 319
#     4   9  19  34  50  72 104 137 170 212 262 321
#     4  10  17  30  47  75 103 137 161 211 258 297
#     4  10  17  29  47  74 101 137 171 204 258 303
#     4  11  18  32  51  79 105 131 174 221 265 310
#     4  10  18  27  50  75 103 131 167 213 255 306
#
# _framework density 21.774456000000001
#
# number of rings (size 3 to 8) (size 9 to 14) (size 15 to 20)
#    0.000    2.000    6.250    0.375    0.000    0.500 
#    0.000    0.000    0.000    0.750    0.000    3.500 
#    0.000    0.000    0.000    0.000    0.000    0.000 
#
# Total GULP energy -178453.699178 kJ/mol
# GULP energy per Si atom -5576.678099 kJ/mol
# Density = 2.172490 g / cm^3
# Si number density = 21.774456 Si / 1000 Ang^3
#
#
#
# Elastic Constant Matrix: (Units=GPa)
#
#
# Indices 1 2 3 4 5 6 
#
# 1 156.0118 24.0908 29.2217 0.0000 -29.3262 0.0000
# 2 24.0908 73.4181 14.0655 0.0000 -24.2444 0.0000
# 3 29.2217 14.0655 38.9755 0.0000 -10.0243 0.0000
# 4 0.0000 0.0000 0.0000 17.0059 0.0000 -1.1625
# 5 -29.3262 -24.2444 -10.0243 0.0000 35.1616 0.0000
# 6 0.0000 0.0000 0.0000 -1.1625 0.0000 14.2244
#
#
#
# Elastic Compliance Matrix: (Units=1/GPa)
#
#
# Indices 1 2 3 4 5 6 
#
# 1 0.008368 0.000040 -0.004841 0.000000 0.005626 0.000000
# 2 0.000040 0.018088 -0.003606 0.000000 0.011477 0.000000
# 3 -0.004841 -0.003606 0.031198 0.000000 0.002370 0.000000
# 4 0.000000 0.000000 0.000000 0.059134 0.000000 0.004833
# 5 0.005626 0.011477 0.002370 0.000000 0.041722 0.000000
# 6 0.000000 0.000000 0.000000 0.004833 0.000000 0.070697
#
#
# Mechanical properties :
#
#
# Convention : Reuss Voigt Hill
#
# Bulk Modulus (GPa) = 24.48578 44.79572 34.64075
# Shear Modulus (GPa) = 19.25785 26.68019 22.96902
#
# Velocity S-wave (km/s) = 2.97715 3.50422 3.25139
# Velocity P-wave (km/s) = 4.80495 6.08194 5.48076
#
# Compressibility (1/GPa) = 0.04084003
#
# Stress axis : x y z
#
# Youngs Moduli (GPa) = 119.50223 55.28381 32.05375
#
# Poissons Ratio (x) = -0.00219 0.15518
# Poissons Ratio (y) = -0.00474 0.11557
# Poissons Ratio (z) = 0.57852 0.19933
#
# Static dielectric constant tensor:
#      x y z
#    x 1.848490 0.000000 0.003680 
#    y 0.000000 1.780940 0.000000 
#    z 0.003680 0.000000 1.896550 
# 
# From -- ./inp_files/32247.got.cif
#   From: 2010.05.17/outbox.cif.g08.bks.cpg/sg11_17_cif.got.tgz:32247.got - 2010.06.03 12:22:45.
