data_PCOD9156455
_publ_section_title
;
Structure prediction by ZEFSAII (Michael W. Deem and Ramdas Pophale) SiO2 
 PCOD9156455
Probable space group: P 21/M
;
_chemical_formula_sum "Si O2"
_cell_formula_units_Z 24
_cell_length_a 14.567154
_cell_length_b 8.845938
_cell_length_c 27.578638
_cell_angle_alpha 90.000000
_cell_angle_beta 25.173639
_cell_angle_gamma 90.000000
_cell_volume 1511.649394
_symmetry_space_group_name_H-M "P 21/M"
_symmetry_group_IT_number 11
_symmetry_cell_setting 'monoclinic'
loop_
_space_group_symop_operation_xyz
x,y,z
-x,1/2+y,-z
-x,-y,-z
x,1/2-y,z
loop_
_atom_site_type_symbol
_atom_site_label
_atom_site_fract_x
_atom_site_fract_y
_atom_site_fract_z
Si Si1 0.963274 0.569733 0.440966
Si Si2 0.734633 0.931710 0.900188
Si Si3 0.665500 0.431516 0.659854
Si Si4 0.836288 0.930761 0.746679
Si Si5 0.668779 0.431424 0.030680
Si Si6 0.211497 0.431952 0.923436
O O1 0.953817 0.750000 0.445067
O O2 0.755680 0.504150 0.567695
O O3 0.168511 0.523116 0.376499
O O4 0.008055 0.508783 0.366059
O O5 0.720555 0.750000 0.910590
O O6 0.871875 0.968754 0.786375
O O7 0.500000 0.000000 0.000000
O O8 0.790201 0.002780 0.925408
O O9 0.676284 0.250000 0.650404
O O10 0.425035 0.473885 0.790474
O O11 0.853628 0.750000 0.733387
O O12 0.586726 0.971008 0.852908
O O13 0.684838 0.250000 0.023611
O O14 0.755383 0.502367 0.038643
O O15 0.199756 0.250000 0.931077
O O16 0.000000 0.500000 0.000000
#
# Coordination Sequence:
#
# PCOD9156455 Si02
#       6
#     4   4   4   4   4   4
#     4  10  18  28  47  71  95 126 160 196 239 288
#     4   9  17  28  43  66  95 128 161 196 239 289
#     4   9  19  33  46  66  95 127 160 197 242 286
#     4   9  17  28  44  68  98 129 158 191 238 290
#     4  10  19  31  47  68  95 129 163 201 243 286
#     4  11  22  36  52  71  96 129 167 205 242 285
#
# _framework density 15.876697999999999
#
# number of rings (size 3 to 8) (size 9 to 14) (size 15 to 20)
#    0.000    2.333    1.667    3.000    0.000    5.333 
#    0.000    0.000    0.000    0.000    0.000    1.167 
#    0.000    0.000    0.000    0.000    0.000    0.000 
#
# Total GULP energy -133774.127710 kJ/mol
# GULP energy per Si atom -5573.921988 kJ/mol
# Density = 1.584056 g / cm^3
# Si number density = 15.876698 Si / 1000 Ang^3
#
#
#
# Elastic Constant Matrix: (Units=GPa)
#
#
# Indices 1 2 3 4 5 6 
#
# 1 105.1733 45.8924 77.5011 0.0000 30.1422 0.0000
# 2 45.8924 46.0213 45.7218 0.0000 14.9285 0.0000
# 3 77.5011 45.7218 108.9766 0.0000 30.7310 0.0000
# 4 0.0000 0.0000 0.0000 23.4425 0.0000 6.3879
# 5 30.1422 14.9285 30.7310 0.0000 34.2618 0.0000
# 6 0.0000 0.0000 0.0000 6.3879 0.0000 26.8920
#
#
#
# Elastic Compliance Matrix: (Units=1/GPa)
#
#
# Indices 1 2 3 4 5 6 
#
# 1 0.024207 -0.011540 -0.010422 0.000000 -0.006920 0.000000
# 2 -0.011540 0.042987 -0.009919 0.000000 0.000318 0.000000
# 3 -0.010422 -0.009919 0.022682 0.000000 -0.006854 0.000000
# 4 0.000000 0.000000 0.000000 0.045610 0.000000 -0.010834
# 5 -0.006920 0.000318 -0.006854 0.000000 0.041284 0.000000
# 6 0.000000 0.000000 0.000000 -0.010834 0.000000 0.039759
#
#
# Mechanical properties :
#
#
# Convention : Reuss Voigt Hill
#
# Bulk Modulus (GPa) = 38.29155 66.48911 52.39033
# Shear Modulus (GPa) = 17.30126 22.98964 20.14545
#
# Velocity S-wave (km/s) = 3.30468 3.80940 3.56598
# Velocity P-wave (km/s) = 6.22348 7.83059 7.07283
#
# Compressibility (1/GPa) = 0.02611542
#
# Stress axis : x y z
#
# Youngs Moduli (GPa) = 41.31079 23.26258 44.08699
#
# Poissons Ratio (x) = 0.26845 0.45948
# Poissons Ratio (y) = 0.47673 0.43728
# Poissons Ratio (z) = 0.43054 0.23073
#
# Static dielectric constant tensor:
#      x y z
#    x 1.548680 0.000000 0.023770 
#    y 0.000000 1.526650 0.000000 
#    z 0.023770 0.000000 1.524680 
# 
# From -- ./inp_files/36999.got.cif
#   From: 2010.05.17/outbox.cif.g08.bks.cpg/sg11_19_cif.got.tgz:36999.got - 2010.06.03 12:22:45.
