data_PCOD9156401
_publ_section_title
;
Structure prediction by ZEFSAII (Michael W. Deem and Ramdas Pophale) SiO2 
 PCOD9156401
Probable space group: P 21/M
;
_chemical_formula_sum "Si O2"
_cell_formula_units_Z 32
_cell_length_a 30.984366
_cell_length_b 8.826718
_cell_length_c 17.221396
_cell_angle_alpha 90.000000
_cell_angle_beta 154.102842
_cell_angle_gamma 90.000000
_cell_volume 2057.075635
_symmetry_space_group_name_H-M "P 21/M"
_symmetry_group_IT_number 11
_symmetry_cell_setting 'monoclinic'
loop_
_space_group_symop_operation_xyz
x,y,z
-x,1/2+y,-z
-x,-y,-z
x,1/2-y,z
loop_
_atom_site_type_symbol
_atom_site_label
_atom_site_fract_x
_atom_site_fract_y
_atom_site_fract_z
Si Si1 0.816360 0.423862 0.999997
Si Si2 0.489406 0.065391 0.395614
Si Si3 0.943216 0.069227 0.793670
Si Si4 0.850456 0.569227 0.793666
Si Si5 0.274256 0.070830 0.000019
Si Si6 0.906202 0.934608 0.395593
Si Si7 0.050462 0.428242 0.359934
Si Si8 0.309467 0.571766 0.359939
O O1 0.799758 0.250000 0.000019
O O2 0.757736 0.444172 0.825652
O O3 0.776533 0.536589 0.999953
O O4 0.932079 0.444219 0.174361
O O5 0.490093 0.250000 0.402938
O O6 0.582055 0.020782 0.491731
O O7 0.500000 0.000000 0.500000
O O8 0.386264 0.013576 0.190189
O O9 0.939178 0.250000 0.790709
O O10 0.873168 0.000004 0.746333
O O11 0.918128 0.013652 0.666933
O O12 0.055559 0.021914 0.000003
O O13 0.851536 0.750000 0.790707
O O14 0.748806 0.513659 0.666925
O O15 0.282217 0.250000 0.000012
O O16 0.196075 0.013574 0.809831
O O17 0.912838 0.750000 0.402912
O O18 0.909662 0.979213 0.491701
O O19 0.000000 0.000000 0.500000
O O20 0.073113 0.250000 0.387464
O O21 0.314365 0.750000 0.387517
#
# Coordination Sequence:
#
# PCOD9156401 Si02
#       8
#     4   4   4   4   4   4   4   4
#     4  10  18  28  45  67  94 127 162 198 236 277
#     4  10  20  32  47  68  95 128 164 201 239 281
#     4  10  20  32  48  70  96 124 154 190 233 282
#     4  10  20  32  48  70  96 124 154 190 233 282
#     4  10  20  32  46  67  96 127 164 206 240 275
#     4  10  20  32  47  68  95 128 164 201 239 281
#     4  10  19  31  46  66  94 128 161 193 234 281
#     4  10  19  31  46  66  94 128 161 193 234 281
#
# _framework density 15.556065
#
# number of rings (size 3 to 8) (size 9 to 14) (size 15 to 20)
#    0.000    2.000    3.750    0.750    0.000    3.000 
#    0.000    0.000    0.000    0.000    0.000    0.875 
#    0.000    0.000    0.000    0.000    0.000    0.000 
#
# Total GULP energy -178398.857383 kJ/mol
# GULP energy per Si atom -5574.964293 kJ/mol
# Density = 1.552066 g / cm^3
# Si number density = 15.556065 Si / 1000 Ang^3
#
#
#
# Elastic Constant Matrix: (Units=GPa)
#
#
# Indices 1 2 3 4 5 6 
#
# 1 125.2901 38.3681 57.8102 0.0000 -1.3919 0.0000
# 2 38.3681 18.9871 26.0175 0.0000 -0.4371 0.0000
# 3 57.8102 26.0175 108.0883 0.0000 0.7842 0.0000
# 4 0.0000 0.0000 0.0000 10.8088 0.0000 -0.6772
# 5 -1.3919 -0.4371 0.7842 0.0000 14.6387 0.0000
# 6 0.0000 0.0000 0.0000 -0.6772 0.0000 29.5990
#
#
#
# Elastic Compliance Matrix: (Units=1/GPa)
#
#
# Indices 1 2 3 4 5 6 
#
# 1 0.021117 -0.040538 -0.001543 0.000000 0.000880 0.000000
# 2 -0.040538 0.156573 -0.016019 0.000000 0.001679 0.000000
# 3 -0.001543 -0.016019 0.013943 0.000000 -0.001372 0.000000
# 4 0.000000 0.000000 0.000000 0.092650 0.000000 0.002120
# 5 0.000880 0.001679 -0.001372 0.000000 0.068519 0.000000
# 6 0.000000 0.000000 0.000000 0.002120 0.000000 0.033833
#
#
# Mechanical properties :
#
#
# Convention : Reuss Voigt Hill
#
# Bulk Modulus (GPa) = 13.25677 55.19522 34.22600
# Shear Modulus (GPa) = 9.47006 19.68729 14.57868
#
# Velocity S-wave (km/s) = 2.47000 3.56134 3.06464
# Velocity P-wave (km/s) = 4.08350 7.24358 5.87981
#
# Compressibility (1/GPa) = 0.07543313
#
# Stress axis : x y z
#
# Youngs Moduli (GPa) = 47.35434 6.38681 71.72179
#
# Poissons Ratio (x) = 0.25891 0.11067
# Poissons Ratio (y) = 1.91965 1.14889
# Poissons Ratio (z) = 0.07307 0.10231
#
# Static dielectric constant tensor:
#      x y z
#    x 1.495460 0.000000 0.001340 
#    y 0.000000 1.535060 0.000000 
#    z 0.001340 0.000000 1.532200 
# 
# From -- ./inp_files/51624.got.cif
#   From: 2010.05.17/outbox.cif.g08.bks.cpg/sg11_26_cif.got.tgz:51624.got - 2010.06.03 12:22:45.
