data_PCOD9156251
_publ_section_title
;
Structure prediction by ZEFSAII (Michael W. Deem and Ramdas Pophale) SiO2 
 PCOD9156251
Probable space group: P 21/M
;
_chemical_formula_sum "Si O2"
_cell_formula_units_Z 32
_cell_length_a 12.732769
_cell_length_b 8.271252
_cell_length_c 17.177205
_cell_angle_alpha 90.000000
_cell_angle_beta 109.212115
_cell_angle_gamma 90.000000
_cell_volume 1708.282665
_symmetry_space_group_name_H-M "P 21/M"
_symmetry_group_IT_number 11
_symmetry_cell_setting 'monoclinic'
loop_
_space_group_symop_operation_xyz
x,y,z
-x,1/2+y,-z
-x,-y,-z
x,1/2-y,z
loop_
_atom_site_type_symbol
_atom_site_label
_atom_site_fract_x
_atom_site_fract_y
_atom_site_fract_z
Si Si1 0.914406 0.560964 0.217621
Si Si2 0.196903 0.434582 0.537972
Si Si3 0.017546 0.056706 0.091785
Si Si4 0.870506 0.557631 0.641442
Si Si5 0.726831 0.057202 0.278793
Si Si6 0.245338 0.447963 0.232346
Si Si7 0.456845 0.433975 0.569799
Si Si8 0.483549 0.064077 0.255709
O O1 0.935147 0.750000 0.231687
O O2 0.928959 0.513040 0.131385
O O3 0.010629 0.469648 0.289528
O O4 0.796990 0.515541 0.225899
O O5 0.158307 0.250000 0.542898
O O6 0.133202 0.508559 0.447833
O O7 0.208646 0.518769 0.624475
O O8 0.323730 0.430012 0.538308
O O9 0.012473 0.250000 0.093973
O O10 0.138195 0.006903 0.155190
O O11 0.000000 0.000000 0.000000
O O12 0.851433 0.750000 0.628403
O O13 0.781033 0.498558 0.684753
O O14 0.721369 0.250000 0.270457
O O15 0.599234 0.992351 0.251103
O O16 0.251125 0.250000 0.236355
O O17 0.359521 0.507467 0.220707
O O18 0.500000 0.500000 0.500000
O O19 0.495361 0.250000 0.594658
O O20 0.495381 0.553022 0.646860
O O21 0.478056 0.250000 0.227766
#
# Coordination Sequence:
#
# PCOD9156251 Si02
#       8
#     4   4   4   4   4   4   4   4
#     4  11  22  36  54  75 102 135 170 208 252 302
#     4   9  18  31  46  65  94 134 177 219 261 303
#     4  10  20  37  61  87 111 131 156 194 245 303
#     4   9  17  31  50  71  98 133 174 219 264 305
#     4  10  20  33  50  72 100 136 178 218 252 294
#     4   8  15  30  53  78 104 133 162 200 253 305
#     4  10  18  27  40  61  91 128 170 214 258 298
#     4   9  17  31  50  71  96 130 170 207 248 298
#
# _framework density 18.732263
#
# number of rings (size 3 to 8) (size 9 to 14) (size 15 to 20)
#    0.000    2.500    0.000    3.750    0.000    4.000 
#    0.000    5.625    0.000    0.750    0.000    0.000 
#    0.000    0.000    0.000    0.000    0.000    0.000 
#
# Total GULP energy -178309.373211 kJ/mol
# GULP energy per Si atom -5572.167913 kJ/mol
# Density = 1.868963 g / cm^3
# Si number density = 18.732263 Si / 1000 Ang^3
#
#
#
# Elastic Constant Matrix: (Units=GPa)
#
#
# Indices 1 2 3 4 5 6 
#
# 1 97.1707 -1.0908 47.9891 0.0000 -23.3448 0.0000
# 2 -1.0908 24.3906 10.6732 0.0000 -1.2692 0.0000
# 3 47.9891 10.6732 84.0689 0.0000 -20.3781 0.0000
# 4 0.0000 0.0000 0.0000 23.2902 0.0000 -0.3333
# 5 -23.3448 -1.2692 -20.3781 0.0000 20.6176 0.0000
# 6 0.0000 0.0000 0.0000 -0.3333 0.0000 5.6205
#
#
#
# Elastic Compliance Matrix: (Units=1/GPa)
#
#
# Indices 1 2 3 4 5 6 
#
# 1 0.016849 0.004556 -0.007238 0.000000 0.012204 0.000000
# 2 0.004556 0.044853 -0.008384 0.000000 -0.000367 0.000000
# 3 -0.007238 -0.008384 0.019699 0.000000 0.010759 0.000000
# 4 0.000000 0.000000 0.000000 0.042973 0.000000 0.002548
# 5 0.012204 -0.000367 0.010759 0.000000 0.072931 0.000000
# 6 0.000000 0.000000 0.000000 0.002548 0.000000 0.178071
#
#
# Mechanical properties :
#
#
# Convention : Reuss Voigt Hill
#
# Bulk Modulus (GPa) = 16.87243 35.64145 26.25694
# Shear Modulus (GPa) = 11.98282 19.77626 15.87954
#
# Velocity S-wave (km/s) = 2.53195 3.25273 2.91471
# Velocity P-wave (km/s) = 4.19218 5.75978 5.03733
#
# Compressibility (1/GPa) = 0.05926829
#
# Stress axis : x y z
#
# Youngs Moduli (GPa) = 59.35117 22.29516 50.76422
#
# Poissons Ratio (x) = -0.10157 0.36743
# Poissons Ratio (y) = -0.27040 0.42561
# Poissons Ratio (z) = 0.42958 0.18692
#
# Static dielectric constant tensor:
#      x y z
#    x 1.706620 0.000000 0.002920 
#    y 0.000000 1.684350 0.000000 
#    z 0.002920 0.000000 1.644510 
# 
# From -- ./inp_files/49316.got.cif
#   From: 2010.05.17/outbox.cif.g08.bks.cpg/sg11_25_cif.got.tgz:49316.got - 2010.06.03 12:22:45.
