data_PCOD9156778
_publ_section_title
;
Structure prediction by ZEFSAII (Michael W. Deem and Ramdas Pophale) SiO2 
 PCOD9156778
Probable space group: P 21/M
;
_chemical_formula_sum "Si O2"
_cell_formula_units_Z 32
_cell_length_a 18.129442
_cell_length_b 8.548156
_cell_length_c 24.440412
_cell_angle_alpha 90.000000
_cell_angle_beta 31.202742
_cell_angle_gamma 90.000000
_cell_volume 1962.239979
_symmetry_space_group_name_H-M "P 21/M"
_symmetry_group_IT_number 11
_symmetry_cell_setting 'monoclinic'
loop_
_space_group_symop_operation_xyz
x,y,z
-x,1/2+y,-z
-x,-y,-z
x,1/2-y,z
loop_
_atom_site_type_symbol
_atom_site_label
_atom_site_fract_x
_atom_site_fract_y
_atom_site_fract_z
Si Si1 0.839140 0.937301 0.816464
Si Si2 0.435995 0.437237 0.483704
Si Si3 0.613887 0.437874 0.883403
Si Si4 0.941127 0.062387 0.145637
Si Si5 0.613791 0.940143 0.053975
Si Si6 0.667661 0.562524 0.254663
Si Si7 0.740874 0.559151 0.087263
Si Si8 0.109341 0.062582 0.700763
O O1 0.845132 0.750000 0.813249
O O2 0.762938 0.993618 0.809281
O O3 0.735628 0.987431 0.932838
O O4 0.993235 0.007009 0.730709
O O5 0.500000 0.500000 0.500000
O O6 0.442133 0.250000 0.481333
O O7 0.533179 0.497405 0.372783
O O8 0.270845 0.484934 0.584255
O O9 0.619753 0.250000 0.882102
O O10 0.540147 0.485058 0.872880
O O11 0.500000 0.500000 0.000000
O O12 0.931927 0.250000 0.148640
O O13 0.810238 0.989860 0.195703
O O14 0.930857 0.011161 0.215207
O O15 0.094038 0.012915 0.024573
O O16 0.616858 0.750000 0.052687
O O17 0.654554 0.994969 0.088520
O O18 0.661281 0.750000 0.259483
O O19 0.679155 0.508015 0.184554
O O20 0.738836 0.750000 0.088096
O O21 0.105045 0.250000 0.708473
#
# Coordination Sequence:
#
# PCOD9156778 Si02
#       8
#     4   4   4   4   4   4   4   4
#     4  10  18  30  49  71 101 134 164 200 249 306
#     4  11  23  38  55  72  97 129 168 215 260 302
#     4   9  16  26  44  69 100 134 168 203 243 295
#     4  11  20  33  53  72 100 136 169 206 252 299
#     4   8  14  27  46  69  98 133 165 194 239 293
#     4  11  22  35  52  73 100 132 173 214 249 297
#     4   9  18  32  50  74 102 135 171 207 246 296
#     4  11  22  34  51  75  99 127 168 213 255 299
#
# _framework density 16.307894000000001
#
# number of rings (size 3 to 8) (size 9 to 14) (size 15 to 20)
#    0.000    2.000    2.500    3.375    0.000    1.500 
#    0.000    1.875    0.000    0.000    0.000    0.875 
#    0.000    0.000    0.000    0.000    0.000    0.000 
#
# Total GULP energy -178489.752005 kJ/mol
# GULP energy per Si atom -5577.804750 kJ/mol
# Density = 1.627078 g / cm^3
# Si number density = 16.307894 Si / 1000 Ang^3
#
#
#
# Elastic Constant Matrix: (Units=GPa)
#
#
# Indices 1 2 3 4 5 6 
#
# 1 96.7395 17.7129 68.6055 0.0000 -26.6039 0.0000
# 2 17.7129 35.3116 27.0282 0.0000 -5.2526 0.0000
# 3 68.6055 27.0282 117.6567 0.0000 -4.9243 0.0000
# 4 0.0000 0.0000 0.0000 19.7926 0.0000 -2.4629
# 5 -26.6039 -5.2526 -4.9243 0.0000 23.4251 0.0000
# 6 0.0000 0.0000 0.0000 -2.4629 0.0000 19.4685
#
#
#
# Elastic Compliance Matrix: (Units=1/GPa)
#
#
# Indices 1 2 3 4 5 6 
#
# 1 0.030961 0.002466 -0.017277 0.000000 0.032084 0.000000
# 2 0.002466 0.035444 -0.009211 0.000000 0.008812 0.000000
# 3 -0.017277 -0.009211 0.019958 0.000000 -0.017492 0.000000
# 4 0.000000 0.000000 0.000000 0.051332 0.000000 0.006494
# 5 0.032084 0.008812 -0.017492 0.000000 0.077426 0.000000
# 6 0.000000 0.000000 0.000000 0.006494 0.000000 0.052186
#
#
# Mechanical properties :
#
#
# Convention : Reuss Voigt Hill
#
# Bulk Modulus (GPa) = 26.09763 52.93343 39.51553
# Shear Modulus (GPa) = 15.23811 21.62799 18.43305
#
# Velocity S-wave (km/s) = 3.06011 3.64569 3.36566
# Velocity P-wave (km/s) = 5.34074 7.08877 6.27591
#
# Compressibility (1/GPa) = 0.03831766
#
# Stress axis : x y z
#
# Youngs Moduli (GPa) = 32.29823 28.21383 50.10620
#
# Poissons Ratio (x) = -0.06958 0.86570
# Poissons Ratio (y) = -0.07965 0.46154
# Poissons Ratio (z) = 0.55803 0.25989
#
# Static dielectric constant tensor:
#      x y z
#    x 1.565030 0.000000 -0.008130 
#    y 0.000000 1.553770 0.000000 
#    z -0.008130 0.000000 1.524400 
# 
# From -- ./inp_files/67005.got.cif
#   From: 2010.05.17/outbox.cif.g08.bks.cpg/sg11_34_cif.got.tgz:67005.got - 2010.06.03 12:22:45.
