data_PCOD9156200
_publ_section_title
;
Structure prediction by ZEFSAII (Michael W. Deem and Ramdas Pophale) SiO2 
 PCOD9156200
Probable space group: P 21/M
;
_chemical_formula_sum "Si O2"
_cell_formula_units_Z 24
_cell_length_a 13.192783
_cell_length_b 14.482584
_cell_length_c 10.119146
_cell_angle_alpha 90.000000
_cell_angle_beta 146.867359
_cell_angle_gamma 90.000000
_cell_volume 1056.767309
_symmetry_space_group_name_H-M "P 21/M"
_symmetry_group_IT_number 11
_symmetry_cell_setting 'monoclinic'
loop_
_space_group_symop_operation_xyz
x,y,z
-x,1/2+y,-z
-x,-y,-z
x,1/2-y,z
loop_
_atom_site_type_symbol
_atom_site_label
_atom_site_fract_x
_atom_site_fract_y
_atom_site_fract_z
Si Si1 0.945659 0.250000 0.320903
Si Si2 0.842971 0.451891 0.236979
Si Si3 0.316570 0.250000 0.894381
Si Si4 0.046023 0.250000 0.847378
Si Si5 0.899036 0.043341 0.662862
Si Si6 0.486940 0.572924 0.831282
Si Si7 0.639562 0.073609 0.590831
Si Si8 0.857869 0.250000 0.922401
O O1 0.846405 0.343148 0.258878
O O2 0.147000 0.250000 0.607542
O O3 0.949279 0.250000 0.165957
O O4 0.000000 0.500000 0.500000
O O5 0.932603 0.479222 0.192421
O O6 0.640729 0.495190 0.012888
O O7 0.222950 0.250000 0.940431
O O8 0.441129 0.160089 0.011182
O O9 0.952490 0.151406 0.710589
O O10 0.011601 0.250000 0.970651
O O11 0.718472 0.033760 0.371037
O O12 0.815851 0.022956 0.716004
O O13 0.466750 0.608185 0.657523
O O14 0.722745 0.160659 0.758517
O O15 0.500000 0.000000 0.500000
#
# Coordination Sequence:
#
# PCOD9156200 Si02
#       8
#     2   4   2   2   4   4   4   2
#     4  12  26  41  62  99 141 168 214 292 340 392
#     4  12  23  44  64  96 136 177 226 274 340 403
#     4  12  20  41  67 100 127 178 232 263 335 406
#     4  10  17  40  66 102 124 171 228 274 316 400
#     4   9  21  38  66  95 128 168 229 269 324 394
#     4  10  21  38  70  94 126 174 229 273 313 403
#     4   9  19  40  64  94 127 174 220 269 333 394
#     4  10  21  40  65  97 146 163 218 291 337 380
#
# _framework density 22.710768999999999
#
# number of rings (size 3 to 8) (size 9 to 14) (size 15 to 20)
#    1.000    0.667    3.333    2.000    0.000    0.667 
#    3.000    4.167    0.000    0.000    0.000    0.000 
#    0.000    0.000    0.000    0.000    0.000    0.000 
#
# Total GULP energy -133864.593315 kJ/mol
# GULP energy per Si atom -5577.691388 kJ/mol
# Density = 2.265908 g / cm^3
# Si number density = 22.710769 Si / 1000 Ang^3
#
#
#
# Elastic Constant Matrix: (Units=GPa)
#
#
# Indices 1 2 3 4 5 6 
#
# 1 81.5823 22.5095 17.1702 0.0000 8.9367 0.0000
# 2 22.5095 129.0666 37.6631 0.0000 13.6486 0.0000
# 3 17.1702 37.6631 101.6140 0.0000 -7.0150 0.0000
# 4 0.0000 0.0000 0.0000 33.4012 0.0000 -2.1017
# 5 8.9367 13.6486 -7.0150 0.0000 43.1638 0.0000
# 6 0.0000 0.0000 0.0000 -2.1017 0.0000 26.5799
#
#
#
# Elastic Compliance Matrix: (Units=1/GPa)
#
#
# Indices 1 2 3 4 5 6 
#
# 1 0.013352 -0.001507 -0.001877 0.000000 -0.002593 0.000000
# 2 -0.001507 0.009351 -0.003432 0.000000 -0.003203 0.000000
# 3 -0.001877 -0.003432 0.011663 0.000000 0.003369 0.000000
# 4 0.000000 0.000000 0.000000 0.030089 0.000000 0.002379
# 5 -0.002593 -0.003203 0.003369 0.000000 0.025265 0.000000
# 6 0.000000 0.000000 0.000000 0.002379 0.000000 0.037811
#
#
# Mechanical properties :
#
#
# Convention : Reuss Voigt Hill
#
# Bulk Modulus (GPa) = 48.22870 51.88316 50.05593
# Shear Modulus (GPa) = 33.76692 36.29034 35.02863
#
# Velocity S-wave (km/s) = 3.86012 4.00175 3.93157
# Velocity P-wave (km/s) = 6.41479 6.65183 6.53438
#
# Compressibility (1/GPa) = 0.02073454
#
# Stress axis : x y z
#
# Youngs Moduli (GPa) = 74.89331 106.94000 85.74038
#
# Poissons Ratio (x) = 0.16114 0.16091
# Poissons Ratio (y) = 0.11285 0.29430
# Poissons Ratio (z) = 0.14055 0.36706
#
# Static dielectric constant tensor:
#      x y z
#    x 2.020460 0.000000 -0.069980 
#    y 0.000000 1.822000 0.000000 
#    z -0.069980 0.000000 1.840860 
# 
# From -- ./inp_files/39771.got.cif
#   From: 2010.05.17/outbox.cif.g08.bks.cpg/sg11_20_cif.got.tgz:39771.got - 2010.06.03 12:22:45.
