data_PCOD9156748
_publ_section_title
;
Structure prediction by ZEFSAII (Michael W. Deem and Ramdas Pophale) SiO2 
 PCOD9156748
Probable space group: P 21/M
;
_chemical_formula_sum "Si O2"
_cell_formula_units_Z 32
_cell_length_a 16.543506
_cell_length_b 7.690270
_cell_length_c 25.696549
_cell_angle_alpha 90.000000
_cell_angle_beta 152.719086
_cell_angle_gamma 90.000000
_cell_volume 1498.457787
_symmetry_space_group_name_H-M "P 21/M"
_symmetry_group_IT_number 11
_symmetry_cell_setting 'monoclinic'
loop_
_space_group_symop_operation_xyz
x,y,z
-x,1/2+y,-z
-x,-y,-z
x,1/2-y,z
loop_
_atom_site_type_symbol
_atom_site_label
_atom_site_fract_x
_atom_site_fract_y
_atom_site_fract_z
Si Si1 0.080461 0.042416 0.602232
Si Si2 0.847642 0.952093 0.566111
Si Si3 0.821598 0.457397 0.038602
Si Si4 0.657862 0.944067 0.626609
Si Si5 0.497674 0.464116 0.687260
Si Si6 0.455298 0.037512 0.781466
Si Si7 0.167005 0.942442 0.173957
Si Si8 0.985571 0.448595 0.235722
O O1 0.075685 0.250000 0.607180
O O2 0.283707 0.983553 0.715541
O O3 0.000000 0.000000 0.500000
O O4 0.964909 0.959757 0.581458
O O5 0.817394 0.750000 0.563600
O O6 0.654356 0.023159 0.440059
O O7 0.960621 0.031089 0.678329
O O8 0.806088 0.250000 0.036355
O O9 0.986298 0.480679 0.093210
O O10 0.863609 0.529287 0.120579
O O11 0.639898 0.523288 0.910829
O O12 0.627743 0.750000 0.629999
O O13 0.829175 0.939135 0.688487
O O14 0.500000 0.000000 0.500000
O O15 0.705505 0.062453 0.702466
O O16 0.500908 0.250000 0.687215
O O17 0.441960 0.515147 0.713495
O O18 0.697636 0.524764 0.789835
O O19 0.456426 0.250000 0.781964
O O20 0.122283 0.750000 0.129495
O O21 0.921289 0.250000 0.209098
#
# Coordination Sequence:
#
# PCOD9156748 Si02
#       8
#     4   4   4   4   4   4   4   4
#     4  11  21  36  57  81 105 132 169 212 266 317
#     4  10  18  33  55  77 105 135 170 212 258 313
#     4   9  18  35  55  74 101 140 185 217 249 308
#     4  10  18  30  48  71 101 139 182 219 260 310
#     4   9  17  30  50  75 102 140 179 209 261 324
#     4   9  18  34  56  75  98 138 179 214 257 320
#     4  10  19  31  49  74 105 139 177 219 262 310
#     4   8  16  30  50  73  98 136 174 207 252 311
#
# _framework density 21.35529
#
# number of rings (size 3 to 8) (size 9 to 14) (size 15 to 20)
#    0.000    2.500    1.250    2.625    0.000    2.500 
#    0.000    7.500    0.000    0.000    0.000    0.000 
#    0.000    0.000    0.000    0.000    0.000    0.000 
#
# Total GULP energy -178396.776364 kJ/mol
# GULP energy per Si atom -5574.899261 kJ/mol
# Density = 2.130668 g / cm^3
# Si number density = 21.355290 Si / 1000 Ang^3
#
#
#
# Elastic Constant Matrix: (Units=GPa)
#
#
# Indices 1 2 3 4 5 6 
#
# 1 73.5440 -5.6662 26.6626 0.0000 0.7239 0.0000
# 2 -5.6662 43.9519 0.7043 0.0000 -0.9637 0.0000
# 3 26.6626 0.7043 118.6574 0.0000 13.7741 0.0000
# 4 0.0000 0.0000 0.0000 6.0559 0.0000 4.2010
# 5 0.7239 -0.9637 13.7741 0.0000 23.9576 0.0000
# 6 0.0000 0.0000 0.0000 4.2010 0.0000 16.2897
#
#
#
# Elastic Compliance Matrix: (Units=1/GPa)
#
#
# Indices 1 2 3 4 5 6 
#
# 1 0.015038 0.002033 -0.003587 0.000000 0.001690 0.000000
# 2 0.002033 0.023055 -0.000744 0.000000 0.001294 0.000000
# 3 -0.003587 -0.000744 0.009889 0.000000 -0.005607 0.000000
# 4 0.000000 0.000000 0.000000 0.201106 0.000000 -0.051864
# 5 0.001690 0.001294 -0.005607 0.000000 0.044965 0.000000
# 6 0.000000 0.000000 0.000000 -0.051864 0.000000 0.074764
#
#
# Mechanical properties :
#
#
# Convention : Reuss Voigt Hill
#
# Bulk Modulus (GPa) = 23.04922 31.06165 27.05543
# Shear Modulus (GPa) = 12.89079 23.55748 18.22414
#
# Velocity S-wave (km/s) = 2.45956 3.32493 2.92443
# Velocity P-wave (km/s) = 4.34541 5.41452 4.90915
#
# Compressibility (1/GPa) = 0.04338542
#
# Stress axis : x y z
#
# Youngs Moduli (GPa) = 66.49891 43.37545 101.12254
#
# Poissons Ratio (x) = -0.08819 0.36275
# Poissons Ratio (y) = -0.13520 0.07522
# Poissons Ratio (z) = 0.23855 0.03227
#
# Static dielectric constant tensor:
#      x y z
#    x 1.792670 0.000000 0.005610 
#    y 0.000000 1.813630 0.000000 
#    z 0.005610 0.000000 1.834440 
# 
# From -- ./inp_files/69079.got.cif
#   From: 2010.05.17/outbox.cif.g08.bks.cpg/sg11_35_cif.got.tgz:69079.got - 2010.06.03 12:22:45.
