data_PCOD9156747
_publ_section_title
;
Structure prediction by ZEFSAII (Michael W. Deem and Ramdas Pophale) SiO2 
 PCOD9156747
Probable space group: P 21/M
;
_chemical_formula_sum "Si O2"
_cell_formula_units_Z 32
_cell_length_a 12.945916
_cell_length_b 8.667628
_cell_length_c 21.769759
_cell_angle_alpha 90.000000
_cell_angle_beta 126.973998
_cell_angle_gamma 90.000000
_cell_volume 1951.568212
_symmetry_space_group_name_H-M "P 21/M"
_symmetry_group_IT_number 11
_symmetry_cell_setting 'monoclinic'
loop_
_space_group_symop_operation_xyz
x,y,z
-x,1/2+y,-z
-x,-y,-z
x,1/2-y,z
loop_
_atom_site_type_symbol
_atom_site_label
_atom_site_fract_x
_atom_site_fract_y
_atom_site_fract_z
Si Si1 0.275914 0.933811 0.159808
Si Si2 0.009667 0.065306 0.404745
Si Si3 0.506519 0.066000 0.317057
Si Si4 0.601534 0.565323 0.585206
Si Si5 0.889798 0.066200 0.685190
Si Si6 0.794069 0.934745 0.415828
Si Si7 0.882492 0.934528 0.999594
Si Si8 0.042296 0.434392 0.159548
O O1 0.262228 0.750000 0.153595
O O2 0.414244 0.984216 0.234806
O O3 0.242277 0.002779 0.080849
O O4 0.168983 0.001934 0.168935
O O5 0.002140 0.250000 0.396056
O O6 0.128954 0.028905 0.493535
O O7 0.882463 0.001801 0.392982
O O8 0.035766 0.988885 0.348769
O O9 0.501190 0.250000 0.306269
O O10 0.449845 0.032196 0.364594
O O11 0.652625 0.007236 0.365751
O O12 0.500000 0.500000 0.500000
O O13 0.612966 0.750000 0.582355
O O14 0.741553 0.490043 0.626721
O O15 0.893162 0.250000 0.692069
O O16 0.947722 0.990098 0.767232
O O17 0.786089 0.750000 0.407761
O O18 0.884703 0.750000 0.000060
O O19 0.000000 0.000000 0.000000
O O20 0.917811 0.998799 0.079179
O O21 0.043566 0.250000 0.156069
#
# Coordination Sequence:
#
# PCOD9156747 Si02
#       8
#     4   4   4   4   4   4   4   4
#     4  11  20  32  50  74 104 139 176 215 260 311
#     4  10  21  38  58  78 103 135 176 223 271 315
#     4  11  22  35  52  75 105 141 177 217 264 314
#     4  11  23  36  51  72 104 141 178 214 259 316
#     4  12  23  35  53  77 106 139 177 218 265 315
#     4  10  21  37  57  79 103 134 177 224 269 314
#     4  10  18  30  48  71 101 137 174 211 256 308
#     4  11  20  33  50  73 105 139 176 215 259 312
#
# _framework density 16.397069999999999
#
# number of rings (size 3 to 8) (size 9 to 14) (size 15 to 20)
#    0.000    1.250    1.250    8.250    0.000    5.000 
#    0.000    0.000    0.000    0.000    0.000    0.875 
#    0.000    0.000    0.000    0.000    0.000    0.000 
#
# Total GULP energy -178810.276295 kJ/mol
# GULP energy per Si atom -5587.821134 kJ/mol
# Density = 1.635975 g / cm^3
# Si number density = 16.397070 Si / 1000 Ang^3
#
#
#
# Elastic Constant Matrix: (Units=GPa)
#
#
# Indices 1 2 3 4 5 6 
#
# 1 50.9105 29.0564 21.0481 0.0000 -11.7538 0.0000
# 2 29.0564 120.9986 45.2101 0.0000 -10.6428 0.0000
# 3 21.0481 45.2101 90.4539 0.0000 -20.8599 0.0000
# 4 0.0000 0.0000 0.0000 31.9576 0.0000 0.5923
# 5 -11.7538 -10.6428 -20.8599 0.0000 16.6604 0.0000
# 6 0.0000 0.0000 0.0000 0.5923 0.0000 26.5781
#
#
#
# Elastic Compliance Matrix: (Units=1/GPa)
#
#
# Indices 1 2 3 4 5 6 
#
# 1 0.025940 -0.004853 -0.000148 0.000000 0.015015 0.000000
# 2 -0.004853 0.011071 -0.005009 0.000000 -0.002623 0.000000
# 3 -0.000148 -0.005009 0.018040 0.000000 0.019284 0.000000
# 4 0.000000 0.000000 0.000000 0.031304 0.000000 -0.000698
# 5 0.015015 -0.002623 0.019284 0.000000 0.093085 0.000000
# 6 0.000000 0.000000 0.000000 -0.000698 0.000000 0.037641
#
#
# Mechanical properties :
#
#
# Convention : Reuss Voigt Hill
#
# Bulk Modulus (GPa) = 28.54584 50.33246 39.43915
# Shear Modulus (GPa) = 20.09827 26.17577 23.13702
#
# Velocity S-wave (km/s) = 3.50483 3.99979 3.76046
# Velocity P-wave (km/s) = 5.81596 7.21760 6.55435
#
# Compressibility (1/GPa) = 0.03503137
#
# Stress axis : x y z
#
# Youngs Moduli (GPa) = 38.55065 90.32729 55.43116
#
# Poissons Ratio (x) = 0.43839 0.00818
# Poissons Ratio (y) = 0.18710 0.27766
# Poissons Ratio (z) = 0.00569 0.45245
#
# Static dielectric constant tensor:
#      x y z
#    x 1.521150 0.000000 -0.005410 
#    y 0.000000 1.545430 0.000000 
#    z -0.005410 0.000000 1.570800 
# 
# From -- ./inp_files/42866.got.cif
#   From: 2010.05.17/outbox.cif.g08.bks.cpg/sg11_22_cif.got.tgz:42866.got - 2010.06.03 12:22:45.
