data_PCOD9156419
_publ_section_title
;
Structure prediction by ZEFSAII (Michael W. Deem and Ramdas Pophale) SiO2 
 PCOD9156419
Probable space group: P 21/M
;
_chemical_formula_sum "Si O2"
_cell_formula_units_Z 20
_cell_length_a 10.555769
_cell_length_b 8.632483
_cell_length_c 18.741873
_cell_angle_alpha 90.000000
_cell_angle_beta 137.125552
_cell_angle_gamma 90.000000
_cell_volume 1161.981320
_symmetry_space_group_name_H-M "P 21/M"
_symmetry_group_IT_number 11
_symmetry_cell_setting 'monoclinic'
loop_
_space_group_symop_operation_xyz
x,y,z
-x,1/2+y,-z
-x,-y,-z
x,1/2-y,z
loop_
_atom_site_type_symbol
_atom_site_label
_atom_site_fract_x
_atom_site_fract_y
_atom_site_fract_z
Si Si1 0.705449 0.563119 0.568975
Si Si2 0.419196 0.563853 0.225178
Si Si3 0.112614 0.435961 0.209441
Si Si4 0.190248 0.436782 0.546830
Si Si5 0.153855 0.434752 0.007882
O O1 0.500000 0.500000 0.500000
O O2 0.694299 0.750000 0.563124
O O3 0.840104 0.519788 0.690013
O O4 0.775213 0.510479 0.520360
O O5 0.403446 0.750000 0.218578
O O6 0.281208 0.499042 0.229583
O O7 0.628562 0.518634 0.332077
O O8 0.345477 0.498519 0.119501
O O9 0.108335 0.250000 0.201370
O O10 0.921802 0.504249 0.098739
O O11 0.182888 0.250000 0.543285
O O12 0.000000 0.500000 0.500000
O O13 0.152201 0.250000 0.008810
O O14 0.000000 0.500000 0.000000
#
# Coordination Sequence:
#
# PCOD9156419 Si02
#       5
#     4   4   4   4   4
#     4  10  20  34  53  78 106 136 172 215 261 308
#     4  10  18  31  50  72 103 135 170 213 254 303
#     4  10  18  29  49  76 104 133 167 209 259 307
#     4  10  22  37  53  76 106 140 175 213 258 309
#     4  10  18  28  45  71 103 134 168 209 255 305
#
# _framework density 17.211981000000002
#
# number of rings (size 3 to 8) (size 9 to 14) (size 15 to 20)
#    0.000    2.000    2.000    5.400    0.000    3.200 
#    0.000    0.000    0.000    1.200    0.000    0.000 
#    0.000    0.000    0.000    0.000    0.000    0.000 
#
# Total GULP energy -111551.838119 kJ/mol
# GULP energy per Si atom -5577.591906 kJ/mol
# Density = 1.717281 g / cm^3
# Si number density = 17.211981 Si / 1000 Ang^3
#
#
#
# Elastic Constant Matrix: (Units=GPa)
#
#
# Indices 1 2 3 4 5 6 
#
# 1 87.5668 19.6030 73.9052 0.0000 0.7450 0.0000
# 2 19.6030 64.2621 58.1367 0.0000 -1.0977 0.0000
# 3 73.9052 58.1367 215.7823 0.0000 -7.2578 0.0000
# 4 0.0000 0.0000 0.0000 28.1353 0.0000 3.4653
# 5 0.7450 -1.0977 -7.2578 0.0000 18.9830 0.0000
# 6 0.0000 0.0000 0.0000 3.4653 0.0000 20.4411
#
#
#
# Elastic Compliance Matrix: (Units=1/GPa)
#
#
# Indices 1 2 3 4 5 6 
#
# 1 0.016209 0.000152 -0.005687 0.000000 -0.002802 0.000000
# 2 0.000152 0.020595 -0.005633 0.000000 -0.000969 0.000000
# 3 -0.005687 -0.005633 0.008202 0.000000 0.003033 0.000000
# 4 0.000000 0.000000 0.000000 0.036301 0.000000 -0.006154
# 5 -0.002802 -0.000969 0.003033 0.000000 0.053892 0.000000
# 6 0.000000 0.000000 0.000000 -0.006154 0.000000 0.049964
#
#
# Mechanical properties :
#
#
# Convention : Reuss Voigt Hill
#
# Bulk Modulus (GPa) = 44.11144 74.54456 59.32800
# Shear Modulus (GPa) = 23.24979 27.90963 25.57971
#
# Velocity S-wave (km/s) = 3.67930 4.03118 3.85925
# Velocity P-wave (km/s) = 6.61314 8.06666 7.37579
#
# Compressibility (1/GPa) = 0.02266986
#
# Stress axis : x y z
#
# Youngs Moduli (GPa) = 61.69310 48.55613 121.92311
#
# Poissons Ratio (x) = -0.00740 0.69337
# Poissons Ratio (y) = -0.00940 0.68685
# Poissons Ratio (z) = 0.35085 0.27354
#
# Static dielectric constant tensor:
#      x y z
#    x 1.546000 0.000000 -0.019180 
#    y 0.000000 1.581990 0.000000 
#    z -0.019180 0.000000 1.639340 
# 
# From -- ./inp_files/23908.got.cif
#   From: 2010.05.17/outbox.cif.g08.bks.cpg/sg11_12_cif.got.tgz:23908.got - 2010.06.03 12:22:45.
