data_PCOD9156975
_publ_section_title
;
Structure prediction by ZEFSAII (Michael W. Deem and Ramdas Pophale) SiO2 
 PCOD9156975
Probable space group: P 21/M
;
_chemical_formula_sum "Si O2"
_cell_formula_units_Z 32
_cell_length_a 22.004049
_cell_length_b 8.662975
_cell_length_c 31.452911
_cell_angle_alpha 90.000000
_cell_angle_beta 19.543757
_cell_angle_gamma 90.000000
_cell_volume 2005.678162
_symmetry_space_group_name_H-M "P 21/M"
_symmetry_group_IT_number 11
_symmetry_cell_setting 'monoclinic'
loop_
_space_group_symop_operation_xyz
x,y,z
-x,1/2+y,-z
-x,-y,-z
x,1/2-y,z
loop_
_atom_site_type_symbol
_atom_site_label
_atom_site_fract_x
_atom_site_fract_y
_atom_site_fract_z
Si Si1 0.302727 0.063837 0.538334
Si Si2 0.389247 0.435137 0.613507
Si Si3 0.717295 0.065307 0.700053
Si Si4 0.942005 0.563395 0.378298
Si Si5 0.942467 0.562548 0.218759
Si Si6 0.333371 0.563705 0.082568
Si Si7 0.957871 0.065292 0.461016
Si Si8 0.658600 0.436858 0.021887
O O1 0.311932 0.250000 0.533329
O O2 0.165349 0.016529 0.667151
O O3 0.212005 0.015835 0.553934
O O4 0.501110 0.998615 0.418541
O O5 0.500000 0.500000 0.500000
O O6 0.398285 0.250000 0.607518
O O7 0.182003 0.482386 0.739464
O O8 0.716742 0.250000 0.702895
O O9 0.809331 0.019335 0.594536
O O10 0.850311 0.000371 0.648837
O O11 0.516601 0.001743 0.839062
O O12 0.941517 0.750000 0.380402
O O13 0.139565 0.515590 0.229976
O O14 0.914720 0.497481 0.443026
O O15 0.946564 0.750000 0.216745
O O16 0.149702 0.510116 0.084617
O O17 0.338873 0.750000 0.080042
O O18 0.500000 0.500000 0.000000
O O19 0.345783 0.516972 0.024974
O O20 0.968399 0.250000 0.453265
O O21 0.653438 0.250000 0.026604
#
# Coordination Sequence:
#
# PCOD9156975 Si02
#       8
#     4   4   4   4   4   4   4   4
#     4   9  16  29  46  66  96 129 156 187 229 279
#     4   9  16  26  43  65  92 126 160 193 229 271
#     4  10  21  36  51  69  93 120 156 203 247 279
#     4  10  19  32  50  70  96 127 157 192 236 280
#     4   8  14  27  45  65  93 126 156 186 225 275
#     4  10  20  31  44  64  93 126 155 186 228 277
#     4  10  21  36  52  69  91 121 159 202 242 281
#     4  10  18  31  50  69  92 125 160 190 230 282
#
# _framework density 15.954703
#
# number of rings (size 3 to 8) (size 9 to 14) (size 15 to 20)
#    0.000    2.500    1.250    2.625    0.000    5.000 
#    0.000    3.125    0.000    0.000    0.000    0.875 
#    0.000    0.000    0.000    0.000    0.000    0.000 
#
# Total GULP energy -178362.451292 kJ/mol
# GULP energy per Si atom -5573.826603 kJ/mol
# Density = 1.591839 g / cm^3
# Si number density = 15.954703 Si / 1000 Ang^3
#
#
#
# Elastic Constant Matrix: (Units=GPa)
#
#
# Indices 1 2 3 4 5 6 
#
# 1 133.0058 29.0989 79.7816 0.0000 -32.2653 0.0000
# 2 29.0989 17.2485 22.7953 0.0000 -6.7072 0.0000
# 3 79.7816 22.7953 103.1467 0.0000 -28.0030 0.0000
# 4 0.0000 0.0000 0.0000 22.5663 0.0000 -2.4249
# 5 -32.2653 -6.7072 -28.0030 0.0000 27.6123 0.0000
# 6 0.0000 0.0000 0.0000 -2.4249 0.0000 26.3722
#
#
#
# Elastic Compliance Matrix: (Units=1/GPa)
#
#
# Indices 1 2 3 4 5 6 
#
# 1 0.018049 -0.016562 -0.007820 0.000000 0.009137 0.000000
# 2 -0.016562 0.097183 -0.010366 0.000000 -0.006259 0.000000
# 3 -0.007820 -0.010366 0.020520 0.000000 0.009154 0.000000
# 4 0.000000 0.000000 0.000000 0.044756 0.000000 0.004115
# 5 0.009137 -0.006259 0.009154 0.000000 0.054656 0.000000
# 6 0.000000 0.000000 0.000000 0.004115 0.000000 0.038297
#
#
# Mechanical properties :
#
#
# Convention : Reuss Voigt Hill
#
# Bulk Modulus (GPa) = 15.09313 57.41697 36.25505
# Shear Modulus (GPa) = 13.69709 23.42517 18.56113
#
# Velocity S-wave (km/s) = 2.93319 3.83591 3.41451
# Velocity P-wave (km/s) = 4.57734 7.46221 6.19018
#
# Compressibility (1/GPa) = 0.06625529
#
# Stress axis : x y z
#
# Youngs Moduli (GPa) = 55.40517 10.28990 48.73398
#
# Poissons Ratio (x) = 0.17042 0.38108
# Poissons Ratio (y) = 0.91761 0.50520
# Poissons Ratio (z) = 0.43325 0.10667
#
# Static dielectric constant tensor:
#      x y z
#    x 1.539650 0.000000 -0.018810 
#    y 0.000000 1.542730 0.000000 
#    z -0.018810 0.000000 1.527970 
# 
# From -- ./inp_files/42561.got.cif
#   From: 2010.05.17/outbox.cif.g08.bks.cpg/sg11_22_cif.got.tgz:42561.got - 2010.06.03 12:22:45.
