data_PCOD9156407
_publ_section_title
;
Structure prediction by ZEFSAII (Michael W. Deem and Ramdas Pophale) SiO2 
 PCOD9156407
Probable space group: P 21/M
;
_chemical_formula_sum "Si O2"
_cell_formula_units_Z 32
_cell_length_a 11.437068
_cell_length_b 8.907580
_cell_length_c 23.636647
_cell_angle_alpha 90.000000
_cell_angle_beta 55.468942
_cell_angle_gamma 90.000000
_cell_volume 1983.773701
_symmetry_space_group_name_H-M "P 21/M"
_symmetry_group_IT_number 11
_symmetry_cell_setting 'monoclinic'
loop_
_space_group_symop_operation_xyz
x,y,z
-x,1/2+y,-z
-x,-y,-z
x,1/2-y,z
loop_
_atom_site_type_symbol
_atom_site_label
_atom_site_fract_x
_atom_site_fract_y
_atom_site_fract_z
Si Si1 0.388722 0.070415 0.486122
Si Si2 0.836851 0.924865 0.368119
Si Si3 0.665109 0.571689 0.896984
Si Si4 0.633150 0.927236 0.038527
Si Si5 0.803977 0.931181 0.199122
Si Si6 0.423126 0.424505 0.651265
Si Si7 0.145830 0.929165 0.937280
Si Si8 0.977228 0.928821 0.771735
O O1 0.397601 0.250000 0.487078
O O2 0.233752 0.027335 0.552976
O O3 0.500000 0.000000 0.500000
O O4 0.444787 0.015145 0.410216
O O5 0.878771 0.750000 0.359824
O O6 0.705752 0.933525 0.359215
O O7 0.960658 0.020514 0.305810
O O8 0.637279 0.750000 0.897222
O O9 0.530136 0.478725 0.913084
O O10 0.812635 0.533531 0.826366
O O11 0.679201 0.545988 0.960670
O O12 0.647741 0.750000 0.046179
O O13 0.730728 0.020776 0.053812
O O14 0.809658 0.750000 0.194895
O O15 0.653953 0.973592 0.269974
O O16 0.822272 0.003811 0.133182
O O17 0.928460 0.989244 0.206369
O O18 0.462942 0.250000 0.644640
O O19 0.133535 0.750000 0.937948
O O20 0.000000 0.000000 0.000000
O O21 0.993859 0.750000 0.774071
#
# Coordination Sequence:
#
# PCOD9156407 Si02
#       8
#     4   4   4   4   4   4   4   4
#     4   9  15  22  34  52  78 113 150 187 225 268
#     4   8  15  25  35  54  85 118 152 189 228 271
#     4   9  19  34  50  70  95 120 151 191 231 274
#     4  10  20  35  54  73  93 120 154 190 231 276
#     4  10  20  33  47  66  94 125 158 194 232 276
#     4   8  15  26  39  56  81 114 150 188 226 267
#     4  12  24  37  53  72  96 124 155 191 230 272
#     4  10  18  28  45  68  94 125 159 194 233 275
#
# _framework density 16.130870999999999
#
# number of rings (size 3 to 8) (size 9 to 14) (size 15 to 20)
#    0.000    2.500    0.000    4.875    0.000    8.000 
#    0.000    0.000    0.000    0.000    0.000    0.000 
#    0.000    1.000    0.000    3.250    0.000    6.500 
#
# Total GULP energy -178310.819327 kJ/mol
# GULP energy per Si atom -5572.213104 kJ/mol
# Density = 1.609416 g / cm^3
# Si number density = 16.130871 Si / 1000 Ang^3
#
#
#
# Elastic Constant Matrix: (Units=GPa)
#
#
# Indices 1 2 3 4 5 6 
#
# 1 39.4408 30.2975 44.3815 0.0000 -7.3711 0.0000
# 2 30.2975 75.8918 68.5669 0.0000 -8.3622 0.0000
# 3 44.3815 68.5669 167.3606 0.0000 -18.1829 0.0000
# 4 0.0000 0.0000 0.0000 30.9344 0.0000 -2.1205
# 5 -7.3711 -8.3622 -18.1829 0.0000 17.4083 0.0000
# 6 0.0000 0.0000 0.0000 -2.1205 0.0000 20.7362
#
#
#
# Elastic Compliance Matrix: (Units=1/GPa)
#
#
# Indices 1 2 3 4 5 6 
#
# 1 0.041233 -0.010332 -0.006028 0.000000 0.006200 0.000000
# 2 -0.010332 0.023533 -0.006936 0.000000 -0.000315 0.000000
# 3 -0.006028 -0.006936 0.011027 0.000000 0.005634 0.000000
# 4 0.000000 0.000000 0.000000 0.032555 0.000000 0.003329
# 5 0.006200 -0.000315 0.005634 0.000000 0.065802 0.000000
# 6 0.000000 0.000000 0.000000 0.003329 0.000000 0.048565
#
#
# Mechanical properties :
#
#
# Convention : Reuss Voigt Hill
#
# Bulk Modulus (GPa) = 34.24393 63.24277 48.74335
# Shear Modulus (GPa) = 17.91861 23.11229 20.51545
#
# Velocity S-wave (km/s) = 3.33652 3.78934 3.57012
# Velocity P-wave (km/s) = 6.00983 7.64438 6.87585
#
# Compressibility (1/GPa) = 0.02920226
#
# Stress axis : x y z
#
# Youngs Moduli (GPa) = 24.25265 42.49371 90.68459
#
# Poissons Ratio (x) = 0.43903 0.54663
# Poissons Ratio (y) = 0.25057 0.62896
# Poissons Ratio (z) = 0.14619 0.29472
#
# Static dielectric constant tensor:
#      x y z
#    x 1.506700 0.000000 0.000910 
#    y 0.000000 1.537850 0.000000 
#    z 0.000910 0.000000 1.590780 
# 
# From -- ./inp_files/68316.got.cif
#   From: 2010.05.17/outbox.cif.g08.bks.cpg/sg11_35_cif.got.tgz:68316.got - 2010.06.03 12:22:45.
