data_PCOD9156452
_publ_section_title
;
Structure prediction by ZEFSAII (Michael W. Deem and Ramdas Pophale) SiO2 
 PCOD9156452
Probable space group: P 21/M
;
_chemical_formula_sum "Si O2"
_cell_formula_units_Z 30
_cell_length_a 21.156631
_cell_length_b 7.612493
_cell_length_c 6.912465
_cell_angle_alpha 90.000000
_cell_angle_beta 93.909043
_cell_angle_gamma 90.000000
_cell_volume 1110.694992
_symmetry_space_group_name_H-M "P 21/M"
_symmetry_group_IT_number 11
_symmetry_cell_setting 'monoclinic'
loop_
_space_group_symop_operation_xyz
x,y,z
-x,1/2+y,-z
-x,-y,-z
x,1/2-y,z
loop_
_atom_site_type_symbol
_atom_site_label
_atom_site_fract_x
_atom_site_fract_y
_atom_site_fract_z
Si Si1 0.743605 0.435326 0.868878
Si Si2 0.578453 0.539220 0.206237
Si Si3 0.560639 0.548060 0.744464
Si Si4 0.878258 0.547263 0.793719
Si Si5 0.014366 0.041035 0.729894
Si Si6 0.147475 0.038014 0.663225
Si Si7 0.345946 0.750000 0.391479
Si Si8 0.713408 0.552492 0.245464
O O1 0.723088 0.250000 0.957426
O O2 0.819033 0.450641 0.876861
O O3 0.711825 0.405872 0.654113
O O4 0.713549 0.570060 0.010088
O O5 0.580732 0.750000 0.233939
O O6 0.515328 0.469152 0.291319
O O7 0.646893 0.460750 0.281246
O O8 0.571653 0.509102 0.975330
O O9 0.578761 0.750000 0.706070
O O10 0.600747 0.404129 0.641641
O O11 0.864549 0.750000 0.829567
O O12 0.868693 0.510040 0.564050
O O13 0.953501 0.522958 0.836605
O O14 0.015645 0.250000 0.750643
O O15 0.086418 0.972707 0.771176
O O16 0.000000 0.000000 0.500000
O O17 0.150056 0.250000 0.696541
O O18 0.217735 0.968992 0.709919
O O19 0.714394 0.750000 0.330608
#
# Coordination Sequence:
#
# PCOD9156452 Si02
#       8
#     4   4   4   4   4   4   2   4
#     4  10  21  33  49  72 109 136 168 218 260 314
#     4   9  16  25  43  70 103 131 169 215 263 312
#     4  10  18  28  47  70 103 140 174 217 268 312
#     4  10  19  34  55  77 103 136 181 217 262 317
#     4   9  16  30  52  75 103 134 173 221 260 301
#     4   8  17  32  53  80 105 131 171 221 263 314
#     4  10  20  34  48  72 114 128 188 212 272 310
#     4  10  18  32  52  76 107 137 170 211 275 320
#
# _framework density 27.010117000000001
#
# number of rings (size 3 to 8) (size 9 to 14) (size 15 to 20)
#    0.400    2.133    2.000    2.000    0.933    1.067 
#    0.000    4.667    0.000    0.000    0.000    0.933 
#    0.000    0.000    0.000    0.000    0.000    0.000 
#
# Total GULP energy -167128.847347 kJ/mol
# GULP energy per Si atom -5570.961578 kJ/mol
# Density = 2.694864 g / cm^3
# Si number density = 27.010117 Si / 1000 Ang^3
#
#
#
# Elastic Constant Matrix: (Units=GPa)
#
#
# Indices 1 2 3 4 5 6 
#
# 1 266.0974 24.5877 49.7734 0.0000 10.9162 0.0000
# 2 24.5877 87.6704 -15.3914 0.0000 -14.9179 0.0000
# 3 49.7734 -15.3914 86.7665 0.0000 -5.2770 0.0000
# 4 0.0000 0.0000 0.0000 -97.7722 0.0000 13.8416
# 5 10.9162 -14.9179 -5.2770 0.0000 58.4495 0.0000
# 6 0.0000 0.0000 0.0000 13.8416 0.0000 32.3134
#
#
#
# Elastic Compliance Matrix: (Units=1/GPa)
#
#
# Indices 1 2 3 4 5 6 
#
# 1 0.004608 -0.002127 -0.003123 0.000000 -0.001686 0.000000
# 2 -0.002127 0.013387 0.003848 0.000000 0.004161 0.000000
# 3 -0.003123 0.003848 0.014172 0.000000 0.002845 0.000000
# 4 0.000000 0.000000 0.000000 -0.009643 0.000000 0.004131
# 5 -0.001686 0.004161 0.002845 0.000000 0.018743 0.000000
# 6 0.000000 0.000000 0.000000 0.004131 0.000000 0.029177
#
#
# Mechanical properties :
#
#
# Convention : Reuss Voigt Hill
#
# Bulk Modulus (GPa) = 34.05760 62.05263 48.05512
# Shear Modulus (GPa) = 60.21449 24.03579 42.12514
#
# Velocity S-wave (km/s) = 4.72670 2.98632 3.95347
# Velocity P-wave (km/s) = 6.51349 5.90885 6.21852
#
# Compressibility (1/GPa) = 0.02936202
#
# Stress axis : x y z
#
# Youngs Moduli (GPa) = 217.01631 74.70108 70.55931
#
# Poissons Ratio (x) = 0.15892 0.22037
# Poissons Ratio (y) = 0.46169 -0.27152
# Poissons Ratio (z) = 0.67779 -0.28746
#
# Static dielectric constant tensor:
#      x y z
#    x 2.064110 0.000000 0.056680 
#    y 0.000000 1.999530 0.000000 
#    z 0.056680 0.000000 2.341360 
# 
# From -- ./inp_files/25880.got.cif
#   From: 2010.05.17/outbox.cif.g08.bks.cpg/sg11_13_cif.got.tgz:25880.got - 2010.06.03 12:22:45.
