data_PCOD9156976
_publ_section_title
;
Structure prediction by ZEFSAII (Michael W. Deem and Ramdas Pophale) SiO2 
 PCOD9156976
Probable space group: P 21/M
;
_chemical_formula_sum "Si O2"
_cell_formula_units_Z 32
_cell_length_a 20.842881
_cell_length_b 8.300886
_cell_length_c 15.351144
_cell_angle_alpha 90.000000
_cell_angle_beta 135.810053
_cell_angle_gamma 90.000000
_cell_volume 1851.314539
_symmetry_space_group_name_H-M "P 21/M"
_symmetry_group_IT_number 11
_symmetry_cell_setting 'monoclinic'
loop_
_space_group_symop_operation_xyz
x,y,z
-x,1/2+y,-z
-x,-y,-z
x,1/2-y,z
loop_
_atom_site_type_symbol
_atom_site_label
_atom_site_fract_x
_atom_site_fract_y
_atom_site_fract_z
Si Si1 0.020344 0.945632 0.116921
Si Si2 0.802240 0.935478 0.312159
Si Si3 0.515001 0.055625 0.914751
Si Si4 0.326415 0.944730 0.657823
Si Si5 0.890936 0.557273 0.147526
Si Si6 0.819133 0.063707 0.611332
Si Si7 0.283850 0.563692 0.942565
Si Si8 0.956411 0.436687 0.577114
O O1 0.022577 0.750000 0.121592
O O2 0.118382 0.006938 0.250854
O O3 0.941479 0.998782 0.108833
O O4 0.000000 0.000000 0.000000
O O5 0.796820 0.750000 0.279168
O O6 0.730875 0.971967 0.320439
O O7 0.768661 0.043870 0.200369
O O8 0.903083 0.971894 0.449007
O O9 0.514586 0.250000 0.914579
O O10 0.431561 0.990743 0.775160
O O11 0.613742 0.997844 0.974604
O O12 0.500000 0.000000 0.000000
O O13 0.315278 0.750000 0.654292
O O14 0.277053 0.000388 0.520132
O O15 0.901301 0.750000 0.160457
O O16 0.784632 0.515728 0.054881
O O17 0.950218 0.497306 0.288953
O O18 0.802058 0.250000 0.618068
O O19 0.886613 0.062295 0.592490
O O20 0.292795 0.750000 0.973961
O O21 0.967663 0.250000 0.562322
#
# Coordination Sequence:
#
# PCOD9156976 Si02
#       8
#     4   4   4   4   4   4   4   4
#     4   9  17  32  54  80 106 130 156 189 235 296
#     4  11  20  29  45  67  92 126 167 206 245 289
#     4  11  22  34  49  69  94 129 171 216 257 294
#     4  10  18  31  50  69  94 128 167 212 252 287
#     4   9  19  35  52  70  96 129 163 200 242 292
#     4   7  13  27  47  70  97 127 156 190 238 290
#     4  11  23  35  47  65  94 129 167 208 250 291
#     4   8  15  30  48  64  89 125 163 201 239 281
#
# _framework density 17.285015999999999
#
# number of rings (size 3 to 8) (size 9 to 14) (size 15 to 20)
#    0.000    2.500    1.250    4.500    0.000    3.000 
#    0.000    5.625    0.000    0.000    0.000    0.875 
#    0.000    0.000    0.000    0.000    0.000    0.000 
#
# Total GULP energy -178358.646855 kJ/mol
# GULP energy per Si atom -5573.707714 kJ/mol
# Density = 1.724567 g / cm^3
# Si number density = 17.285016 Si / 1000 Ang^3
#
#
#
# Elastic Constant Matrix: (Units=GPa)
#
#
# Indices 1 2 3 4 5 6 
#
# 1 77.6799 4.9616 64.8853 0.0000 18.2138 0.0000
# 2 4.9616 19.8734 6.6376 0.0000 5.0790 0.0000
# 3 64.8853 6.6376 136.3260 0.0000 14.2461 0.0000
# 4 0.0000 0.0000 0.0000 23.8182 0.0000 2.2399
# 5 18.2138 5.0790 14.2461 0.0000 31.6010 0.0000
# 6 0.0000 0.0000 0.0000 2.2399 0.0000 20.4530
#
#
#
# Elastic Compliance Matrix: (Units=1/GPa)
#
#
# Indices 1 2 3 4 5 6 
#
# 1 0.023554 -0.000171 -0.010271 0.000000 -0.008918 0.000000
# 2 -0.000171 0.052879 -0.001695 0.000000 -0.007636 0.000000
# 3 -0.010271 -0.001695 0.012236 0.000000 0.000676 0.000000
# 4 0.000000 0.000000 0.000000 0.042422 0.000000 -0.004646
# 5 -0.008918 -0.007636 0.000676 0.000000 0.037707 0.000000
# 6 0.000000 0.000000 0.000000 -0.004646 0.000000 0.049401
#
#
# Mechanical properties :
#
#
# Convention : Reuss Voigt Hill
#
# Bulk Modulus (GPa) = 15.52915 42.98315 29.25615
# Shear Modulus (GPa) = 18.94386 25.66742 22.30564
#
# Velocity S-wave (km/s) = 3.31414 3.85769 3.59620
# Velocity P-wave (km/s) = 4.86295 6.69056 5.84859
#
# Compressibility (1/GPa) = 0.06439504
#
# Stress axis : x y z
#
# Youngs Moduli (GPa) = 42.45514 18.91115 81.72894
#
# Poissons Ratio (x) = 0.00324 0.83940
# Poissons Ratio (y) = 0.00726 0.13855
# Poissons Ratio (z) = 0.43604 0.03206
#
# Static dielectric constant tensor:
#      x y z
#    x 1.602770 0.000000 0.030640 
#    y 0.000000 1.599870 0.000000 
#    z 0.030640 0.000000 1.619040 
# 
# From -- ./inp_files/54361.got.cif
#   From: 2010.05.17/outbox.cif.g08.bks.cpg/sg11_28_cif.got.tgz:54361.got - 2010.06.03 12:22:45.
