data_PCOD9156278
_publ_section_title
;
Structure prediction by ZEFSAII (Michael W. Deem and Ramdas Pophale) SiO2 
 PCOD9156278
Probable space group: P 21/M
;
_chemical_formula_sum "Si O2"
_cell_formula_units_Z 28
_cell_length_a 15.056616
_cell_length_b 8.649039
_cell_length_c 14.020659
_cell_angle_alpha 90.000000
_cell_angle_beta 103.998476
_cell_angle_gamma 90.000000
_cell_volume 1771.620329
_symmetry_space_group_name_H-M "P 21/M"
_symmetry_group_IT_number 11
_symmetry_cell_setting 'monoclinic'
loop_
_space_group_symop_operation_xyz
x,y,z
-x,1/2+y,-z
-x,-y,-z
x,1/2-y,z
loop_
_atom_site_type_symbol
_atom_site_label
_atom_site_fract_x
_atom_site_fract_y
_atom_site_fract_z
Si Si1 0.108123 0.065010 0.132363
Si Si2 0.534716 0.935251 0.608809
Si Si3 0.099295 0.936986 0.916750
Si Si4 0.602110 0.066944 0.919252
Si Si5 0.567578 0.064618 0.228107
Si Si6 0.280983 0.938532 0.866604
Si Si7 0.290074 0.568066 0.250482
O O1 0.114041 0.250000 0.131978
O O2 0.004850 0.019913 0.135753
O O3 0.188373 0.999213 0.218957
O O4 0.119515 0.002329 0.027368
O O5 0.531517 0.750000 0.606598
O O6 0.470382 0.992676 0.680079
O O7 0.500000 0.000000 0.500000
O O8 0.637664 0.988218 0.660483
O O9 0.103140 0.750000 0.924839
O O10 0.177831 0.988308 0.863600
O O11 0.582713 0.250000 0.923121
O O12 0.667392 0.045866 0.844431
O O13 0.509048 0.979510 0.869948
O O14 0.656317 0.015463 0.026795
O O15 0.571174 0.250000 0.235262
O O16 0.665513 0.009061 0.214126
O O17 0.279788 0.750000 0.864769
O O18 0.287610 0.750000 0.269562
#
# Coordination Sequence:
#
# PCOD9156278 Si02
#       7
#     4   4   4   4   4   4   4
#     4  10  18  27  42  65  91 121 158 194 221 255
#     4  10  20  34  50  71  93 114 146 187 231 275
#     4   9  17  29  43  60  89 127 160 187 221 261
#     4   9  16  26  41  60  87 121 152 176 212 262
#     4   9  18  29  44  64  87 113 148 187 219 261
#     4   9  15  27  43  61  87 122 154 181 216 259
#     4  10  18  30  48  67  91 123 153 185 226 269
#
# _framework density 15.804739
#
# number of rings (size 3 to 8) (size 9 to 14) (size 15 to 20)
#    0.000    2.571    1.429    1.714    0.000    1.714 
#    0.000    0.714    0.000    0.000    0.000    1.000 
#    0.000    0.000    0.000    0.000    0.000    0.000 
#
# Total GULP energy -156014.611065 kJ/mol
# GULP energy per Si atom -5571.950395 kJ/mol
# Density = 1.576877 g / cm^3
# Si number density = 15.804739 Si / 1000 Ang^3
#
#
#
# Elastic Constant Matrix: (Units=GPa)
#
#
# Indices 1 2 3 4 5 6 
#
# 1 143.0724 26.0212 56.6592 0.0000 13.7187 0.0000
# 2 26.0212 17.3444 24.1489 0.0000 7.3040 0.0000
# 3 56.6592 24.1489 85.4196 0.0000 13.2104 0.0000
# 4 0.0000 0.0000 0.0000 20.8889 0.0000 6.1171
# 5 13.7187 7.3040 13.2104 0.0000 13.7744 0.0000
# 6 0.0000 0.0000 0.0000 6.1171 0.0000 16.7194
#
#
#
# Elastic Compliance Matrix: (Units=1/GPa)
#
#
# Indices 1 2 3 4 5 6 
#
# 1 0.010444 -0.009408 -0.004028 0.000000 -0.001550 0.000000
# 2 -0.009408 0.114503 -0.021358 0.000000 -0.030863 0.000000
# 3 -0.004028 -0.021358 0.021188 0.000000 -0.004983 0.000000
# 4 0.000000 0.000000 0.000000 0.053617 0.000000 -0.019617
# 5 -0.001550 -0.030863 -0.004983 0.000000 0.095287 0.000000
# 6 0.000000 0.000000 0.000000 -0.019617 0.000000 0.066988
#
#
# Mechanical properties :
#
#
# Convention : Reuss Voigt Hill
#
# Bulk Modulus (GPa) = 13.06382 51.05500 32.05941
# Shear Modulus (GPa) = 10.93781 19.54369 15.24075
#
# Velocity S-wave (km/s) = 2.63355 3.52031 3.10871
# Velocity P-wave (km/s) = 4.18703 6.99265 5.76317
#
# Compressibility (1/GPa) = 0.07654726
#
# Stress axis : x y z
#
# Youngs Moduli (GPa) = 95.74431 8.73341 47.19739
#
# Poissons Ratio (x) = 0.08216 0.19013
# Poissons Ratio (y) = 0.90074 1.00802
# Poissons Ratio (z) = 0.38570 0.18652
#
# Static dielectric constant tensor:
#      x y z
#    x 1.574250 0.000000 -0.006580 
#    y 0.000000 1.533850 0.000000 
#    z -0.006580 0.000000 1.495540 
# 
# From -- ./inp_files/42590.got.cif
#   From: 2010.05.17/outbox.cif.g08.bks.cpg/sg11_22_cif.got.tgz:42590.got - 2010.06.03 12:22:45.
