data_PCOD9156073
_publ_section_title
;
Structure prediction by ZEFSAII (Michael W. Deem and Ramdas Pophale) SiO2 
 PCOD9156073
Probable space group: P 21/M
;
_chemical_formula_sum "Si O2"
_cell_formula_units_Z 32
_cell_length_a 20.819920
_cell_length_b 13.551951
_cell_length_c 11.632156
_cell_angle_alpha 90.000000
_cell_angle_beta 25.617522
_cell_angle_gamma 90.000000
_cell_volume 1419.018756
_symmetry_space_group_name_H-M "P 21/M"
_symmetry_group_IT_number 11
_symmetry_cell_setting 'monoclinic'
loop_
_space_group_symop_operation_xyz
x,y,z
-x,1/2+y,-z
-x,-y,-z
x,1/2-y,z
loop_
_atom_site_type_symbol
_atom_site_label
_atom_site_fract_x
_atom_site_fract_y
_atom_site_fract_z
Si Si1 0.136420 0.633227 0.788256
Si Si2 0.408452 0.007021 0.329544
Si Si3 0.008226 0.864374 0.230404
Si Si4 0.148363 0.474115 0.334027
Si Si5 0.272276 0.500950 0.897392
Si Si6 0.797561 0.360067 0.569706
Si Si7 0.550938 0.862903 0.944348
Si Si8 0.465473 0.133616 0.453747
O O1 0.182431 0.750000 0.718631
O O2 0.272534 0.559190 0.595450
O O3 0.109432 0.614379 0.696180
O O4 0.008631 0.621472 0.090751
O O5 0.533376 0.929390 0.085889
O O6 0.466541 0.085488 0.326457
O O7 0.366126 0.072374 0.285672
O O8 0.049985 0.750000 0.180322
O O9 0.874011 0.888706 0.534340
O O10 0.131331 0.940767 0.077020
O O11 0.180733 0.568063 0.360519
O O12 0.000000 0.500000 0.500000
O O13 0.258259 0.462316 0.050157
O O14 0.402671 0.582805 0.687246
O O15 0.315091 0.407424 0.752359
O O16 0.839027 0.250000 0.537823
O O17 0.623649 0.359672 0.814123
O O18 0.600893 0.750000 0.874299
O O19 0.477843 0.250000 0.430632
#
# Coordination Sequence:
#
# PCOD9156073 Si02
#       8
#     4   4   4   4   4   4   4   4
#     4   9  18  34  59  85 111 148 193 236 287 349
#     4  10  17  30  52  81 118 148 187 236 283 333
#     4  10  20  38  61  82 111 153 196 239 289 348
#     4  10  22  36  57  85 111 147 193 240 286 337
#     4  10  22  40  56  84 119 153 198 239 293 337
#     4   9  18  35  58  83 110 144 189 237 284 342
#     4   9  18  31  53  84 114 152 192 229 283 349
#     4  11  22  36  59  87 117 154 195 239 287 347
#
# _framework density 22.550794
#
# number of rings (size 3 to 8) (size 9 to 14) (size 15 to 20)
#    0.000    2.250    1.250    2.625    0.000    4.500 
#    0.000    2.500    0.000   16.500    0.000    0.000 
#    0.000    0.000    0.000    0.000    0.000    0.000 
#
# Total GULP energy -178602.195514 kJ/mol
# GULP energy per Si atom -5581.318610 kJ/mol
# Density = 2.249947 g / cm^3
# Si number density = 22.550794 Si / 1000 Ang^3
#
#
#
# Elastic Constant Matrix: (Units=GPa)
#
#
# Indices 1 2 3 4 5 6 
#
# 1 57.7310 15.9844 16.8193 0.0000 19.8831 0.0000
# 2 15.9844 124.0269 38.8770 0.0000 9.5338 0.0000
# 3 16.8193 38.8770 98.9286 0.0000 35.0485 0.0000
# 4 0.0000 0.0000 0.0000 28.2784 0.0000 3.1021
# 5 19.8831 9.5338 35.0485 0.0000 36.7541 0.0000
# 6 0.0000 0.0000 0.0000 3.1021 0.0000 27.6785
#
#
#
# Elastic Compliance Matrix: (Units=1/GPa)
#
#
# Indices 1 2 3 4 5 6 
#
# 1 0.021922 -0.002395 0.001806 0.000000 -0.012960 0.000000
# 2 -0.002395 0.009520 -0.004407 0.000000 0.003029 0.000000
# 3 0.001806 -0.004407 0.017329 0.000000 -0.016358 0.000000
# 4 0.000000 0.000000 0.000000 0.035803 0.000000 -0.004013
# 5 -0.012960 0.003029 -0.016358 0.000000 0.049032 0.000000
# 6 0.000000 0.000000 0.000000 -0.004013 0.000000 0.036579
#
#
# Mechanical properties :
#
#
# Convention : Reuss Voigt Hill
#
# Bulk Modulus (GPa) = 25.78785 47.11642 36.45213
# Shear Modulus (GPa) = 25.89280 32.47592 29.18436
#
# Velocity S-wave (km/s) = 3.39218 3.79901 3.60135
# Velocity P-wave (km/s) = 5.17714 6.33894 5.78727
#
# Compressibility (1/GPa) = 0.03877795
#
# Stress axis : x y z
#
# Youngs Moduli (GPa) = 45.61546 105.04160 57.70823
#
# Poissons Ratio (x) = 0.25158 -0.10420
# Poissons Ratio (y) = 0.10925 0.25432
# Poissons Ratio (z) = -0.08236 0.46292
#
# Static dielectric constant tensor:
#      x y z
#    x 1.869950 0.000000 -0.026930 
#    y 0.000000 1.795910 0.000000 
#    z -0.026930 0.000000 1.955770 
# 
# From -- ./inp_files/44201.got.cif
#   From: 2010.05.17/outbox.cif.g08.bks.cpg/sg11_23_cif.got.tgz:44201.got - 2010.06.03 12:22:45.
