data_PCOD9156863
_publ_section_title
;
Structure prediction by ZEFSAII (Michael W. Deem and Ramdas Pophale) SiO2 
 PCOD9156863
Probable space group: P 21/M
;
_chemical_formula_sum "Si O2"
_cell_formula_units_Z 26
_cell_length_a 13.490694
_cell_length_b 18.769875
_cell_length_c 9.489484
_cell_angle_alpha 90.000000
_cell_angle_beta 149.009519
_cell_angle_gamma 90.000000
_cell_volume 1237.250110
_symmetry_space_group_name_H-M "P 21/M"
_symmetry_group_IT_number 11
_symmetry_cell_setting 'monoclinic'
loop_
_space_group_symop_operation_xyz
x,y,z
-x,1/2+y,-z
-x,-y,-z
x,1/2-y,z
loop_
_atom_site_type_symbol
_atom_site_label
_atom_site_fract_x
_atom_site_fract_y
_atom_site_fract_z
Si Si1 0.988323 0.521996 0.174805
Si Si2 0.832445 0.250000 0.702444
Si Si3 0.173100 0.899433 0.153258
Si Si4 0.402002 0.404487 0.288756
Si Si5 0.985890 0.250000 0.568527
Si Si6 0.620599 0.750000 0.840562
Si Si7 0.048151 0.593260 0.553941
Si Si8 0.657449 0.977094 0.077095
O O1 0.140006 0.551492 0.249753
O O2 0.033388 0.560323 0.376678
O O3 0.963322 0.437013 0.127837
O O4 0.779793 0.553390 0.874894
O O5 0.870439 0.320071 0.843770
O O6 0.602826 0.250000 0.388326
O O7 0.934740 0.250000 0.674219
O O8 0.396996 0.905772 0.385460
O O9 0.346765 0.322063 0.205573
O O10 0.428010 0.436262 0.161986
O O11 0.915725 0.176788 0.413783
O O12 0.218395 0.250000 0.843203
O O13 0.226350 0.547952 0.830845
O O14 0.833255 0.573420 0.346580
O O15 0.500000 0.000000 0.000000
#
# Coordination Sequence:
#
# PCOD9156863 Si02
#       8
#     4   2   4   4   2   2   4   4
#     4  10  18  31  49  73 106 129 171 207 255 308
#     4  10  20  30  50  76 107 129 174 210 266 303
#     4  10  19  30  50  77 100 137 164 211 256 309
#     4  10  19  33  51  75 104 132 171 211 262 299
#     4  12  18  34  54  75 108 128 171 222 265 298
#     4  10  18  30  50  77  99 131 163 222 261 293
#     4  10  21  33  52  79 101 139 171 216 263 304
#     4  10  20  33  51  74 108 135 170 213 258 310
#
# _framework density 21.014344000000001
#
# number of rings (size 3 to 8) (size 9 to 14) (size 15 to 20)
#    0.000    1.846    4.615    1.385    2.154    0.000 
#    0.000    0.000    0.000    9.231    0.000   10.769 
#    0.000    0.000    0.000    0.000    0.000    0.000 
#
# Total GULP energy -144929.294444 kJ/mol
# GULP energy per Si atom -5574.203632 kJ/mol
# Density = 2.096651 g / cm^3
# Si number density = 21.014344 Si / 1000 Ang^3
#
#
#
# Elastic Constant Matrix: (Units=GPa)
#
#
# Indices 1 2 3 4 5 6 
#
# 1 70.3701 10.3949 11.9275 0.0000 18.9035 0.0000
# 2 10.3949 178.9302 31.3394 0.0000 -1.1211 0.0000
# 3 11.9275 31.3394 43.1315 0.0000 2.3646 0.0000
# 4 0.0000 0.0000 0.0000 26.9000 0.0000 2.2985
# 5 18.9035 -1.1211 2.3646 0.0000 26.3111 0.0000
# 6 0.0000 0.0000 0.0000 2.2985 0.0000 22.0858
#
#
#
# Elastic Compliance Matrix: (Units=1/GPa)
#
#
# Indices 1 2 3 4 5 6 
#
# 1 0.018429 -0.000438 -0.004071 0.000000 -0.012893 0.000000
# 2 -0.000438 0.006427 -0.004603 0.000000 0.001003 0.000000
# 3 -0.004071 -0.004603 0.027642 0.000000 0.000244 0.000000
# 4 0.000000 0.000000 0.000000 0.037508 0.000000 -0.003904
# 5 -0.012893 0.001003 0.000244 0.000000 0.047291 0.000000
# 6 0.000000 0.000000 0.000000 -0.003904 0.000000 0.045684
#
#
# Mechanical properties :
#
#
# Convention : Reuss Voigt Hill
#
# Bulk Modulus (GPa) = 29.17808 44.41727 36.79768
# Shear Modulus (GPa) = 23.51495 30.97738 27.24616
#
# Velocity S-wave (km/s) = 3.34877 3.84357 3.60467
# Velocity P-wave (km/s) = 5.37283 6.39374 5.90539
#
# Compressibility (1/GPa) = 0.03427230
#
# Stress axis : x y z
#
# Youngs Moduli (GPa) = 54.26275 155.59821 36.17667
#
# Poissons Ratio (x) = 0.06821 0.14727
# Poissons Ratio (y) = 0.02379 0.16654
# Poissons Ratio (z) = 0.22090 0.71629
#
# Static dielectric constant tensor:
#      x y z
#    x 1.792850 0.000000 -0.019630 
#    y 0.000000 1.794800 0.000000 
#    z -0.019630 0.000000 1.795990 
# 
# From -- ./inp_files/36001.got.cif
#   From: 2010.05.17/outbox.cif.g08.bks.cpg/sg11_19_cif.got.tgz:36001.got - 2010.06.03 12:22:45.
