data_PCOD9156125
_publ_section_title
;
Structure prediction by ZEFSAII (Michael W. Deem and Ramdas Pophale) SiO2 
 PCOD9156125
Probable space group: P 21/M
;
_chemical_formula_sum "Si O2"
_cell_formula_units_Z 28
_cell_length_a 13.612216
_cell_length_b 13.656793
_cell_length_c 11.217911
_cell_angle_alpha 90.000000
_cell_angle_beta 50.160639
_cell_angle_gamma 90.000000
_cell_volume 1601.261706
_symmetry_space_group_name_H-M "P 21/M"
_symmetry_group_IT_number 11
_symmetry_cell_setting 'monoclinic'
loop_
_space_group_symop_operation_xyz
x,y,z
-x,1/2+y,-z
-x,-y,-z
x,1/2-y,z
loop_
_atom_site_type_symbol
_atom_site_label
_atom_site_fract_x
_atom_site_fract_y
_atom_site_fract_z
Si Si1 0.263901 0.141886 0.097822
Si Si2 0.639996 0.451074 0.907009
Si Si3 0.351926 0.864179 0.833661
Si Si4 0.545766 0.142829 0.760132
Si Si5 0.579874 0.966305 0.552594
Si Si6 0.043198 0.362818 0.073424
Si Si7 0.186189 0.999373 0.780301
O O1 0.265010 0.250000 0.155257
O O2 0.144280 0.135766 0.102701
O O3 0.267697 0.045028 0.175575
O O4 0.396422 0.137333 0.917590
O O5 0.636025 0.372237 0.805148
O O6 0.500000 0.500000 0.000000
O O7 0.657005 0.403066 0.023474
O O8 0.316764 0.750000 0.852878
O O9 0.265785 0.933619 0.815085
O O10 0.498800 0.880039 0.676393
O O11 0.565280 0.250000 0.691229
O O12 0.575502 0.055826 0.648017
O O13 0.720638 0.953719 0.390330
O O14 0.500000 0.000000 0.500000
O O15 0.011828 0.250000 0.071668
O O16 0.917223 0.426211 0.196258
O O17 0.112935 0.416110 0.909019
#
# Coordination Sequence:
#
# PCOD9156125 Si02
#       7
#     4   4   4   4   4   4   4
#     4   9  16  29  52  76 102 133 172 214 259 309
#     4  10  17  32  50  77 109 131 178 218 260 308
#     4  11  20  33  52  80 109 138 173 217 267 312
#     4  10  19  32  52  77 104 140 174 214 264 318
#     4  10  20  34  49  74 109 138 164 209 265 316
#     4  10  19  34  55  77 101 140 180 216 263 312
#     4  10  21  35  53  78 109 135 175 222 261 316
#
# _framework density 17.486211999999998
#
# number of rings (size 3 to 8) (size 9 to 14) (size 15 to 20)
#    0.000    2.000    4.286    1.714    0.000    4.000 
#    0.000    0.000    0.000    0.857    0.000    0.000 
#    0.000    0.000    0.000    0.000    0.000    0.000 
#
# Total GULP energy -155929.946760 kJ/mol
# GULP energy per Si atom -5568.926670 kJ/mol
# Density = 1.744641 g / cm^3
# Si number density = 17.486212 Si / 1000 Ang^3
#
#
#
# Elastic Constant Matrix: (Units=GPa)
#
#
# Indices 1 2 3 4 5 6 
#
# 1 63.2760 4.3673 10.0213 0.0000 1.9103 0.0000
# 2 4.3673 47.8982 -9.5279 0.0000 -1.5047 0.0000
# 3 10.0213 -9.5279 33.2955 0.0000 -7.2173 0.0000
# 4 0.0000 0.0000 0.0000 9.0849 0.0000 -2.8027
# 5 1.9103 -1.5047 -7.2173 0.0000 22.2717 0.0000
# 6 0.0000 0.0000 0.0000 -2.8027 0.0000 28.0418
#
#
#
# Elastic Compliance Matrix: (Units=1/GPa)
#
#
# Indices 1 2 3 4 5 6 
#
# 1 0.017229 -0.003070 -0.006915 0.000000 -0.003926 0.000000
# 2 -0.003070 0.022991 0.008493 0.000000 0.004569 0.000000
# 3 -0.006915 0.008493 0.037428 0.000000 0.013296 0.000000
# 4 0.000000 0.000000 0.000000 0.113575 0.000000 0.011352
# 5 -0.003926 0.004569 0.013296 0.000000 0.049854 0.000000
# 6 0.000000 0.000000 0.000000 0.011352 0.000000 0.036796
#
#
# Mechanical properties :
#
#
# Convention : Reuss Voigt Hill
#
# Bulk Modulus (GPa) = 13.39324 17.13233 15.26279
# Shear Modulus (GPa) = 16.35353 21.18695 18.77024
#
# Velocity S-wave (km/s) = 3.06146 3.48463 3.27988
# Velocity P-wave (km/s) = 4.49140 5.09991 4.80530
#
# Compressibility (1/GPa) = 0.07466451
#
# Stress axis : x y z
#
# Youngs Moduli (GPa) = 58.04035 43.49614 26.71797
#
# Poissons Ratio (x) = 0.13353 0.18476
# Poissons Ratio (y) = 0.17818 -0.22693
# Poissons Ratio (z) = 0.40136 -0.36943
#
# Static dielectric constant tensor:
#      x y z
#    x 1.611940 0.000000 -0.006850 
#    y 0.000000 1.644330 0.000000 
#    z -0.006850 0.000000 1.600940 
# 
# From -- ./inp_files/39339.got.cif
#   From: 2010.05.17/outbox.cif.g08.bks.cpg/sg11_20_cif.got.tgz:39339.got - 2010.06.03 12:22:45.
