data_PCOD9156609
_publ_section_title
;
Structure prediction by ZEFSAII (Michael W. Deem and Ramdas Pophale) SiO2 
 PCOD9156609
Probable space group: P 21/M
;
_chemical_formula_sum "Si O2"
_cell_formula_units_Z 32
_cell_length_a 15.459861
_cell_length_b 8.729709
_cell_length_c 31.801833
_cell_angle_alpha 90.000000
_cell_angle_beta 151.316145
_cell_angle_gamma 90.000000
_cell_volume 2060.047859
_symmetry_space_group_name_H-M "P 21/M"
_symmetry_group_IT_number 11
_symmetry_cell_setting 'monoclinic'
loop_
_space_group_symop_operation_xyz
x,y,z
-x,1/2+y,-z
-x,-y,-z
x,1/2-y,z
loop_
_atom_site_type_symbol
_atom_site_label
_atom_site_fract_x
_atom_site_fract_y
_atom_site_fract_z
Si Si1 0.745941 0.565270 0.746733
Si Si2 0.972719 0.565548 0.922307
Si Si3 0.650863 0.065029 0.387386
Si Si4 0.657169 0.432978 0.622192
Si Si5 0.948502 0.566335 0.577454
Si Si6 0.279487 0.434590 0.106407
Si Si7 0.263233 0.933005 0.438047
Si Si8 0.327165 0.563338 0.700708
O O1 0.751453 0.750000 0.745674
O O2 0.895831 0.516409 0.844471
O O3 0.548992 0.524879 0.681577
O O4 0.760060 0.492878 0.706869
O O5 0.981890 0.750000 0.926289
O O6 0.827213 0.521574 0.896301
O O7 0.162881 0.499472 0.018366
O O8 0.665943 0.250000 0.395864
O O9 0.674691 0.017251 0.349075
O O10 0.801692 0.992929 0.481370
O O11 0.637553 0.250000 0.615610
O O12 0.747302 0.472967 0.615847
O O13 0.457990 0.506873 0.536604
O O14 0.945188 0.750000 0.576417
O O15 0.887929 0.504657 0.596883
O O16 0.146541 0.514001 0.647330
O O17 0.277827 0.250000 0.103602
O O18 0.485574 0.486880 0.198295
O O19 0.260801 0.750000 0.441279
O O20 0.329278 0.750000 0.701625
#
# Coordination Sequence:
#
# PCOD9156609 Si02
#       8
#     4   4   4   4   4   4   4   4
#     4  10  18  29  48  70  96 129 154 181 232 287
#     4   9  17  29  46  69  94 121 153 188 230 278
#     4  10  18  31  47  64  93 132 163 188 226 277
#     4  10  20  32  49  70  92 117 154 198 233 275
#     4  11  21  31  46  69  94 124 164 204 227 262
#     4   9  16  30  48  65  89 124 158 191 228 270
#     4  10  20  34  48  65  92 125 154 189 240 284
#     4   9  18  32  48  66  93 129 165 194 231 274
#
# _framework density 15.533620000000001
#
# number of rings (size 3 to 8) (size 9 to 14) (size 15 to 20)
#    0.000    2.250    2.500    1.500    0.000    2.000 
#    0.000    2.500    0.000    0.000    0.000    0.875 
#    0.000    0.000    0.000    0.000    0.000    0.000 
#
# Total GULP energy -178476.999614 kJ/mol
# GULP energy per Si atom -5577.406238 kJ/mol
# Density = 1.549826 g / cm^3
# Si number density = 15.533620 Si / 1000 Ang^3
#
#
#
# Elastic Constant Matrix: (Units=GPa)
#
#
# Indices 1 2 3 4 5 6 
#
# 1 109.3058 27.9329 72.7081 0.0000 -10.3843 0.0000
# 2 27.9329 18.1984 29.0363 0.0000 -3.7528 0.0000
# 3 72.7081 29.0363 119.9838 0.0000 -15.2993 0.0000
# 4 0.0000 0.0000 0.0000 23.0547 0.0000 -3.7027
# 5 -10.3843 -3.7528 -15.2993 0.0000 24.7679 0.0000
# 6 0.0000 0.0000 0.0000 -3.7027 0.0000 20.6654
#
#
#
# Elastic Compliance Matrix: (Units=1/GPa)
#
#
# Indices 1 2 3 4 5 6 
#
# 1 0.017976 -0.016630 -0.006761 0.000000 0.000840 0.000000
# 2 -0.016630 0.104899 -0.015382 0.000000 -0.000580 0.000000
# 3 -0.006761 -0.015382 0.016821 0.000000 0.005225 0.000000
# 4 0.000000 0.000000 0.000000 0.044660 0.000000 0.008002
# 5 0.000840 -0.000580 0.005225 0.000000 0.043867 0.000000
# 6 0.000000 0.000000 0.000000 0.008002 0.000000 0.049824
#
#
# Mechanical properties :
#
#
# Convention : Reuss Voigt Hill
#
# Bulk Modulus (GPa) = 16.09064 56.31586 36.20325
# Shear Modulus (GPa) = 13.28698 21.55165 17.41932
#
# Velocity S-wave (km/s) = 2.92784 3.72885 3.35236
# Velocity P-wave (km/s) = 4.67020 7.40756 6.19204
#
# Compressibility (1/GPa) = 0.06214792
#
# Stress axis : x y z
#
# Youngs Moduli (GPa) = 55.63057 9.53302 59.45126
#
# Poissons Ratio (x) = 0.15853 0.40197
# Poissons Ratio (y) = 0.92512 0.91450
# Poissons Ratio (z) = 0.37614 0.14664
#
# Static dielectric constant tensor:
#      x y z
#    x 1.515660 0.000000 -0.008570 
#    y 0.000000 1.525700 0.000000 
#    z -0.008570 0.000000 1.504970 
# 
# From -- ./inp_files/51224.got.cif
#   From: 2010.05.17/outbox.cif.g08.bks.cpg/sg11_26_cif.got.tgz:51224.got - 2010.06.03 12:22:45.
