data_PCOD9156336
_publ_section_title
;
Structure prediction by ZEFSAII (Michael W. Deem and Ramdas Pophale) SiO2 
 PCOD9156336
Probable space group: P 21/M
;
_chemical_formula_sum "Si O2"
_cell_formula_units_Z 28
_cell_length_a 13.424297
_cell_length_b 8.646322
_cell_length_c 20.047268
_cell_angle_alpha 90.000000
_cell_angle_beta 47.262690
_cell_angle_gamma 90.000000
_cell_volume 1709.046544
_symmetry_space_group_name_H-M "P 21/M"
_symmetry_group_IT_number 11
_symmetry_cell_setting 'monoclinic'
loop_
_space_group_symop_operation_xyz
x,y,z
-x,1/2+y,-z
-x,-y,-z
x,1/2-y,z
loop_
_atom_site_type_symbol
_atom_site_label
_atom_site_fract_x
_atom_site_fract_y
_atom_site_fract_z
Si Si1 0.127174 0.564836 0.484056
Si Si2 0.889574 0.565295 0.999643
Si Si3 0.707588 0.936585 0.706190
Si Si4 0.964902 0.066286 0.673237
Si Si5 0.637258 0.423352 0.959564
Si Si6 0.397523 0.576573 0.866748
Si Si7 0.084814 0.069262 0.165674
O O1 0.132039 0.750000 0.479233
O O2 0.251319 0.492402 0.386699
O O3 0.000000 0.500000 0.500000
O O4 0.088872 0.507453 0.574987
O O5 0.893451 0.750000 0.996390
O O6 0.738104 0.515270 0.091452
O O7 0.925441 0.513841 0.906792
O O8 0.000000 0.500000 0.000000
O O9 0.714422 0.750000 0.708290
O O10 0.551047 0.985621 0.788977
O O11 0.822371 0.002982 0.705220
O O12 0.963739 0.250000 0.665095
O O13 0.982756 0.021755 0.742659
O O14 0.661251 0.250000 0.920857
O O15 0.757378 0.540356 0.889609
O O16 0.500000 0.500000 0.000000
O O17 0.624810 0.409436 0.044236
O O18 0.394131 0.750000 0.838557
O O19 0.050097 0.250000 0.184677
#
# Coordination Sequence:
#
# PCOD9156336 Si02
#       7
#     4   4   4   4   4   4   4
#     4  10  18  29  44  64  94 131 167 202 234 274
#     4  10  21  36  55  73  94 120 152 195 241 288
#     4  10  18  30  47  69  99 133 165 200 235 275
#     4  11  20  30  46  69  97 131 166 201 236 278
#     4  10  18  28  42  63  92 126 157 189 226 271
#     4   9  19  32  47  67  93 123 157 193 233 277
#     4  10  20  33  47  67  92 122 157 194 235 281
#
# _framework density 16.383405
#
# number of rings (size 3 to 8) (size 9 to 14) (size 15 to 20)
#    0.000    2.000    0.000    6.857    0.000    4.571 
#    0.000    0.000    0.000    0.000    0.000    1.000 
#    0.000    0.000    0.000    0.000    0.000    0.000 
#
# Total GULP energy -155886.318568 kJ/mol
# GULP energy per Si atom -5567.368520 kJ/mol
# Density = 1.634612 g / cm^3
# Si number density = 16.383405 Si / 1000 Ang^3
#
#
#
# Elastic Constant Matrix: (Units=GPa)
#
#
# Indices 1 2 3 4 5 6 
#
# 1 61.1246 25.9486 17.1395 0.0000 4.0254 0.0000
# 2 25.9486 72.4101 23.3110 0.0000 -1.5533 0.0000
# 3 17.1395 23.3110 91.6897 0.0000 8.0644 0.0000
# 4 0.0000 0.0000 0.0000 26.4097 0.0000 1.4319
# 5 4.0254 -1.5533 8.0644 0.0000 17.9475 0.0000
# 6 0.0000 0.0000 0.0000 1.4319 0.0000 19.3008
#
#
#
# Elastic Compliance Matrix: (Units=1/GPa)
#
#
# Indices 1 2 3 4 5 6 
#
# 1 0.019956 -0.006715 -0.001643 0.000000 -0.004319 0.000000
# 2 -0.006715 0.017473 -0.003595 0.000000 0.004634 0.000000
# 3 -0.001643 -0.003595 0.012621 0.000000 -0.005614 0.000000
# 4 0.000000 0.000000 0.000000 0.038018 0.000000 -0.002821
# 5 -0.004319 0.004634 -0.005614 0.000000 0.059610 0.000000
# 6 0.000000 0.000000 0.000000 -0.002821 0.000000 0.052021
#
#
# Mechanical properties :
#
#
# Convention : Reuss Voigt Hill
#
# Bulk Modulus (GPa) = 38.24907 39.78028 39.01467
# Shear Modulus (GPa) = 21.52210 23.31995 22.42102
#
# Velocity S-wave (km/s) = 3.62837 3.77687 3.70337
# Velocity P-wave (km/s) = 6.39924 6.58432 6.49244
#
# Compressibility (1/GPa) = 0.02614443
#
# Stress axis : x y z
#
# Youngs Moduli (GPa) = 50.11069 57.23060 79.23190
#
# Poissons Ratio (x) = 0.38430 0.13020
# Poissons Ratio (y) = 0.33649 0.28481
# Poissons Ratio (z) = 0.08235 0.20572
#
# Static dielectric constant tensor:
#      x y z
#    x 1.469150 0.000000 0.040600 
#    y 0.000000 1.576300 0.000000 
#    z 0.040600 0.000000 1.603310 
# 
# From -- ./inp_files/64136.got.cif
#   From: 2010.05.17/outbox.cif.g08.bks.cpg/sg11_33_cif.got.tgz:64136.got - 2010.06.03 12:22:45.
