data_PCOD9156887
_publ_section_title
;
Structure prediction by ZEFSAII (Michael W. Deem and Ramdas Pophale) SiO2 
 PCOD9156887
Probable space group: P 21/M
;
_chemical_formula_sum "Si O2"
_cell_formula_units_Z 20
_cell_length_a 12.416718
_cell_length_b 8.937217
_cell_length_c 12.352252
_cell_angle_alpha 90.000000
_cell_angle_beta 117.553933
_cell_angle_gamma 90.000000
_cell_volume 1215.265399
_symmetry_space_group_name_H-M "P 21/M"
_symmetry_group_IT_number 11
_symmetry_cell_setting 'monoclinic'
loop_
_space_group_symop_operation_xyz
x,y,z
-x,1/2+y,-z
-x,-y,-z
x,1/2-y,z
loop_
_atom_site_type_symbol
_atom_site_label
_atom_site_fract_x
_atom_site_fract_y
_atom_site_fract_z
Si Si1 0.692150 0.072062 0.082792
Si Si2 0.089048 0.428192 0.697159
Si Si3 0.844885 0.571175 0.521226
Si Si4 0.484467 0.071798 0.165606
Si Si5 0.565610 0.929663 0.427434
O O1 0.697407 0.250000 0.069432
O O2 0.599362 0.042065 0.139647
O O3 0.821810 0.006856 0.176925
O O4 0.631740 0.993462 0.951280
O O5 0.093192 0.250000 0.712626
O O6 0.137843 0.464121 0.598372
O O7 0.951521 0.487510 0.634464
O O8 0.861322 0.750000 0.540509
O O9 0.709031 0.531422 0.493066
O O10 0.473671 0.250000 0.173974
O O11 0.508257 0.993349 0.290543
O O12 0.555884 0.750000 0.424065
O O13 0.500000 0.000000 0.500000
#
# Coordination Sequence:
#
# PCOD9156887 Si02
#       5
#     4   4   4   4   4
#     4  10  19  31  51  77 108 139 169 213 265 314
#     4  10  18  30  51  77 106 136 170 214 262 312
#     4   9  19  33  49  73 105 138 173 213 259 308
#     4  10  20  33  51  76 105 138 177 215 259 310
#     4  11  22  37  55  76 106 141 179 218 257 306
#
# _framework density 16.457311000000001
#
# number of rings (size 3 to 8) (size 9 to 14) (size 15 to 20)
#    0.000    2.000    2.000    2.400    0.000    4.000 
#    0.000    0.000    0.000    1.200    0.000    0.000 
#    0.000    0.000    0.000    0.000    0.000    0.000 
#
# Total GULP energy -111637.643257 kJ/mol
# GULP energy per Si atom -5581.882163 kJ/mol
# Density = 1.641985 g / cm^3
# Si number density = 16.457311 Si / 1000 Ang^3
#
#
#
# Elastic Constant Matrix: (Units=GPa)
#
#
# Indices 1 2 3 4 5 6 
#
# 1 97.4938 51.9803 76.7294 0.0000 10.7614 0.0000
# 2 51.9803 60.2312 71.9128 0.0000 7.9573 0.0000
# 3 76.7294 71.9128 143.6485 0.0000 25.4697 0.0000
# 4 0.0000 0.0000 0.0000 34.7731 0.0000 3.8713
# 5 10.7614 7.9573 25.4697 0.0000 27.5109 0.0000
# 6 0.0000 0.0000 0.0000 3.8713 0.0000 24.5093
#
#
#
# Elastic Compliance Matrix: (Units=1/GPa)
#
#
# Indices 1 2 3 4 5 6 
#
# 1 0.020446 -0.011420 -0.005230 0.000000 0.000148 0.000000
# 2 -0.011420 0.049424 -0.020219 0.000000 0.008890 0.000000
# 3 -0.005230 -0.020219 0.022106 0.000000 -0.012572 0.000000
# 4 0.000000 0.000000 0.000000 0.029273 0.000000 -0.004624
# 5 0.000148 0.008890 -0.012572 0.000000 0.045359 0.000000
# 6 0.000000 0.000000 0.000000 -0.004624 0.000000 0.041531
#
#
# Mechanical properties :
#
#
# Convention : Reuss Voigt Hill
#
# Bulk Modulus (GPa) = 54.83086 78.06872 66.44979
# Shear Modulus (GPa) = 17.36379 24.07539 20.71959
#
# Velocity S-wave (km/s) = 3.25172 3.82894 3.55207
# Velocity P-wave (km/s) = 6.89113 8.19071 7.56886
#
# Compressibility (1/GPa) = 0.01823790
#
# Stress axis : x y z
#
# Youngs Moduli (GPa) = 48.91005 20.23316 45.23641
#
# Poissons Ratio (x) = 0.23106 0.23660
# Poissons Ratio (y) = 0.55854 0.91463
# Poissons Ratio (z) = 0.25581 0.40909
#
# Static dielectric constant tensor:
#      x y z
#    x 1.537220 0.000000 0.009150 
#    y 0.000000 1.542080 0.000000 
#    z 0.009150 0.000000 1.530790 
# 
# From -- ./inp_files/33408.got.cif
#   From: 2010.05.17/outbox.cif.g08.bks.cpg/sg11_17_cif.got.tgz:33408.got - 2010.06.03 12:22:45.
