data_PCOD9156510
_publ_section_title
;
Structure prediction by ZEFSAII (Michael W. Deem and Ramdas Pophale) SiO2 
 PCOD9156510
Probable space group: P 21/M
;
_chemical_formula_sum "Si O2"
_cell_formula_units_Z 28
_cell_length_a 13.788973
_cell_length_b 8.848121
_cell_length_c 14.981555
_cell_angle_alpha 90.000000
_cell_angle_beta 104.329902
_cell_angle_gamma 90.000000
_cell_volume 1770.976746
_symmetry_space_group_name_H-M "P 21/M"
_symmetry_group_IT_number 11
_symmetry_cell_setting 'monoclinic'
loop_
_space_group_symop_operation_xyz
x,y,z
-x,1/2+y,-z
-x,-y,-z
x,1/2-y,z
loop_
_atom_site_type_symbol
_atom_site_label
_atom_site_fract_x
_atom_site_fract_y
_atom_site_fract_z
Si Si1 0.634162 0.068760 0.221218
Si Si2 0.732401 0.433171 0.068713
Si Si3 0.638182 0.930372 0.606051
Si Si4 0.890021 0.930340 0.968678
Si Si5 0.593837 0.067759 0.409016
Si Si6 0.750268 0.425986 0.791623
Si Si7 0.568445 0.074761 0.890611
O O1 0.638071 0.250000 0.225009
O O2 0.717040 0.020348 0.167850
O O3 0.638326 0.015283 0.324444
O O4 0.526662 0.021889 0.157653
O O5 0.742926 0.250000 0.064730
O O6 0.822114 0.508748 0.035086
O O7 0.629600 0.472328 0.992605
O O8 0.647681 0.750000 0.609474
O O9 0.525197 0.968284 0.614456
O O10 0.642856 0.992592 0.506635
O O11 0.718464 0.003869 0.690321
O O12 0.893707 0.750000 0.971284
O O13 0.835191 0.986592 0.865901
O O14 0.000000 0.000000 0.000000
O O15 0.602456 0.250000 0.417782
O O16 0.777434 0.250000 0.789304
O O17 0.651308 0.434443 0.831409
O O18 0.538149 0.250000 0.893528
#
# Coordination Sequence:
#
# PCOD9156510 Si02
#       7
#     4   4   4   4   4   4   4
#     4  10  18  29  45  65  95 132 168 202 237 281
#     4   9  19  33  47  68  96 127 161 199 242 288
#     4  10  18  29  45  67  95 130 172 209 243 284
#     4  11  22  37  56  76  98 123 156 199 245 294
#     4   9  18  29  42  64  96 134 172 207 242 279
#     4  10  19  32  50  72  99 129 162 202 246 290
#     4   9  17  27  41  64  95 128 162 197 236 282
#
# _framework density 15.810484000000001
#
# number of rings (size 3 to 8) (size 9 to 14) (size 15 to 20)
#    0.000    2.286    1.429    3.429    0.000    4.000 
#    0.000    0.000    0.000    0.000    0.000    1.000 
#    0.000    0.000    0.000    0.000    0.000    0.000 
#
# Total GULP energy -156138.111149 kJ/mol
# GULP energy per Si atom -5576.361112 kJ/mol
# Density = 1.577450 g / cm^3
# Si number density = 15.810484 Si / 1000 Ang^3
#
#
#
# Elastic Constant Matrix: (Units=GPa)
#
#
# Indices 1 2 3 4 5 6 
#
# 1 63.2510 34.3841 64.8629 0.0000 -0.4921 0.0000
# 2 34.3841 52.6805 54.5846 0.0000 -0.8093 0.0000
# 3 64.8629 54.5846 145.4491 0.0000 -17.4661 0.0000
# 4 0.0000 0.0000 0.0000 25.7786 0.0000 3.3576
# 5 -0.4921 -0.8093 -17.4661 0.0000 20.7241 0.0000
# 6 0.0000 0.0000 0.0000 3.3576 0.0000 19.7570
#
#
#
# Elastic Compliance Matrix: (Units=1/GPa)
#
#
# Indices 1 2 3 4 5 6 
#
# 1 0.033931 -0.008690 -0.013145 0.000000 -0.010612 0.000000
# 2 -0.008690 0.035095 -0.010186 0.000000 -0.007421 0.000000
# 3 -0.013145 -0.010186 0.018330 0.000000 0.014738 0.000000
# 4 0.000000 0.000000 0.000000 0.039670 0.000000 -0.006742
# 5 -0.010612 -0.007421 0.014738 0.000000 0.060133 0.000000
# 6 0.000000 0.000000 0.000000 -0.006742 0.000000 0.051761
#
#
# Mechanical properties :
#
#
# Convention : Reuss Voigt Hill
#
# Bulk Modulus (GPa) = 42.89313 63.22709 53.06011
# Shear Modulus (GPa) = 16.09106 20.42187 18.25647
#
# Velocity S-wave (km/s) = 3.19367 3.59788 3.40178
# Velocity P-wave (km/s) = 6.38654 7.57212 7.00446
#
# Compressibility (1/GPa) = 0.02331376
#
# Stress axis : x y z
#
# Youngs Moduli (GPa) = 29.47159 28.49443 54.55603
#
# Poissons Ratio (x) = 0.24761 0.71713
# Poissons Ratio (y) = 0.25610 0.55573
# Poissons Ratio (z) = 0.38740 0.29026
#
# Static dielectric constant tensor:
#      x y z
#    x 1.508460 0.000000 -0.029990 
#    y 0.000000 1.527120 0.000000 
#    z -0.029990 0.000000 1.541920 
# 
# From -- ./inp_files/37427.got.cif
#   From: 2010.05.17/outbox.cif.g08.bks.cpg/sg11_19_cif.got.tgz:37427.got - 2010.06.03 12:22:45.
