data_PCOD9156288
_publ_section_title
;
Structure prediction by ZEFSAII (Michael W. Deem and Ramdas Pophale) SiO2 
 PCOD9156288
Probable space group: P 21/M
;
_chemical_formula_sum "Si O2"
_cell_formula_units_Z 28
_cell_length_a 16.328046
_cell_length_b 9.065516
_cell_length_c 18.135838
_cell_angle_alpha 90.000000
_cell_angle_beta 41.775989
_cell_angle_gamma 90.000000
_cell_volume 1788.471569
_symmetry_space_group_name_H-M "P 21/M"
_symmetry_group_IT_number 11
_symmetry_cell_setting 'monoclinic'
loop_
_space_group_symop_operation_xyz
x,y,z
-x,1/2+y,-z
-x,-y,-z
x,1/2-y,z
loop_
_atom_site_type_symbol
_atom_site_label
_atom_site_fract_x
_atom_site_fract_y
_atom_site_fract_z
Si Si1 0.368336 0.074811 0.597001
Si Si2 0.079808 0.924755 0.053565
Si Si3 0.164962 0.580780 0.451174
Si Si4 0.172909 0.574891 0.830118
Si Si5 0.078232 0.072608 0.202953
Si Si6 0.867713 0.920079 0.672763
Si Si7 0.182492 0.075955 0.587339
O O1 0.379583 0.250000 0.601828
O O2 0.288302 0.053056 0.576354
O O3 0.500000 0.000000 0.500000
O O4 0.290529 0.999591 0.714477
O O5 0.062093 0.750000 0.077317
O O6 0.128797 0.001343 0.094430
O O7 0.162524 0.945256 0.925250
O O8 0.948537 0.998666 0.122405
O O9 0.203681 0.750000 0.432028
O O10 0.189453 0.517110 0.353602
O O11 0.216352 0.484097 0.483728
O O12 0.016133 0.576668 0.561424
O O13 0.169761 0.750000 0.816742
O O14 0.074057 0.250000 0.201309
O O15 0.148854 0.032573 0.231275
O O16 0.939754 0.010405 0.305157
O O17 0.829298 0.750000 0.690252
O O18 0.154211 0.250000 0.602423
#
# Coordination Sequence:
#
# PCOD9156288 Si02
#       7
#     4   4   4   4   4   4   4
#     4  11  23  36  51  69  91 121 158 198 239 278
#     4  10  19  30  46  69  94 122 154 190 232 277
#     4   9  16  25  39  58  81 114 150 183 223 267
#     4  10  20  33  49  67  91 121 155 194 233 275
#     4  10  18  27  43  65  90 122 154 187 225 270
#     4   8  15  25  36  56  85 116 149 181 219 264
#     4  10  19  30  44  62  86 117 153 190 229 275
#
# _framework density 15.655825999999999
#
# number of rings (size 3 to 8) (size 9 to 14) (size 15 to 20)
#    0.000    2.286    1.429    3.429    0.000    7.429 
#    0.000    0.000    0.000    0.000    0.000    0.000 
#    0.000    1.143    0.000    3.714    0.000    4.857 
#
# Total GULP energy -156083.739905 kJ/mol
# GULP energy per Si atom -5574.419282 kJ/mol
# Density = 1.562019 g / cm^3
# Si number density = 15.655826 Si / 1000 Ang^3
#
#
#
# Elastic Constant Matrix: (Units=GPa)
#
#
# Indices 1 2 3 4 5 6 
#
# 1 65.3663 55.2830 45.2930 0.0000 32.9503 0.0000
# 2 55.2830 98.6835 53.5264 0.0000 20.6617 0.0000
# 3 45.2930 53.5264 83.3042 0.0000 18.0312 0.0000
# 4 0.0000 0.0000 0.0000 22.9657 0.0000 8.4862
# 5 32.9503 20.6617 18.0312 0.0000 30.9848 0.0000
# 6 0.0000 0.0000 0.0000 8.4862 0.0000 26.1565
#
#
#
# Elastic Compliance Matrix: (Units=1/GPa)
#
#
# Indices 1 2 3 4 5 6 
#
# 1 0.064870 -0.019513 -0.012147 0.000000 -0.048905 0.000000
# 2 -0.019513 0.022196 -0.005652 0.000000 0.009239 0.000000
# 3 -0.012147 -0.005652 0.021313 0.000000 0.004284 0.000000
# 4 0.000000 0.000000 0.000000 0.049475 0.000000 -0.016051
# 5 -0.048905 0.009239 0.004284 0.000000 0.075627 0.000000
# 6 0.000000 0.000000 0.000000 -0.016051 0.000000 0.043439
#
#
# Mechanical properties :
#
#
# Convention : Reuss Voigt Hill
#
# Bulk Modulus (GPa) = 29.62522 61.72877 45.67699
# Shear Modulus (GPa) = 13.78180 22.23816 18.00998
#
# Velocity S-wave (km/s) = 2.97020 3.77296 3.39539
# Velocity P-wave (km/s) = 5.54316 7.64817 6.67912
#
# Compressibility (1/GPa) = 0.03375503
#
# Stress axis : x y z
#
# Youngs Moduli (GPa) = 15.41536 45.05308 46.91871
#
# Poissons Ratio (x) = 0.87910 0.56994
# Poissons Ratio (y) = 0.30079 0.26521
# Poissons Ratio (z) = 0.18726 0.25466
#
# Static dielectric constant tensor:
#      x y z
#    x 1.526210 0.000000 0.042970 
#    y 0.000000 1.523810 0.000000 
#    z 0.042970 0.000000 1.514650 
# 
# From -- ./inp_files/42617.got.cif
#   From: 2010.05.17/outbox.cif.g08.bks.cpg/sg11_22_cif.got.tgz:42617.got - 2010.06.03 12:22:45.
