data_PCOD9156616
_publ_section_title
;
Structure prediction by ZEFSAII (Michael W. Deem and Ramdas Pophale) SiO2 
 PCOD9156616
Probable space group: P 21/M
;
_chemical_formula_sum "Si O2"
_cell_formula_units_Z 32
_cell_length_a 22.317096
_cell_length_b 8.557809
_cell_length_c 17.464663
_cell_angle_alpha 90.000000
_cell_angle_beta 32.562135
_cell_angle_gamma 90.000000
_cell_volume 1795.210601
_symmetry_space_group_name_H-M "P 21/M"
_symmetry_group_IT_number 11
_symmetry_cell_setting 'monoclinic'
loop_
_space_group_symop_operation_xyz
x,y,z
-x,1/2+y,-z
-x,-y,-z
x,1/2-y,z
loop_
_atom_site_type_symbol
_atom_site_label
_atom_site_fract_x
_atom_site_fract_y
_atom_site_fract_z
Si Si1 0.967454 0.938279 0.952482
Si Si2 0.394529 0.564026 0.869250
Si Si3 0.642683 0.561528 0.642361
Si Si4 0.767735 0.936678 0.823892
Si Si5 0.877039 0.063817 0.356726
Si Si6 0.060623 0.934949 0.254891
Si Si7 0.380548 0.061485 0.156193
Si Si8 0.778102 0.935539 0.050443
O O1 0.967833 0.750000 0.953508
O O2 0.055607 0.987303 0.791935
O O3 0.844846 0.987061 0.054216
O O4 0.000000 0.000000 0.000000
O O5 0.386047 0.750000 0.890451
O O6 0.523403 0.518763 0.735142
O O7 0.334221 0.518984 0.855096
O O8 0.324974 0.482904 0.012485
O O9 0.653300 0.750000 0.627369
O O10 0.749415 0.484791 0.489196
O O11 0.640191 0.513674 0.734294
O O12 0.781435 0.750000 0.809452
O O13 0.715986 0.988030 0.798742
O O14 0.883424 0.014557 0.725663
O O15 0.888678 0.250000 0.351454
O O16 0.936029 0.984056 0.366821
O O17 0.073892 0.750000 0.230931
O O18 0.135213 0.025265 0.111351
O O19 0.384873 0.250000 0.149603
O O20 0.500000 0.000000 0.000000
O O21 0.760284 0.750000 0.072208
#
# Coordination Sequence:
#
# PCOD9156616 Si02
#       8
#     4   4   4   4   4   4   4   4
#     4   9  19  34  55  82 107 130 159 202 248 298
#     4  10  18  29  48  73 102 134 172 215 253 294
#     4  10  21  35  50  73 104 137 174 215 256 303
#     4  10  18  29  48  72  98 131 171 216 263 303
#     4  10  21  37  54  76 104 133 169 207 249 307
#     4  10  18  30  50  72  97 131 168 211 258 301
#     4  10  20  33  49  71 102 135 173 220 262 303
#     4   9  17  30  48  75 107 132 165 207 246 294
#
# _framework density 17.825206000000001
#
# number of rings (size 3 to 8) (size 9 to 14) (size 15 to 20)
#    0.000    2.250    1.250    4.875    0.000    5.000 
#    0.000    0.625    0.000    0.750    0.000    0.000 
#    0.000    0.000    0.000    0.000    0.000    0.000 
#
# Total GULP energy -178434.114266 kJ/mol
# GULP energy per Si atom -5576.066071 kJ/mol
# Density = 1.778464 g / cm^3
# Si number density = 17.825206 Si / 1000 Ang^3
#
#
#
# Elastic Constant Matrix: (Units=GPa)
#
#
# Indices 1 2 3 4 5 6 
#
# 1 151.6337 13.5217 40.5128 0.0000 -15.5929 0.0000
# 2 13.5217 14.1610 9.9025 0.0000 -3.1557 0.0000
# 3 40.5128 9.9025 54.9610 0.0000 -13.7830 0.0000
# 4 0.0000 0.0000 0.0000 20.8281 0.0000 -8.2863
# 5 -15.5929 -3.1557 -13.7830 0.0000 22.7550 0.0000
# 6 0.0000 0.0000 0.0000 -8.2863 0.0000 27.9050
#
#
#
# Elastic Compliance Matrix: (Units=1/GPa)
#
#
# Indices 1 2 3 4 5 6 
#
# 1 0.008526 -0.004164 -0.004969 0.000000 0.002255 0.000000
# 2 -0.004164 0.082983 -0.011451 0.000000 0.001719 0.000000
# 3 -0.004969 -0.011451 0.026728 0.000000 0.011197 0.000000
# 4 0.000000 0.000000 0.000000 0.054444 0.000000 0.016167
# 5 0.002255 0.001719 0.011197 0.000000 0.052512 0.000000
# 6 0.000000 0.000000 0.000000 0.016167 0.000000 0.040637
#
#
# Mechanical properties :
#
#
# Convention : Reuss Voigt Hill
#
# Bulk Modulus (GPa) = 12.97523 38.73661 25.85592
# Shear Modulus (GPa) = 15.02918 24.75221 19.89069
#
# Velocity S-wave (km/s) = 2.90684 3.73044 3.34409
# Velocity P-wave (km/s) = 4.30828 6.35087 5.42654
#
# Compressibility (1/GPa) = 0.07706993
#
# Stress axis : x y z
#
# Youngs Moduli (GPa) = 117.29500 12.05068 37.41359
#
# Poissons Ratio (x) = 0.05017 0.18589
# Poissons Ratio (y) = 0.48837 0.42843
# Poissons Ratio (z) = 0.58279 0.13799
#
# Static dielectric constant tensor:
#      x y z
#    x 1.653860 0.000000 -0.019360 
#    y 0.000000 1.603490 0.000000 
#    z -0.019360 0.000000 1.592820 
# 
# From -- ./inp_files/61780.got.cif
#   From: 2010.05.17/outbox.cif.g08.bks.cpg/sg11_31_cif.got.tgz:61780.got - 2010.06.03 12:22:45.
