data_PCOD9156472
_publ_section_title
;
Structure prediction by ZEFSAII (Michael W. Deem and Ramdas Pophale) SiO2 
 PCOD9156472
Probable space group: P 21/M
;
_chemical_formula_sum "Si O2"
_cell_formula_units_Z 32
_cell_length_a 17.955229
_cell_length_b 13.253230
_cell_length_c 13.974689
_cell_angle_alpha 90.000000
_cell_angle_beta 148.088514
_cell_angle_gamma 90.000000
_cell_volume 1757.879051
_symmetry_space_group_name_H-M "P 21/M"
_symmetry_group_IT_number 11
_symmetry_cell_setting 'monoclinic'
loop_
_space_group_symop_operation_xyz
x,y,z
-x,1/2+y,-z
-x,-y,-z
x,1/2-y,z
loop_
_atom_site_type_symbol
_atom_site_label
_atom_site_fract_x
_atom_site_fract_y
_atom_site_fract_z
Si Si1 0.783905 0.372280 0.149015
Si Si2 0.539929 0.132269 0.742814
Si Si3 0.924311 0.632931 0.602197
Si Si4 0.752589 0.502870 0.749082
Si Si5 0.372246 0.455989 0.724589
Si Si6 0.987290 0.632529 0.895525
Si Si7 0.500647 0.632420 0.530342
Si Si8 0.583749 0.366079 0.098998
O O1 0.787288 0.250000 0.152970
O O2 0.707359 0.403894 0.162553
O O3 0.942622 0.405874 0.311679
O O4 0.687688 0.399556 0.952328
O O5 0.518301 0.250000 0.744692
O O6 0.424102 0.071270 0.675446
O O7 0.530017 0.127765 0.618219
O O8 0.890793 0.750000 0.540411
O O9 0.791553 0.562373 0.446448
O O10 0.969513 0.633876 0.762355
O O11 0.849967 0.576730 0.790706
O O12 0.651135 0.575143 0.703759
O O13 0.632570 0.428997 0.572244
O O14 0.870329 0.429258 0.924034
O O15 0.419579 0.565346 0.811632
O O16 0.448526 0.381954 0.883882
O O17 0.995926 0.750000 0.937369
O O18 0.506094 0.750000 0.564023
O O19 0.604056 0.250000 0.143620
#
# Coordination Sequence:
#
# PCOD9156472 Si02
#       8
#     4   4   4   4   4   4   4   4
#     4   8  15  27  44  68  96 122 148 184 231 279
#     4   9  16  29  49  72  96 119 150 196 246 285
#     4  10  18  29  49  75  95 113 150 201 244 279
#     4  10  20  31  49  75  99 128 165 196 247 313
#     4  10  18  28  49  73  93 121 157 195 234 278
#     4  10  20  34  50  71 102 133 160 203 256 297
#     4  10  19  32  51  74 100 128 162 210 255 289
#     4   9  18  32  46  65  97 130 155 185 232 284
#
# _framework density 18.203755999999998
#
# number of rings (size 3 to 8) (size 9 to 14) (size 15 to 20)
#    0.000    2.500    0.000    4.125    0.000    4.500 
#    0.000    0.000    0.000   15.000    0.000    0.000 
#    0.000    0.000    0.000    0.000    0.000    0.000 
#
# Total GULP energy -178268.612598 kJ/mol
# GULP energy per Si atom -5570.894144 kJ/mol
# Density = 1.816232 g / cm^3
# Si number density = 18.203756 Si / 1000 Ang^3
#
#
#
# Elastic Constant Matrix: (Units=GPa)
#
#
# Indices 1 2 3 4 5 6 
#
# 1 40.1336 20.8295 21.7105 0.0000 13.5674 0.0000
# 2 20.8295 94.8740 21.7259 0.0000 6.0493 0.0000
# 3 21.7105 21.7259 59.8594 0.0000 27.0822 0.0000
# 4 0.0000 0.0000 0.0000 13.6832 0.0000 7.9647
# 5 13.5674 6.0493 27.0822 0.0000 32.0772 0.0000
# 6 0.0000 0.0000 0.0000 7.9647 0.0000 16.9541
#
#
#
# Elastic Compliance Matrix: (Units=1/GPa)
#
#
# Indices 1 2 3 4 5 6 
#
# 1 0.034028 -0.005390 -0.007012 0.000000 -0.007456 0.000000
# 2 -0.005390 0.012445 -0.004097 0.000000 0.003391 0.000000
# 3 -0.007012 -0.004097 0.030815 0.000000 -0.022278 0.000000
# 4 0.000000 0.000000 0.000000 0.100589 0.000000 -0.047255
# 5 -0.007456 0.003391 -0.022278 0.000000 0.052498 0.000000
# 6 0.000000 0.000000 0.000000 -0.047255 0.000000 0.081182
#
#
# Mechanical properties :
#
#
# Convention : Reuss Voigt Hill
#
# Bulk Modulus (GPa) = 22.57761 35.93321 29.25541
# Shear Modulus (GPa) = 13.91523 21.24962 17.58242
#
# Velocity S-wave (km/s) = 2.76781 3.42031 3.11121
# Velocity P-wave (km/s) = 4.75857 5.94814 5.38629
#
# Compressibility (1/GPa) = 0.04429167
#
# Stress axis : x y z
#
# Youngs Moduli (GPa) = 29.38772 80.35059 32.45129
#
# Poissons Ratio (x) = 0.43306 0.22756
# Poissons Ratio (y) = 0.15839 0.13294
# Poissons Ratio (z) = 0.20608 0.32917
#
# Static dielectric constant tensor:
#      x y z
#    x 1.636690 0.000000 0.023060 
#    y 0.000000 1.647150 0.000000 
#    z 0.023060 0.000000 1.635810 
# 
# From -- ./inp_files/53727.got.cif
#   From: 2010.05.17/outbox.cif.g08.bks.cpg/sg11_27_cif.got.tgz:53727.got - 2010.06.03 12:22:45.
