data_PCOD9156792
_publ_section_title
;
Structure prediction by ZEFSAII (Michael W. Deem and Ramdas Pophale) SiO2 
 PCOD9156792
Probable space group: P 21/M
;
_chemical_formula_sum "Si O2"
_cell_formula_units_Z 20
_cell_length_a 16.625612
_cell_length_b 8.564864
_cell_length_c 28.489957
_cell_angle_alpha 90.000000
_cell_angle_beta 163.743433
_cell_angle_gamma 90.000000
_cell_volume 1135.673231
_symmetry_space_group_name_H-M "P 21/M"
_symmetry_group_IT_number 11
_symmetry_cell_setting 'monoclinic'
loop_
_space_group_symop_operation_xyz
x,y,z
-x,1/2+y,-z
-x,-y,-z
x,1/2-y,z
loop_
_atom_site_type_symbol
_atom_site_label
_atom_site_fract_x
_atom_site_fract_y
_atom_site_fract_z
Si Si1 0.410024 0.061570 0.262311
Si Si2 0.190861 0.438401 0.039296
Si Si3 0.981701 0.437701 0.636634
Si Si4 0.411006 0.062282 0.060990
Si Si5 0.194171 0.936330 0.847735
O O1 0.404214 0.250000 0.259974
O O2 0.704952 0.011340 0.451880
O O3 0.372407 0.011625 0.186912
O O4 0.130554 0.999979 0.132841
O O5 0.182884 0.250000 0.034732
O O6 0.323390 0.488580 0.064084
O O7 0.994804 0.250000 0.645358
O O8 0.274267 0.499637 0.776735
O O9 0.972962 0.500771 0.685115
O O10 0.416668 0.250000 0.061724
O O11 0.186495 0.999809 0.896300
O O12 0.196453 0.750000 0.848976
O O13 0.500000 0.000000 0.000000
#
# Coordination Sequence:
#
# PCOD9156792 Si02
#       5
#     4   4   4   4   4
#     4   9  19  35  53  73  99 131 165 202 245 292
#     4   9  19  35  53  73  99 131 165 202 245 292
#     4  10  19  32  51  75 102 130 163 202 244 290
#     4  10  19  32  51  75 102 130 163 202 244 290
#     4  10  18  30  49  72  99 130 164 200 244 292
#
# _framework density 17.610700000000001
#
# number of rings (size 3 to 8) (size 9 to 14) (size 15 to 20)
#    0.000    2.400    0.000    5.400    0.000    4.000 
#    0.000    1.000    0.000    0.000    0.000    0.000 
#    0.000    0.000    0.000    0.000    0.000    0.000 
#
# Total GULP energy -111511.389817 kJ/mol
# GULP energy per Si atom -5575.569491 kJ/mol
# Density = 1.757062 g / cm^3
# Si number density = 17.610700 Si / 1000 Ang^3
#
#
#
# Elastic Constant Matrix: (Units=GPa)
#
#
# Indices 1 2 3 4 5 6 
#
# 1 75.6291 28.9411 126.0373 0.0000 -27.8277 0.0000
# 2 28.9411 60.1119 36.4986 0.0000 -10.9583 0.0000
# 3 126.0373 36.4986 122.6793 0.0000 -32.3988 0.0000
# 4 0.0000 0.0000 0.0000 20.1051 0.0000 5.0061
# 5 -27.8277 -10.9583 -32.3988 0.0000 17.3960 0.0000
# 6 0.0000 0.0000 0.0000 5.0061 0.0000 19.7058
#
#
#
# Elastic Compliance Matrix: (Units=1/GPa)
#
#
# Indices 1 2 3 4 5 6 
#
# 1 -0.017109 -0.002700 0.021064 0.000000 0.010160 0.000000
# 2 -0.002700 0.019959 -0.001937 0.000000 0.004646 0.000000
# 3 0.021064 -0.001937 -0.008533 0.000000 0.016581 0.000000
# 4 0.000000 0.000000 0.000000 0.053097 0.000000 -0.013489
# 5 0.010160 0.004646 0.016581 0.000000 0.107546 0.000000
# 6 0.000000 0.000000 0.000000 -0.013489 0.000000 0.054173
#
#
# Mechanical properties :
#
#
# Convention : Reuss Voigt Hill
#
# Bulk Modulus (GPa) = 36.80601 71.26381 54.03491
# Shear Modulus (GPa) = 26.97798 15.90427 21.44112
#
# Velocity S-wave (km/s) = 3.91821 3.00843 3.49306
# Velocity P-wave (km/s) = 6.43545 7.25407 6.85699
#
# Compressibility (1/GPa) = 0.02716947
#
# Stress axis : x y z
#
# Youngs Moduli (GPa) = -58.44985 50.10362 -117.18545
#
# Poissons Ratio (x) = 0.13528 2.46835
# Poissons Ratio (y) = -0.15782 -0.22699
# Poissons Ratio (z) = 1.23116 0.09705
#
# Static dielectric constant tensor:
#      x y z
#    x 1.683640 0.000000 0.034030 
#    y 0.000000 1.594110 0.000000 
#    z 0.034030 0.000000 1.676900 
# 
# From -- ./inp_files/20227.got.cif
#   From: 2010.05.17/outbox.cif.g08.bks.cpg/sg11_11_cif.got.tgz:20227.got - 2010.06.03 12:22:45.
