data_PCOD9156078
_publ_section_title
;
Structure prediction by ZEFSAII (Michael W. Deem and Ramdas Pophale) SiO2 
 PCOD9156078
Probable space group: P 21/M
;
_chemical_formula_sum "Si O2"
_cell_formula_units_Z 28
_cell_length_a 8.708750
_cell_length_b 16.814006
_cell_length_c 10.897407
_cell_angle_alpha 90.000000
_cell_angle_beta 129.008123
_cell_angle_gamma 90.000000
_cell_volume 1239.946425
_symmetry_space_group_name_H-M "P 21/M"
_symmetry_group_IT_number 11
_symmetry_cell_setting 'monoclinic'
loop_
_space_group_symop_operation_xyz
x,y,z
-x,1/2+y,-z
-x,-y,-z
x,1/2-y,z
loop_
_atom_site_type_symbol
_atom_site_label
_atom_site_fract_x
_atom_site_fract_y
_atom_site_fract_z
Si Si1 0.191291 0.545143 0.950543
Si Si2 0.020488 0.164766 0.993322
Si Si3 0.951703 0.159600 0.675930
Si Si4 0.279869 0.657459 0.780152
Si Si5 0.399857 0.419667 0.223662
Si Si6 0.243410 0.498951 0.380150
Si Si7 0.902108 0.913910 0.479167
O O1 0.303253 0.601502 0.910904
O O2 0.984310 0.517735 0.783926
O O3 0.318542 0.474993 0.071830
O O4 0.123172 0.596940 0.032367
O O5 0.943422 0.250000 0.995629
O O6 0.036346 0.164079 0.855317
O O7 0.233651 0.147791 0.156930
O O8 0.888277 0.250000 0.610620
O O9 0.115287 0.127678 0.661578
O O10 0.779389 0.092436 0.597729
O O11 0.323498 0.750000 0.822870
O O12 0.406967 0.621008 0.733189
O O13 0.053506 0.643780 0.625630
O O14 0.385747 0.470652 0.341872
O O15 0.264074 0.440675 0.508784
O O16 0.000000 0.000000 0.500000
#
# Coordination Sequence:
#
# PCOD9156078 Si02
#       7
#     4   4   4   4   4   4   4
#     4  10  18  34  53  76 111 144 182 215 263 329
#     4  10  18  30  55  83 106 138 180 224 269 317
#     4  10  17  30  53  79 104 133 180 231 263 307
#     4  11  23  36  53  80 112 144 177 227 281 322
#     4  11  19  34  54  81 115 140 175 223 278 329
#     4   9  17  34  56  79 102 143 185 221 257 319
#     4   9  20  37  58  77 101 140 188 222 262 319
#
# _framework density 22.581621999999999
#
# number of rings (size 3 to 8) (size 9 to 14) (size 15 to 20)
#    0.000    2.000    2.857    2.571    0.000    0.000 
#    0.000    5.000    0.000    0.000    0.000    7.000 
#    0.000    0.000    0.000    0.000    0.000    0.000 
#
# Total GULP energy -156282.627508 kJ/mol
# GULP energy per Si atom -5581.522411 kJ/mol
# Density = 2.253023 g / cm^3
# Si number density = 22.581622 Si / 1000 Ang^3
#
#
#
# Elastic Constant Matrix: (Units=GPa)
#
#
# Indices 1 2 3 4 5 6 
#
# 1 122.1935 46.6034 17.0114 0.0000 -20.4677 0.0000
# 2 46.6034 152.7587 17.1264 0.0000 -11.2138 0.0000
# 3 17.0114 17.1264 33.7890 0.0000 -26.0467 0.0000
# 4 0.0000 0.0000 0.0000 27.7140 0.0000 -3.4751
# 5 -20.4677 -11.2138 -26.0467 0.0000 33.0695 0.0000
# 6 0.0000 0.0000 0.0000 -3.4751 0.0000 23.2564
#
#
#
# Elastic Compliance Matrix: (Units=1/GPa)
#
#
# Indices 1 2 3 4 5 6 
#
# 1 0.010119 -0.002752 0.001041 0.000000 0.006149 0.000000
# 2 -0.002752 0.007704 -0.004629 0.000000 -0.002737 0.000000
# 3 0.001041 -0.004629 0.078160 0.000000 0.060636 0.000000
# 4 0.000000 0.000000 0.000000 0.036772 0.000000 0.005495
# 5 0.006149 -0.002737 0.060636 0.000000 0.080876 0.000000
# 6 0.000000 0.000000 0.000000 0.005495 0.000000 0.043820
#
#
# Mechanical properties :
#
#
# Convention : Reuss Voigt Hill
#
# Bulk Modulus (GPa) = 12.00457 52.24708 32.12583
# Shear Modulus (GPa) = 16.78423 32.00797 24.39610
#
# Velocity S-wave (km/s) = 2.72925 3.76897 3.29044
# Velocity P-wave (km/s) = 3.90633 6.49056 5.35662
#
# Compressibility (1/GPa) = 0.08330158
#
# Stress axis : x y z
#
# Youngs Moduli (GPa) = 98.82869 129.80282 12.79429
#
# Poissons Ratio (x) = 0.35725 -0.01332
# Poissons Ratio (y) = 0.27200 0.05923
# Poissons Ratio (z) = -0.10289 0.60088
#
# Static dielectric constant tensor:
#      x y z
#    x 1.852920 0.000000 0.002450 
#    y 0.000000 1.845310 0.000000 
#    z 0.002450 0.000000 1.946300 
# 
# From -- ./inp_files/31951.got.cif
#   From: 2010.05.17/outbox.cif.g08.bks.cpg/sg11_16_cif.got.tgz:31951.got - 2010.06.03 12:22:45.
