data_PCOD9156560
_publ_section_title
;
Structure prediction by ZEFSAII (Michael W. Deem and Ramdas Pophale) SiO2 
 PCOD9156560
Probable space group: P 21/M
;
_chemical_formula_sum "Si O2"
_cell_formula_units_Z 32
_cell_length_a 12.925111
_cell_length_b 18.779091
_cell_length_c 8.173775
_cell_angle_alpha 90.000000
_cell_angle_beta 123.125827
_cell_angle_gamma 90.000000
_cell_volume 1661.506577
_symmetry_space_group_name_H-M "P 21/M"
_symmetry_group_IT_number 11
_symmetry_cell_setting 'monoclinic'
loop_
_space_group_symop_operation_xyz
x,y,z
-x,1/2+y,-z
-x,-y,-z
x,1/2-y,z
loop_
_atom_site_type_symbol
_atom_site_label
_atom_site_fract_x
_atom_site_fract_y
_atom_site_fract_z
Si Si1 0.304766 0.545854 0.814705
Si Si2 0.493754 0.465272 0.756876
Si Si3 0.826439 0.978051 0.708403
Si Si4 0.073589 0.671093 0.050580
Si Si5 0.096511 0.975723 0.876021
Si Si6 0.792916 0.671252 0.757521
Si Si7 0.722497 0.122655 0.526039
Si Si8 0.541807 0.611933 0.616725
O O1 0.379950 0.485579 0.778108
O O2 0.181701 0.517606 0.793555
O O3 0.272295 0.609885 0.663036
O O4 0.398154 0.568000 0.039347
O O5 0.542858 0.541599 0.731683
O O6 0.466075 0.416697 0.576616
O O7 0.798119 0.896880 0.641905
O O8 0.954545 0.998332 0.732158
O O9 0.729032 0.040224 0.596667
O O10 0.852177 0.980247 0.925119
O O11 0.098824 0.750000 0.004120
O O12 0.164054 0.659232 0.283298
O O13 0.096247 0.605903 0.944687
O O14 0.926688 0.669325 0.962408
O O15 0.784001 0.750000 0.675198
O O16 0.666914 0.656298 0.747263
O O17 0.587528 0.150798 0.456849
#
# Coordination Sequence:
#
# PCOD9156560 Si02
#       8
#     4   4   4   4   4   4   4   4
#     4  10  18  29  46  82 110 132 173 214 270 314
#     4   9  18  30  51  75 108 142 169 216 266 315
#     4   9  17  32  50  75 103 132 170 212 258 310
#     4   9  19  36  54  74 103 139 176 215 263 318
#     4   9  17  30  52  75 101 133 172 217 257 306
#     4  10  19  31  53  79 100 129 174 221 258 301
#     4  10  20  32  54  81 107 137 172 219 265 312
#     4  10  18  33  52  74 102 141 180 211 259 316
#
# _framework density 19.259626999999998
#
# number of rings (size 3 to 8) (size 9 to 14) (size 15 to 20)
#    0.000    2.500    0.000    5.250    0.000    1.000 
#    0.000    0.625    0.000    1.500    0.000   38.500 
#    0.000    0.000    0.000    0.000    0.000    0.000 
#
# Total GULP energy -178170.881934 kJ/mol
# GULP energy per Si atom -5567.840060 kJ/mol
# Density = 1.921579 g / cm^3
# Si number density = 19.259627 Si / 1000 Ang^3
#
#
#
# Elastic Constant Matrix: (Units=GPa)
#
#
# Indices 1 2 3 4 5 6 
#
# 1 126.0100 -6.1568 25.9916 0.0000 8.4217 0.0000
# 2 -6.1568 79.8564 1.6284 0.0000 0.9810 0.0000
# 3 25.9916 1.6284 59.7262 0.0000 8.2630 0.0000
# 4 0.0000 0.0000 0.0000 15.4829 0.0000 4.8456
# 5 8.4217 0.9810 8.2630 0.0000 31.4744 0.0000
# 6 0.0000 0.0000 0.0000 4.8456 0.0000 13.4314
#
#
#
# Elastic Compliance Matrix: (Units=1/GPa)
#
#
# Indices 1 2 3 4 5 6 
#
# 1 0.008825 0.000773 -0.003664 0.000000 -0.001423 0.000000
# 2 0.000773 0.012600 -0.000619 0.000000 -0.000437 0.000000
# 3 -0.003664 -0.000619 0.018903 0.000000 -0.003963 0.000000
# 4 0.000000 0.000000 0.000000 0.072808 0.000000 -0.026266
# 5 -0.001423 -0.000437 -0.003963 0.000000 0.033207 0.000000
# 6 0.000000 0.000000 0.000000 -0.026266 0.000000 0.083928
#
#
# Mechanical properties :
#
#
# Convention : Reuss Voigt Hill
#
# Bulk Modulus (GPa) = 30.02535 34.27989 32.15262
# Shear Modulus (GPa) = 20.12928 28.35302 24.24115
#
# Velocity S-wave (km/s) = 3.23639 3.84102 3.55160
# Velocity P-wave (km/s) = 5.43960 6.12444 5.79215
#
# Compressibility (1/GPa) = 0.03330519
#
# Stress axis : x y z
#
# Youngs Moduli (GPa) = 113.31960 79.36480 52.90195
#
# Poissons Ratio (x) = -0.06131 0.19386
# Poissons Ratio (y) = -0.08755 0.03276
# Poissons Ratio (z) = 0.41525 0.04915
#
# Static dielectric constant tensor:
#      x y z
#    x 1.717820 0.000000 0.051510 
#    y 0.000000 1.702380 0.000000 
#    z 0.051510 0.000000 1.738940 
# 
# From -- ./inp_files/19213.got.cif
#   From: 2010.05.17/outbox.cif.g08.bks.cpg/sg11_10_cif.got.tgz:19213.got - 2010.06.03 12:22:45.
