data_PCOD9156139
_publ_section_title
;
Structure prediction by ZEFSAII (Michael W. Deem and Ramdas Pophale) SiO2 
 PCOD9156139
Probable space group: P 21/M
;
_chemical_formula_sum "Si O2"
_cell_formula_units_Z 28
_cell_length_a 7.150001
_cell_length_b 17.241900
_cell_length_c 13.457741
_cell_angle_alpha 90.000000
_cell_angle_beta 137.765964
_cell_angle_gamma 90.000000
_cell_volume 1115.157995
_symmetry_space_group_name_H-M "P 21/M"
_symmetry_group_IT_number 11
_symmetry_cell_setting 'monoclinic'
loop_
_space_group_symop_operation_xyz
x,y,z
-x,1/2+y,-z
-x,-y,-z
x,1/2-y,z
loop_
_atom_site_type_symbol
_atom_site_label
_atom_site_fract_x
_atom_site_fract_y
_atom_site_fract_z
Si Si1 0.304950 0.160645 0.427981
Si Si2 0.366945 0.560557 0.729195
Si Si3 0.830252 0.336429 0.505804
Si Si4 0.201290 0.659178 0.901533
Si Si5 0.702371 0.903734 0.203709
Si Si6 0.876463 0.659321 0.983981
Si Si7 0.613605 0.416911 0.727756
O O1 0.295311 0.250000 0.460740
O O2 0.511060 0.162490 0.414418
O O3 0.454807 0.106526 0.566370
O O4 0.001870 0.137821 0.268908
O O5 0.140469 0.600407 0.569187
O O6 0.259048 0.495050 0.762397
O O7 0.564707 0.506582 0.735688
O O8 0.567824 0.625548 0.852544
O O9 0.899333 0.250000 0.499374
O O10 0.010454 0.359023 0.672827
O O11 0.269600 0.750000 0.917555
O O12 0.485876 0.613526 0.032574
O O13 0.021131 0.651529 0.932259
O O14 0.545423 0.874758 0.243128
O O15 0.877809 0.750000 0.011749
O O16 0.067838 0.609073 0.134166
#
# Coordination Sequence:
#
# PCOD9156139 Si02
#       7
#     4   4   4   4   4   4   4
#     4  10  20  35  57  85 114 143 186 234 279 331
#     4  10  20  34  56  83 114 145 187 234 277 329
#     4  11  21  36  58  83 112 151 190 226 275 340
#     4   9  17  32  56  82 108 146 191 227 266 334
#     4   9  21  36  59  81 112 145 189 232 276 329
#     4  10  17  32  56  84 111 145 191 233 268 325
#     4   9  21  34  58  87 116 140 183 237 285 319
#
# _framework density 25.108547999999999
#
# number of rings (size 3 to 8) (size 9 to 14) (size 15 to 20)
#    0.857    1.429    1.429    2.143    0.000    2.286 
#    0.000    0.000    3.143    1.714    0.000    0.000 
#    0.000    0.000    0.000    0.000    0.000    0.000 
#
# Total GULP energy -156635.031116 kJ/mol
# GULP energy per Si atom -5594.108254 kJ/mol
# Density = 2.505140 g / cm^3
# Si number density = 25.108548 Si / 1000 Ang^3
#
#
#
# Elastic Constant Matrix: (Units=GPa)
#
#
# Indices 1 2 3 4 5 6 
#
# 1 53.0481 -4.7752 15.1131 0.0000 3.2628 0.0000
# 2 -4.7752 94.4138 19.6013 0.0000 5.4571 0.0000
# 3 15.1131 19.6013 124.0897 0.0000 8.6981 0.0000
# 4 0.0000 0.0000 0.0000 11.0390 0.0000 13.0996
# 5 3.2628 5.4571 8.6981 0.0000 47.3889 0.0000
# 6 0.0000 0.0000 0.0000 13.0996 0.0000 14.6328
#
#
#
# Elastic Compliance Matrix: (Units=1/GPa)
#
#
# Indices 1 2 3 4 5 6 
#
# 1 0.019798 0.001601 -0.002589 0.000000 -0.001072 0.000000
# 2 0.001601 0.011123 -0.001879 0.000000 -0.001046 0.000000
# 3 -0.002589 -0.001879 0.008756 0.000000 -0.001213 0.000000
# 4 0.000000 0.000000 0.000000 -1.453416 0.000000 1.301130
# 5 -0.001072 -0.001046 -0.001213 0.000000 0.021519 0.000000
# 6 0.000000 0.000000 0.000000 1.301130 0.000000 -1.096460
#
#
# Mechanical properties :
#
#
# Convention : Reuss Voigt Hill
#
# Bulk Modulus (GPa) = 29.46053 36.82556 33.14305
# Shear Modulus (GPa) = -2.02296 30.71964 14.34834
#
# Velocity S-wave (km/s) = -0.89857 3.50161 2.39310
# Velocity P-wave (km/s) = 3.26836 5.57196 4.56776
#
# Compressibility (1/GPa) = 0.03394372
#
# Stress axis : x y z
#
# Youngs Moduli (GPa) = 50.50904 89.90265 114.21073
#
# Poissons Ratio (x) = -0.14392 0.29569
# Poissons Ratio (y) = -0.08086 0.21456
# Poissons Ratio (z) = 0.13077 0.16890
#
# Static dielectric constant tensor:
#      x y z
#    x 2.080660 0.000000 -0.032680 
#    y 0.000000 1.906600 0.000000 
#    z -0.032680 0.000000 1.937090 
# 
# From -- ./inp_files/59585.got.cif
#   From: 2010.05.17/outbox.cif.g08.bks.cpg/sg11_30_cif.got.tgz:59585.got - 2010.06.03 12:22:45.
