data_PCOD9156011
_publ_section_title
;
Structure prediction by ZEFSAII (Michael W. Deem and Ramdas Pophale) SiO2 
 PCOD9156011
Probable space group: P 21/M
;
_chemical_formula_sum "Si O2"
_cell_formula_units_Z 28
_cell_length_a 17.435183
_cell_length_b 7.499471
_cell_length_c 15.586302
_cell_angle_alpha 90.000000
_cell_angle_beta 133.596641
_cell_angle_gamma 90.000000
_cell_volume 1475.931213
_symmetry_space_group_name_H-M "P 21/M"
_symmetry_group_IT_number 11
_symmetry_cell_setting 'monoclinic'
loop_
_space_group_symop_operation_xyz
x,y,z
-x,1/2+y,-z
-x,-y,-z
x,1/2-y,z
loop_
_atom_site_type_symbol
_atom_site_label
_atom_site_fract_x
_atom_site_fract_y
_atom_site_fract_z
Si Si1 0.151452 0.963824 0.057148
Si Si2 0.864654 0.035236 0.258441
Si Si3 0.078535 0.037480 0.182637
Si Si4 0.483981 0.464024 0.886941
Si Si5 0.101088 0.031254 0.391835
Si Si6 0.254105 0.461057 0.657233
Si Si7 0.705042 0.031781 0.984171
O O1 0.148741 0.750000 0.047629
O O2 0.245468 0.026320 0.068152
O O3 0.154004 0.004459 0.159846
O O4 0.038326 0.032401 0.933613
O O5 0.865984 0.250000 0.256100
O O6 0.984499 0.975210 0.334082
O O7 0.818162 0.982844 0.314246
O O8 0.785427 0.975727 0.121840
O O9 0.067265 0.250000 0.182030
O O10 0.113634 0.972754 0.302927
O O11 0.481895 0.250000 0.876182
O O12 0.370841 0.534822 0.767553
O O13 0.587065 0.529678 0.915429
O O14 0.500000 0.500000 0.000000
O O15 0.102083 0.250000 0.394270
O O16 0.191173 0.967816 0.526485
O O17 0.267197 0.250000 0.653084
O O18 0.703565 0.250000 0.983844
#
# Coordination Sequence:
#
# PCOD9156011 Si02
#       7
#     4   4   4   4   4   4   4
#     4   9  16  28  46  67  87 111 146 186 221 261
#     4  10  17  29  48  66  89 125 156 177 213 272
#     4   9  16  28  46  66  88 114 143 179 225 271
#     4  10  19  31  47  66  89 119 154 190 222 257
#     4   9  17  30  47  66  92 125 153 177 219 277
#     4  10  20  31  44  67  95 120 151 190 224 257
#     4   9  16  28  47  66  87 118 152 179 216 268
#
# _framework density 18.971074000000002
#
# number of rings (size 3 to 8) (size 9 to 14) (size 15 to 20)
#    0.000    2.571    2.857    0.429    0.000    0.000 
#    0.000    2.857    0.000    0.857    0.000    0.000 
#    0.000    0.000    0.000    0.000    0.000    0.000 
#
# Total GULP energy -156232.832718 kJ/mol
# GULP energy per Si atom -5579.744026 kJ/mol
# Density = 1.892789 g / cm^3
# Si number density = 18.971074 Si / 1000 Ang^3
#
#
#
# Elastic Constant Matrix: (Units=GPa)
#
#
# Indices 1 2 3 4 5 6 
#
# 1 180.8137 0.0379 113.4843 0.0000 -12.1090 0.0000
# 2 0.0379 50.3430 7.1732 0.0000 4.5770 0.0000
# 3 113.4843 7.1732 173.6437 0.0000 -4.8325 0.0000
# 4 0.0000 0.0000 0.0000 5.8062 0.0000 -9.5029
# 5 -12.1090 4.5770 -4.8325 0.0000 19.7591 0.0000
# 6 0.0000 0.0000 0.0000 -9.5029 0.0000 13.1675
#
#
#
# Elastic Compliance Matrix: (Units=1/GPa)
#
#
# Indices 1 2 3 4 5 6 
#
# 1 0.009762 0.000494 -0.006280 0.000000 0.004332 0.000000
# 2 0.000494 0.020482 -0.001301 0.000000 -0.004760 0.000000
# 3 -0.006280 -0.001301 0.009885 0.000000 -0.001129 0.000000
# 4 0.000000 0.000000 0.000000 -0.950531 0.000000 -0.685996
# 5 0.004332 -0.004760 -0.001129 0.000000 0.054091 0.000000
# 6 0.000000 0.000000 0.000000 -0.685996 0.000000 -0.419137
#
#
# Mechanical properties :
#
#
# Convention : Reuss Voigt Hill
#
# Bulk Modulus (GPa) = 38.52937 71.79901 55.16419
# Shear Modulus (GPa) = -3.99163 26.68690 11.34764
#
# Velocity S-wave (km/s) = -1.45211 3.75469 2.44837
# Velocity P-wave (km/s) = 4.18833 7.53164 6.09376
#
# Compressibility (1/GPa) = 0.02595423
#
# Stress axis : x y z
#
# Youngs Moduli (GPa) = 102.43908 48.82450 101.16028
#
# Poissons Ratio (x) = -0.02410 0.63525
# Poissons Ratio (y) = -0.05056 0.13162
# Poissons Ratio (z) = 0.64328 0.06353
#
# Static dielectric constant tensor:
#      x y z
#    x 1.649790 0.000000 0.002300 
#    y 0.000000 1.730720 0.000000 
#    z 0.002300 0.000000 1.647930 
# 
# From -- ./inp_files/34291.got.cif
#   From: 2010.05.17/outbox.cif.g08.bks.cpg/sg11_18_cif.got.tgz:34291.got - 2010.06.03 12:22:45.
