data_PCOD9156319
_publ_section_title
;
Structure prediction by ZEFSAII (Michael W. Deem and Ramdas Pophale) SiO2 
 PCOD9156319
Probable space group: P 21/M
;
_chemical_formula_sum "Si O2"
_cell_formula_units_Z 32
_cell_length_a 17.356565
_cell_length_b 8.177084
_cell_length_c 24.743537
_cell_angle_alpha 90.000000
_cell_angle_beta 29.064852
_cell_angle_gamma 90.000000
_cell_volume 1706.007283
_symmetry_space_group_name_H-M "P 21/M"
_symmetry_group_IT_number 11
_symmetry_cell_setting 'monoclinic'
loop_
_space_group_symop_operation_xyz
x,y,z
-x,1/2+y,-z
-x,-y,-z
x,1/2-y,z
loop_
_atom_site_type_symbol
_atom_site_label
_atom_site_fract_x
_atom_site_fract_y
_atom_site_fract_z
Si Si1 0.229801 0.936988 0.803311
Si Si2 0.471345 0.064538 0.458505
Si Si3 0.514561 0.053475 0.270726
Si Si4 0.241534 0.935745 0.514749
Si Si5 0.374601 0.554715 0.911295
Si Si6 0.987620 0.554256 0.867578
Si Si7 0.977173 0.549362 0.753140
Si Si8 0.610894 0.554900 0.980621
O O1 0.185566 0.750000 0.846290
O O2 0.363714 0.929739 0.674752
O O3 0.330126 0.011793 0.791579
O O4 0.081389 0.014076 0.862332
O O5 0.406952 0.250000 0.497487
O O6 0.500000 0.000000 0.500000
O O7 0.355898 0.946532 0.496737
O O8 0.527842 0.250000 0.265434
O O9 0.525203 0.000922 0.202230
O O10 0.350555 0.012442 0.401346
O O11 0.209653 0.750000 0.518291
O O12 0.080913 0.009284 0.638629
O O13 0.358268 0.750000 0.919246
O O14 0.442679 0.507466 0.927782
O O15 0.198922 0.479515 0.014243
O O16 0.014654 0.750000 0.851544
O O17 0.036391 0.496937 0.776971
O O18 0.984262 0.750000 0.748551
O O19 0.793672 0.499308 0.861024
O O20 0.614110 0.750000 0.980545
O O21 0.500000 0.500000 0.000000
#
# Coordination Sequence:
#
# PCOD9156319 Si02
#       8
#     4   4   4   4   4   4   4   4
#     4   8  15  28  44  61  89 132 174 212 256 295
#     4  10  18  28  41  60  90 128 170 214 258 296
#     4   9  19  34  48  67 100 140 176 210 250 290
#     4  10  18  30  49  71  95 128 170 207 243 293
#     4  10  20  34  51  73 103 135 166 203 249 297
#     4   9  16  29  48  68  94 131 174 215 257 300
#     4   8  16  30  49  74 103 131 157 196 252 303
#     4  10  20  37  60  84 106 126 153 191 243 302
#
# _framework density 18.757245999999999
#
# number of rings (size 3 to 8) (size 9 to 14) (size 15 to 20)
#    0.000    2.750    0.000    3.750    0.000    3.500 
#    0.000   11.875    0.000    0.750    0.000    0.000 
#    0.000    0.000    0.000    0.000    0.000    0.000 
#
# Total GULP energy -178215.950639 kJ/mol
# GULP energy per Si atom -5569.248457 kJ/mol
# Density = 1.871455 g / cm^3
# Si number density = 18.757246 Si / 1000 Ang^3
#
#
#
# Elastic Constant Matrix: (Units=GPa)
#
#
# Indices 1 2 3 4 5 6 
#
# 1 107.9048 12.6511 59.5413 0.0000 24.4187 0.0000
# 2 12.6511 18.1235 4.9940 0.0000 2.0629 0.0000
# 3 59.5413 4.9940 96.2688 0.0000 26.9510 0.0000
# 4 0.0000 0.0000 0.0000 14.5452 0.0000 0.4006
# 5 24.4187 2.0629 26.9510 0.0000 23.1504 0.0000
# 6 0.0000 0.0000 0.0000 0.4006 0.0000 18.1915
#
#
#
# Elastic Compliance Matrix: (Units=1/GPa)
#
#
# Indices 1 2 3 4 5 6 
#
# 1 0.016012 -0.008288 -0.007346 0.000000 -0.007599 0.000000
# 2 -0.008288 0.060356 0.001563 0.000000 0.001545 0.000000
# 3 -0.007346 0.001563 0.018870 0.000000 -0.014358 0.000000
# 4 0.000000 0.000000 0.000000 0.068793 0.000000 -0.001515
# 5 -0.007599 0.001545 -0.014358 0.000000 0.067789 0.000000
# 6 0.000000 0.000000 0.000000 -0.001515 0.000000 0.055004
#
#
# Mechanical properties :
#
#
# Convention : Reuss Voigt Hill
#
# Bulk Modulus (GPa) = 14.90429 41.85221 28.37825
# Shear Modulus (GPa) = 14.82218 20.85146 17.83682
#
# Velocity S-wave (km/s) = 2.81412 3.33776 3.08706
# Velocity P-wave (km/s) = 4.30374 6.10042 5.27908
#
# Compressibility (1/GPa) = 0.06709478
#
# Stress axis : x y z
#
# Youngs Moduli (GPa) = 62.45171 16.56834 52.99493
#
# Poissons Ratio (x) = 0.13732 0.38931
# Poissons Ratio (y) = 0.51761 -0.08282
# Poissons Ratio (z) = 0.45878 -0.02589
#
# Static dielectric constant tensor:
#      x y z
#    x 1.604310 0.000000 0.020150 
#    y 0.000000 1.676110 0.000000 
#    z 0.020150 0.000000 1.679080 
# 
# From -- ./inp_files/69423.got.cif
#   From: 2010.05.17/outbox.cif.g08.bks.cpg/sg11_35_cif.got.tgz:69423.got - 2010.06.03 12:22:45.
