data_PCOD9156524
_publ_section_title
;
Structure prediction by ZEFSAII (Michael W. Deem and Ramdas Pophale) SiO2 
 PCOD9156524
Probable space group: P 21/M
;
_chemical_formula_sum "Si O2"
_cell_formula_units_Z 32
_cell_length_a 22.210721
_cell_length_b 8.296766
_cell_length_c 13.265044
_cell_angle_alpha 90.000000
_cell_angle_beta 127.287794
_cell_angle_gamma 90.000000
_cell_volume 1944.806354
_symmetry_space_group_name_H-M "P 21/M"
_symmetry_group_IT_number 11
_symmetry_cell_setting 'monoclinic'
loop_
_space_group_symop_operation_xyz
x,y,z
-x,1/2+y,-z
-x,-y,-z
x,1/2-y,z
loop_
_atom_site_type_symbol
_atom_site_label
_atom_site_fract_x
_atom_site_fract_y
_atom_site_fract_z
Si Si1 0.837646 0.946676 0.453616
Si Si2 0.319268 0.444711 0.615760
Si Si3 0.417057 0.555502 0.298796
Si Si4 0.413757 0.556467 0.903800
Si Si5 0.591172 0.944714 0.487726
Si Si6 0.002897 0.557170 0.619071
Si Si7 0.676701 0.055929 0.989145
Si Si8 0.835714 0.941944 0.217224
O O1 0.836712 0.750000 0.451600
O O2 0.765167 0.002617 0.442657
O O3 0.829840 0.999306 0.328501
O O4 0.920820 0.995239 0.577658
O O5 0.316961 0.250000 0.609865
O O6 0.374356 0.492637 0.762896
O O7 0.353528 0.502109 0.544624
O O8 0.417400 0.750000 0.296882
O O9 0.389022 0.501262 0.380009
O O10 0.504656 0.501633 0.378009
O O11 0.366438 0.497083 0.154437
O O12 0.412028 0.750000 0.900647
O O13 0.500000 0.500000 0.000000
O O14 0.366349 0.499099 0.953420
O O15 0.591195 0.750000 0.487037
O O16 0.005944 0.750000 0.624730
O O17 0.081984 0.491612 0.740672
O O18 0.000000 0.500000 0.500000
O O19 0.672527 0.250000 0.984772
O O20 0.763969 0.007141 0.084661
O O21 0.832021 0.750000 0.215842
#
# Coordination Sequence:
#
# PCOD9156524 Si02
#       8
#     4   4   4   4   4   4   4   4
#     4   8  15  27  44  66  93 124 154 185 226 276
#     4  10  18  32  50  69  96 125 155 193 235 279
#     4   9  18  33  49  66  91 121 158 200 239 277
#     4  11  22  33  46  67  95 127 160 190 231 284
#     4   9  18  32  51  70  90 120 157 198 239 278
#     4   9  16  27  43  65  93 126 160 190 227 275
#     4  10  20  33  48  68  94 126 159 196 238 280
#     4  10  18  29  45  68  95 126 159 191 232 281
#
# _framework density 16.454080999999999
#
# number of rings (size 3 to 8) (size 9 to 14) (size 15 to 20)
#    0.000    2.500    1.250    2.625    0.000    3.500 
#    0.000    3.125    0.000    0.000    0.000    0.875 
#    0.000    0.000    0.000    0.000    0.000    0.000 
#
# Total GULP energy -178363.454164 kJ/mol
# GULP energy per Si atom -5573.857943 kJ/mol
# Density = 1.641663 g / cm^3
# Si number density = 16.454081 Si / 1000 Ang^3
#
#
#
# Elastic Constant Matrix: (Units=GPa)
#
#
# Indices 1 2 3 4 5 6 
#
# 1 127.4788 7.7093 53.7824 0.0000 5.6819 0.0000
# 2 7.7093 7.4114 6.4388 0.0000 -2.6100 0.0000
# 3 53.7824 6.4388 68.1967 0.0000 -0.3639 0.0000
# 4 0.0000 0.0000 0.0000 22.7311 0.0000 3.5669
# 5 5.6819 -2.6100 -0.3639 0.0000 24.5168 0.0000
# 6 0.0000 0.0000 0.0000 3.5669 0.0000 15.8638
#
#
#
# Elastic Compliance Matrix: (Units=1/GPa)
#
#
# Indices 1 2 3 4 5 6 
#
# 1 0.012197 -0.006084 -0.009064 0.000000 -0.003609 0.000000
# 2 -0.006084 0.156106 -0.009845 0.000000 0.017882 0.000000
# 3 -0.009064 -0.009845 0.022749 0.000000 0.001390 0.000000
# 4 0.000000 0.000000 0.000000 0.045601 0.000000 -0.010253
# 5 -0.003609 0.017882 0.001390 0.000000 0.043549 0.000000
# 6 0.000000 0.000000 0.000000 -0.010253 0.000000 0.065342
#
#
# Mechanical properties :
#
#
# Convention : Reuss Voigt Hill
#
# Bulk Modulus (GPa) = 7.08891 37.66086 22.37489
# Shear Modulus (GPa) = 11.29809 21.63278 16.46543
#
# Velocity S-wave (km/s) = 2.62323 3.62986 3.16680
# Velocity P-wave (km/s) = 3.67325 6.36443 5.19609
#
# Compressibility (1/GPa) = 0.14106548
#
# Stress axis : x y z
#
# Youngs Moduli (GPa) = 81.98546 6.40590 43.95861
#
# Poissons Ratio (x) = 0.03897 0.39844
# Poissons Ratio (y) = 0.49879 0.43279
# Poissons Ratio (z) = 0.74312 0.06307
#
# Static dielectric constant tensor:
#      x y z
#    x 1.575070 0.000000 0.015230 
#    y 0.000000 1.575810 0.000000 
#    z 0.015230 0.000000 1.532850 
# 
# From -- ./inp_files/40665.got.cif
#   From: 2010.05.17/outbox.cif.g08.bks.cpg/sg11_21_cif.got.tgz:40665.got - 2010.06.03 12:22:45.
