data_PCOD9156615
_publ_section_title
;
Structure prediction by ZEFSAII (Michael W. Deem and Ramdas Pophale) SiO2 
 PCOD9156615
Probable space group: P 21/M
;
_chemical_formula_sum "Si O2"
_cell_formula_units_Z 32
_cell_length_a 18.266072
_cell_length_b 8.733150
_cell_length_c 24.572576
_cell_angle_alpha 90.000000
_cell_angle_beta 149.513805
_cell_angle_gamma 90.000000
_cell_volume 1988.648165
_symmetry_space_group_name_H-M "P 21/M"
_symmetry_group_IT_number 11
_symmetry_cell_setting 'monoclinic'
loop_
_space_group_symop_operation_xyz
x,y,z
-x,1/2+y,-z
-x,-y,-z
x,1/2-y,z
loop_
_atom_site_type_symbol
_atom_site_label
_atom_site_fract_x
_atom_site_fract_y
_atom_site_fract_z
Si Si1 0.776932 0.065732 0.593197
Si Si2 0.049776 0.933318 0.973873
Si Si3 0.340685 0.934107 0.676926
Si Si4 0.381399 0.933078 0.196767
Si Si5 0.555175 0.933683 0.643174
Si Si6 0.892583 0.566303 0.558205
Si Si7 0.115537 0.934016 0.616514
Si Si8 0.817319 0.433813 0.742972
O O1 0.786595 0.250000 0.594550
O O2 0.608687 0.023924 0.476905
O O3 0.824330 0.021478 0.684168
O O4 0.867793 0.991127 0.603079
O O5 0.033653 0.750000 0.964887
O O6 0.218607 0.970306 0.074593
O O7 0.948754 0.001504 0.862505
O O8 0.000000 0.000000 0.000000
O O9 0.348017 0.750000 0.678015
O O10 0.269074 0.979517 0.689111
O O11 0.496082 0.004412 0.764780
O O12 0.231551 0.993338 0.559859
O O13 0.393843 0.750000 0.209534
O O14 0.409445 0.005887 0.273936
O O15 0.567061 0.750000 0.650095
O O16 0.670122 0.003891 0.675273
O O17 0.877574 0.750000 0.546210
O O18 0.048060 0.522611 0.631533
O O19 0.111882 0.750000 0.611679
O O20 0.000000 0.000000 0.500000
O O21 0.816215 0.250000 0.745716
#
# Coordination Sequence:
#
# PCOD9156615 Si02
#       8
#     4   4   4   4   4   4   4   4
#     4  10  22  36  50  73 104 137 170 207 249 297
#     4  11  23  38  56  74  97 129 169 215 259 301
#     4  10  18  30  48  71 103 135 166 204 248 300
#     4  11  22  34  51  76 102 131 169 211 252 296
#     4  11  21  34  53  74 101 136 171 205 249 300
#     4  10  18  29  48  72 101 136 170 203 243 294
#     4   8  16  28  43  68  99 132 166 200 241 292
#     4  11  23  38  54  73 100 132 172 215 252 297
#
# _framework density 16.091332000000001
#
# number of rings (size 3 to 8) (size 9 to 14) (size 15 to 20)
#    0.000    1.750    2.500    2.625    0.000    4.000 
#    0.000    0.000    0.000    0.000    0.000    0.875 
#    0.000    0.000    0.000    0.000    0.000    0.000 
#
# Total GULP energy -178537.737389 kJ/mol
# GULP energy per Si atom -5579.304293 kJ/mol
# Density = 1.605471 g / cm^3
# Si number density = 16.091332 Si / 1000 Ang^3
#
#
#
# Elastic Constant Matrix: (Units=GPa)
#
#
# Indices 1 2 3 4 5 6 
#
# 1 176.0671 49.1382 81.2381 0.0000 14.2956 0.0000
# 2 49.1382 40.7981 33.5043 0.0000 1.7374 0.0000
# 3 81.2381 33.5043 71.1709 0.0000 -8.4352 0.0000
# 4 0.0000 0.0000 0.0000 21.9478 0.0000 2.6907
# 5 14.2956 1.7374 -8.4352 0.0000 21.9406 0.0000
# 6 0.0000 0.0000 0.0000 2.6907 0.0000 24.7241
#
#
#
# Elastic Compliance Matrix: (Units=1/GPa)
#
#
# Indices 1 2 3 4 5 6 
#
# 1 0.018119 -0.003376 -0.021437 0.000000 -0.019780 0.000000
# 2 -0.003376 0.043237 -0.017440 0.000000 -0.007929 0.000000
# 3 -0.021437 -0.017440 0.050867 0.000000 0.034904 0.000000
# 4 0.000000 0.000000 0.000000 0.046179 0.000000 -0.005026
# 5 -0.019780 -0.007929 0.034904 0.000000 0.072512 0.000000
# 6 0.000000 0.000000 0.000000 -0.005026 0.000000 0.040993
#
#
# Mechanical properties :
#
#
# Convention : Reuss Voigt Hill
#
# Bulk Modulus (GPa) = 36.07965 68.42191 52.25078
# Shear Modulus (GPa) = 13.67416 21.99953 17.83685
#
# Velocity S-wave (km/s) = 2.91827 3.70153 3.33299
# Velocity P-wave (km/s) = 5.81597 7.80268 6.88140
#
# Compressibility (1/GPa) = 0.02771645
#
# Stress axis : x y z
#
# Youngs Moduli (GPa) = 55.19093 23.12813 19.65919
#
# Poissons Ratio (x) = 0.07809 0.42143
# Poissons Ratio (y) = 0.18634 0.34286
# Poissons Ratio (z) = 1.18312 0.40336
#
# Static dielectric constant tensor:
#      x y z
#    x 1.561310 0.000000 0.019210 
#    y 0.000000 1.551380 0.000000 
#    z 0.019210 0.000000 1.508870 
# 
# From -- ./inp_files/44536.got.cif
#   From: 2010.05.17/outbox.cif.g08.bks.cpg/sg11_23_cif.got.tgz:44536.got - 2010.06.03 12:22:45.
