data_PCOD9156871
_publ_section_title
;
Structure prediction by ZEFSAII (Michael W. Deem and Ramdas Pophale) SiO2 
 PCOD9156871
Probable space group: P 21/M
;
_chemical_formula_sum "Si O2"
_cell_formula_units_Z 32
_cell_length_a 12.802369
_cell_length_b 19.487991
_cell_length_c 8.537421
_cell_angle_alpha 90.000000
_cell_angle_beta 126.241769
_cell_angle_gamma 90.000000
_cell_volume 1717.925748
_symmetry_space_group_name_H-M "P 21/M"
_symmetry_group_IT_number 11
_symmetry_cell_setting 'monoclinic'
loop_
_space_group_symop_operation_xyz
x,y,z
-x,1/2+y,-z
-x,-y,-z
x,1/2-y,z
loop_
_atom_site_type_symbol
_atom_site_label
_atom_site_fract_x
_atom_site_fract_y
_atom_site_fract_z
Si Si1 0.676050 0.958048 0.597432
Si Si2 0.109826 0.580364 0.667157
Si Si3 0.463595 0.903166 0.611057
Si Si4 0.662735 0.327975 0.025987
Si Si5 0.176148 0.061666 0.576837
Si Si6 0.449400 0.078297 0.968563
Si Si7 0.879084 0.039704 0.960784
Si Si8 0.238585 0.673034 0.245257
O O1 0.575791 0.904401 0.579849
O O2 0.776886 0.929697 0.560243
O O3 0.596269 0.019706 0.445093
O O4 0.751932 0.995898 0.804882
O O5 0.218532 0.639001 0.769599
O O6 0.148563 0.519237 0.584280
O O7 0.959500 0.599020 0.506616
O O8 0.111887 0.549984 0.845889
O O9 0.522572 0.893647 0.833557
O O10 0.350270 0.851454 0.462558
O O11 0.637764 0.250000 0.052839
O O12 0.538611 0.376036 0.935060
O O13 0.703578 0.327573 0.880029
O O14 0.299101 0.081254 0.790684
O O15 0.500000 0.000000 0.000000
O O16 0.866335 0.112556 0.860337
O O17 0.000000 0.000000 0.000000
O O18 0.193092 0.750000 0.239424
#
# Coordination Sequence:
#
# PCOD9156871 Si02
#       8
#     4   4   4   4   4   4   4   4
#     4  10  18  30  50  82 106 143 182 243 286 334
#     4  10  20  34  53  82 116 152 183 244 288 349
#     4  10  20  31  53  79 112 145 184 233 294 337
#     4  10  21  39  60  82 112 152 193 234 293 357
#     4  11  20  32  53  83 119 142 192 241 294 332
#     4  12  21  34  56  87 117 150 193 246 284 342
#     4  10  18  31  53  80 110 142 194 237 287 340
#     4   9  20  36  56  80 111 147 189 237 286 349
#
# _framework density 18.627116000000001
#
# number of rings (size 3 to 8) (size 9 to 14) (size 15 to 20)
#    0.000    1.750    3.750    1.500    3.500    0.500 
#    0.000    0.625    0.000    1.500    0.000    0.875 
#    0.000    0.000    0.000    0.000    0.000    0.000 
#
# Total GULP energy -178621.195408 kJ/mol
# GULP energy per Si atom -5581.912356 kJ/mol
# Density = 1.858472 g / cm^3
# Si number density = 18.627116 Si / 1000 Ang^3
#
#
#
# Elastic Constant Matrix: (Units=GPa)
#
#
# Indices 1 2 3 4 5 6 
#
# 1 63.6369 23.3819 14.2204 0.0000 17.6435 0.0000
# 2 23.3819 84.9814 15.3631 0.0000 10.5785 0.0000
# 3 14.2204 15.3631 97.8017 0.0000 18.3527 0.0000
# 4 0.0000 0.0000 0.0000 13.8371 0.0000 2.1795
# 5 17.6435 10.5785 18.3527 0.0000 30.5795 0.0000
# 6 0.0000 0.0000 0.0000 2.1795 0.0000 21.2471
#
#
#
# Elastic Compliance Matrix: (Units=1/GPa)
#
#
# Indices 1 2 3 4 5 6 
#
# 1 0.020100 -0.004226 -0.000402 0.000000 -0.009894 0.000000
# 2 -0.004226 0.013329 -0.001208 0.000000 -0.001448 0.000000
# 3 -0.000402 -0.001208 0.011665 0.000000 -0.006351 0.000000
# 4 0.000000 0.000000 0.000000 0.073456 0.000000 -0.007535
# 5 -0.009894 -0.001448 -0.006351 0.000000 0.042723 0.000000
# 6 0.000000 0.000000 0.000000 -0.007535 0.000000 0.047838
#
#
# Mechanical properties :
#
#
# Convention : Reuss Voigt Hill
#
# Bulk Modulus (GPa) = 29.92062 39.15007 34.53534
# Shear Modulus (GPa) = 21.55899 26.02974 23.79436
#
# Velocity S-wave (km/s) = 3.40575 3.74225 3.57796
# Velocity P-wave (km/s) = 5.61812 6.30365 5.97073
#
# Compressibility (1/GPa) = 0.03342177
#
# Stress axis : x y z
#
# Youngs Moduli (GPa) = 49.75165 75.02685 85.72870
#
# Poissons Ratio (x) = 0.31706 0.03447
# Poissons Ratio (y) = 0.21025 0.10352
# Poissons Ratio (z) = 0.02000 0.09060
#
# Static dielectric constant tensor:
#      x y z
#    x 1.670430 0.000000 -0.006430 
#    y 0.000000 1.555370 0.000000 
#    z -0.006430 0.000000 1.675900 
# 
# From -- ./inp_files/19430.got.cif
#   From: 2010.05.17/outbox.cif.g08.bks.cpg/sg11_10_cif.got.tgz:19430.got - 2010.06.03 12:22:45.
