data_PCOD9156979
_publ_section_title
;
Structure prediction by ZEFSAII (Michael W. Deem and Ramdas Pophale) SiO2 
 PCOD9156979
Probable space group: P 21/M
;
_chemical_formula_sum "Si O2"
_cell_formula_units_Z 32
_cell_length_a 20.483403
_cell_length_b 9.238929
_cell_length_c 25.543078
_cell_angle_alpha 90.000000
_cell_angle_beta 158.797282
_cell_angle_gamma 90.000000
_cell_volume 1748.268009
_symmetry_space_group_name_H-M "P 21/M"
_symmetry_group_IT_number 11
_symmetry_cell_setting 'monoclinic'
loop_
_space_group_symop_operation_xyz
x,y,z
-x,1/2+y,-z
-x,-y,-z
x,1/2-y,z
loop_
_atom_site_type_symbol
_atom_site_label
_atom_site_fract_x
_atom_site_fract_y
_atom_site_fract_z
Si Si1 0.221059 0.416486 0.804707
Si Si2 0.601296 0.417053 0.153184
Si Si3 0.276837 0.079668 0.399706
Si Si4 0.324478 0.423132 0.144061
Si Si5 0.055888 0.078604 0.127384
Si Si6 0.952863 0.078032 0.232529
Si Si7 0.580758 0.421939 0.890122
Si Si8 0.615359 0.922680 0.693779
O O1 0.175002 0.250000 0.759728
O O2 0.255501 0.505065 0.777462
O O3 0.082687 0.491882 0.740876
O O4 0.412539 0.417737 0.979283
O O5 0.647259 0.250000 0.197826
O O6 0.559054 0.505082 0.174250
O O7 0.312343 0.250000 0.433401
O O8 0.180120 0.062600 0.271724
O O9 0.131687 0.033690 0.335194
O O10 0.461114 0.994578 0.544063
O O11 0.322399 0.250000 0.134923
O O12 0.416676 0.501717 0.164084
O O13 0.413525 0.456209 0.266811
O O14 0.121600 0.484404 0.997613
O O15 0.007785 0.250000 0.086856
O O16 0.184737 0.033501 0.175794
O O17 0.960205 0.250000 0.248732
O O18 0.779777 0.056208 0.064967
O O19 0.551884 0.250000 0.864350
O O20 0.608078 0.750000 0.681463
#
# Coordination Sequence:
#
# PCOD9156979 Si02
#       8
#     4   4   4   4   4   4   4   4
#     4   9  16  25  40  66  98 134 170 205 251 305
#     4   9  16  26  41  66 100 134 168 209 254 302
#     4  10  20  35  55  78 103 135 176 217 262 314
#     4  11  22  35  52  78 106 136 175 216 261 314
#     4  10  20  38  58  77 102 134 173 218 266 314
#     4   9  17  30  47  70  99 132 169 213 257 302
#     4  10  18  31  50  71 100 136 172 214 259 305
#     4  10  23  38  53  76 107 137 171 217 265 314
#
# _framework density 18.303829
#
# number of rings (size 3 to 8) (size 9 to 14) (size 15 to 20)
#    0.000    2.250    1.250    2.250    0.000    6.000 
#    0.000    0.000    0.000    0.000    0.000    0.875 
#    0.000    0.000    0.000    0.000    0.000    0.000 
#
# Total GULP energy -178581.869232 kJ/mol
# GULP energy per Si atom -5580.683413 kJ/mol
# Density = 1.826217 g / cm^3
# Si number density = 18.303829 Si / 1000 Ang^3
#
#
#
# Elastic Constant Matrix: (Units=GPa)
#
#
# Indices 1 2 3 4 5 6 
#
# 1 111.8053 39.9512 -7.5043 0.0000 11.2993 0.0000
# 2 39.9512 57.4565 0.9676 0.0000 -0.6086 0.0000
# 3 -7.5043 0.9676 7.7982 0.0000 -1.4360 0.0000
# 4 0.0000 0.0000 0.0000 14.8269 0.0000 3.7210
# 5 11.2993 -0.6086 -1.4360 0.0000 14.0818 0.0000
# 6 0.0000 0.0000 0.0000 3.7210 0.0000 30.3635
#
#
#
# Elastic Compliance Matrix: (Units=1/GPa)
#
#
# Indices 1 2 3 4 5 6 
#
# 1 0.014735 -0.010588 0.013485 0.000000 -0.010906 0.000000
# 2 -0.010588 0.025053 -0.011755 0.000000 0.008380 0.000000
# 3 0.013485 -0.011755 0.143274 0.000000 0.003282 0.000000
# 4 0.000000 0.000000 0.000000 0.069585 0.000000 -0.008528
# 5 -0.010906 0.008380 0.003282 0.000000 0.080462 0.000000
# 6 0.000000 0.000000 0.000000 -0.008528 0.000000 0.033979
#
#
# Mechanical properties :
#
#
# Convention : Reuss Voigt Hill
#
# Bulk Modulus (GPa) = 6.04788 27.09878 16.57333
# Shear Modulus (GPa) = 11.36570 21.43080 16.39825
#
# Velocity S-wave (km/s) = 2.49458 3.42546 2.99639
# Velocity P-wave (km/s) = 3.40714 5.52107 4.58752
#
# Compressibility (1/GPa) = 0.16534727
#
# Stress axis : x y z
#
# Youngs Moduli (GPa) = 67.86631 39.91465 6.97961
#
# Poissons Ratio (x) = 0.42262 -0.09412
# Poissons Ratio (y) = 0.71858 0.08204
# Poissons Ratio (z) = -0.91519 0.46918
#
# Static dielectric constant tensor:
#      x y z
#    x 1.638490 0.000000 -0.001550 
#    y 0.000000 1.612860 0.000000 
#    z -0.001550 0.000000 1.592580 
# 
# From -- ./inp_files/72175.got.cif
#   From: 2010.05.17/outbox.cif.g08.bks.cpg/sg11_37_cif.got.tgz:72175.got - 2010.06.03 12:22:45.
