data_PCOD9156693
_publ_section_title
;
Structure prediction by ZEFSAII (Michael W. Deem and Ramdas Pophale) SiO2 
 PCOD9156693
Probable space group: P 21/M
;
_chemical_formula_sum "Si O2"
_cell_formula_units_Z 32
_cell_length_a 13.145026
_cell_length_b 8.845771
_cell_length_c 23.177130
_cell_angle_alpha 90.000000
_cell_angle_beta 125.006761
_cell_angle_gamma 90.000000
_cell_volume 2207.422319
_symmetry_space_group_name_H-M "P 21/M"
_symmetry_group_IT_number 11
_symmetry_cell_setting 'monoclinic'
loop_
_space_group_symop_operation_xyz
x,y,z
-x,1/2+y,-z
-x,-y,-z
x,1/2-y,z
loop_
_atom_site_type_symbol
_atom_site_label
_atom_site_fract_x
_atom_site_fract_y
_atom_site_fract_z
Si Si1 0.317664 0.571984 0.703135
Si Si2 0.200208 0.428905 0.080001
Si Si3 0.467898 0.929546 0.162833
Si Si4 0.425881 0.567910 0.921535
Si Si5 0.881886 0.926883 0.289240
Si Si6 0.910025 0.927322 0.424274
Si Si7 0.959439 0.430582 0.073072
Si Si8 0.867575 0.069259 0.169778
O O1 0.332002 0.750000 0.701639
O O2 0.446835 0.490731 0.757146
O O3 0.237027 0.530497 0.734081
O O4 0.226346 0.504145 0.624532
O O5 0.226196 0.250000 0.087126
O O6 0.326950 0.519795 0.126668
O O7 0.099798 0.459602 0.097739
O O8 0.131222 0.479590 0.999014
O O9 0.479148 0.750000 0.162198
O O10 0.516458 0.002838 0.118775
O O11 0.436571 0.750000 0.924742
O O12 0.279281 0.529628 0.879725
O O13 0.500000 0.500000 0.000000
O O14 0.846533 0.750000 0.274563
O O15 0.959462 0.944297 0.373932
O O16 0.929457 0.984338 0.243935
O O17 0.896159 0.750000 0.430926
O O18 0.000000 0.000000 0.500000
O O19 0.936566 0.250000 0.058084
O O20 0.930328 0.469125 0.129438
O O21 0.876740 0.250000 0.181112
#
# Coordination Sequence:
#
# PCOD9156693 Si02
#       8
#     4   4   4   4   4   4   4   4
#     4  10  18  30  46  65  91 122 153 186 228 272
#     4  10  20  34  51  68  88 117 157 201 247 290
#     4  12  22  33  47  64  91 121 156 195 234 280
#     4  11  21  30  43  64  89 116 148 184 230 282
#     4   9  18  29  43  65  92 121 152 183 220 267
#     4   9  17  28  44  67  96 129 160 186 219 263
#     4   9  19  35  51  69  90 115 154 202 246 289
#     4  10  19  31  47  64  88 120 151 187 234 280
#
# _framework density 14.496546
#
# number of rings (size 3 to 8) (size 9 to 14) (size 15 to 20)
#    0.750    1.250    1.250    4.125    0.000    2.500 
#    0.000    0.000    0.000    0.000    0.000    0.000 
#    0.000    1.000    0.000    3.000    0.000    4.625 
#
# Total GULP energy -178199.217659 kJ/mol
# GULP energy per Si atom -5568.725552 kJ/mol
# Density = 1.446355 g / cm^3
# Si number density = 14.496546 Si / 1000 Ang^3
#
#
#
# Elastic Constant Matrix: (Units=GPa)
#
#
# Indices 1 2 3 4 5 6 
#
# 1 62.8434 37.3296 43.2048 0.0000 -2.0958 0.0000
# 2 37.3296 87.0253 54.2360 0.0000 1.1516 0.0000
# 3 43.2048 54.2360 106.7832 0.0000 0.4949 0.0000
# 4 0.0000 0.0000 0.0000 27.3377 0.0000 -1.1936
# 5 -2.0958 1.1516 0.4949 0.0000 14.5423 0.0000
# 6 0.0000 0.0000 0.0000 -1.1936 0.0000 15.7816
#
#
#
# Elastic Compliance Matrix: (Units=1/GPa)
#
#
# Indices 1 2 3 4 5 6 
#
# 1 0.024424 -0.006382 -0.006660 0.000000 0.004252 0.000000
# 2 -0.006382 0.018496 -0.006802 0.000000 -0.002153 0.000000
# 3 -0.006660 -0.006802 0.015519 0.000000 -0.000949 0.000000
# 4 0.000000 0.000000 0.000000 0.036701 0.000000 0.002776
# 5 0.004252 -0.002153 -0.000949 0.000000 0.069581 0.000000
# 6 0.000000 0.000000 0.000000 0.002776 0.000000 0.063575
#
#
# Mechanical properties :
#
#
# Convention : Reuss Voigt Hill
#
# Bulk Modulus (GPa) = 53.33307 58.46586 55.89946
# Shear Modulus (GPa) = 18.23250 19.65774 18.94512
#
# Velocity S-wave (km/s) = 3.55027 3.68643 3.61899
# Velocity P-wave (km/s) = 7.32639 7.65102 7.49046
#
# Compressibility (1/GPa) = 0.01875009
#
# Stress axis : x y z
#
# Youngs Moduli (GPa) = 40.94250 54.06469 64.43789
#
# Poissons Ratio (x) = 0.34506 0.42918
# Poissons Ratio (y) = 0.26131 0.43832
# Poissons Ratio (z) = 0.27269 0.36776
#
# Static dielectric constant tensor:
#      x y z
#    x 1.475810 0.000000 -0.003300 
#    y 0.000000 1.484860 0.000000 
#    z -0.003300 0.000000 1.479870 
# 
# From -- ./inp_files/68339.got.cif
#   From: 2010.05.17/outbox.cif.g08.bks.cpg/sg11_35_cif.got.tgz:68339.got - 2010.06.03 12:22:45.
