data_PCOD9156718
_publ_section_title
;
Structure prediction by ZEFSAII (Michael W. Deem and Ramdas Pophale) SiO2 
 PCOD9156718
Probable space group: P 21/M
;
_chemical_formula_sum "Si O2"
_cell_formula_units_Z 28
_cell_length_a 28.162663
_cell_length_b 8.521626
_cell_length_c 13.757735
_cell_angle_alpha 90.000000
_cell_angle_beta 148.996681
_cell_angle_gamma 90.000000
_cell_volume 1700.686760
_symmetry_space_group_name_H-M "P 21/M"
_symmetry_group_IT_number 11
_symmetry_cell_setting 'monoclinic'
loop_
_space_group_symop_operation_xyz
x,y,z
-x,1/2+y,-z
-x,-y,-z
x,1/2-y,z
loop_
_atom_site_type_symbol
_atom_site_label
_atom_site_fract_x
_atom_site_fract_y
_atom_site_fract_z
Si Si1 0.892167 0.435369 0.212275
Si Si2 0.601821 0.939381 0.785776
Si Si3 0.039966 0.936929 0.969549
Si Si4 0.608034 0.063218 0.577987
Si Si5 0.061875 0.564305 0.397220
Si Si6 0.214518 0.436338 0.789487
Si Si7 0.206355 0.434853 0.149250
O O1 0.898353 0.250000 0.241979
O O2 0.844289 0.520916 0.217804
O O3 0.991368 0.503548 0.356609
O O4 0.830457 0.469294 0.008772
O O5 0.606645 0.750000 0.781538
O O6 0.497452 0.979364 0.632691
O O7 0.619697 0.015190 0.711753
O O8 0.681243 0.984910 0.000831
O O9 0.049546 0.750000 0.988470
O O10 0.138719 0.014054 0.117016
O O11 0.000000 0.000000 0.000000
O O12 0.972334 0.984684 0.762115
O O13 0.618864 0.250000 0.587925
O O14 0.686628 0.977727 0.654182
O O15 0.051817 0.750000 0.370043
O O16 0.163663 0.519200 0.610901
O O17 0.212207 0.250000 0.769991
O O18 0.195278 0.250000 0.110995
#
# Coordination Sequence:
#
# PCOD9156718 Si02
#       7
#     4   4   4   4   4   4   4
#     4  11  20  31  46  68  96 132 171 209 246 293
#     4   9  19  31  46  67  98 137 175 213 251 291
#     4  11  22  39  59  80 102 127 160 205 254 303
#     4  10  18  30  47  70  98 133 175 214 251 293
#     4  11  22  35  50  71  98 131 167 205 246 298
#     4  11  20  32  47  68  99 136 172 208 248 294
#     4  11  20  32  50  74 102 135 169 207 251 299
#
# _framework density 16.463937000000001
#
# number of rings (size 3 to 8) (size 9 to 14) (size 15 to 20)
#    0.000    1.429    1.429    8.143    0.000    1.143 
#    0.000    0.000    0.000    0.000    0.000    1.000 
#    0.000    0.000    0.000    0.000    0.000    0.000 
#
# Total GULP energy -156368.956504 kJ/mol
# GULP energy per Si atom -5584.605589 kJ/mol
# Density = 1.642646 g / cm^3
# Si number density = 16.463937 Si / 1000 Ang^3
#
#
#
# Elastic Constant Matrix: (Units=GPa)
#
#
# Indices 1 2 3 4 5 6 
#
# 1 74.1088 4.4119 37.3487 0.0000 12.4189 0.0000
# 2 4.4119 51.5253 19.5954 0.0000 8.7918 0.0000
# 3 37.3487 19.5954 109.1367 0.0000 22.5416 0.0000
# 4 0.0000 0.0000 0.0000 23.1050 0.0000 0.6796
# 5 12.4189 8.7918 22.5416 0.0000 16.9223 0.0000
# 6 0.0000 0.0000 0.0000 0.6796 0.0000 22.9026
#
#
#
# Elastic Compliance Matrix: (Units=1/GPa)
#
#
# Indices 1 2 3 4 5 6 
#
# 1 0.016904 0.001506 -0.004596 0.000000 -0.007066 0.000000
# 2 0.001506 0.021792 -0.002568 0.000000 -0.009007 0.000000
# 3 -0.004596 -0.002568 0.014105 0.000000 -0.014082 0.000000
# 4 0.000000 0.000000 0.000000 0.043318 0.000000 -0.001285
# 5 -0.007066 -0.009007 -0.014082 0.000000 0.087717 0.000000
# 6 0.000000 0.000000 0.000000 -0.001285 0.000000 0.043701
#
#
# Mechanical properties :
#
#
# Convention : Reuss Voigt Hill
#
# Bulk Modulus (GPa) = 24.10428 39.72031 31.91229
# Shear Modulus (GPa) = 19.78761 24.14697 21.96729
#
# Velocity S-wave (km/s) = 3.47057 3.83385 3.65672
# Velocity P-wave (km/s) = 5.54367 6.61634 6.10361
#
# Compressibility (1/GPa) = 0.04148641
#
# Stress axis : x y z
#
# Youngs Moduli (GPa) = 59.15635 45.88765 70.89513
#
# Poissons Ratio (x) = -0.06911 0.32583
# Poissons Ratio (y) = -0.08910 0.18206
# Poissons Ratio (z) = 0.27188 0.11784
#
# Static dielectric constant tensor:
#      x y z
#    x 1.527860 0.000000 0.023940 
#    y 0.000000 1.546780 0.000000 
#    z 0.023940 0.000000 1.601520 
# 
# From -- ./inp_files/56413.got.cif
#   From: 2010.05.17/outbox.cif.g08.bks.cpg/sg11_29_cif.got.tgz:56413.got - 2010.06.03 12:22:45.
