data_PCOD9156230
_publ_section_title
;
Structure prediction by ZEFSAII (Michael W. Deem and Ramdas Pophale) SiO2 
 PCOD9156230
Probable space group: P 21/M
;
_chemical_formula_sum "Si O2"
_cell_formula_units_Z 28
_cell_length_a 8.004321
_cell_length_b 27.230447
_cell_length_c 5.698805
_cell_angle_alpha 90.000000
_cell_angle_beta 58.019836
_cell_angle_gamma 90.000000
_cell_volume 1053.604127
_symmetry_space_group_name_H-M "P 21/M"
_symmetry_group_IT_number 11
_symmetry_cell_setting 'monoclinic'
loop_
_space_group_symop_operation_xyz
x,y,z
-x,1/2+y,-z
-x,-y,-z
x,1/2-y,z
loop_
_atom_site_type_symbol
_atom_site_label
_atom_site_fract_x
_atom_site_fract_y
_atom_site_fract_z
Si Si1 0.080451 0.692347 0.678289
Si Si2 0.219724 0.525043 0.631028
Si Si3 0.409920 0.193560 0.473590
Si Si4 0.034697 0.836897 0.211773
Si Si5 0.608112 0.689954 0.012767
Si Si6 0.389822 0.467215 0.891492
Si Si7 0.105719 0.071314 0.415343
O O1 0.109738 0.750000 0.690117
O O2 0.138379 0.667302 0.882434
O O3 0.844936 0.682213 0.835294
O O4 0.148947 0.680064 0.361803
O O5 0.227924 0.502213 0.885548
O O6 0.441611 0.544648 0.421014
O O7 0.165201 0.477966 0.510119
O O8 0.072808 0.564990 0.635750
O O9 0.475639 0.250000 0.420798
O O10 0.470665 0.171721 0.678204
O O11 0.169419 0.193943 0.657016
O O12 0.464411 0.170661 0.183999
O O13 0.955458 0.890488 0.341971
O O14 0.583939 0.750000 0.031048
O O15 0.500000 0.500000 0.000000
O O16 0.289642 0.422548 0.101276
#
# Coordination Sequence:
#
# PCOD9156230 Si02
#       7
#     4   4   4   4   4   4   4
#     4   9  16  28  42  63 103 146 180 222 281 339
#     4   9  19  36  54  75 112 152 187 229 291 351
#     4   8  12  20  32  49  80 119 154 192 245 301
#     4  10  18  26  43  73 104 141 181 231 280 331
#     4   7  10  16  28  42  63 103 146 180 222 281
#     4   9  18  35  56  76 100 153 192 222 281 352
#     4  10  20  31  52  83 113 144 186 241 287 340
#
# _framework density 26.575445999999999
#
# number of rings (size 3 to 8) (size 9 to 14) (size 15 to 20)
#    0.000    3.143    0.000    3.429    2.000    0.000 
#    0.000    0.000    0.000    0.000    0.000    0.000 
#    0.000   12.571    0.000    0.000    0.000    0.000 
#
# Total GULP energy -156384.787439 kJ/mol
# GULP energy per Si atom -5585.170980 kJ/mol
# Density = 2.651496 g / cm^3
# Si number density = 26.575446 Si / 1000 Ang^3
#
#
#
# Elastic Constant Matrix: (Units=GPa)
#
#
# Indices 1 2 3 4 5 6 
#
# 1 147.2488 11.2891 50.7282 0.0000 36.8349 0.0000
# 2 11.2891 48.0439 0.1050 0.0000 2.9501 0.0000
# 3 50.7282 0.1050 188.1807 0.0000 55.3731 0.0000
# 4 0.0000 0.0000 0.0000 24.4487 0.0000 21.3690
# 5 36.8349 2.9501 55.3731 0.0000 59.1301 0.0000
# 6 0.0000 0.0000 0.0000 21.3690 0.0000 -10.6553
#
#
#
# Elastic Compliance Matrix: (Units=1/GPa)
#
#
# Indices 1 2 3 4 5 6 
#
# 1 0.008307 -0.001696 -0.001022 0.000000 -0.004133 0.000000
# 2 -0.001696 0.021247 0.000616 0.000000 -0.000581 0.000000
# 3 -0.001022 0.000616 0.007469 0.000000 -0.006388 0.000000
# 4 0.000000 0.000000 0.000000 0.014858 0.000000 0.029797
# 5 -0.004133 -0.000581 -0.006388 0.000000 0.025498 0.000000
# 6 0.000000 0.000000 0.000000 0.029797 0.000000 -0.034092
#
#
# Mechanical properties :
#
#
# Convention : Reuss Voigt Hill
#
# Bulk Modulus (GPa) = 30.46986 56.41310 43.44148
# Shear Modulus (GPa) = 85.56995 36.00811 60.78903
#
# Velocity S-wave (km/s) = 5.68056 3.68494 4.78788
# Velocity P-wave (km/s) = 7.38345 6.27524 6.85179
#
# Compressibility (1/GPa) = 0.03281932
#
# Stress axis : x y z
#
# Youngs Moduli (GPa) = 120.37536 47.06517 133.88479
#
# Poissons Ratio (x) = 0.07982 0.13687
# Poissons Ratio (y) = 0.20416 -0.08250
# Poissons Ratio (z) = 0.12306 -0.02900
#
# Static dielectric constant tensor:
#      x y z
#    x 2.104320 0.000000 -0.030280 
#    y 0.000000 2.042280 0.000000 
#    z -0.030280 0.000000 2.156140 
# 
# From -- ./inp_files/3334.got.cif
#   From: 2010.05.17/outbox.cif.g08.bks.cpg/sg11_2_cif.got.tgz:3334.got - 2010.06.03 12:22:45.
