data_PCOD9156038
_publ_section_title
;
Structure prediction by ZEFSAII (Michael W. Deem and Ramdas Pophale) SiO2 
 PCOD9156038
Probable space group: P 21/M
;
_chemical_formula_sum "Si O2"
_cell_formula_units_Z 32
_cell_length_a 8.807982
_cell_length_b 20.938228
_cell_length_c 13.587665
_cell_angle_alpha 90.000000
_cell_angle_beta 38.688999
_cell_angle_gamma 90.000000
_cell_volume 1566.410805
_symmetry_space_group_name_H-M "P 21/M"
_symmetry_group_IT_number 11
_symmetry_cell_setting 'monoclinic'
loop_
_space_group_symop_operation_xyz
x,y,z
-x,1/2+y,-z
-x,-y,-z
x,1/2-y,z
loop_
_atom_site_type_symbol
_atom_site_label
_atom_site_fract_x
_atom_site_fract_y
_atom_site_fract_z
Si Si1 0.912580 0.676924 0.018023
Si Si2 0.885634 0.675512 0.657168
Si Si3 0.641141 0.372149 0.095275
Si Si4 0.096004 0.895015 0.728778
Si Si5 0.747047 0.494613 0.936813
Si Si6 0.434632 0.433650 0.788414
Si Si7 0.462640 0.447308 0.383894
Si Si8 0.968536 0.431452 0.570607
O O1 0.840048 0.750000 0.040854
O O2 0.697295 0.632243 0.167975
O O3 0.148886 0.672314 0.968062
O O4 0.990687 0.644087 0.875500
O O5 0.912455 0.750000 0.622306
O O6 0.601091 0.660759 0.824659
O O7 0.058163 0.651861 0.657394
O O8 0.958952 0.629093 0.531596
O O9 0.540283 0.412246 0.241425
O O10 0.764646 0.420269 0.954814
O O11 0.362005 0.918989 0.623156
O O12 0.941106 0.959577 0.786657
O O13 0.500000 0.500000 0.000000
O O14 0.735062 0.526615 0.051457
O O15 0.490358 0.478432 0.666677
O O16 0.681055 0.425231 0.727490
O O17 0.178759 0.434303 0.545810
O O18 0.000000 0.500000 0.500000
#
# Coordination Sequence:
#
# PCOD9156038 Si02
#       8
#     4   4   4   4   4   4   4   4
#     4  10  19  31  49  73 104 138 167 207 254 312
#     4  11  21  33  52  77 105 138 172 217 265 310
#     4   9  17  31  50  76 102 131 174 207 257 311
#     4  10  19  31  51  79 108 131 167 214 268 313
#     4  10  17  29  53  79 105 132 163 215 269 310
#     4   9  18  32  52  75  98 134 174 212 253 313
#     4   8  16  32  53  75  98 130 170 222 254 299
#     4   9  19  36  56  73 101 135 181 221 255 308
#
# _framework density 20.428868000000001
#
# number of rings (size 3 to 8) (size 9 to 14) (size 15 to 20)
#    0.000    2.500    1.250    2.250    0.000    3.500 
#    0.000    3.125    2.750    0.000    0.000    0.000 
#    0.000    0.000    0.000    0.000    0.000    0.000 
#
# Total GULP energy -178379.341286 kJ/mol
# GULP energy per Si atom -5574.354415 kJ/mol
# Density = 2.038237 g / cm^3
# Si number density = 20.428868 Si / 1000 Ang^3
#
#
#
# Elastic Constant Matrix: (Units=GPa)
#
#
# Indices 1 2 3 4 5 6 
#
# 1 90.4012 45.1297 9.2324 0.0000 -20.7532 0.0000
# 2 45.1297 147.7775 35.1412 0.0000 -6.2167 0.0000
# 3 9.2324 35.1412 26.4777 0.0000 -12.3272 0.0000
# 4 0.0000 0.0000 0.0000 17.3236 0.0000 2.4054
# 5 -20.7532 -6.2167 -12.3272 0.0000 31.1006 0.0000
# 6 0.0000 0.0000 0.0000 2.4054 0.0000 24.2405
#
#
#
# Elastic Compliance Matrix: (Units=1/GPa)
#
#
# Indices 1 2 3 4 5 6 
#
# 1 0.016538 -0.006722 0.009402 0.000000 0.013418 0.000000
# 2 -0.006722 0.013033 -0.019410 0.000000 -0.009574 0.000000
# 3 0.009402 -0.019410 0.075252 0.000000 0.032221 0.000000
# 4 0.000000 0.000000 0.000000 0.058531 0.000000 -0.005808
# 5 0.013418 -0.009574 0.032221 0.000000 0.051965 0.000000
# 6 0.000000 0.000000 0.000000 -0.005808 0.000000 0.041830
#
#
# Mechanical properties :
#
#
# Convention : Reuss Voigt Hill
#
# Bulk Modulus (GPa) = 14.01325 49.29591 31.65458
# Shear Modulus (GPa) = 15.90354 26.20982 21.05668
#
# Velocity S-wave (km/s) = 2.79316 3.58576 3.21398
# Velocity P-wave (km/s) = 4.15653 6.42856 5.41309
#
# Compressibility (1/GPa) = 0.07136102
#
# Stress axis : x y z
#
# Youngs Moduli (GPa) = 60.46841 76.73053 13.28875
#
# Poissons Ratio (x) = 0.51575 -0.12493
# Poissons Ratio (y) = 0.40644 0.25794
# Poissons Ratio (z) = -0.56850 1.48937
#
# Static dielectric constant tensor:
#      x y z
#    x 1.776960 0.000000 0.038360 
#    y 0.000000 1.697410 0.000000 
#    z 0.038360 0.000000 1.832400 
# 
# From -- ./inp_files/19442.got.cif
#   From: 2010.05.17/outbox.cif.g08.bks.cpg/sg11_10_cif.got.tgz:19442.got - 2010.06.03 12:22:45.
