data_PCOD9156043
_publ_section_title
;
Structure prediction by ZEFSAII (Michael W. Deem and Ramdas Pophale) SiO2 
 PCOD9156043
Probable space group: P 21/M
;
_chemical_formula_sum "Si O2"
_cell_formula_units_Z 32
_cell_length_a 13.338314
_cell_length_b 13.944019
_cell_length_c 10.921585
_cell_angle_alpha 90.000000
_cell_angle_beta 132.646426
_cell_angle_gamma 90.000000
_cell_volume 1494.121164
_symmetry_space_group_name_H-M "P 21/M"
_symmetry_group_IT_number 11
_symmetry_cell_setting 'monoclinic'
loop_
_space_group_symop_operation_xyz
x,y,z
-x,1/2+y,-z
-x,-y,-z
x,1/2-y,z
loop_
_atom_site_type_symbol
_atom_site_label
_atom_site_fract_x
_atom_site_fract_y
_atom_site_fract_z
Si Si1 0.620880 0.134796 0.909156
Si Si2 0.797629 0.365037 0.616837
Si Si3 0.903841 0.642682 0.235565
Si Si4 0.124654 0.864996 0.049613
Si Si5 0.036198 0.647179 0.603120
Si Si6 0.724304 0.001896 0.186387
Si Si7 0.865032 0.859936 0.711075
Si Si8 0.364641 0.469438 0.616484
O O1 0.594039 0.250000 0.893051
O O2 0.770859 0.119978 0.974968
O O3 0.513015 0.077998 0.735686
O O4 0.624380 0.079646 0.042039
O O5 0.786093 0.250000 0.591299
O O6 0.803484 0.391202 0.764593
O O7 0.676578 0.420801 0.448329
O O8 0.950369 0.392593 0.695866
O O9 0.880527 0.750000 0.166964
O O10 0.772528 0.575083 0.124007
O O11 0.933893 0.649076 0.405356
O O12 0.105677 0.750000 0.040885
O O13 0.971715 0.902075 0.897940
O O14 0.111829 0.750000 0.664960
O O15 0.139547 0.561744 0.671789
O O16 0.954766 0.640840 0.661047
O O17 0.675530 0.957406 0.273462
O O18 0.830782 0.750000 0.714427
O O19 0.731042 0.914816 0.559710
#
# Coordination Sequence:
#
# PCOD9156043 Si02
#       8
#     4   4   4   4   4   4   4   4
#     4  11  25  43  61  84 117 156 198 246 295 346
#     4  10  22  39  60  88 121 156 196 241 293 348
#     4  10  20  34  57  89 123 154 190 241 296 346
#     4   9  20  40  63  84 115 156 198 245 291 341
#     4  10  17  29  55  86 114 148 189 237 295 346
#     4  12  21  36  57  87 119 157 193 238 290 358
#     4  10  19  35  60  90 118 149 196 249 292 338
#     4  12  24  37  59  91 120 157 194 242 292 353
#
# _framework density 21.417273000000002
#
# number of rings (size 3 to 8) (size 9 to 14) (size 15 to 20)
#    0.000    1.500    3.750    2.250    0.000    2.000 
#    0.000    0.625    0.000    0.000    0.000    0.000 
#    0.000    0.000    0.000    0.000    0.000    0.000 
#
# Total GULP energy -178492.625089 kJ/mol
# GULP energy per Si atom -5577.894534 kJ/mol
# Density = 2.136853 g / cm^3
# Si number density = 21.417273 Si / 1000 Ang^3
#
#
#
# Elastic Constant Matrix: (Units=GPa)
#
#
# Indices 1 2 3 4 5 6 
#
# 1 8.5021 5.2669 5.3370 0.0000 -5.0582 0.0000
# 2 5.2669 92.9131 27.6410 0.0000 13.7916 0.0000
# 3 5.3370 27.6410 93.2530 0.0000 13.7247 0.0000
# 4 0.0000 0.0000 0.0000 36.4126 0.0000 1.0402
# 5 -5.0582 13.7916 13.7247 0.0000 25.6491 0.0000
# 6 0.0000 0.0000 0.0000 1.0402 0.0000 17.8890
#
#
#
# Elastic Compliance Matrix: (Units=1/GPa)
#
#
# Indices 1 2 3 4 5 6 
#
# 1 0.158930 -0.011990 -0.012053 0.000000 0.044238 0.000000
# 2 -0.011990 0.013293 -0.002013 0.000000 -0.008435 0.000000
# 3 -0.012053 -0.002013 0.013243 0.000000 -0.008381 0.000000
# 4 0.000000 0.000000 0.000000 0.027509 0.000000 -0.001600
# 5 0.044238 -0.008435 -0.008381 0.000000 0.056732 0.000000
# 6 0.000000 0.000000 0.000000 -0.001600 0.000000 0.055993
#
#
# Mechanical properties :
#
#
# Convention : Reuss Voigt Hill
#
# Bulk Modulus (GPa) = 7.49873 30.12868 18.81370
# Shear Modulus (GPa) = 11.84094 26.41835 19.12965
#
# Velocity S-wave (km/s) = 2.35387 3.51594 2.99187
# Velocity P-wave (km/s) = 3.30098 5.52996 4.55395
#
# Compressibility (1/GPa) = 0.13335597
#
# Stress axis : x y z
#
# Youngs Moduli (GPa) = 6.29208 75.22623 75.50952
#
# Poissons Ratio (x) = 0.90197 0.91010
# Poissons Ratio (y) = 0.07544 0.15196
# Poissons Ratio (z) = 0.07584 0.15139
#
# Static dielectric constant tensor:
#      x y z
#    x 1.775420 0.000000 -0.009650 
#    y 0.000000 1.880260 0.000000 
#    z -0.009650 0.000000 1.798950 
# 
# From -- ./inp_files/39696.got.cif
#   From: 2010.05.17/outbox.cif.g08.bks.cpg/sg11_20_cif.got.tgz:39696.got - 2010.06.03 12:22:45.
