data_PCOD9156970
_publ_section_title
;
Structure prediction by ZEFSAII (Michael W. Deem and Ramdas Pophale) SiO2 
 PCOD9156970
Probable space group: P 21/M
;
_chemical_formula_sum "Si O2"
_cell_formula_units_Z 28
_cell_length_a 10.011396
_cell_length_b 13.075998
_cell_length_c 11.608881
_cell_angle_alpha 90.000000
_cell_angle_beta 64.069443
_cell_angle_gamma 90.000000
_cell_volume 1366.709976
_symmetry_space_group_name_H-M "P 21/M"
_symmetry_group_IT_number 11
_symmetry_cell_setting 'monoclinic'
loop_
_space_group_symop_operation_xyz
x,y,z
-x,1/2+y,-z
-x,-y,-z
x,1/2-y,z
loop_
_atom_site_type_symbol
_atom_site_label
_atom_site_fract_x
_atom_site_fract_y
_atom_site_fract_z
Si Si1 0.556201 0.874055 0.793050
Si Si2 0.282066 0.868136 0.200599
Si Si3 0.610536 0.873082 0.038972
Si Si4 0.982967 0.520427 0.667543
Si Si5 0.764461 0.130973 0.057150
Si Si6 0.058761 0.125757 0.071604
Si Si7 0.831887 0.869664 0.528363
O O1 0.550444 0.750000 0.802008
O O2 0.605609 0.903207 0.905072
O O3 0.389020 0.911921 0.833566
O O4 0.675510 0.894091 0.649149
O O5 0.260715 0.750000 0.245245
O O6 0.155984 0.942463 0.293765
O O7 0.453462 0.899453 0.157545
O O8 0.260336 0.871242 0.070451
O O9 0.608470 0.750000 0.041830
O O10 0.771916 0.905298 0.024199
O O11 0.953752 0.606554 0.582169
O O12 0.979017 0.573038 0.792740
O O13 0.124910 0.449615 0.587451
O O14 0.763962 0.250000 0.092314
O O15 0.927919 0.098006 0.032811
O O16 0.062509 0.250000 0.083870
O O17 0.835775 0.750000 0.493506
#
# Coordination Sequence:
#
# PCOD9156970 Si02
#       7
#     4   4   4   4   4   4   4
#     4   8  13  28  50  69  91 127 166 198 234 286
#     4   9  18  33  49  73 104 132 163 196 238 296
#     4   8  14  27  49  71  98 129 157 197 243 283
#     4  11  21  30  51  76  99 129 164 204 253 283
#     4   8  16  30  51  73  99 133 162 194 242 290
#     4  10  18  31  49  76 104 130 163 200 241 290
#     4  10  20  35  51  72  98 127 166 209 246 291
#
# _framework density 20.487155999999999
#
# number of rings (size 3 to 8) (size 9 to 14) (size 15 to 20)
#    0.000    2.857    1.429    2.571    0.000    1.143 
#    0.000    0.714    0.000    0.000    0.000    0.000 
#    0.000    0.000    0.000    0.000    0.000    0.000 
#
# Total GULP energy -156177.643802 kJ/mol
# GULP energy per Si atom -5577.772993 kJ/mol
# Density = 2.044053 g / cm^3
# Si number density = 20.487156 Si / 1000 Ang^3
#
#
#
# Elastic Constant Matrix: (Units=GPa)
#
#
# Indices 1 2 3 4 5 6 
#
# 1 123.8612 24.3171 24.5968 0.0000 -34.9785 0.0000
# 2 24.3171 88.7008 12.7821 0.0000 -17.5105 0.0000
# 3 24.5968 12.7821 59.0791 0.0000 -32.6370 0.0000
# 4 0.0000 0.0000 0.0000 33.0897 0.0000 -7.0138
# 5 -34.9785 -17.5105 -32.6370 0.0000 29.9664 0.0000
# 6 0.0000 0.0000 0.0000 -7.0138 0.0000 30.8856
#
#
#
# Elastic Compliance Matrix: (Units=1/GPa)
#
#
# Indices 1 2 3 4 5 6 
#
# 1 0.013282 -0.000047 0.007606 0.000000 0.023761 0.000000
# 2 -0.000047 0.013023 0.003453 0.000000 0.011316 0.000000
# 3 0.007606 0.003453 0.047779 0.000000 0.062933 0.000000
# 4 0.000000 0.000000 0.000000 0.031749 0.000000 0.007210
# 5 0.023761 0.011316 0.062933 0.000000 0.136260 0.000000
# 6 0.000000 0.000000 0.000000 0.007210 0.000000 0.034015
#
#
# Mechanical properties :
#
#
# Convention : Reuss Voigt Hill
#
# Bulk Modulus (GPa) = 10.40476 43.89255 27.14865
# Shear Modulus (GPa) = 17.47525 32.78466 25.12996
#
# Velocity S-wave (km/s) = 2.92376 4.00466 3.50611
# Velocity P-wave (km/s) = 4.06048 6.54630 5.44709
#
# Compressibility (1/GPa) = 0.09610989
#
# Stress axis : x y z
#
# Youngs Moduli (GPa) = 75.28808 76.78711 20.92987
#
# Poissons Ratio (x) = 0.00359 -0.15920
# Poissons Ratio (y) = 0.00352 -0.07228
# Poissons Ratio (z) = -0.57267 -0.26517
#
# Static dielectric constant tensor:
#      x y z
#    x 1.736430 0.000000 -0.054070 
#    y 0.000000 1.840340 0.000000 
#    z -0.054070 0.000000 1.727040 
# 
# From -- ./inp_files/39468.got.cif
#   From: 2010.05.17/outbox.cif.g08.bks.cpg/sg11_20_cif.got.tgz:39468.got - 2010.06.03 12:22:45.
