data_PCOD9156337
_publ_section_title
;
Structure prediction by ZEFSAII (Michael W. Deem and Ramdas Pophale) SiO2 
 PCOD9156337
Probable space group: P 21/M
;
_chemical_formula_sum "Si O2"
_cell_formula_units_Z 32
_cell_length_a 13.162662
_cell_length_b 8.052524
_cell_length_c 22.030545
_cell_angle_alpha 90.000000
_cell_angle_beta 54.128735
_cell_angle_gamma 90.000000
_cell_volume 1892.195154
_symmetry_space_group_name_H-M "P 21/M"
_symmetry_group_IT_number 11
_symmetry_cell_setting 'monoclinic'
loop_
_space_group_symop_operation_xyz
x,y,z
-x,1/2+y,-z
-x,-y,-z
x,1/2-y,z
loop_
_atom_site_type_symbol
_atom_site_label
_atom_site_fract_x
_atom_site_fract_y
_atom_site_fract_z
Si Si1 0.586068 0.049837 0.913656
Si Si2 0.712460 0.051963 0.662017
Si Si3 0.117896 0.950111 0.500532
Si Si4 0.967328 0.552321 0.914062
Si Si5 0.195289 0.450916 0.914534
Si Si6 0.519061 0.546349 0.180194
Si Si7 0.872113 0.446384 0.818033
Si Si8 0.054486 0.446746 0.337458
O O1 0.589875 0.250000 0.910823
O O2 0.527652 0.993962 0.870164
O O3 0.728798 0.988212 0.870472
O O4 0.500000 0.000000 0.000000
O O5 0.697570 0.250000 0.660963
O O6 0.762884 0.985848 0.579498
O O7 0.582796 0.987117 0.735010
O O8 0.823328 0.024111 0.672488
O O9 0.129128 0.750000 0.498120
O O10 0.071340 0.005855 0.583261
O O11 0.000000 0.000000 0.500000
O O12 0.955470 0.750000 0.914126
O O13 0.938518 0.480331 0.858444
O O14 0.103043 0.508615 0.893626
O O15 0.867357 0.492218 0.999948
O O16 0.194234 0.250000 0.915460
O O17 0.338414 0.507093 0.858747
O O18 0.518355 0.750000 0.180888
O O19 0.865231 0.250000 0.810605
O O20 0.940925 0.518878 0.735234
O O21 0.064466 0.250000 0.343956
#
# Coordination Sequence:
#
# PCOD9156337 Si02
#       8
#     4   4   4   4   4   4   4   4
#     4  10  20  32  45  65  93 125 156 187 226 275
#     4   9  15  28  46  65  93 126 158 189 227 277
#     4   8  15  25  41  63  89 123 156 187 225 272
#     4  10  20  34  51  69  92 120 156 202 242 272
#     4   9  18  33  52  70  91 120 156 195 236 280
#     4   9  16  29  48  68  92 122 155 189 226 273
#     4  11  21  33  49  68  93 126 161 192 231 281
#     4  10  18  28  42  66  97 125 156 192 231 272
#
# _framework density 16.911576
#
# number of rings (size 3 to 8) (size 9 to 14) (size 15 to 20)
#    0.000    2.500    1.250    1.875    0.000    3.000 
#    0.000    1.250    0.000    0.000    0.000    0.875 
#    0.000    0.000    0.000    0.000    0.000    0.000 
#
# Total GULP energy -178331.410792 kJ/mol
# GULP energy per Si atom -5572.856587 kJ/mol
# Density = 1.687308 g / cm^3
# Si number density = 16.911576 Si / 1000 Ang^3
#
#
#
# Elastic Constant Matrix: (Units=GPa)
#
#
# Indices 1 2 3 4 5 6 
#
# 1 67.5919 -2.5258 66.4629 0.0000 -11.0722 0.0000
# 2 -2.5258 8.9582 4.8384 0.0000 -3.2337 0.0000
# 3 66.4629 4.8384 170.0908 0.0000 -13.9726 0.0000
# 4 0.0000 0.0000 0.0000 16.9704 0.0000 0.3416
# 5 -11.0722 -3.2337 -13.9726 0.0000 18.5105 0.0000
# 6 0.0000 0.0000 0.0000 0.3416 0.0000 10.7553
#
#
#
# Elastic Compliance Matrix: (Units=1/GPa)
#
#
# Indices 1 2 3 4 5 6 
#
# 1 0.027469 0.017530 -0.010268 0.000000 0.011743 0.000000
# 2 0.017530 0.130842 -0.008350 0.000000 0.027040 0.000000
# 3 -0.010268 -0.008350 0.010133 0.000000 0.000048 0.000000
# 4 0.000000 0.000000 0.000000 0.058964 0.000000 -0.001873
# 5 0.011743 0.027040 0.000048 0.000000 0.065807 0.000000
# 6 0.000000 0.000000 0.000000 -0.001873 0.000000 0.093037
#
#
# Mechanical properties :
#
#
# Convention : Reuss Voigt Hill
#
# Bulk Modulus (GPa) = 6.01440 42.68800 24.35120
# Shear Modulus (GPa) = 11.26500 21.10494 16.18497
#
# Velocity S-wave (km/s) = 2.58371 3.53648 3.09695
# Velocity P-wave (km/s) = 3.53056 6.47860 5.21714
#
# Compressibility (1/GPa) = 0.16626775
#
# Stress axis : x y z
#
# Youngs Moduli (GPa) = 36.40407 7.64278 98.68939
#
# Poissons Ratio (x) = -0.13397 1.01331
# Poissons Ratio (y) = -0.63815 0.82409
# Poissons Ratio (z) = 0.37379 0.06382
#
# Static dielectric constant tensor:
#      x y z
#    x 1.533360 0.000000 -0.017830 
#    y 0.000000 1.607810 0.000000 
#    z -0.017830 0.000000 1.616410 
# 
# From -- ./inp_files/40624.got.cif
#   From: 2010.05.17/outbox.cif.g08.bks.cpg/sg11_21_cif.got.tgz:40624.got - 2010.06.03 12:22:45.
