data_PCOD9156423
_publ_section_title
;
Structure prediction by ZEFSAII (Michael W. Deem and Ramdas Pophale) SiO2 
 PCOD9156423
Probable space group: P 21/M
;
_chemical_formula_sum "Si O2"
_cell_formula_units_Z 32
_cell_length_a 17.401056
_cell_length_b 10.024839
_cell_length_c 13.140200
_cell_angle_alpha 90.000000
_cell_angle_beta 137.678887
_cell_angle_gamma 90.000000
_cell_volume 1543.312720
_symmetry_space_group_name_H-M "P 21/M"
_symmetry_group_IT_number 11
_symmetry_cell_setting 'monoclinic'
loop_
_space_group_symop_operation_xyz
x,y,z
-x,1/2+y,-z
-x,-y,-z
x,1/2-y,z
loop_
_atom_site_type_symbol
_atom_site_label
_atom_site_fract_x
_atom_site_fract_y
_atom_site_fract_z
Si Si1 0.976551 0.103128 0.355647
Si Si2 0.298779 0.905996 0.231907
Si Si3 0.175908 0.908263 0.303934
Si Si4 0.420133 0.403355 0.196096
Si Si5 0.564093 0.409443 0.145613
Si Si6 0.941333 0.479432 0.105613
Si Si7 0.181541 0.593216 0.550228
Si Si8 0.815325 0.892463 0.152728
O O1 0.982133 0.250000 0.405430
O O2 0.921815 0.997625 0.519435
O O3 0.979393 0.114790 0.235371
O O4 0.858319 0.022680 0.253025
O O5 0.330035 0.750000 0.255175
O O6 0.278780 0.947431 0.329605
O O7 0.384943 0.998008 0.252377
O O8 0.170070 0.924488 0.059763
O O9 0.159888 0.750000 0.272279
O O10 0.198674 0.929267 0.445397
O O11 0.056175 0.980267 0.160839
O O12 0.435321 0.250000 0.246703
O O13 0.521947 0.440038 0.219579
O O14 0.311634 0.404877 0.012999
O O15 0.542589 0.250000 0.108124
O O16 0.699239 0.432640 0.277763
O O17 0.500000 0.500000 0.000000
O O18 0.894442 0.603352 0.128147
O O19 0.152848 0.750000 0.532822
O O20 0.829739 0.750000 0.219381
#
# Coordination Sequence:
#
# PCOD9156423 Si02
#       8
#     4   4   4   4   4   4   4   4
#     4   9  16  25  44  74 108 138 169 210 256 299
#     4  10  18  28  45  73 108 145 185 219 252 293
#     4   9  16  27  45  72 105 146 186 216 247 301
#     4   9  19  35  53  75 106 140 175 215 266 316
#     4  10  22  41  64  85 100 125 169 225 277 326
#     4   8  15  23  40  64 105 142 180 217 249 283
#     4   9  18  34  54  75 105 140 176 213 261 318
#     4   8  14  25  46  70  99 139 175 204 247 308
#
# _framework density 20.734617
#
# number of rings (size 3 to 8) (size 9 to 14) (size 15 to 20)
#    0.750    2.250    0.000    1.500    0.000    1.500 
#    0.000    3.750    0.000    0.750    0.000    0.000 
#    0.000    0.000    0.000    0.000    0.000    0.000 
#
# Total GULP energy -178225.020366 kJ/mol
# GULP energy per Si atom -5569.531886 kJ/mol
# Density = 2.068742 g / cm^3
# Si number density = 20.734617 Si / 1000 Ang^3
#
#
#
# Elastic Constant Matrix: (Units=GPa)
#
#
# Indices 1 2 3 4 5 6 
#
# 1 119.9886 33.7605 6.8061 0.0000 -9.7377 0.0000
# 2 33.7605 88.4824 15.6318 0.0000 7.4836 0.0000
# 3 6.8061 15.6318 37.4517 0.0000 -9.1894 0.0000
# 4 0.0000 0.0000 0.0000 13.4608 0.0000 3.6667
# 5 -9.7377 7.4836 -9.1894 0.0000 27.8466 0.0000
# 6 0.0000 0.0000 0.0000 3.6667 0.0000 -11.3816
#
#
#
# Elastic Compliance Matrix: (Units=1/GPa)
#
#
# Indices 1 2 3 4 5 6 
#
# 1 0.009925 -0.004448 0.001303 0.000000 0.005096 0.000000
# 2 -0.004448 0.014989 -0.007418 0.000000 -0.008032 0.000000
# 3 0.001303 -0.007418 0.032819 0.000000 0.013280 0.000000
# 4 0.000000 0.000000 0.000000 0.068296 0.000000 0.022002
# 5 0.005096 -0.008032 0.013280 0.000000 0.044234 0.000000
# 6 0.000000 0.000000 0.000000 0.022002 0.000000 -0.080773
#
#
# Mechanical properties :
#
#
# Convention : Reuss Voigt Hill
#
# Bulk Modulus (GPa) = 27.31761 39.81328 33.56544
# Shear Modulus (GPa) = 40.71008 18.63344 29.67176
#
# Velocity S-wave (km/s) = 4.43582 3.00102 3.78699
# Velocity P-wave (km/s) = 6.28003 5.59028 5.94517
#
# Compressibility (1/GPa) = 0.03660643
#
# Stress axis : x y z
#
# Youngs Moduli (GPa) = 100.75153 66.71619 30.47017
#
# Poissons Ratio (x) = 0.29678 -0.03972
# Poissons Ratio (y) = 0.44818 0.22604
# Poissons Ratio (z) = -0.13132 0.49493
#
# Static dielectric constant tensor:
#      x y z
#    x 1.773760 0.000000 -0.022820 
#    y 0.000000 1.692380 0.000000 
#    z -0.022820 0.000000 1.776560 
# 
# From -- ./inp_files/41241.got.cif
#   From: 2010.05.17/outbox.cif.g08.bks.cpg/sg11_21_cif.got.tgz:41241.got - 2010.06.03 12:22:45.
