data_PCOD9156440
_publ_section_title
;
Structure prediction by ZEFSAII (Michael W. Deem and Ramdas Pophale) SiO2 
 PCOD9156440
Probable space group: P 21/M
;
_chemical_formula_sum "Si O2"
_cell_formula_units_Z 28
_cell_length_a 21.539279
_cell_length_b 7.336266
_cell_length_c 19.305157
_cell_angle_alpha 90.000000
_cell_angle_beta 20.059688
_cell_angle_gamma 90.000000
_cell_volume 1046.338672
_symmetry_space_group_name_H-M "P 21/M"
_symmetry_group_IT_number 11
_symmetry_cell_setting 'monoclinic'
loop_
_space_group_symop_operation_xyz
x,y,z
-x,1/2+y,-z
-x,-y,-z
x,1/2-y,z
loop_
_atom_site_type_symbol
_atom_site_label
_atom_site_fract_x
_atom_site_fract_y
_atom_site_fract_z
Si Si1 0.045511 0.531670 0.714265
Si Si2 0.561309 0.964606 0.629389
Si Si3 0.965037 0.456724 0.640233
Si Si4 0.339834 0.032875 0.221239
Si Si5 0.106139 0.470883 0.986980
Si Si6 0.408346 0.525787 0.925946
Si Si7 0.290238 0.462363 0.663367
O O1 0.036017 0.750000 0.718375
O O2 0.242543 0.482800 0.538726
O O3 0.013241 0.453484 0.672069
O O4 0.903955 0.470548 0.922585
O O5 0.526109 0.750000 0.658322
O O6 0.583034 0.043964 0.529576
O O7 0.423487 0.037943 0.831217
O O8 0.942552 0.250000 0.639496
O O9 0.138453 0.540354 0.420574
O O10 0.767051 0.541487 0.848992
O O11 0.318051 0.250000 0.249027
O O12 0.417484 0.968069 0.213222
O O13 0.500000 0.000000 0.000000
O O14 0.110501 0.250000 0.981745
O O15 0.911815 0.526569 0.158206
O O16 0.259755 0.538124 0.772558
O O17 0.403694 0.750000 0.930026
O O18 0.336385 0.250000 0.622658
#
# Coordination Sequence:
#
# PCOD9156440 Si02
#       7
#     4   4   4   4   4   4   4
#     4  10  18  28  46  72 104 137 171 213 259 302
#     4   9  15  28  50  73  98 133 175 214 253 300
#     4  10  20  36  57  77 102 137 173 208 247 293
#     4  10  21  38  58  81 107 133 163 201 248 301
#     4   8  14  23  35  60  96 130 164 207 256 298
#     4   9  18  34  56  80 104 133 171 211 247 291
#     4   8  13  21  38  63  91 126 169 210 249 296
#
# _framework density 26.759978
#
# number of rings (size 3 to 8) (size 9 to 14) (size 15 to 20)
#    0.000    2.857    1.429    0.429    0.000    1.714 
#    0.000    1.429    0.000    0.857    0.000    0.000 
#    0.000    0.000    0.000    0.000    0.000    1.000 
#
# Total GULP energy -156500.460253 kJ/mol
# GULP energy per Si atom -5589.302152 kJ/mol
# Density = 2.669907 g / cm^3
# Si number density = 26.759978 Si / 1000 Ang^3
#
#
#
# Elastic Constant Matrix: (Units=GPa)
#
#
# Indices 1 2 3 4 5 6 
#
# 1 90.9352 -0.3720 42.7973 0.0000 10.2498 0.0000
# 2 -0.3720 129.0195 16.2786 0.0000 4.2334 0.0000
# 3 42.7973 16.2786 168.8934 0.0000 37.5706 0.0000
# 4 0.0000 0.0000 0.0000 8.4258 0.0000 1.7651
# 5 10.2498 4.2334 37.5706 0.0000 57.2109 0.0000
# 6 0.0000 0.0000 0.0000 1.7651 0.0000 -10.0308
#
#
#
# Elastic Compliance Matrix: (Units=1/GPa)
#
#
# Indices 1 2 3 4 5 6 
#
# 1 0.012512 0.000442 -0.003170 0.000000 -0.000192 0.000000
# 2 0.000442 0.007862 -0.000847 0.000000 -0.000105 0.000000
# 3 -0.003170 -0.000847 0.007806 0.000000 -0.004496 0.000000
# 4 0.000000 0.000000 0.000000 0.114464 0.000000 0.020142
# 5 -0.000192 -0.000105 -0.004496 0.000000 0.020474 0.000000
# 6 0.000000 0.000000 0.000000 0.020142 0.000000 -0.096149
#
#
# Mechanical properties :
#
#
# Convention : Reuss Voigt Hill
#
# Bulk Modulus (GPa) = 47.54768 56.25063 51.89916
# Shear Modulus (GPa) = 61.63035 33.13080 47.38058
#
# Velocity S-wave (km/s) = 4.80425 3.52244 4.21239
# Velocity P-wave (km/s) = 6.97002 6.13266 6.56471
#
# Compressibility (1/GPa) = 0.02103152
#
# Stress axis : x y z
#
# Youngs Moduli (GPa) = 79.92018 127.18928 128.10804
#
# Poissons Ratio (x) = -0.05627 0.40617
# Poissons Ratio (y) = -0.03536 0.10845
# Poissons Ratio (z) = 0.25339 0.10767
#
# Static dielectric constant tensor:
#      x y z
#    x 2.081240 0.000000 0.034650 
#    y 0.000000 1.924570 0.000000 
#    z 0.034650 0.000000 2.171730 
# 
# From -- ./inp_files/63064.got.cif
#   From: 2010.05.17/outbox.cif.g08.bks.cpg/sg11_32_cif.got.tgz:63064.got - 2010.06.03 12:22:45.
