data_PCOD9156905
_publ_section_title
;
Structure prediction by ZEFSAII (Michael W. Deem and Ramdas Pophale) SiO2 
 PCOD9156905
Probable space group: P 21/M
;
_chemical_formula_sum "Si O2"
_cell_formula_units_Z 32
_cell_length_a 14.679914
_cell_length_b 7.838371
_cell_length_c 20.346169
_cell_angle_alpha 90.000000
_cell_angle_beta 149.199339
_cell_angle_gamma 90.000000
_cell_volume 1198.799899
_symmetry_space_group_name_H-M "P 21/M"
_symmetry_group_IT_number 11
_symmetry_cell_setting 'monoclinic'
loop_
_space_group_symop_operation_xyz
x,y,z
-x,1/2+y,-z
-x,-y,-z
x,1/2-y,z
loop_
_atom_site_type_symbol
_atom_site_label
_atom_site_fract_x
_atom_site_fract_y
_atom_site_fract_z
Si Si1 0.590031 0.446562 0.250631
Si Si2 0.300107 0.447479 0.325267
Si Si3 0.790517 0.450780 0.100961
Si Si4 0.188696 0.551254 0.389620
Si Si5 0.891990 0.552269 0.522098
Si Si6 0.639243 0.446348 0.771206
Si Si7 0.908387 0.040643 0.037832
Si Si8 0.289675 0.540960 0.810071
O O1 0.534587 0.250000 0.217003
O O2 0.793533 0.453148 0.403428
O O3 0.488681 0.545011 0.245076
O O4 0.587776 0.515569 0.174695
O O5 0.285740 0.250000 0.333427
O O6 0.320302 0.536145 0.408412
O O7 0.413311 0.462699 0.328699
O O8 0.108112 0.511792 0.178440
O O9 0.751221 0.250000 0.073739
O O10 0.788074 0.519156 0.025369
O O11 0.689978 0.524497 0.102560
O O12 0.000817 0.470337 0.249288
O O13 0.162528 0.750000 0.386591
O O14 0.219526 0.463962 0.478826
O O15 0.899705 0.750000 0.508518
O O16 0.089076 0.492975 0.663927
O O17 0.662627 0.250000 0.767531
O O18 0.818798 0.522113 0.915560
O O19 0.904576 0.250000 0.034059
O O20 0.295871 0.750000 0.815174
#
# Coordination Sequence:
#
# PCOD9156905 Si02
#       8
#     4   4   4   4   4   4   4   4
#     4  11  22  36  51  74 106 142 178 217 260 308
#     4  10  19  35  57  80 103 135 174 216 260 308
#     4   8  14  30  53  78 104 134 171 216 261 304
#     4  10  18  30  51  82 111 134 162 208 260 312
#     4  10  19  35  57  80 103 135 174 216 260 308
#     4  11  22  36  51  74 106 142 178 217 260 308
#     4   8  16  31  55  80 104 134 173 215 260 307
#     4   8  16  31  55  80 104 134 173 215 260 307
#
# _framework density 26.693363000000002
#
# number of rings (size 3 to 8) (size 9 to 14) (size 15 to 20)
#    0.000    2.500    0.000    4.875    0.000    0.000 
#    0.000   12.500    0.000    0.000    0.000    0.000 
#    0.000    0.000    0.000    0.000    0.000    0.000 
#
# Total GULP energy -178957.057933 kJ/mol
# GULP energy per Si atom -5592.408060 kJ/mol
# Density = 2.663261 g / cm^3
# Si number density = 26.693363 Si / 1000 Ang^3
#
#
#
# Elastic Constant Matrix: (Units=GPa)
#
#
# Indices 1 2 3 4 5 6 
#
# 1 179.8909 -1.1743 28.1316 0.0000 -33.1355 0.0000
# 2 -1.1743 89.3338 5.3796 0.0000 -8.0952 0.0000
# 3 28.1316 5.3796 93.6006 0.0000 -41.9326 0.0000
# 4 0.0000 0.0000 0.0000 19.6724 0.0000 0.6900
# 5 -33.1355 -8.0952 -41.9326 0.0000 66.9758 0.0000
# 6 0.0000 0.0000 0.0000 0.6900 0.0000 27.5011
#
#
#
# Elastic Compliance Matrix: (Units=1/GPa)
#
#
# Indices 1 2 3 4 5 6 
#
# 1 0.006158 0.000363 -0.000677 0.000000 0.002667 0.000000
# 2 0.000363 0.011340 -0.000092 0.000000 0.001493 0.000000
# 3 -0.000677 -0.000092 0.014923 0.000000 0.008997 0.000000
# 4 0.000000 0.000000 0.000000 0.050878 0.000000 -0.001277
# 5 0.002667 0.001493 0.008997 0.000000 0.022063 0.000000
# 6 0.000000 0.000000 0.000000 -0.001277 0.000000 0.036394
#
#
# Mechanical properties :
#
#
# Convention : Reuss Voigt Hill
#
# Bulk Modulus (GPa) = 31.63638 47.49990 39.56814
# Shear Modulus (GPa) = 32.65743 44.86242 38.75992
#
# Velocity S-wave (km/s) = 3.50155 4.10403 3.81470
# Velocity P-wave (km/s) = 5.31275 6.34750 5.85303
#
# Compressibility (1/GPa) = 0.03160918
#
# Stress axis : x y z
#
# Youngs Moduli (GPa) = 162.37982 88.18684 67.01021
#
# Poissons Ratio (x) = -0.03205 0.04537
# Poissons Ratio (y) = -0.05901 0.00618
# Poissons Ratio (z) = 0.10994 0.00814
#
# Static dielectric constant tensor:
#      x y z
#    x 2.207760 0.000000 0.116170 
#    y 0.000000 1.884490 0.000000 
#    z 0.116170 0.000000 2.155770 
# 
# From -- ./inp_files/65244.got.cif
#   From: 2010.05.17/outbox.cif.g08.bks.cpg/sg11_33_cif.got.tgz:65244.got - 2010.06.03 12:22:45.
