data_PCOD9156519
_publ_section_title
;
Structure prediction by ZEFSAII (Michael W. Deem and Ramdas Pophale) SiO2 
 PCOD9156519
Probable space group: P 21/M
;
_chemical_formula_sum "Si O2"
_cell_formula_units_Z 24
_cell_length_a 16.741084
_cell_length_b 9.286007
_cell_length_c 15.702611
_cell_angle_alpha 90.000000
_cell_angle_beta 142.445036
_cell_angle_gamma 90.000000
_cell_volume 1487.900854
_symmetry_space_group_name_H-M "P 21/M"
_symmetry_group_IT_number 11
_symmetry_cell_setting 'monoclinic'
loop_
_space_group_symop_operation_xyz
x,y,z
-x,1/2+y,-z
-x,-y,-z
x,1/2-y,z
loop_
_atom_site_type_symbol
_atom_site_label
_atom_site_fract_x
_atom_site_fract_y
_atom_site_fract_z
Si Si1 0.674391 0.084463 0.576042
Si Si2 0.421581 0.077380 0.157340
Si Si3 0.630585 0.922204 0.077893
Si Si4 0.356700 0.084665 0.285265
Si Si5 0.136155 0.422319 0.599138
Si Si6 0.304279 0.422086 0.576070
O O1 0.716212 0.250000 0.606315
O O2 0.515385 0.082056 0.431083
O O3 0.702011 0.015070 0.691161
O O4 0.727328 0.991952 0.541912
O O5 0.448800 0.250000 0.186316
O O6 0.338667 0.040013 0.171735
O O7 0.558329 0.992028 0.277571
O O8 0.354826 0.049335 0.010421
O O9 0.613948 0.750000 0.074935
O O10 0.754816 0.966655 0.239087
O O11 0.500000 0.000000 0.000000
O O12 0.314423 0.250000 0.261309
O O13 0.119247 0.250000 0.591574
O O14 0.197144 0.453079 0.557797
O O15 0.000000 0.500000 0.500000
O O16 0.319768 0.250000 0.581395
#
# Coordination Sequence:
#
# PCOD9156519 Si02
#       6
#     4   4   4   4   4   4
#     4   9  16  25  39  61  89 124 158 190 235 286
#     4   9  17  28  46  69  95 125 157 194 240 289
#     4  10  19  33  51  74  99 127 164 203 244 293
#     4   8  14  24  37  60  91 122 152 187 233 284
#     4  10  22  36  50  71  99 131 167 203 243 289
#     4  10  18  29  45  67  94 124 160 200 239 284
#
# _framework density 16.130106999999999
#
# number of rings (size 3 to 8) (size 9 to 14) (size 15 to 20)
#    0.000    2.667    1.667    2.000    0.000    6.000 
#    0.000    0.000    0.000    0.000    0.000    1.167 
#    0.000    0.000    0.000    0.000    0.000    0.000 
#
# Total GULP energy -133704.256979 kJ/mol
# GULP energy per Si atom -5571.010707 kJ/mol
# Density = 1.609339 g / cm^3
# Si number density = 16.130107 Si / 1000 Ang^3
#
#
#
# Elastic Constant Matrix: (Units=GPa)
#
#
# Indices 1 2 3 4 5 6 
#
# 1 132.4761 69.8438 71.4723 0.0000 -32.1883 0.0000
# 2 69.8438 61.5089 37.9001 0.0000 -12.9860 0.0000
# 3 71.4723 37.9001 77.1564 0.0000 -14.6275 0.0000
# 4 0.0000 0.0000 0.0000 17.8813 0.0000 -1.6589
# 5 -32.1883 -12.9860 -14.6275 0.0000 28.0571 0.0000
# 6 0.0000 0.0000 0.0000 -1.6589 0.0000 28.6201
#
#
#
# Elastic Compliance Matrix: (Units=1/GPa)
#
#
# Indices 1 2 3 4 5 6 
#
# 1 0.033106 -0.024263 -0.015177 0.000000 0.018838 0.000000
# 2 -0.024263 0.041843 0.000351 0.000000 -0.008286 0.000000
# 3 -0.015177 0.000351 0.026163 0.000000 -0.003610 0.000000
# 4 0.000000 0.000000 0.000000 0.056227 0.000000 0.003259
# 5 0.018838 -0.008286 -0.003610 0.000000 0.051536 0.000000
# 6 0.000000 0.000000 0.000000 0.003259 0.000000 0.035129
#
#
# Mechanical properties :
#
#
# Convention : Reuss Voigt Hill
#
# Bulk Modulus (GPa) = 43.60480 69.95265 56.77873
# Shear Modulus (GPa) = 15.15941 21.04006 18.09974
#
# Velocity S-wave (km/s) = 3.06898 3.61556 3.35342
# Velocity P-wave (km/s) = 6.29683 7.80331 7.09019
#
# Compressibility (1/GPa) = 0.02293325
#
# Stress axis : x y z
#
# Youngs Moduli (GPa) = 30.20609 23.89885 38.22140
#
# Poissons Ratio (x) = 0.57986 0.58010
# Poissons Ratio (y) = 0.73289 -0.01341
# Poissons Ratio (z) = 0.45845 -0.00839
#
# Static dielectric constant tensor:
#      x y z
#    x 1.544660 0.000000 -0.041930 
#    y 0.000000 1.545850 0.000000 
#    z -0.041930 0.000000 1.526440 
# 
# From -- ./inp_files/40425.got.cif
#   From: 2010.05.17/outbox.cif.g08.bks.cpg/sg11_21_cif.got.tgz:40425.got - 2010.06.03 12:22:45.
