data_PCOD9156784
_publ_section_title
;
Structure prediction by ZEFSAII (Michael W. Deem and Ramdas Pophale) SiO2 
 PCOD9156784
Probable space group: P 21/M
;
_chemical_formula_sum "Si O2"
_cell_formula_units_Z 28
_cell_length_a 18.897395
_cell_length_b 8.956558
_cell_length_c 23.365308
_cell_angle_alpha 90.000000
_cell_angle_beta 25.651396
_cell_angle_gamma 90.000000
_cell_volume 1711.972196
_symmetry_space_group_name_H-M "P 21/M"
_symmetry_group_IT_number 11
_symmetry_cell_setting 'monoclinic'
loop_
_space_group_symop_operation_xyz
x,y,z
-x,1/2+y,-z
-x,-y,-z
x,1/2-y,z
loop_
_atom_site_type_symbol
_atom_site_label
_atom_site_fract_x
_atom_site_fract_y
_atom_site_fract_z
Si Si1 0.822260 0.928778 0.760056
Si Si2 0.265795 0.927864 0.054504
Si Si3 0.263961 0.425701 0.513013
Si Si4 0.042613 0.572952 0.762519
Si Si5 0.639435 0.574657 0.435759
Si Si6 0.644838 0.928228 0.772656
Si Si7 0.806356 0.072230 0.546909
O O1 0.817267 0.750000 0.774790
O O2 0.700668 0.964053 0.796381
O O3 0.004693 0.965524 0.604714
O O4 0.771771 0.013327 0.854254
O O5 0.242345 0.750000 0.069900
O O6 0.137203 0.004509 0.105206
O O7 0.453854 0.962510 0.903680
O O8 0.222844 0.250000 0.539210
O O9 0.391177 0.441536 0.473040
O O10 0.300035 0.491803 0.425028
O O11 0.113643 0.521096 0.648745
O O12 0.041018 0.750000 0.768340
O O13 0.181804 0.501435 0.701738
O O14 0.500000 0.500000 0.500000
O O15 0.650687 0.750000 0.415356
O O16 0.668568 0.750000 0.747837
O O17 0.752458 0.013491 0.647701
O O18 0.787954 0.250000 0.556774
#
# Coordination Sequence:
#
# PCOD9156784 Si02
#       7
#     4   4   4   4   4   4   4
#     4  10  20  35  53  72  96 129 170 218 266 312
#     4  11  21  34  52  73  98 134 174 213 259 310
#     4   9  18  31  49  72 100 133 166 199 246 298
#     4  10  18  30  49  72 100 132 166 204 247 297
#     4   9  17  28  47  77 109 136 163 203 248 293
#     4  10  23  37  49  70 101 134 172 216 262 309
#     4  11  21  33  52  75  99 132 173 213 259 308
#
# _framework density 16.355405000000001
#
# number of rings (size 3 to 8) (size 9 to 14) (size 15 to 20)
#    0.857    1.143    1.429    3.429    0.000    2.286 
#    0.000    0.000    0.000    0.000    0.000    1.000 
#    0.000    0.000    0.000    0.000    0.000    0.000 
#
# Total GULP energy -155939.009996 kJ/mol
# GULP energy per Si atom -5569.250357 kJ/mol
# Density = 1.631818 g / cm^3
# Si number density = 16.355405 Si / 1000 Ang^3
#
#
#
# Elastic Constant Matrix: (Units=GPa)
#
#
# Indices 1 2 3 4 5 6 
#
# 1 45.1382 22.4588 11.0616 0.0000 -30.0138 0.0000
# 2 22.4588 68.4999 28.8949 0.0000 -18.0565 0.0000
# 3 11.0616 28.8949 49.6666 0.0000 -18.1058 0.0000
# 4 0.0000 0.0000 0.0000 20.0689 0.0000 -3.7326
# 5 -30.0138 -18.0565 -18.1058 0.0000 27.7619 0.0000
# 6 0.0000 0.0000 0.0000 -3.7326 0.0000 26.4209
#
#
#
# Elastic Compliance Matrix: (Units=1/GPa)
#
#
# Indices 1 2 3 4 5 6 
#
# 1 0.101669 -0.014078 0.029227 0.000000 0.119821 0.000000
# 2 -0.014078 0.022351 -0.013272 0.000000 -0.009338 0.000000
# 3 0.029227 -0.013272 0.038988 0.000000 0.048393 0.000000
# 4 0.000000 0.000000 0.000000 0.051173 0.000000 0.007229
# 5 0.119821 -0.009338 0.048393 0.000000 0.191048 0.000000
# 6 0.000000 0.000000 0.000000 0.007229 0.000000 0.038870
#
#
# Mechanical properties :
#
#
# Convention : Reuss Voigt Hill
#
# Bulk Modulus (GPa) = 5.99658 32.01505 19.00581
# Shear Modulus (GPa) = 10.08202 21.57631 15.82916
#
# Velocity S-wave (km/s) = 2.48550 3.63604 3.11436
# Velocity P-wave (km/s) = 3.45128 6.10285 4.95763
#
# Compressibility (1/GPa) = 0.16676179
#
# Stress axis : x y z
#
# Youngs Moduli (GPa) = 9.83583 44.74026 25.64907
#
# Poissons Ratio (x) = 0.62985 -0.74965
# Poissons Ratio (y) = 0.13847 0.34042
# Poissons Ratio (z) = -0.28747 0.59381
#
# Static dielectric constant tensor:
#      x y z
#    x 1.564400 0.000000 -0.021860 
#    y 0.000000 1.525950 0.000000 
#    z -0.021860 0.000000 1.548160 
# 
# From -- ./inp_files/71927.got.cif
#   From: 2010.05.17/outbox.cif.g08.bks.cpg/sg11_36_cif.got.tgz:71927.got - 2010.06.03 12:22:45.
