data_PCOD9156205
_publ_section_title
;
Structure prediction by ZEFSAII (Michael W. Deem and Ramdas Pophale) SiO2 
 PCOD9156205
Probable space group: P 21/M
;
_chemical_formula_sum "Si O2"
_cell_formula_units_Z 32
_cell_length_a 29.856122
_cell_length_b 7.941510
_cell_length_c 20.510820
_cell_angle_alpha 90.000000
_cell_angle_beta 156.635689
_cell_angle_gamma 90.000000
_cell_volume 1928.617498
_symmetry_space_group_name_H-M "P 21/M"
_symmetry_group_IT_number 11
_symmetry_cell_setting 'monoclinic'
loop_
_space_group_symop_operation_xyz
x,y,z
-x,1/2+y,-z
-x,-y,-z
x,1/2-y,z
loop_
_atom_site_type_symbol
_atom_site_label
_atom_site_fract_x
_atom_site_fract_y
_atom_site_fract_z
Si Si1 0.339691 0.543754 0.895859
Si Si2 0.913585 0.549670 0.586267
Si Si3 0.113125 0.952688 0.111695
Si Si4 0.002704 0.051507 0.167533
Si Si5 0.440199 0.443365 0.749860
Si Si6 0.081027 0.951108 0.549489
Si Si7 0.343578 0.946020 0.755115
Si Si8 0.224067 0.947955 0.385633
O O1 0.341602 0.750000 0.898176
O O2 0.210648 0.489702 0.734246
O O3 0.374542 0.491745 0.868907
O O4 0.433164 0.486078 0.072511
O O5 0.894605 0.750000 0.569247
O O6 0.958240 0.519575 0.573196
O O7 0.792291 0.460121 0.428290
O O8 0.988407 0.486453 0.746895
O O9 0.121175 0.750000 0.116999
O O10 0.209896 0.008542 0.291690
O O11 0.088253 0.020163 0.005755
O O12 0.000000 0.000000 0.000000
O O13 0.979200 0.250000 0.141283
O O14 0.127171 0.032012 0.300970
O O15 0.447516 0.250000 0.738943
O O16 0.391660 0.453393 0.758585
O O17 0.347519 0.527994 0.580315
O O18 0.085116 0.750000 0.549830
O O19 0.000000 0.000000 0.500000
O O20 0.375192 0.750000 0.790166
O O21 0.197012 0.750000 0.350917
#
# Coordination Sequence:
#
# PCOD9156205 Si02
#       8
#     4   4   4   4   4   4   4   4
#     4   8  18  32  45  61  82 110 142 177 214 257
#     4  10  18  28  45  68  89 114 146 178 215 259
#     4   8  15  26  38  54  78 112 148 182 215 249
#     4   9  16  27  42  59  83 113 149 184 213 253
#     4  11  19  28  41  58  84 117 150 179 210 251
#     4  10  20  36  53  68  87 110 139 177 221 265
#     4  10  18  29  42  59  85 114 146 183 219 249
#     4  10  18  26  38  57  84 117 151 183 218 249
#
# _framework density 16.592196000000001
#
# number of rings (size 3 to 8) (size 9 to 14) (size 15 to 20)
#    0.000    2.500    1.250    3.000    0.000    1.000 
#    0.000    6.875    0.000    0.000    0.000    0.000 
#    0.000    1.000    0.000    2.000    0.000    2.750 
#
# Total GULP energy -178212.731062 kJ/mol
# GULP energy per Si atom -5569.147846 kJ/mol
# Density = 1.655443 g / cm^3
# Si number density = 16.592196 Si / 1000 Ang^3
#
#
#
# Elastic Constant Matrix: (Units=GPa)
#
#
# Indices 1 2 3 4 5 6 
#
# 1 80.8239 -2.6889 55.8678 0.0000 -21.6752 0.0000
# 2 -2.6889 23.0593 -1.1998 0.0000 -1.0559 0.0000
# 3 55.8678 -1.1998 105.7754 0.0000 -35.3987 0.0000
# 4 0.0000 0.0000 0.0000 11.2637 0.0000 -0.7212
# 5 -21.6752 -1.0559 -35.3987 0.0000 28.0209 0.0000
# 6 0.0000 0.0000 0.0000 -0.7212 0.0000 12.7443
#
#
#
# Elastic Compliance Matrix: (Units=1/GPa)
#
#
# Indices 1 2 3 4 5 6 
#
# 1 0.019789 0.002007 -0.009149 0.000000 0.003825 0.000000
# 2 0.002007 0.043844 0.000883 0.000000 0.004320 0.000000
# 3 -0.009149 0.000883 0.020684 0.000000 0.019085 0.000000
# 4 0.000000 0.000000 0.000000 0.089104 0.000000 0.005042
# 5 0.003825 0.004320 0.019085 0.000000 0.062920 0.000000
# 6 0.000000 0.000000 0.000000 0.005042 0.000000 0.078752
#
#
# Mechanical properties :
#
#
# Convention : Reuss Voigt Hill
#
# Bulk Modulus (GPa) = 13.92791 34.84629 24.38710
# Shear Modulus (GPa) = 14.22295 20.91774 17.57034
#
# Velocity S-wave (km/s) = 2.93099 3.55448 3.25769
# Velocity P-wave (km/s) = 4.45721 6.15573 5.37400
#
# Compressibility (1/GPa) = 0.07179830
#
# Stress axis : x y z
#
# Youngs Moduli (GPa) = 50.53188 22.80802 48.34740
#
# Poissons Ratio (x) = -0.04577 0.44235
# Poissons Ratio (y) = -0.10140 -0.04270
# Poissons Ratio (z) = 0.46234 -0.02015
#
# Static dielectric constant tensor:
#      x y z
#    x 1.556180 0.000000 -0.053670 
#    y 0.000000 1.658630 0.000000 
#    z -0.053670 0.000000 1.609680 
# 
# From -- ./inp_files/56032.got.cif
#   From: 2010.05.17/outbox.cif.g08.bks.cpg/sg11_29_cif.got.tgz:56032.got - 2010.06.03 12:22:45.
