data_PCOD9156012
_publ_section_title
;
Structure prediction by ZEFSAII (Michael W. Deem and Ramdas Pophale) SiO2 
 PCOD9156012
Probable space group: P 21/M
;
_chemical_formula_sum "Si O2"
_cell_formula_units_Z 32
_cell_length_a 16.587384
_cell_length_b 7.427374
_cell_length_c 19.188168
_cell_angle_alpha 90.000000
_cell_angle_beta 138.714320
_cell_angle_gamma 90.000000
_cell_volume 1559.797261
_symmetry_space_group_name_H-M "P 21/M"
_symmetry_group_IT_number 11
_symmetry_cell_setting 'monoclinic'
loop_
_space_group_symop_operation_xyz
x,y,z
-x,1/2+y,-z
-x,-y,-z
x,1/2-y,z
loop_
_atom_site_type_symbol
_atom_site_label
_atom_site_fract_x
_atom_site_fract_y
_atom_site_fract_z
Si Si1 0.202957 0.463914 0.219837
Si Si2 0.300793 0.047718 0.544621
Si Si3 0.507004 0.970655 0.225994
Si Si4 0.572319 0.035378 0.976626
Si Si5 0.836812 0.030423 0.108955
Si Si6 0.895042 0.970815 0.693360
Si Si7 0.235796 0.965185 0.091522
Si Si8 0.523839 0.535931 0.595635
O O1 0.209385 0.250000 0.233909
O O2 0.143655 0.530313 0.253289
O O3 0.161011 0.489625 0.112851
O O4 0.340814 0.535474 0.303820
O O5 0.260043 0.250000 0.537103
O O6 0.368644 0.965157 0.656064
O O7 0.194713 0.966578 0.426910
O O8 0.417622 0.055549 0.569618
O O9 0.509652 0.750000 0.231083
O O10 0.493545 0.027570 0.136997
O O11 0.378681 0.027910 0.179660
O O12 0.579964 0.250000 0.974037
O O13 0.712489 0.969720 0.065546
O O14 0.500000 0.000000 0.000000
O O15 0.838252 0.250000 0.110032
O O16 0.964699 0.974312 0.224826
O O17 0.826605 0.974563 0.021125
O O18 0.887680 0.750000 0.688113
O O19 0.241314 0.750000 0.091864
O O20 0.500000 0.500000 0.500000
O O21 0.518904 0.750000 0.606410
#
# Coordination Sequence:
#
# PCOD9156012 Si02
#       8
#     4   4   4   4   4   4   4   4
#     4  10  19  28  40  63  92 122 158 202 239 263
#     4  10  17  29  48  67  89 122 159 196 232 269
#     4   8  15  27  46  70  93 115 148 188 226 272
#     4   9  17  32  54  78  95 113 143 183 230 280
#     4   8  16  31  49  68  92 121 154 188 225 275
#     4   9  17  29  44  64  91 125 162 194 224 265
#     4   9  16  28  46  64  86 121 159 197 232 266
#     4  11  20  29  41  62  91 124 163 207 241 268
#
# _framework density 20.515485999999999
#
# number of rings (size 3 to 8) (size 9 to 14) (size 15 to 20)
#    0.000    2.750    2.500    1.875    0.000    1.000 
#    0.000    3.125    0.000    3.000    0.000    0.000 
#    0.000    0.000    0.000    0.000    0.000    0.000 
#
# Total GULP energy -178310.560117 kJ/mol
# GULP energy per Si atom -5572.205004 kJ/mol
# Density = 2.046879 g / cm^3
# Si number density = 20.515486 Si / 1000 Ang^3
#
#
#
# Elastic Constant Matrix: (Units=GPa)
#
#
# Indices 1 2 3 4 5 6 
#
# 1 108.6078 -1.6737 84.5792 0.0000 -12.2233 0.0000
# 2 -1.6737 69.4441 7.4764 0.0000 1.9486 0.0000
# 3 84.5792 7.4764 163.8995 0.0000 7.4552 0.0000
# 4 0.0000 0.0000 0.0000 1.3604 0.0000 -3.0660
# 5 -12.2233 1.9486 7.4552 0.0000 20.7374 0.0000
# 6 0.0000 0.0000 0.0000 -3.0660 0.0000 14.8517
#
#
#
# Elastic Compliance Matrix: (Units=1/GPa)
#
#
# Indices 1 2 3 4 5 6 
#
# 1 0.019217 0.001188 -0.010655 0.000000 0.015046 0.000000
# 2 0.001188 0.014571 -0.001268 0.000000 -0.000213 0.000000
# 3 -0.010655 -0.001268 0.012137 0.000000 -0.010525 0.000000
# 4 0.000000 0.000000 0.000000 1.374762 0.000000 0.283811
# 5 0.015046 -0.000213 -0.010525 0.000000 0.060894 0.000000
# 6 0.000000 0.000000 0.000000 0.283811 0.000000 0.125923
#
#
# Mechanical properties :
#
#
# Convention : Reuss Voigt Hill
#
# Bulk Modulus (GPa) = 40.89310 58.07948 49.48629
# Shear Modulus (GPa) = 3.05413 24.16120 13.60766
#
# Velocity S-wave (km/s) = 1.22144 3.43549 2.57823
# Velocity P-wave (km/s) = 4.68672 6.64141 5.74777
#
# Compressibility (1/GPa) = 0.02445400
#
# Stress axis : x y z
#
# Youngs Moduli (GPa) = 52.03682 68.62849 82.39571
#
# Poissons Ratio (x) = -0.08154 0.87797
# Poissons Ratio (y) = -0.06183 0.10449
# Poissons Ratio (z) = 0.55448 0.08703
#
# Static dielectric constant tensor:
#      x y z
#    x 1.744870 0.000000 -0.064860 
#    y 0.000000 0.371610 0.000000 
#    z -0.064860 0.000000 1.858550 
# 
# From -- ./inp_files/65251.got.cif
#   From: 2010.05.17/outbox.cif.g08.bks.cpg/sg11_33_cif.got.tgz:65251.got - 2010.06.03 12:22:45.
