data_PCOD9156891
_publ_section_title
;
Structure prediction by ZEFSAII (Michael W. Deem and Ramdas Pophale) SiO2 
 PCOD9156891
Probable space group: P 21/M
;
_chemical_formula_sum "Si O2"
_cell_formula_units_Z 32
_cell_length_a 21.554774
_cell_length_b 7.761137
_cell_length_c 17.519125
_cell_angle_alpha 90.000000
_cell_angle_beta 30.648200
_cell_angle_gamma 90.000000
_cell_volume 1494.003218
_symmetry_space_group_name_H-M "P 21/M"
_symmetry_group_IT_number 11
_symmetry_cell_setting 'monoclinic'
loop_
_space_group_symop_operation_xyz
x,y,z
-x,1/2+y,-z
-x,-y,-z
x,1/2-y,z
loop_
_atom_site_type_symbol
_atom_site_label
_atom_site_fract_x
_atom_site_fract_y
_atom_site_fract_z
Si Si1 0.409387 0.051507 0.193816
Si Si2 0.347684 0.958638 0.732891
Si Si3 0.284004 0.951186 0.470509
Si Si4 0.039920 0.958487 0.645078
Si Si5 0.224956 0.954739 0.014659
Si Si6 0.830070 0.447236 0.637772
Si Si7 0.676236 0.037631 0.933233
Si Si8 0.375193 0.047106 0.536058
O O1 0.401563 0.250000 0.177228
O O2 0.382372 0.045100 0.313220
O O3 0.298838 0.951037 0.271632
O O4 0.545706 0.984086 0.038287
O O5 0.348584 0.750000 0.730583
O O6 0.485778 0.019435 0.604172
O O7 0.315176 0.015436 0.681913
O O8 0.262253 0.021205 0.892051
O O9 0.293884 0.750000 0.441126
O O10 0.151409 0.011070 0.582176
O O11 0.307374 0.972383 0.534921
O O12 0.039484 0.750000 0.641721
O O13 0.073990 0.024551 0.523641
O O14 0.913038 0.016151 0.813740
O O15 0.245835 0.750000 0.989664
O O16 0.306443 0.021278 0.998525
O O17 0.866901 0.250000 0.612481
O O18 0.789052 0.524207 0.761898
O O19 0.676484 0.250000 0.931255
O O20 0.382920 0.250000 0.514724
#
# Coordination Sequence:
#
# PCOD9156891 Si02
#       8
#     4   4   4   4   4   4   4   4
#     4  10  18  30  51  78 106 132 167 213 254 303
#     4   9  19  35  53  78 112 140 161 198 256 307
#     4  10  20  35  54  75 104 139 170 205 257 309
#     4   9  20  36  51  70  99 135 173 215 256 296
#     4  10  20  35  54  73  98 136 176 210 250 302
#     4   9  18  34  52  71 102 139 170 207 261 310
#     4   9  18  32  51  75 103 135 168 209 262 310
#     4  10  19  33  57  85 108 131 166 206 244 299
#
# _framework density 21.418963999999999
#
# number of rings (size 3 to 8) (size 9 to 14) (size 15 to 20)
#    0.000    2.500    0.000    3.000    0.000    6.000 
#    0.000    4.375    0.000    0.000    0.000    0.000 
#    0.000    0.000    0.000    0.000    0.000    0.000 
#
# Total GULP energy -178644.182353 kJ/mol
# GULP energy per Si atom -5582.630699 kJ/mol
# Density = 2.137021 g / cm^3
# Si number density = 21.418964 Si / 1000 Ang^3
#
#
#
# Elastic Constant Matrix: (Units=GPa)
#
#
# Indices 1 2 3 4 5 6 
#
# 1 44.5529 -0.0673 18.7900 0.0000 11.2277 0.0000
# 2 -0.0673 42.1648 -6.1795 0.0000 1.9242 0.0000
# 3 18.7900 -6.1795 114.4427 0.0000 16.2305 0.0000
# 4 0.0000 0.0000 0.0000 18.5638 0.0000 1.9273
# 5 11.2277 1.9242 16.2305 0.0000 34.5018 0.0000
# 6 0.0000 0.0000 0.0000 1.9273 0.0000 14.9218
#
#
#
# Elastic Compliance Matrix: (Units=1/GPa)
#
#
# Indices 1 2 3 4 5 6 
#
# 1 0.025517 -0.000124 -0.003235 0.000000 -0.006775 0.000000
# 2 -0.000124 0.024046 0.001611 0.000000 -0.002058 0.000000
# 3 -0.003235 0.001611 0.009879 0.000000 -0.003684 0.000000
# 4 0.000000 0.000000 0.000000 0.054600 0.000000 -0.007052
# 5 -0.006775 -0.002058 -0.003684 0.000000 0.033037 0.000000
# 6 0.000000 0.000000 0.000000 -0.007052 0.000000 0.067927
#
#
# Mechanical properties :
#
#
# Convention : Reuss Voigt Hill
#
# Bulk Modulus (GPa) = 17.87504 25.13853 21.50678
# Shear Modulus (GPa) = 21.08356 26.17197 23.62777
#
# Velocity S-wave (km/s) = 3.14082 3.49937 3.32493
# Velocity P-wave (km/s) = 4.63860 5.29995 4.98027
#
# Compressibility (1/GPa) = 0.05594393
#
# Stress axis : x y z
#
# Youngs Moduli (GPa) = 39.18976 41.58649 101.22808
#
# Poissons Ratio (x) = 0.00517 0.32752
# Poissons Ratio (y) = 0.00487 -0.16305
# Poissons Ratio (z) = 0.12680 -0.06698
#
# Static dielectric constant tensor:
#      x y z
#    x 1.784170 0.000000 0.020670 
#    y 0.000000 1.788120 0.000000 
#    z 0.020670 0.000000 1.788970 
# 
# From -- ./inp_files/61777.got.cif
#   From: 2010.05.17/outbox.cif.g08.bks.cpg/sg11_31_cif.got.tgz:61777.got - 2010.06.03 12:22:45.
