data_PCOD9156657
_publ_section_title
;
Structure prediction by ZEFSAII (Michael W. Deem and Ramdas Pophale) SiO2 
 PCOD9156657
Probable space group: P 21/M
;
_chemical_formula_sum "Si O2"
_cell_formula_units_Z 32
_cell_length_a 12.143880
_cell_length_b 8.150433
_cell_length_c 22.340470
_cell_angle_alpha 90.000000
_cell_angle_beta 129.247065
_cell_angle_gamma 90.000000
_cell_volume 1712.418255
_symmetry_space_group_name_H-M "P 21/M"
_symmetry_group_IT_number 11
_symmetry_cell_setting 'monoclinic'
loop_
_space_group_symop_operation_xyz
x,y,z
-x,1/2+y,-z
-x,-y,-z
x,1/2-y,z
loop_
_atom_site_type_symbol
_atom_site_label
_atom_site_fract_x
_atom_site_fract_y
_atom_site_fract_z
Si Si1 0.133703 0.551584 0.268924
Si Si2 0.319106 0.950540 0.085519
Si Si3 0.495863 0.561234 0.686793
Si Si4 0.205032 0.559918 0.167101
Si Si5 0.338867 0.551654 0.958602
Si Si6 0.628293 0.944431 0.242249
Si Si7 0.552003 0.053974 0.582591
Si Si8 0.158535 0.945637 0.783386
O O1 0.134146 0.750000 0.266370
O O2 0.121337 0.488786 0.195493
O O3 0.285596 0.499419 0.348046
O O4 0.004236 0.494120 0.264555
O O5 0.313907 0.750000 0.084845
O O6 0.215926 0.010779 0.103631
O O7 0.481573 0.997530 0.158378
O O8 0.291650 0.005675 0.008433
O O9 0.540982 0.750000 0.706405
O O10 0.630825 0.451028 0.753478
O O11 0.375253 0.527258 0.694042
O O12 0.462054 0.518090 0.606958
O O13 0.163079 0.750000 0.146837
O O14 0.334561 0.750000 0.958005
O O15 0.240167 0.491544 0.870849
O O16 0.500000 0.500000 0.000000
O O17 0.619880 0.750000 0.247382
O O18 0.760892 0.986528 0.246551
O O19 0.547710 0.250000 0.584764
O O20 0.500000 0.000000 0.500000
O O21 0.171049 0.750000 0.786315
#
# Coordination Sequence:
#
# PCOD9156657 Si02
#       8
#     4   4   4   4   4   4   4   4
#     4   9  19  35  53  73 102 138 174 206 247 313
#     4   8  14  27  48  69  91 125 168 218 266 305
#     4  10  18  29  49  79 110 134 164 211 257 299
#     4   8  15  30  50  70  93 129 176 217 256 307
#     4  10  19  31  46  69  99 132 173 222 269 312
#     4  10  18  31  51  71  97 137 179 216 259 310
#     4  10  20  36  59  86 110 136 170 207 250 301
#     4  11  22  32  47  73 105 137 175 222 266 308
#
# _framework density 18.687023
#
# number of rings (size 3 to 8) (size 9 to 14) (size 15 to 20)
#    0.000    2.500    1.250    3.750    0.000    3.000 
#    0.000    0.625    0.000    0.750    0.000    0.000 
#    0.000    0.000    0.000    0.000    0.000    0.000 
#
# Total GULP energy -178384.884346 kJ/mol
# GULP energy per Si atom -5574.527636 kJ/mol
# Density = 1.864449 g / cm^3
# Si number density = 18.687023 Si / 1000 Ang^3
#
#
#
# Elastic Constant Matrix: (Units=GPa)
#
#
# Indices 1 2 3 4 5 6 
#
# 1 103.4466 12.2794 43.0034 0.0000 -28.6805 0.0000
# 2 12.2794 32.0082 12.7315 0.0000 -4.8305 0.0000
# 3 43.0034 12.7315 82.7519 0.0000 -31.4973 0.0000
# 4 0.0000 0.0000 0.0000 15.0478 0.0000 -3.7100
# 5 -28.6805 -4.8305 -31.4973 0.0000 31.5348 0.0000
# 6 0.0000 0.0000 0.0000 -3.7100 0.0000 16.9940
#
#
#
# Elastic Compliance Matrix: (Units=1/GPa)
#
#
# Indices 1 2 3 4 5 6 
#
# 1 0.013837 -0.002612 -0.003470 0.000000 0.008718 0.000000
# 2 -0.002612 0.033772 -0.004475 0.000000 -0.001672 0.000000
# 3 -0.003470 -0.004475 0.021157 0.000000 0.017291 0.000000
# 4 0.000000 0.000000 0.000000 0.070235 0.000000 0.015333
# 5 0.008718 -0.001672 0.017291 0.000000 0.056654 0.000000
# 6 0.000000 0.000000 0.000000 0.015333 0.000000 0.062192
#
#
# Mechanical properties :
#
#
# Convention : Reuss Voigt Hill
#
# Bulk Modulus (GPa) = 20.98591 39.35948 30.17270
# Shear Modulus (GPa) = 16.95811 22.72816 19.84314
#
# Velocity S-wave (km/s) = 3.01571 3.49127 3.26217
# Velocity P-wave (km/s) = 4.83535 6.11229 5.51093
#
# Compressibility (1/GPa) = 0.04765101
#
# Stress axis : x y z
#
# Youngs Moduli (GPa) = 72.27243 29.61065 47.26483
#
# Poissons Ratio (x) = 0.07735 0.16402
# Poissons Ratio (y) = 0.18879 0.21150
# Poissons Ratio (z) = 0.25080 0.13250
#
# Static dielectric constant tensor:
#      x y z
#    x 1.666210 0.000000 -0.035860 
#    y 0.000000 1.666240 0.000000 
#    z -0.035860 0.000000 1.651890 
# 
# From -- ./inp_files/64242.got.cif
#   From: 2010.05.17/outbox.cif.g08.bks.cpg/sg11_33_cif.got.tgz:64242.got - 2010.06.03 12:22:45.
