data_PCOD9156880
_publ_section_title
;
Structure prediction by ZEFSAII (Michael W. Deem and Ramdas Pophale) SiO2 
 PCOD9156880
Probable space group: P 21/M
;
_chemical_formula_sum "Si O2"
_cell_formula_units_Z 32
_cell_length_a 22.058248
_cell_length_b 8.658540
_cell_length_c 11.992906
_cell_angle_alpha 90.000000
_cell_angle_beta 129.440939
_cell_angle_gamma 90.000000
_cell_volume 1768.946976
_symmetry_space_group_name_H-M "P 21/M"
_symmetry_group_IT_number 11
_symmetry_cell_setting 'monoclinic'
loop_
_space_group_symop_operation_xyz
x,y,z
-x,1/2+y,-z
-x,-y,-z
x,1/2-y,z
loop_
_atom_site_type_symbol
_atom_site_label
_atom_site_fract_x
_atom_site_fract_y
_atom_site_fract_z
Si Si1 0.677012 0.565869 0.231475
Si Si2 0.920442 0.565754 0.458355
Si Si3 0.283753 0.933416 0.154062
Si Si4 0.744455 0.933502 0.640986
Si Si5 0.229093 0.565907 0.846482
Si Si6 0.171944 0.934400 0.458100
Si Si7 0.406139 0.565323 0.666998
Si Si8 0.542842 0.564672 0.659881
O O1 0.675559 0.750000 0.224880
O O2 0.694330 0.496804 0.130106
O O3 0.753232 0.507578 0.389882
O O4 0.605807 0.504162 0.223735
O O5 0.922595 0.750000 0.467444
O O6 0.847408 0.513021 0.295845
O O7 0.901987 0.495731 0.559001
O O8 0.000000 0.500000 0.500000
O O9 0.283320 0.750000 0.174945
O O10 0.253111 0.019487 0.227605
O O11 0.372387 0.988322 0.235563
O O12 0.236188 0.964936 0.985616
O O13 0.744426 0.750000 0.626896
O O14 0.815073 0.007388 0.651999
O O15 0.663254 0.999400 0.493344
O O16 0.224176 0.750000 0.822366
O O17 0.176114 0.750000 0.468460
O O18 0.396506 0.750000 0.661511
O O19 0.487954 0.529943 0.702142
O O20 0.500000 0.500000 0.500000
O O21 0.550201 0.750000 0.659205
#
# Coordination Sequence:
#
# PCOD9156880 Si02
#       8
#     4   4   4   4   4   4   4   4
#     4  10  18  30  51  76 102 135 176 223 271 321
#     4  11  21  36  60  89 117 143 176 216 262 316
#     4  11  23  37  54  76 107 145 184 225 274 326
#     4  11  20  31  51  77 106 141 182 226 270 318
#     4  10  21  38  57  79 109 144 180 220 267 323
#     4  10  18  31  52  79 111 141 176 220 264 312
#     4  10  19  32  50  73 102 136 178 228 278 323
#     4  11  22  34  52  75 105 140 182 232 278 326
#
# _framework density 18.089859000000001
#
# number of rings (size 3 to 8) (size 9 to 14) (size 15 to 20)
#    0.000    1.500    1.250    9.000    0.000    3.500 
#    0.000    0.625    0.000    0.750    0.000    0.000 
#    0.000    0.000    0.000    0.000    0.000    0.000 
#
# Total GULP energy -178692.760472 kJ/mol
# GULP energy per Si atom -5584.148765 kJ/mol
# Density = 1.804869 g / cm^3
# Si number density = 18.089859 Si / 1000 Ang^3
#
#
#
# Elastic Constant Matrix: (Units=GPa)
#
#
# Indices 1 2 3 4 5 6 
#
# 1 150.1688 55.1722 33.2098 0.0000 -18.1540 0.0000
# 2 55.1722 108.9886 24.3792 0.0000 -12.4502 0.0000
# 3 33.2098 24.3792 40.2372 0.0000 -10.9318 0.0000
# 4 0.0000 0.0000 0.0000 0.3056 0.0000 -1.7599
# 5 -18.1540 -12.4502 -10.9318 0.0000 22.4427 0.0000
# 6 0.0000 0.0000 0.0000 -1.7599 0.0000 35.1222
#
#
#
# Elastic Compliance Matrix: (Units=1/GPa)
#
#
# Indices 1 2 3 4 5 6 
#
# 1 0.009330 -0.003261 -0.004801 0.000000 0.003399 0.000000
# 2 -0.003261 0.011953 -0.003995 0.000000 0.002048 0.000000
# 3 -0.004801 -0.003995 0.034090 0.000000 0.010505 0.000000
# 4 0.000000 0.000000 0.000000 4.599366 0.000000 0.230460
# 5 0.003399 0.002048 0.010505 0.000000 0.053561 0.000000
# 6 0.000000 0.000000 0.000000 0.230460 0.000000 0.040020
#
#
# Mechanical properties :
#
#
# Convention : Reuss Voigt Hill
#
# Bulk Modulus (GPa) = 31.99013 58.32410 45.15712
# Shear Modulus (GPa) = 1.04540 24.01633 12.53086
#
# Velocity S-wave (km/s) = 0.76102 3.64759 2.63478
# Velocity P-wave (km/s) = 4.30054 7.07469 5.85431
#
# Compressibility (1/GPa) = 0.03125964
#
# Stress axis : x y z
#
# Youngs Moduli (GPa) = 107.18222 83.65821 29.33415
#
# Poissons Ratio (x) = 0.27278 0.14084
# Poissons Ratio (y) = 0.34949 0.11719
# Poissons Ratio (z) = 0.51461 0.33420
#
# Static dielectric constant tensor:
#      x y z
#    x 1.661680 0.000000 -0.023070 
#    y 0.000000 1.604830 0.000000 
#    z -0.023070 0.000000 1.625720 
# 
# From -- ./inp_files/42943.got.cif
#   From: 2010.05.17/outbox.cif.g08.bks.cpg/sg11_22_cif.got.tgz:42943.got - 2010.06.03 12:22:45.
