data_PCOD9156465
_publ_section_title
;
Structure prediction by ZEFSAII (Michael W. Deem and Ramdas Pophale) SiO2 
 PCOD9156465
Probable space group: P 21/M
;
_chemical_formula_sum "Si O2"
_cell_formula_units_Z 32
_cell_length_a 31.844777
_cell_length_b 8.826951
_cell_length_c 12.112132
_cell_angle_alpha 90.000000
_cell_angle_beta 152.887593
_cell_angle_gamma 90.000000
_cell_volume 1551.616705
_symmetry_space_group_name_H-M "P 21/M"
_symmetry_group_IT_number 11
_symmetry_cell_setting 'monoclinic'
loop_
_space_group_symop_operation_xyz
x,y,z
-x,1/2+y,-z
-x,-y,-z
x,1/2-y,z
loop_
_atom_site_type_symbol
_atom_site_label
_atom_site_fract_x
_atom_site_fract_y
_atom_site_fract_z
Si Si1 0.313963 0.569968 0.056829
Si Si2 0.865133 0.920176 0.278989
Si Si3 0.021902 0.426180 0.754666
Si Si4 0.389783 0.569016 0.469084
Si Si5 0.918330 0.425142 0.741703
Si Si6 0.462330 0.568798 0.025412
Si Si7 0.290123 0.564633 0.755714
Si Si8 0.212882 0.076972 0.150335
O O1 0.327444 0.750000 0.087389
O O2 0.369852 0.513905 0.296107
O O3 0.207711 0.532388 0.834968
O O4 0.329276 0.513647 0.967634
O O5 0.849441 0.750000 0.284500
O O6 0.968876 0.969100 0.544623
O O7 0.838283 0.921734 0.088114
O O8 0.024817 0.250000 0.725619
O O9 0.956058 0.432575 0.705920
O O10 0.127672 0.470764 0.028424
O O11 0.597479 0.250000 0.502184
O O12 0.473821 0.486296 0.724372
O O13 0.300541 0.527808 0.335430
O O14 0.912153 0.250000 0.761176
O O15 0.814794 0.489430 0.505780
O O16 0.000000 0.500000 0.000000
O O17 0.465521 0.750000 0.024591
O O18 0.500000 0.500000 0.000000
O O19 0.358817 0.522213 0.817928
O O20 0.287567 0.750000 0.754735
O O21 0.242385 0.250000 0.245063
#
# Coordination Sequence:
#
# PCOD9156465 Si02
#       8
#     4   4   4   4   4   4   4   4
#     4   9  17  35  61  86 117 156 196 235 291 361
#     4  10  18  28  47  80 118 149 186 233 280 334
#     4  10  19  33  53  74 106 153 196 234 281 339
#     4  10  21  37  60  90 122 156 195 242 297 354
#     4  10  21  38  58  81 111 146 191 238 284 338
#     4  11  24  43  66  88 116 153 198 248 296 351
#     4   9  19  39  65  88 113 154 197 239 295 354
#     4   9  19  33  51  80 116 153 190 231 281 334
#
# _framework density 20.623650999999999
#
# number of rings (size 3 to 8) (size 9 to 14) (size 15 to 20)
#    0.000    2.250    1.250    1.500    0.000    3.500 
#    0.000    5.000    0.000    0.000    0.000    0.000 
#    0.000    0.000    0.000    0.000    0.000    0.000 
#
# Total GULP energy -178411.683698 kJ/mol
# GULP energy per Si atom -5575.365116 kJ/mol
# Density = 2.057671 g / cm^3
# Si number density = 20.623651 Si / 1000 Ang^3
#
#
#
# Elastic Constant Matrix: (Units=GPa)
#
#
# Indices 1 2 3 4 5 6 
#
# 1 105.4640 18.6240 49.3918 0.0000 18.6170 0.0000
# 2 18.6240 21.9437 21.0745 0.0000 -0.2311 0.0000
# 3 49.3918 21.0745 90.9580 0.0000 5.4882 0.0000
# 4 0.0000 0.0000 0.0000 30.9446 0.0000 -0.5943
# 5 18.6170 -0.2311 5.4882 0.0000 28.7962 0.0000
# 6 0.0000 0.0000 0.0000 -0.5943 0.0000 18.9337
#
#
#
# Elastic Compliance Matrix: (Units=1/GPa)
#
#
# Indices 1 2 3 4 5 6 
#
# 1 0.015088 -0.007113 -0.006022 0.000000 -0.008664 0.000000
# 2 -0.007113 0.062241 -0.010992 0.000000 0.007193 0.000000
# 3 -0.006022 -0.010992 0.016774 0.000000 0.000608 0.000000
# 4 0.000000 0.000000 0.000000 0.032335 0.000000 0.001015
# 5 -0.008664 0.007193 0.000608 0.000000 0.040270 0.000000
# 6 0.000000 0.000000 0.000000 0.001015 0.000000 0.052848
#
#
# Mechanical properties :
#
#
# Convention : Reuss Voigt Hill
#
# Bulk Modulus (GPa) = 21.81124 44.06072 32.93598
# Shear Modulus (GPa) = 17.66203 24.35325 21.00764
#
# Velocity S-wave (km/s) = 2.92960 3.44006 3.19504
# Velocity P-wave (km/s) = 4.69491 6.09830 5.44204
#
# Compressibility (1/GPa) = 0.04584792
#
# Stress axis : x y z
#
# Youngs Moduli (GPa) = 66.27947 16.06665 59.61467
#
# Poissons Ratio (x) = 0.11428 0.35900
# Poissons Ratio (y) = 0.47143 0.65531
# Poissons Ratio (z) = 0.39914 0.17661
#
# Static dielectric constant tensor:
#      x y z
#    x 1.828360 0.000000 0.006860 
#    y 0.000000 1.772110 0.000000 
#    z 0.006860 0.000000 1.767410 
# 
# From -- ./inp_files/45375.got.cif
#   From: 2010.05.17/outbox.cif.g08.bks.cpg/sg11_23_cif.got.tgz:45375.got - 2010.06.03 12:22:45.
