data_PCOD9156097
_publ_section_title
;
Structure prediction by ZEFSAII (Michael W. Deem and Ramdas Pophale) SiO2 
 PCOD9156097
Probable space group: P 21/M
;
_chemical_formula_sum "Si O2"
_cell_formula_units_Z 32
_cell_length_a 15.478236
_cell_length_b 8.709166
_cell_length_c 15.398425
_cell_angle_alpha 90.000000
_cell_angle_beta 101.121114
_cell_angle_gamma 90.000000
_cell_volume 2036.767504
_symmetry_space_group_name_H-M "P 21/M"
_symmetry_group_IT_number 11
_symmetry_cell_setting 'monoclinic'
loop_
_space_group_symop_operation_xyz
x,y,z
-x,1/2+y,-z
-x,-y,-z
x,1/2-y,z
loop_
_atom_site_type_symbol
_atom_site_label
_atom_site_fract_x
_atom_site_fract_y
_atom_site_fract_z
Si Si1 0.294223 0.565960 0.418109
Si Si2 0.421837 0.065787 0.298464
Si Si3 0.435365 0.566469 0.111742
Si Si4 0.913605 0.434817 0.379486
Si Si5 0.887473 0.933191 0.565694
Si Si6 0.256834 0.564870 0.754415
Si Si7 0.627839 0.933290 0.075907
Si Si8 0.380454 0.563504 0.616925
O O1 0.297318 0.750000 0.416521
O O2 0.348667 0.499145 0.348716
O O3 0.193615 0.511056 0.401641
O O4 0.339789 0.512872 0.517464
O O5 0.420112 0.250000 0.299579
O O6 0.519027 0.013888 0.349580
O O7 0.410574 0.007754 0.198220
O O8 0.431063 0.750000 0.117032
O O9 0.536300 0.522486 0.106856
O O10 0.377299 0.508352 0.019885
O O11 0.908636 0.250000 0.391352
O O12 0.887332 0.511886 0.465479
O O13 0.842321 0.475626 0.292897
O O14 0.015078 0.474322 0.380392
O O15 0.877887 0.750000 0.567240
O O16 0.262849 0.750000 0.763057
O O17 0.293071 0.490556 0.848787
O O18 0.319909 0.516144 0.686367
O O19 0.628874 0.750000 0.067615
O O20 0.379485 0.750000 0.616206
#
# Coordination Sequence:
#
# PCOD9156097 Si02
#       8
#     4   4   4   4   4   4   4   4
#     4  11  21  35  50  68  97 136 173 206 245 293
#     4  11  21  34  50  71  97 130 170 212 246 282
#     4  10  20  34  50  70  96 131 166 200 245 295
#     4   9  18  32  50  70  98 131 163 201 249 297
#     4  10  19  31  48  72  97 127 167 209 247 287
#     4  10  17  31  51  72  98 133 166 197 244 298
#     4  10  20  32  49  74 100 126 161 206 247 288
#     4   9  18  31  48  68  97 134 170 202 238 284
#
# _framework density 15.711169999999999
#
# number of rings (size 3 to 8) (size 9 to 14) (size 15 to 20)
#    0.000    2.000    2.500    2.250    0.000    2.000 
#    0.000    1.875    0.000    0.000    0.000    0.875 
#    0.000    0.000    0.000    0.000    0.000    0.000 
#
# Total GULP energy -178582.424219 kJ/mol
# GULP energy per Si atom -5580.700757 kJ/mol
# Density = 1.567541 g / cm^3
# Si number density = 15.711170 Si / 1000 Ang^3
#
#
#
# Elastic Constant Matrix: (Units=GPa)
#
#
# Indices 1 2 3 4 5 6 
#
# 1 113.6664 36.9973 70.9373 0.0000 8.4409 0.0000
# 2 36.9973 36.6729 34.4799 0.0000 3.3048 0.0000
# 3 70.9373 34.4799 103.7817 0.0000 9.8145 0.0000
# 4 0.0000 0.0000 0.0000 24.7752 0.0000 -0.6447
# 5 8.4409 3.3048 9.8145 0.0000 24.4842 0.0000
# 6 0.0000 0.0000 0.0000 -0.6447 0.0000 21.0415
#
#
#
# Elastic Compliance Matrix: (Units=1/GPa)
#
#
# Indices 1 2 3 4 5 6 
#
# 1 0.017270 -0.009195 -0.008631 0.000000 -0.001253 0.000000
# 2 -0.009195 0.044551 -0.008572 0.000000 0.000593 0.000000
# 3 -0.008631 -0.008572 0.018701 0.000000 -0.003364 0.000000
# 4 0.000000 0.000000 0.000000 0.040395 0.000000 0.001238
# 5 -0.001253 0.000593 -0.003364 0.000000 0.042543 0.000000
# 6 0.000000 0.000000 0.000000 0.001238 0.000000 0.047563
#
#
# Mechanical properties :
#
#
# Convention : Reuss Voigt Hill
#
# Bulk Modulus (GPa) = 36.06825 59.88333 47.97579
# Shear Modulus (GPa) = 18.31083 21.50729 19.90906
#
# Velocity S-wave (km/s) = 3.41760 3.70390 3.56363
# Velocity P-wave (km/s) = 6.21130 7.51596 6.89456
#
# Compressibility (1/GPa) = 0.02772522
#
# Stress axis : x y z
#
# Youngs Moduli (GPa) = 57.90329 22.44626 53.47190
#
# Poissons Ratio (x) = 0.20639 0.46153
# Poissons Ratio (y) = 0.53242 0.45838
# Poissons Ratio (z) = 0.49977 0.19242
#
# Static dielectric constant tensor:
#      x y z
#    x 1.521580 0.000000 0.018700 
#    y 0.000000 1.525150 0.000000 
#    z 0.018700 0.000000 1.501220 
# 
# From -- ./inp_files/51363.got.cif
#   From: 2010.05.17/outbox.cif.g08.bks.cpg/sg11_26_cif.got.tgz:51363.got - 2010.06.03 12:22:45.
