data_PCOD9156640
_publ_section_title
;
Structure prediction by ZEFSAII (Michael W. Deem and Ramdas Pophale) SiO2 
 PCOD9156640
Probable space group: P 21/M
;
_chemical_formula_sum "Si O2"
_cell_formula_units_Z 32
_cell_length_a 9.102867
_cell_length_b 15.558745
_cell_length_c 25.390732
_cell_angle_alpha 90.000000
_cell_angle_beta 30.446687
_cell_angle_gamma 90.000000
_cell_volume 1822.258945
_symmetry_space_group_name_H-M "P 21/M"
_symmetry_group_IT_number 11
_symmetry_cell_setting 'monoclinic'
loop_
_space_group_symop_operation_xyz
x,y,z
-x,1/2+y,-z
-x,-y,-z
x,1/2-y,z
loop_
_atom_site_type_symbol
_atom_site_label
_atom_site_fract_x
_atom_site_fract_y
_atom_site_fract_z
Si Si1 0.280648 0.845492 0.744644
Si Si2 0.955557 0.411225 0.074817
Si Si3 0.321768 0.018499 0.243427
Si Si4 0.301956 0.940275 0.023962
Si Si5 0.716112 0.001459 0.623026
Si Si6 0.576589 0.844621 0.147857
Si Si7 0.206455 0.348651 0.193722
Si Si8 0.269980 0.348719 0.775346
O O1 0.409734 0.750000 0.704026
O O2 0.516455 0.920009 0.670808
O O3 0.104796 0.858306 0.853400
O O4 0.058121 0.853665 0.765391
O O5 0.133205 0.495282 0.037340
O O6 0.646823 0.442838 0.149001
O O7 0.143588 0.360174 0.974748
O O8 0.209805 0.007234 0.337592
O O9 0.161546 0.085230 0.255374
O O10 0.359142 0.924047 0.206884
O O11 0.050911 0.888706 0.132494
O O12 0.508658 0.878115 0.926676
O O13 0.500000 0.000000 0.000000
O O14 0.514887 0.086250 0.678248
O O15 0.000000 0.000000 0.500000
O O16 0.454181 0.750000 0.175130
O O17 0.674353 0.848139 0.178621
O O18 0.238888 0.250000 0.201621
O O19 0.289384 0.250000 0.750957
#
# Coordination Sequence:
#
# PCOD9156640 Si02
#       8
#     4   4   4   4   4   4   4   4
#     4  10  21  37  55  81 114 145 183 226 272 325
#     4  11  18  32  50  75 110 147 182 219 262 312
#     4  10  20  35  52  78 107 139 182 230 271 328
#     4  12  19  32  53  77 115 157 184 215 260 327
#     4  10  21  40  62  82 103 137 184 239 292 330
#     4  10  18  29  49  74 105 142 177 215 263 317
#     4  11  22  34  54  82 115 154 184 217 270 329
#     4  10  20  35  53  78 109 142 181 226 273 331
#
# _framework density 17.560621999999999
#
# number of rings (size 3 to 8) (size 9 to 14) (size 15 to 20)
#    0.000    1.500    6.250    1.875    0.000    4.000 
#    0.000    0.625    0.000    0.000    0.000    0.000 
#    0.000    0.000    0.000    0.000    0.000    0.000 
#
# Total GULP energy -178626.043891 kJ/mol
# GULP energy per Si atom -5582.063872 kJ/mol
# Density = 1.752065 g / cm^3
# Si number density = 17.560622 Si / 1000 Ang^3
#
#
#
# Elastic Constant Matrix: (Units=GPa)
#
#
# Indices 1 2 3 4 5 6 
#
# 1 41.4613 38.3300 20.9582 0.0000 5.6426 0.0000
# 2 38.3300 164.3631 57.0613 0.0000 3.0362 0.0000
# 3 20.9582 57.0613 119.1675 0.0000 10.3388 0.0000
# 4 0.0000 0.0000 0.0000 6.0614 0.0000 1.3141
# 5 5.6426 3.0362 10.3388 0.0000 12.7797 0.0000
# 6 0.0000 0.0000 0.0000 1.3141 0.0000 26.1433
#
#
#
# Elastic Compliance Matrix: (Units=1/GPa)
#
#
# Indices 1 2 3 4 5 6 
#
# 1 0.032860 -0.006948 -0.001438 0.000000 -0.011695 0.000000
# 2 -0.006948 0.008783 -0.003300 0.000000 0.003651 0.000000
# 3 -0.001438 -0.003300 0.010864 0.000000 -0.007370 0.000000
# 4 0.000000 0.000000 0.000000 0.166795 0.000000 -0.008384
# 5 -0.011695 0.003651 -0.007370 0.000000 0.088508 0.000000
# 6 0.000000 0.000000 0.000000 -0.008384 0.000000 0.038672
#
#
# Mechanical properties :
#
#
# Convention : Reuss Voigt Hill
#
# Bulk Modulus (GPa) = 34.32242 61.96562 48.14402
# Shear Modulus (GPa) = 13.17293 22.90639 18.03966
#
# Velocity S-wave (km/s) = 2.74184 3.61559 3.20860
# Velocity P-wave (km/s) = 5.44161 7.26590 6.41889
#
# Compressibility (1/GPa) = 0.02913548
#
# Stress axis : x y z
#
# Youngs Moduli (GPa) = 30.43167 113.86053 92.04646
#
# Poissons Ratio (x) = 0.79111 0.13233
# Poissons Ratio (y) = 0.21144 0.30377
# Poissons Ratio (z) = 0.04375 0.37577
#
# Static dielectric constant tensor:
#      x y z
#    x 1.608840 0.000000 0.016840 
#    y 0.000000 1.632670 0.000000 
#    z 0.016840 0.000000 1.571510 
# 
# From -- ./inp_files/26859.got.cif
#   From: 2010.05.17/outbox.cif.g08.bks.cpg/sg11_14_cif.got.tgz:26859.got - 2010.06.03 12:22:45.
