data_PCOD9156485
_publ_section_title
;
Structure prediction by ZEFSAII (Michael W. Deem and Ramdas Pophale) SiO2 
 PCOD9156485
Probable space group: P 21/M
;
_chemical_formula_sum "Si O2"
_cell_formula_units_Z 32
_cell_length_a 31.665228
_cell_length_b 8.737192
_cell_length_c 16.556677
_cell_angle_alpha 90.000000
_cell_angle_beta 29.504991
_cell_angle_gamma 90.000000
_cell_volume 2255.970199
_symmetry_space_group_name_H-M "P 21/M"
_symmetry_group_IT_number 11
_symmetry_cell_setting 'monoclinic'
loop_
_space_group_symop_operation_xyz
x,y,z
-x,1/2+y,-z
-x,-y,-z
x,1/2-y,z
loop_
_atom_site_type_symbol
_atom_site_label
_atom_site_fract_x
_atom_site_fract_y
_atom_site_fract_z
Si Si1 0.171912 0.565293 0.822317
Si Si2 0.527728 0.432949 0.081438
Si Si3 0.481811 0.433466 0.725419
Si Si4 0.586513 0.433824 0.315892
Si Si5 0.995090 0.433192 0.098619
Si Si6 0.194414 0.565979 0.595676
Si Si7 0.665690 0.064285 0.345290
Si Si8 0.633068 0.567275 0.762004
O O1 0.167057 0.750000 0.833112
O O2 0.191323 0.523924 0.696306
O O3 0.249790 0.511177 0.748991
O O4 0.079369 0.499142 0.000780
O O5 0.531184 0.250000 0.082494
O O6 0.534175 0.507291 0.158343
O O7 0.437111 0.475646 0.189818
O O8 0.600280 0.490816 0.899036
O O9 0.479711 0.250000 0.726427
O O10 0.414541 0.498528 0.771970
O O11 0.577685 0.483618 0.536819
O O12 0.500000 0.500000 0.500000
O O13 0.581942 0.250000 0.319676
O O14 0.658146 0.477125 0.263138
O O15 0.000451 0.250000 0.086342
O O16 0.898768 0.473460 0.286818
O O17 0.000000 0.500000 0.000000
O O18 0.204563 0.750000 0.575012
O O19 0.273916 0.487661 0.420203
O O20 0.666294 0.250000 0.347744
O O21 0.630752 0.750000 0.774771
#
# Coordination Sequence:
#
# PCOD9156485 Si02
#       8
#     4   4   4   4   4   4   4   4
#     4   9  16  27  42  60  82 110 141 170 203 242
#     4  10  20  32  44  60  83 109 137 172 211 246
#     4  10  18  29  44  60  81 111 144 175 207 244
#     4   9  16  27  41  59  83 110 140 172 206 245
#     4   9  17  28  40  57  80 107 137 169 205 242
#     4   9  17  28  42  58  81 112 140 168 206 247
#     4   8  15  26  41  60  83 111 139 168 204 244
#     4  10  20  31  44  62  82 106 139 175 207 242
#
# _framework density 14.184585
#
# number of rings (size 3 to 8) (size 9 to 14) (size 15 to 20)
#    0.000    2.750    0.000    4.125    0.000    5.000 
#    0.000    3.750    0.000    0.000    0.000    0.000 
#    0.000    1.000    0.000    3.000    0.000    4.625 
#
# Total GULP energy -178189.760295 kJ/mol
# GULP energy per Si atom -5568.430009 kJ/mol
# Density = 1.415230 g / cm^3
# Si number density = 14.184585 Si / 1000 Ang^3
#
#
#
# Elastic Constant Matrix: (Units=GPa)
#
#
# Indices 1 2 3 4 5 6 
#
# 1 118.2562 32.6235 54.7230 0.0000 -0.7251 0.0000
# 2 32.6235 35.4075 29.4363 0.0000 1.4979 0.0000
# 3 54.7230 29.4363 86.2233 0.0000 -8.0530 0.0000
# 4 0.0000 0.0000 0.0000 22.9114 0.0000 -0.1853
# 5 -0.7251 1.4979 -8.0530 0.0000 24.8115 0.0000
# 6 0.0000 0.0000 0.0000 -0.1853 0.0000 19.7905
#
#
#
# Elastic Compliance Matrix: (Units=1/GPa)
#
#
# Indices 1 2 3 4 5 6 
#
# 1 0.013213 -0.007070 -0.006081 0.000000 -0.001161 0.000000
# 2 -0.007070 0.044420 -0.011290 0.000000 -0.006552 0.000000
# 3 -0.006081 -0.011290 0.019964 0.000000 0.006983 0.000000
# 4 0.000000 0.000000 0.000000 0.043650 0.000000 0.000409
# 5 -0.001161 -0.006552 0.006983 0.000000 0.042932 0.000000
# 6 0.000000 0.000000 0.000000 0.000409 0.000000 0.050533
#
#
# Mechanical properties :
#
#
# Convention : Reuss Voigt Hill
#
# Bulk Modulus (GPa) = 34.82415 52.60583 43.71499
# Shear Modulus (GPa) = 18.30403 21.70964 20.00683
#
# Velocity S-wave (km/s) = 3.59613 3.91642 3.75969
# Velocity P-wave (km/s) = 6.46892 7.59067 7.05213
#
# Compressibility (1/GPa) = 0.02871571
#
# Stress axis : x y z
#
# Youngs Moduli (GPa) = 75.68063 22.51261 50.09136
#
# Poissons Ratio (x) = 0.15916 0.30460
# Poissons Ratio (y) = 0.53506 0.56551
# Poissons Ratio (z) = 0.46020 0.25416
#
# Static dielectric constant tensor:
#      x y z
#    x 1.494050 0.000000 -0.015630 
#    y 0.000000 1.475660 0.000000 
#    z -0.015630 0.000000 1.454650 
# 
# From -- ./inp_files/51203.got.cif
#   From: 2010.05.17/outbox.cif.g08.bks.cpg/sg11_26_cif.got.tgz:51203.got - 2010.06.03 12:22:45.
