data_PCOD9156676
_publ_section_title
;
Structure prediction by ZEFSAII (Michael W. Deem and Ramdas Pophale) SiO2 
 PCOD9156676
Probable space group: P 21/M
;
_chemical_formula_sum "Si O2"
_cell_formula_units_Z 22
_cell_length_a 9.614969
_cell_length_b 11.735135
_cell_length_c 14.310449
_cell_angle_alpha 90.000000
_cell_angle_beta 127.051269
_cell_angle_gamma 90.000000
_cell_volume 1288.678972
_symmetry_space_group_name_H-M "P 21/M"
_symmetry_group_IT_number 11
_symmetry_cell_setting 'monoclinic'
loop_
_space_group_symop_operation_xyz
x,y,z
-x,1/2+y,-z
-x,-y,-z
x,1/2-y,z
loop_
_atom_site_type_symbol
_atom_site_label
_atom_site_fract_x
_atom_site_fract_y
_atom_site_fract_z
Si Si1 0.742953 0.750000 0.705950
Si Si2 0.896928 0.250000 0.060585
Si Si3 0.845342 0.027084 0.367173
Si Si4 0.296954 0.382954 0.855853
Si Si5 0.316608 0.535010 0.040999
Si Si6 0.057473 0.750000 0.709718
Si Si7 0.520462 0.881200 0.734988
O O1 0.622737 0.858677 0.679720
O O2 0.894208 0.750000 0.847403
O O3 0.853529 0.750000 0.656906
O O4 0.845175 0.250000 0.150536
O O5 0.817216 0.134951 0.987304
O O6 0.894481 0.138273 0.327200
O O7 0.665238 0.058024 0.346691
O O8 0.805629 0.927670 0.276568
O O9 0.000000 0.000000 0.500000
O O10 0.268739 0.250000 0.861711
O O11 0.501613 0.406305 0.917583
O O12 0.250965 0.460032 0.926985
O O13 0.365755 0.452316 0.145908
O O14 0.494117 0.750000 0.759614
#
# Coordination Sequence:
#
# PCOD9156676 Si02
#       7
#     2   2   4   4   4   2   4
#     4   8  19  35  58  76 105 157 174 213 264 335
#     4  10  18  32  51  78 109 144 184 202 258 326
#     4  11  22  35  58  81 103 140 181 243 267 314
#     4  10  19  29  47  80 110 134 176 218 283 313
#     4  10  18  29  51  78 113 143 170 219 264 322
#     4  10  19  39  55  78 110 139 186 209 274 327
#     4   9  19  36  54  81 110 141 179 218 274 320
#
# _framework density 17.071746999999998
#
# number of rings (size 3 to 8) (size 9 to 14) (size 15 to 20)
#    1.091    1.091    3.636    0.545    1.273    0.727 
#    0.000    0.909    0.000    0.000    0.000    0.000 
#    0.000    0.000    0.000    0.000    0.000    0.000 
#
# Total GULP energy -122479.107035 kJ/mol
# GULP energy per Si atom -5567.232138 kJ/mol
# Density = 1.703289 g / cm^3
# Si number density = 17.071747 Si / 1000 Ang^3
#
#
#
# Elastic Constant Matrix: (Units=GPa)
#
#
# Indices 1 2 3 4 5 6 
#
# 1 47.8522 -2.1363 -4.2945 0.0000 10.5612 0.0000
# 2 -2.1363 95.4214 24.3071 0.0000 8.4713 0.0000
# 3 -4.2945 24.3071 79.8814 0.0000 16.6501 0.0000
# 4 0.0000 0.0000 0.0000 9.4262 0.0000 7.8208
# 5 10.5612 8.4713 16.6501 0.0000 12.5153 0.0000
# 6 0.0000 0.0000 0.0000 7.8208 0.0000 12.0871
#
#
#
# Elastic Compliance Matrix: (Units=1/GPa)
#
#
# Indices 1 2 3 4 5 6 
#
# 1 0.030483 0.001807 0.009278 0.000000 -0.039290 0.000000
# 2 0.001807 0.011635 -0.002053 0.000000 -0.006669 0.000000
# 3 0.009278 -0.002053 0.020734 0.000000 -0.034024 0.000000
# 4 0.000000 0.000000 0.000000 0.229047 0.000000 -0.148201
# 5 -0.039290 -0.006669 -0.034024 0.000000 0.162836 0.000000
# 6 0.000000 0.000000 0.000000 -0.148201 0.000000 0.178624
#
#
# Mechanical properties :
#
#
# Convention : Reuss Voigt Hill
#
# Bulk Modulus (GPa) = 12.35853 28.76750 20.56301
# Shear Modulus (GPa) = 7.78492 20.49096 14.13794
#
# Velocity S-wave (km/s) = 2.13776 3.46827 2.88088
# Velocity P-wave (km/s) = 3.65353 5.73812 4.81011
#
# Compressibility (1/GPa) = 0.08091579
#
# Stress axis : x y z
#
# Youngs Moduli (GPa) = 32.80567 85.94462 48.23012
#
# Poissons Ratio (x) = -0.15530 -0.44749
# Poissons Ratio (y) = -0.05928 0.09903
# Poissons Ratio (z) = -0.30438 0.17648
#
# Static dielectric constant tensor:
#      x y z
#    x 1.601990 0.000000 0.010290 
#    y 0.000000 1.567280 0.000000 
#    z 0.010290 0.000000 1.564660 
# 
# From -- ./inp_files/44807.got.cif
#   From: 2010.05.17/outbox.cif.g08.bks.cpg/sg11_23_cif.got.tgz:44807.got - 2010.06.03 12:22:45.
