data_PCOD9156942
_publ_section_title
;
Structure prediction by ZEFSAII (Michael W. Deem and Ramdas Pophale) SiO2 
 PCOD9156942
Probable space group: P 21/M
;
_chemical_formula_sum "Si O2"
_cell_formula_units_Z 32
_cell_length_a 15.020224
_cell_length_b 7.733604
_cell_length_c 29.178127
_cell_angle_alpha 90.000000
_cell_angle_beta 150.936082
_cell_angle_gamma 90.000000
_cell_volume 1646.492944
_symmetry_space_group_name_H-M "P 21/M"
_symmetry_group_IT_number 11
_symmetry_cell_setting 'monoclinic'
loop_
_space_group_symop_operation_xyz
x,y,z
-x,1/2+y,-z
-x,-y,-z
x,1/2-y,z
loop_
_atom_site_type_symbol
_atom_site_label
_atom_site_fract_x
_atom_site_fract_y
_atom_site_fract_z
Si Si1 0.113373 0.041225 0.618573
Si Si2 0.393309 0.538494 0.313217
Si Si3 0.699261 0.962339 0.203213
Si Si4 0.033389 0.546781 0.295237
Si Si5 0.397946 0.455396 0.501069
Si Si6 0.034794 0.956040 0.195136
Si Si7 0.608443 0.456068 0.001511
Si Si8 0.269003 0.457303 0.591525
O O1 0.119601 0.250000 0.621437
O O2 0.227144 0.981190 0.714077
O O3 0.204523 0.976359 0.612182
O O4 0.898469 0.993180 0.518929
O O5 0.394153 0.750000 0.310602
O O6 0.490986 0.486461 0.404765
O O7 0.534146 0.477608 0.337477
O O8 0.182182 0.479462 0.223949
O O9 0.699821 0.750000 0.204414
O O10 0.506900 0.017373 0.094774
O O11 0.849031 0.024520 0.233718
O O12 0.001048 0.750000 0.273545
O O13 0.195523 0.528355 0.404258
O O14 0.082662 0.473750 0.267589
O O15 0.500000 0.500000 0.500000
O O16 0.383695 0.250000 0.498043
O O17 0.065113 0.750000 0.209435
O O18 0.818118 0.983437 0.093015
O O19 0.613156 0.250000 0.002223
O O20 0.500000 0.500000 0.000000
O O21 0.281631 0.250000 0.600905
#
# Coordination Sequence:
#
# PCOD9156942 Si02
#       8
#     4   4   4   4   4   4   4   4
#     4   9  17  31  52  76  99 127 160 196 242 291
#     4   9  18  32  48  66  96 132 161 194 241 288
#     4   9  18  32  50  70  97 127 156 196 248 294
#     4  10  18  31  47  65  93 129 158 191 238 285
#     4  11  20  30  43  64  94 128 161 193 230 278
#     4  10  19  34  50  66  94 132 164 198 242 287
#     4  11  21  35  52  72  97 128 167 208 247 289
#     4   9  17  31  52  76 100 127 161 198 236 287
#
# _framework density 19.435248999999999
#
# number of rings (size 3 to 8) (size 9 to 14) (size 15 to 20)
#    0.000    2.250    2.500    1.500    0.000    0.500 
#    0.000    2.500    0.000    0.750    0.000    0.000 
#    0.000    0.000    0.000    0.000    0.000    0.125 
#
# Total GULP energy -178388.550144 kJ/mol
# GULP energy per Si atom -5574.642192 kJ/mol
# Density = 1.939101 g / cm^3
# Si number density = 19.435249 Si / 1000 Ang^3
#
#
#
# Elastic Constant Matrix: (Units=GPa)
#
#
# Indices 1 2 3 4 5 6 
#
# 1 104.6936 9.0446 57.8973 0.0000 24.1797 0.0000
# 2 9.0446 22.1023 -7.0401 0.0000 -2.5136 0.0000
# 3 57.8973 -7.0401 114.2595 0.0000 18.3037 0.0000
# 4 0.0000 0.0000 0.0000 23.8405 0.0000 3.8280
# 5 24.1797 -2.5136 18.3037 0.0000 34.5675 0.0000
# 6 0.0000 0.0000 0.0000 3.8280 0.0000 10.2695
#
#
#
# Elastic Compliance Matrix: (Units=1/GPa)
#
#
# Indices 1 2 3 4 5 6 
#
# 1 0.016614 -0.010199 -0.007721 0.000000 -0.008274 0.000000
# 2 -0.010199 0.052541 0.007267 0.000000 0.007107 0.000000
# 3 -0.007721 0.007267 0.013290 0.000000 -0.001107 0.000000
# 4 0.000000 0.000000 0.000000 0.044616 0.000000 -0.016631
# 5 -0.008274 0.007107 -0.001107 0.000000 0.035820 0.000000
# 6 0.000000 0.000000 0.000000 -0.016631 0.000000 0.103575
#
#
# Mechanical properties :
#
#
# Convention : Reuss Voigt Hill
#
# Bulk Modulus (GPa) = 16.35672 40.09544 28.22608
# Shear Modulus (GPa) = 16.22633 25.81242 21.01938
#
# Velocity S-wave (km/s) = 2.89258 3.64830 3.29220
# Velocity P-wave (km/s) = 4.42610 6.19853 5.38573
#
# Compressibility (1/GPa) = 0.06113694
#
# Stress axis : x y z
#
# Youngs Moduli (GPa) = 60.19046 19.03289 75.24572
#
# Poissons Ratio (x) = 0.19412 0.58101
# Poissons Ratio (y) = 0.61389 -0.54680
# Poissons Ratio (z) = 0.46476 -0.13831
#
# Static dielectric constant tensor:
#      x y z
#    x 1.724990 0.000000 0.035040 
#    y 0.000000 1.723310 0.000000 
#    z 0.035040 0.000000 1.723890 
# 
# From -- ./inp_files/73322.got.cif
#   From: 2010.05.17/outbox.cif.g08.bks.cpg/sg11_37_cif.got.tgz:73322.got - 2010.06.03 12:22:45.
