data_PCOD9156953
_publ_section_title
;
Structure prediction by ZEFSAII (Michael W. Deem and Ramdas Pophale) SiO2 
 PCOD9156953
Probable space group: P 21/M
;
_chemical_formula_sum "Si O2"
_cell_formula_units_Z 18
_cell_length_a 12.025009
_cell_length_b 7.493247
_cell_length_c 7.857805
_cell_angle_alpha 90.000000
_cell_angle_beta 90.663600
_cell_angle_gamma 90.000000
_cell_volume 707.990738
_symmetry_space_group_name_H-M "P 21/M"
_symmetry_group_IT_number 11
_symmetry_cell_setting 'monoclinic'
loop_
_space_group_symop_operation_xyz
x,y,z
-x,1/2+y,-z
-x,-y,-z
x,1/2-y,z
loop_
_atom_site_type_symbol
_atom_site_label
_atom_site_fract_x
_atom_site_fract_y
_atom_site_fract_z
Si Si1 0.377167 0.960002 0.060342
Si Si2 0.849126 0.541311 0.072724
Si Si3 0.628343 0.036432 0.549488
Si Si4 0.803314 0.750000 0.516408
Si Si5 0.950564 0.455215 0.714861
O O1 0.365158 0.750000 0.070363
O O2 0.358267 0.026411 0.252184
O O3 0.500000 0.000000 0.000000
O O4 0.282587 0.025044 0.931581
O O5 0.876032 0.750000 0.058730
O O6 0.924823 0.482257 0.231194
O O7 0.889216 0.453731 0.897867
O O8 0.649767 0.250000 0.534208
O O9 0.500000 0.000000 0.500000
O O10 0.713590 0.907455 0.456695
O O11 0.885650 0.592870 0.597826
O O12 0.952440 0.250000 0.653466
#
# Coordination Sequence:
#
# PCOD9156953 Si02
#       5
#     4   4   4   2   4
#     4  11  23  35  55  82 119 151 189 231 285 338
#     4  10  18  31  48  76 114 143 182 231 286 334
#     4  11  23  39  58  84 115 154 194 233 280 341
#     4  12  20  34  56  74 120 142 194 230 290 324
#     4  10  19  29  50  78 110 146 183 228 286 336
#
# _framework density 25.424061999999999
#
# number of rings (size 3 to 8) (size 9 to 14) (size 15 to 20)
#    0.000    1.333    4.444    2.000    4.667    0.000 
#    0.000    0.000    0.000    0.000    0.000    1.556 
#    0.000    0.000    0.000    0.000    0.000    0.000 
#
# Total GULP energy -100318.031043 kJ/mol
# GULP energy per Si atom -5573.223947 kJ/mol
# Density = 2.536620 g / cm^3
# Si number density = 25.424062 Si / 1000 Ang^3
#
#
#
# Elastic Constant Matrix: (Units=GPa)
#
#
# Indices 1 2 3 4 5 6 
#
# 1 200.0477 38.6363 62.3086 0.0000 60.9722 0.0000
# 2 38.6363 151.2561 32.6114 0.0000 27.2232 0.0000
# 3 62.3086 32.6114 106.2633 0.0000 19.2926 0.0000
# 4 0.0000 0.0000 0.0000 1310.3622 0.0000 -712.4409
# 5 60.9722 27.2232 19.2926 0.0000 46.7073 0.0000
# 6 0.0000 0.0000 0.0000 -712.4409 0.0000 465.3470
#
#
#
# Elastic Compliance Matrix: (Units=1/GPa)
#
#
# Indices 1 2 3 4 5 6 
#
# 1 0.009412 0.000358 -0.003633 0.000000 -0.010995 0.000000
# 2 0.000358 0.007662 -0.001801 0.000000 -0.004189 0.000000
# 3 -0.003633 -0.001801 0.011937 0.000000 0.000861 0.000000
# 4 0.000000 0.000000 0.000000 0.004553 0.000000 0.006971
# 5 -0.010995 -0.004189 0.000861 0.000000 0.037849 0.000000
# 6 0.000000 0.000000 0.000000 0.006971 0.000000 0.012821
#
#
# Mechanical properties :
#
#
# Convention : Reuss Voigt Hill
#
# Bulk Modulus (GPa) = 53.02123 80.51997 66.77060
# Shear Modulus (GPa) = 49.66591 386.08402 217.87497
#
# Velocity S-wave (km/s) = 4.42464 12.33643 9.26728
# Velocity P-wave (km/s) = 6.85589 15.31849 11.86717
#
# Compressibility (1/GPa) = 0.01886037
#
# Stress axis : x y z
#
# Youngs Moduli (GPa) = 106.24393 130.51243 83.77378
#
# Poissons Ratio (x) = -0.04670 0.30432
# Poissons Ratio (y) = -0.03802 0.15085
# Poissons Ratio (z) = 0.38594 0.23501
#
# Static dielectric constant tensor:
#      x y z
#    x 2.083110 0.000000 -0.233150 
#    y 0.000000 2.024170 0.000000 
#    z -0.233150 0.000000 2.442770 
# 
# From -- ./inp_files/16082.got.cif
#   From: 2010.05.17/outbox.cif.g08.bks.cpg/sg11_9_cif.got.tgz:16082.got - 2010.06.03 12:22:45.
