data_PCOD9156461
_publ_section_title
;
Structure prediction by ZEFSAII (Michael W. Deem and Ramdas Pophale) SiO2 
 PCOD9156461
Probable space group: P 21/M
;
_chemical_formula_sum "Si O2"
_cell_formula_units_Z 32
_cell_length_a 12.315487
_cell_length_b 8.579965
_cell_length_c 20.559303
_cell_angle_alpha 90.000000
_cell_angle_beta 58.001346
_cell_angle_gamma 90.000000
_cell_volume 1842.350905
_symmetry_space_group_name_H-M "P 21/M"
_symmetry_group_IT_number 11
_symmetry_cell_setting 'monoclinic'
loop_
_space_group_symop_operation_xyz
x,y,z
-x,1/2+y,-z
-x,-y,-z
x,1/2-y,z
loop_
_atom_site_type_symbol
_atom_site_label
_atom_site_fract_x
_atom_site_fract_y
_atom_site_fract_z
Si Si1 0.314647 0.061517 0.597222
Si Si2 0.284719 0.437072 0.962133
Si Si3 0.465972 0.936482 0.278940
Si Si4 0.420599 0.436031 0.428160
Si Si5 0.578570 0.060842 0.851362
Si Si6 0.194844 0.561307 0.126819
Si Si7 0.091677 0.061803 0.763334
Si Si8 0.750499 0.064452 0.167102
O O1 0.324588 0.250000 0.598010
O O2 0.327365 0.018217 0.517256
O O3 0.186521 0.012156 0.675128
O O4 0.438343 0.991458 0.593993
O O5 0.281222 0.250000 0.961894
O O6 0.434809 0.487404 0.916900
O O7 0.228910 0.500123 0.912117
O O8 0.214999 0.500176 0.047697
O O9 0.478537 0.750000 0.275607
O O10 0.403789 0.983687 0.229807
O O11 0.394712 0.991232 0.366201
O O12 0.609105 0.006667 0.233138
O O13 0.420452 0.250000 0.422590
O O14 0.580040 0.250000 0.853057
O O15 0.689087 0.004661 0.864281
O O16 0.198989 0.750000 0.124225
O O17 0.055518 0.513545 0.197058
O O18 0.095241 0.250000 0.764430
O O19 0.149489 0.999326 0.812320
O O20 0.753007 0.250000 0.165610
#
# Coordination Sequence:
#
# PCOD9156461 Si02
#       8
#     4   4   4   4   4   4   4   4
#     4   9  18  31  47  70 103 136 165 201 248 297
#     4  10  20  35  54  75 101 130 162 207 259 298
#     4  10  18  31  51  75 104 133 162 204 256 298
#     4  10  18  28  47  76 102 130 167 205 247 295
#     4   8  17  33  53  75  98 127 166 210 250 294
#     4  10  20  35  54  75  97 128 172 210 246 296
#     4  10  20  34  52  72 101 137 165 201 250 301
#     4  11  21  33  51  75 101 131 167 206 247 296
#
# _framework density 17.369112999999999
#
# number of rings (size 3 to 8) (size 9 to 14) (size 15 to 20)
#    0.000    2.250    1.250    3.375    0.000    1.500 
#    0.000    3.125    0.000    0.750    0.000    0.000 
#    0.000    0.000    0.000    0.000    0.000    0.875 
#
# Total GULP energy -178522.540705 kJ/mol
# GULP energy per Si atom -5578.829397 kJ/mol
# Density = 1.732958 g / cm^3
# Si number density = 17.369113 Si / 1000 Ang^3
#
#
#
# Elastic Constant Matrix: (Units=GPa)
#
#
# Indices 1 2 3 4 5 6 
#
# 1 16.9236 6.3612 26.1493 0.0000 -10.2966 0.0000
# 2 6.3612 19.0204 19.5166 0.0000 -5.4394 0.0000
# 3 26.1493 19.5166 124.9623 0.0000 -4.1944 0.0000
# 4 0.0000 0.0000 0.0000 26.7935 0.0000 4.8221
# 5 -10.2966 -5.4394 -4.1944 0.0000 16.6781 0.0000
# 6 0.0000 0.0000 0.0000 4.8221 0.0000 7.0925
#
#
#
# Elastic Compliance Matrix: (Units=1/GPa)
#
#
# Indices 1 2 3 4 5 6 
#
# 1 0.164654 0.005054 -0.032047 0.000000 0.095242 0.000000
# 2 0.005054 0.068704 -0.011024 0.000000 0.022755 0.000000
# 3 -0.032047 -0.011024 0.015779 0.000000 -0.019412 0.000000
# 4 0.000000 0.000000 0.000000 0.042526 0.000000 -0.028913
# 5 0.095242 0.022755 -0.019412 0.000000 0.121298 0.000000
# 6 0.000000 0.000000 0.000000 -0.028913 0.000000 0.160652
#
#
# Mechanical properties :
#
#
# Convention : Reuss Voigt Hill
#
# Bulk Modulus (GPa) = 5.77698 29.44006 17.60852
# Shear Modulus (GPa) = 7.06866 17.37143 12.22005
#
# Velocity S-wave (km/s) = 2.01953 3.16592 2.65533
# Velocity P-wave (km/s) = 2.96163 5.50913 4.42277
#
# Compressibility (1/GPa) = 0.17310085
#
# Stress axis : x y z
#
# Youngs Moduli (GPa) = 6.07335 14.55523 63.37647
#
# Poissons Ratio (x) = -0.07356 2.03106
# Poissons Ratio (y) = -0.03069 0.69866
# Poissons Ratio (z) = 0.19464 0.16046
#
# Static dielectric constant tensor:
#      x y z
#    x 1.570790 0.000000 0.004630 
#    y 0.000000 1.584350 0.000000 
#    z 0.004630 0.000000 1.605770 
# 
# From -- ./inp_files/40617.got.cif
#   From: 2010.05.17/outbox.cif.g08.bks.cpg/sg11_21_cif.got.tgz:40617.got - 2010.06.03 12:22:45.
