data_PCOD9156439
_publ_section_title
;
Structure prediction by ZEFSAII (Michael W. Deem and Ramdas Pophale) SiO2 
 PCOD9156439
Probable space group: P 21/M
;
_chemical_formula_sum "Si O2"
_cell_formula_units_Z 24
_cell_length_a 23.753870
_cell_length_b 8.514074
_cell_length_c 10.501765
_cell_angle_alpha 90.000000
_cell_angle_beta 41.473121
_cell_angle_gamma 90.000000
_cell_volume 1406.592408
_symmetry_space_group_name_H-M "P 21/M"
_symmetry_group_IT_number 11
_symmetry_cell_setting 'monoclinic'
loop_
_space_group_symop_operation_xyz
x,y,z
-x,1/2+y,-z
-x,-y,-z
x,1/2-y,z
loop_
_atom_site_type_symbol
_atom_site_label
_atom_site_fract_x
_atom_site_fract_y
_atom_site_fract_z
Si Si1 0.404764 0.940222 0.028934
Si Si2 0.228003 0.061025 0.629179
Si Si3 0.055523 0.561857 0.023797
Si Si4 0.413500 0.438520 0.304009
Si Si5 0.042475 0.438101 0.555904
Si Si6 0.217853 0.938374 0.355907
O O1 0.406899 0.750000 0.035816
O O2 0.310512 0.982447 0.141303
O O3 0.409333 0.011822 0.162914
O O4 0.492274 0.990719 0.810980
O O5 0.225078 0.250000 0.633430
O O6 0.322622 0.006901 0.512197
O O7 0.214408 0.003417 0.506547
O O8 0.151348 0.996964 0.843135
O O9 0.054556 0.750000 0.021857
O O10 0.011899 0.508932 0.228814
O O11 0.000000 0.500000 0.000000
O O12 0.412406 0.250000 0.314702
O O13 0.042818 0.250000 0.554163
O O14 0.138327 0.497356 0.413283
O O15 0.000000 0.500000 0.500000
O O16 0.212819 0.750000 0.370998
#
# Coordination Sequence:
#
# PCOD9156439 Si02
#       6
#     4   4   4   4   4   4
#     4   8  14  24  39  62  92 127 162 196 240 290
#     4  10  18  28  46  72 101 133 167 204 246 291
#     4  11  22  35  53  75 100 132 168 206 251 303
#     4   8  14  24  38  61  95 128 159 197 240 287
#     4  11  24  39  54  73  99 131 169 210 255 303
#     4  10  18  29  48  71  98 132 168 206 248 294
#
# _framework density 17.062512999999999
#
# number of rings (size 3 to 8) (size 9 to 14) (size 15 to 20)
#    0.000    2.333    1.667    2.000    0.000    3.333 
#    0.000    0.000    0.000    0.000    0.000    1.167 
#    0.000    0.000    0.000    0.000    0.000    0.000 
#
# Total GULP energy -133645.977180 kJ/mol
# GULP energy per Si atom -5568.582382 kJ/mol
# Density = 1.702368 g / cm^3
# Si number density = 17.062513 Si / 1000 Ang^3
#
#
#
# Elastic Constant Matrix: (Units=GPa)
#
#
# Indices 1 2 3 4 5 6 
#
# 1 112.1521 21.0228 83.4567 0.0000 -32.8094 0.0000
# 2 21.0228 27.2024 22.1740 0.0000 -3.8894 0.0000
# 3 83.4567 22.1740 110.9469 0.0000 -39.3400 0.0000
# 4 0.0000 0.0000 0.0000 21.2261 0.0000 -2.7838
# 5 -32.8094 -3.8894 -39.3400 0.0000 40.0003 0.0000
# 6 0.0000 0.0000 0.0000 -2.7838 0.0000 19.2900
#
#
#
# Elastic Compliance Matrix: (Units=1/GPa)
#
#
# Indices 1 2 3 4 5 6 
#
# 1 0.020867 -0.004551 -0.013627 0.000000 0.003271 0.000000
# 2 -0.004551 0.046109 -0.008485 0.000000 -0.007594 0.000000
# 3 -0.013627 -0.008485 0.025648 0.000000 0.013223 0.000000
# 4 0.000000 0.000000 0.000000 0.048021 0.000000 0.006930
# 5 0.003271 -0.007594 0.013223 0.000000 0.039949 0.000000
# 6 0.000000 0.000000 0.000000 0.006930 0.000000 0.052841
#
#
# Mechanical properties :
#
#
# Convention : Reuss Voigt Hill
#
# Bulk Modulus (GPa) = 25.44639 55.95649 40.70144
# Shear Modulus (GPa) = 16.67445 24.34646 20.51046
#
# Velocity S-wave (km/s) = 3.12950 3.78153 3.47086
# Velocity P-wave (km/s) = 5.29192 7.20644 6.32207
#
# Compressibility (1/GPa) = 0.03929830
#
# Stress axis : x y z
#
# Youngs Moduli (GPa) = 47.92277 21.68765 38.98871
#
# Poissons Ratio (x) = 0.09869 0.53131
# Poissons Ratio (y) = 0.21808 0.33083
# Poissons Ratio (z) = 0.65306 0.18402
#
# Static dielectric constant tensor:
#      x y z
#    x 1.581920 0.000000 -0.067780 
#    y 0.000000 1.581010 0.000000 
#    z -0.067780 0.000000 1.602930 
# 
# From -- ./inp_files/25760.got.cif
#   From: 2010.05.17/outbox.cif.g08.bks.cpg/sg11_13_cif.got.tgz:25760.got - 2010.06.03 12:22:45.
