data_PCOD9156122
_publ_section_title
;
Structure prediction by ZEFSAII (Michael W. Deem and Ramdas Pophale) SiO2 
 PCOD9156122
Probable space group: P 21/M
;
_chemical_formula_sum "Si O2"
_cell_formula_units_Z 32
_cell_length_a 12.491190
_cell_length_b 24.298949
_cell_length_c 7.804796
_cell_angle_alpha 90.000000
_cell_angle_beta 131.114566
_cell_angle_gamma 90.000000
_cell_volume 1784.745569
_symmetry_space_group_name_H-M "P 21/M"
_symmetry_group_IT_number 11
_symmetry_cell_setting 'monoclinic'
loop_
_space_group_symop_operation_xyz
x,y,z
-x,1/2+y,-z
-x,-y,-z
x,1/2-y,z
loop_
_atom_site_type_symbol
_atom_site_label
_atom_site_fract_x
_atom_site_fract_y
_atom_site_fract_z
Si Si1 0.893920 0.040568 0.058316
Si Si2 0.611639 0.086593 0.906074
Si Si3 0.539093 0.906462 0.590464
Si Si4 0.872490 0.536841 0.450640
Si Si5 0.654586 0.186116 0.725186
Si Si6 0.652539 0.443347 0.311355
Si Si7 0.846270 0.915394 0.063337
Si Si8 0.866324 0.374823 0.727516
O O1 0.756746 0.052458 0.032324
O O2 0.039809 0.061882 0.297576
O O3 0.856520 0.073794 0.849363
O O4 0.899047 0.974984 0.047411
O O5 0.567070 0.072965 0.050429
O O6 0.497980 0.071970 0.639082
O O7 0.653748 0.149405 0.898613
O O8 0.468206 0.845593 0.511137
O O9 0.452105 0.941958 0.637478
O O10 0.700670 0.903875 0.814299
O O11 0.745208 0.498220 0.381094
O O12 0.000000 0.500000 0.500000
O O13 0.827038 0.576293 0.247639
O O14 0.631819 0.250000 0.728356
O O15 0.796119 0.174040 0.762289
O O16 0.767936 0.394686 0.467516
O O17 0.971361 0.872211 0.158569
#
# Coordination Sequence:
#
# PCOD9156122 Si02
#       8
#     4   4   4   4   4   4   4   4
#     4  10  17  32  48  78 108 151 179 211 253 304
#     4   9  18  34  53  74 105 137 178 217 256 319
#     4   9  23  34  51  77 110 141 172 226 264 317
#     4  10  18  27  50  69 109 156 175 211 248 300
#     4   8  18  39  57  76 100 132 178 226 280 321
#     4  11  17  36  49  76 110 145 186 207 251 315
#     4  11  19  33  47  80 114 143 182 210 267 311
#     4  10  19  31  59  78 104 140 187 224 253 316
#
# _framework density 17.929725999999999
#
# number of rings (size 3 to 8) (size 9 to 14) (size 15 to 20)
#    0.750    1.500    6.250    0.375    0.000    1.000 
#    2.250    3.125    0.000    0.000    0.000    3.500 
#    0.000    0.000    0.000    0.000    0.000    0.000 
#
# Total GULP energy -178178.792335 kJ/mol
# GULP energy per Si atom -5568.087260 kJ/mol
# Density = 1.788892 g / cm^3
# Si number density = 17.929726 Si / 1000 Ang^3
#
#
#
# Elastic Constant Matrix: (Units=GPa)
#
#
# Indices 1 2 3 4 5 6 
#
# 1 29.8238 4.2651 29.1938 0.0000 1.9783 0.0000
# 2 4.2651 50.8905 5.4622 0.0000 2.2322 0.0000
# 3 29.1938 5.4622 127.3379 0.0000 0.8969 0.0000
# 4 0.0000 0.0000 0.0000 9.6651 0.0000 1.3035
# 5 1.9783 2.2322 0.8969 0.0000 30.9448 0.0000
# 6 0.0000 0.0000 0.0000 1.3035 0.0000 12.3405
#
#
#
# Elastic Compliance Matrix: (Units=1/GPa)
#
#
# Indices 1 2 3 4 5 6 
#
# 1 0.043737 -0.002500 -0.009904 0.000000 -0.002329 0.000000
# 2 -0.002500 0.019945 -0.000273 0.000000 -0.001271 0.000000
# 3 -0.009904 -0.000273 0.010133 0.000000 0.000359 0.000000
# 4 0.000000 0.000000 0.000000 0.104961 0.000000 -0.011087
# 5 -0.002329 -0.001271 0.000359 0.000000 0.032546 0.000000
# 6 0.000000 0.000000 0.000000 -0.011087 0.000000 0.082205
#
#
# Mechanical properties :
#
#
# Convention : Reuss Voigt Hill
#
# Bulk Modulus (GPa) = 20.63576 31.76605 26.20091
# Shear Modulus (GPa) = 14.92388 21.86548 18.39468
#
# Velocity S-wave (km/s) = 2.88818 3.49594 3.20649
# Velocity P-wave (km/s) = 4.75987 5.83531 5.32481
#
# Compressibility (1/GPa) = 0.04845957
#
# Stress axis : x y z
#
# Youngs Moduli (GPa) = 22.86410 50.13867 98.68922
#
# Poissons Ratio (x) = 0.12537 0.97737
# Poissons Ratio (y) = 0.05717 0.02697
# Poissons Ratio (z) = 0.22644 0.01370
#
# Static dielectric constant tensor:
#      x y z
#    x 1.713360 0.000000 -0.031070 
#    y 0.000000 1.589440 0.000000 
#    z -0.031070 0.000000 1.677280 
# 
# From -- ./inp_files/23420.got.cif
#   From: 2010.05.17/outbox.cif.g08.bks.cpg/sg11_12_cif.got.tgz:23420.got - 2010.06.03 12:22:45.
