data_PCOD9156457
_publ_section_title
;
Structure prediction by ZEFSAII (Michael W. Deem and Ramdas Pophale) SiO2 
 PCOD9156457
Probable space group: P 21/M
;
_chemical_formula_sum "Si O2"
_cell_formula_units_Z 26
_cell_length_a 6.948845
_cell_length_b 18.250860
_cell_length_c 9.558249
_cell_angle_alpha 90.000000
_cell_angle_beta 118.448640
_cell_angle_gamma 90.000000
_cell_volume 1065.820210
_symmetry_space_group_name_H-M "P 21/M"
_symmetry_group_IT_number 11
_symmetry_cell_setting 'monoclinic'
loop_
_space_group_symop_operation_xyz
x,y,z
-x,1/2+y,-z
-x,-y,-z
x,1/2-y,z
loop_
_atom_site_type_symbol
_atom_site_label
_atom_site_fract_x
_atom_site_fract_y
_atom_site_fract_z
Si Si1 0.898608 0.671295 0.919095
Si Si2 0.415317 0.830361 0.022542
Si Si3 0.332149 0.936968 0.759907
Si Si4 0.186855 0.892011 0.413943
Si Si5 0.681535 0.903915 0.336407
Si Si6 0.823500 0.552299 0.681768
Si Si7 0.933613 0.250000 0.774560
O O1 0.815764 0.750000 0.829816
O O2 0.800459 0.599253 0.814848
O O3 0.158333 0.668357 0.971902
O O4 0.915700 0.686263 0.090238
O O5 0.457342 0.750000 0.977797
O O6 0.546471 0.842001 0.211003
O O7 0.456516 0.891326 0.920290
O O8 0.320126 0.899143 0.604431
O O9 0.079350 0.942314 0.725462
O O10 0.405004 0.019599 0.757273
O O11 0.209745 0.815256 0.347040
O O12 0.933762 0.895868 0.378072
O O13 0.225766 0.965627 0.336231
O O14 0.690760 0.911054 0.507060
#
# Coordination Sequence:
#
# PCOD9156457 Si02
#       7
#     4   4   4   4   4   4   2
#     4   8  18  33  46  65  92 129 165 189 216 274
#     4  10  18  28  47  72  94 124 152 188 232 278
#     4   8  16  31  48  71  98 121 150 184 238 294
#     4   9  18  30  51  73  96 122 150 197 241 284
#     4   9  17  29  50  77  96 113 146 202 244 279
#     4   8  15  32  51  71  93 121 159 191 237 277
#     4  10  20  32  46  68  94 128 166 192 224 272
#
# _framework density 24.394361
#
# number of rings (size 3 to 8) (size 9 to 14) (size 15 to 20)
#    0.462    2.769    0.000    2.308    2.154    1.231 
#    2.769    0.000    0.000    7.385    0.000    0.000 
#    0.000    0.000    0.000    0.000    0.000    0.000 
#
# Total GULP energy -144752.502687 kJ/mol
# GULP energy per Si atom -5567.403949 kJ/mol
# Density = 2.433884 g / cm^3
# Si number density = 24.394361 Si / 1000 Ang^3
#
#
#
# Elastic Constant Matrix: (Units=GPa)
#
#
# Indices 1 2 3 4 5 6 
#
# 1 89.4105 2.4846 8.6578 0.0000 -0.1476 0.0000
# 2 2.4846 100.5572 70.1149 0.0000 -18.0876 0.0000
# 3 8.6578 70.1149 93.3461 0.0000 -9.3792 0.0000
# 4 0.0000 0.0000 0.0000 41.7873 0.0000 -6.4780
# 5 -0.1476 -18.0876 -9.3792 0.0000 22.4152 0.0000
# 6 0.0000 0.0000 0.0000 -6.4780 0.0000 0.9650
#
#
#
# Elastic Compliance Matrix: (Units=1/GPa)
#
#
# Indices 1 2 3 4 5 6 
#
# 1 0.011329 0.000979 -0.001774 0.000000 0.000122 0.000000
# 2 0.000979 0.023774 -0.016723 0.000000 0.012193 0.000000
# 3 -0.001774 -0.016723 0.023050 0.000000 -0.003861 0.000000
# 4 0.000000 0.000000 0.000000 -0.589059 0.000000 -3.954174
# 5 0.000122 0.012193 -0.003861 0.000000 0.052837 0.000000
# 6 0.000000 0.000000 0.000000 -3.954174 0.000000-25.506952
#
#
# Mechanical properties :
#
#
# Convention : Reuss Voigt Hill
#
# Bulk Modulus (GPa) = 43.25658 49.53650 46.39654
# Shear Modulus (GPa) = -0.19274 26.50393 13.15560
#
# Velocity S-wave (km/s) = -0.28139 3.29975 2.32478
# Velocity P-wave (km/s) = 4.20299 5.90495 5.12511
#
# Compressibility (1/GPa) = 0.02311787
#
# Stress axis : x y z
#
# Youngs Moduli (GPa) = 88.26813 42.06287 43.38303
#
# Poissons Ratio (x) = -0.04117 0.07695
# Poissons Ratio (y) = -0.08640 0.72549
# Poissons Ratio (z) = 0.15656 0.70342
#
# Static dielectric constant tensor:
#      x y z
#    x 2.093260 0.000000 0.002600 
#    y 0.000000 1.871120 0.000000 
#    z 0.002600 0.000000 1.876220 
# 
# From -- ./inp_files/18352.got.cif
#   From: 2010.05.17/outbox.cif.g08.bks.cpg/sg11_10_cif.got.tgz:18352.got - 2010.06.03 12:22:45.
