data_PCOD9156470
_publ_section_title
;
Structure prediction by ZEFSAII (Michael W. Deem and Ramdas Pophale) SiO2 
 PCOD9156470
Probable space group: P 21/M
;
_chemical_formula_sum "Si O2"
_cell_formula_units_Z 32
_cell_length_a 27.465842
_cell_length_b 9.008153
_cell_length_c 22.046558
_cell_angle_alpha 90.000000
_cell_angle_beta 159.525822
_cell_angle_gamma 90.000000
_cell_volume 1907.967204
_symmetry_space_group_name_H-M "P 21/M"
_symmetry_group_IT_number 11
_symmetry_cell_setting 'monoclinic'
loop_
_space_group_symop_operation_xyz
x,y,z
-x,1/2+y,-z
-x,-y,-z
x,1/2-y,z
loop_
_atom_site_type_symbol
_atom_site_label
_atom_site_fract_x
_atom_site_fract_y
_atom_site_fract_z
Si Si1 0.549617 0.080319 0.735256
Si Si2 0.637618 0.429704 0.965824
Si Si3 0.851223 0.071664 0.318001
Si Si4 0.235728 0.079468 0.423235
Si Si5 0.346860 0.572115 0.667313
Si Si6 0.646727 0.428099 0.187183
Si Si7 0.557672 0.427025 0.506167
Si Si8 0.136777 0.571879 0.188650
O O1 0.583748 0.250000 0.757790
O O2 0.645862 0.031946 0.903989
O O3 0.395158 0.081281 0.584732
O O4 0.535709 0.980467 0.659778
O O5 0.616845 0.250000 0.944742
O O6 0.501374 0.508396 0.834397
O O7 0.769643 0.468788 0.161034
O O8 0.863536 0.250000 0.332956
O O9 0.755975 0.026117 0.263707
O O10 0.000000 0.000000 0.500000
O O11 0.188623 0.250000 0.372262
O O12 0.245424 0.001659 0.499646
O O13 0.152821 0.988933 0.275775
O O14 0.347871 0.750000 0.660889
O O15 0.310763 0.534523 0.694516
O O16 0.631896 0.250000 0.166852
O O17 0.500000 0.500000 0.000000
O O18 0.500000 0.500000 0.500000
O O19 0.552667 0.250000 0.505459
O O20 0.718669 0.468728 0.677820
O O21 0.126710 0.750000 0.176734
O O22 0.000000 0.500000 0.000000
#
# Coordination Sequence:
#
# PCOD9156470 Si02
#       8
#     4   4   4   4   4   4   4   4
#     4   8  15  28  48  73  98 129 167 209 254 298
#     4   9  17  31  51  73 100 133 168 210 258 304
#     4  10  21  36  52  73 103 137 173 211 255 308
#     4   9  17  30  49  74 104 138 172 209 255 302
#     4  10  18  28  48  78 104 129 166 214 262 303
#     4  10  20  33  52  77 104 132 169 214 258 305
#     4  10  20  33  52  78 106 135 169 210 254 300
#     4  10  20  34  54  80 108 139 175 213 253 306
#
# _framework density 16.771777
#
# number of rings (size 3 to 8) (size 9 to 14) (size 15 to 20)
#    0.000    2.500    1.250    2.250    0.000    6.000 
#    0.000    0.000    2.750    0.000    0.000    0.000 
#    0.000    0.000    0.000    0.000    0.000    0.000 
#
# Total GULP energy -178353.797004 kJ/mol
# GULP energy per Si atom -5573.556156 kJ/mol
# Density = 1.673360 g / cm^3
# Si number density = 16.771777 Si / 1000 Ang^3
#
#
#
# Elastic Constant Matrix: (Units=GPa)
#
#
# Indices 1 2 3 4 5 6 
#
# 1 122.8616 50.0443 76.0866 0.0000 -28.3093 0.0000
# 2 50.0443 52.3588 47.2410 0.0000 -13.6665 0.0000
# 3 76.0866 47.2410 132.7900 0.0000 -27.1987 0.0000
# 4 0.0000 0.0000 0.0000 30.2425 0.0000 -4.6568
# 5 -28.3093 -13.6665 -27.1987 0.0000 29.6599 0.0000
# 6 0.0000 0.0000 0.0000 -4.6568 0.0000 25.1415
#
#
#
# Elastic Compliance Matrix: (Units=1/GPa)
#
#
# Indices 1 2 3 4 5 6 
#
# 1 0.016649 -0.009958 -0.004534 0.000000 0.007145 0.000000
# 2 -0.009958 0.034616 -0.006512 0.000000 0.000474 0.000000
# 3 -0.004534 -0.006512 0.013475 0.000000 0.005029 0.000000
# 4 0.000000 0.000000 0.000000 0.034037 0.000000 0.006304
# 5 0.007145 0.000474 0.005029 0.000000 0.045366 0.000000
# 6 0.000000 0.000000 0.000000 0.006304 0.000000 0.040943
#
#
# Mechanical properties :
#
#
# Convention : Reuss Voigt Hill
#
# Bulk Modulus (GPa) = 43.98819 72.75046 58.36933
# Shear Modulus (GPa) = 21.30645 25.98467 23.64556
#
# Velocity S-wave (km/s) = 3.56810 3.94040 3.75886
# Velocity P-wave (km/s) = 6.57720 8.01082 7.32915
#
# Compressibility (1/GPa) = 0.02273337
#
# Stress axis : x y z
#
# Youngs Moduli (GPa) = 60.06253 28.88854 74.21005
#
# Poissons Ratio (x) = 0.28766 0.33645
# Poissons Ratio (y) = 0.59808 0.48326
# Poissons Ratio (z) = 0.27231 0.18813
#
# Static dielectric constant tensor:
#      x y z
#    x 1.578170 0.000000 -0.016170 
#    y 0.000000 1.565490 0.000000 
#    z -0.016170 0.000000 1.559510 
# 
# From -- ./inp_files/66422.got.cif
#   From: 2010.05.17/outbox.cif.g08.bks.cpg/sg11_34_cif.got.tgz:66422.got - 2010.06.03 12:22:45.
