data_PCOD9156000
_publ_section_title
;
Structure prediction by ZEFSAII (Michael W. Deem and Ramdas Pophale) SiO2 
 PCOD9156000
Probable space group: P 21/M
;
_chemical_formula_sum "Si O2"
_cell_formula_units_Z 32
_cell_length_a 19.188050
_cell_length_b 21.470854
_cell_length_c 6.310225
_cell_angle_alpha 90.000000
_cell_angle_beta 50.775367
_cell_angle_gamma 90.000000
_cell_volume 2013.924806
_symmetry_space_group_name_H-M "P 21/M"
_symmetry_group_IT_number 11
_symmetry_cell_setting 'monoclinic'
loop_
_space_group_symop_operation_xyz
x,y,z
-x,1/2+y,-z
-x,-y,-z
x,1/2-y,z
loop_
_atom_site_type_symbol
_atom_site_label
_atom_site_fract_x
_atom_site_fract_y
_atom_site_fract_z
Si Si1 0.451201 0.559833 0.201021
Si Si2 0.860095 0.498192 0.705557
Si Si3 0.010746 0.451161 0.171711
Si Si4 0.163965 0.092229 0.635669
Si Si5 0.705856 0.990893 0.317246
Si Si6 0.310069 0.180083 0.216055
Si Si7 0.514884 0.678898 0.826998
Si Si8 0.421821 0.396103 0.673784
O O1 0.348370 0.542764 0.449065
O O2 0.505263 0.572658 0.313934
O O3 0.500000 0.500000 0.000000
O O4 0.460970 0.622755 0.043830
O O5 0.925870 0.519901 0.768234
O O6 0.850080 0.554526 0.556552
O O7 0.913521 0.444866 0.470369
O O8 0.766055 0.485085 0.004166
O O9 0.071102 0.398602 0.943096
O O10 0.000000 0.500000 0.000000
O O11 0.229454 0.048717 0.652910
O O12 0.217629 0.154679 0.486093
O O13 0.627952 0.945532 0.379151
O O14 0.302522 0.250000 0.149451
O O15 0.387765 0.178507 0.244745
O O16 0.345331 0.134350 0.966838
O O17 0.480031 0.750000 0.911219
O O18 0.531537 0.657208 0.555473
#
# Coordination Sequence:
#
# PCOD9156000 Si02
#       8
#     4   4   4   4   4   4   4   4
#     4  11  22  32  48  72  98 128 167 210 253 288
#     4   9  17  28  46  65  98 122 150 187 237 288
#     4   8  16  29  44  67  91 125 148 179 228 289
#     4  10  17  29  46  68  98 125 158 195 243 291
#     4  11  19  28  47  72  93 126 160 203 248 287
#     4  10  19  30  44  67  95 130 168 200 234 288
#     4  10  21  35  48  64  96 136 171 205 246 294
#     4  11  19  32  47  65  96 133 166 200 246 292
#
# _framework density 15.889373000000001
#
# number of rings (size 3 to 8) (size 9 to 14) (size 15 to 20)
#    0.000    2.000    3.750    1.500    0.000    0.500 
#    0.000    0.000    0.000    0.000    0.000    0.875 
#    0.000   37.000    0.000    2.500    0.000    0.125 
#
# Total GULP energy -178144.591603 kJ/mol
# GULP energy per Si atom -5567.018488 kJ/mol
# Density = 1.585321 g / cm^3
# Si number density = 15.889373 Si / 1000 Ang^3
#
#
#
# Elastic Constant Matrix: (Units=GPa)
#
#
# Indices 1 2 3 4 5 6 
#
# 1 30.3599 8.5466 5.6521 0.0000 12.2663 0.0000
# 2 8.5466 63.1883 20.7125 0.0000 -3.7098 0.0000
# 3 5.6521 20.7125 77.2086 0.0000 -7.4324 0.0000
# 4 0.0000 0.0000 0.0000 16.5533 0.0000 -1.2547
# 5 12.2663 -3.7098 -7.4324 0.0000 31.5480 0.0000
# 6 0.0000 0.0000 0.0000 -1.2547 0.0000 17.9251
#
#
#
# Elastic Compliance Matrix: (Units=1/GPa)
#
#
# Indices 1 2 3 4 5 6 
#
# 1 0.042406 -0.005707 -0.003300 0.000000 -0.017936 0.000000
# 2 -0.005707 0.018148 -0.004125 0.000000 0.003381 0.000000
# 3 -0.003300 -0.004125 0.014711 0.000000 0.004264 0.000000
# 4 0.000000 0.000000 0.000000 0.060733 0.000000 0.004251
# 5 -0.017936 0.003381 0.004264 0.000000 0.040074 0.000000
# 6 0.000000 0.000000 0.000000 0.004251 0.000000 0.056085
#
#
# Mechanical properties :
#
#
# Convention : Reuss Voigt Hill
#
# Bulk Modulus (GPa) = 20.40806 26.73102 23.56954
# Shear Modulus (GPa) = 18.19804 22.26168 20.22986
#
# Velocity S-wave (km/s) = 3.38789 3.74711 3.57202
# Velocity P-wave (km/s) = 5.30806 5.96497 5.64608
#
# Compressibility (1/GPa) = 0.04900026
#
# Stress axis : x y z
#
# Youngs Moduli (GPa) = 23.58163 55.10139 67.97809
#
# Poissons Ratio (x) = 0.31446 0.22433
# Poissons Ratio (y) = 0.13458 0.28043
# Poissons Ratio (z) = 0.07782 0.22731
#
# Static dielectric constant tensor:
#      x y z
#    x 1.539890 0.000000 -0.006410 
#    y 0.000000 1.522790 0.000000 
#    z -0.006410 0.000000 1.583830 
# 
# From -- ./inp_files/7067.got.cif
#   From: 2010.05.17/outbox.cif.g08.bks.cpg/sg11_4_cif.got.tgz:7067.got - 2010.06.03 12:22:45.
