data_PCOD9156409
_publ_section_title
;
Structure prediction by ZEFSAII (Michael W. Deem and Ramdas Pophale) SiO2 
 PCOD9156409
Probable space group: P 21/M
;
_chemical_formula_sum "Si O2"
_cell_formula_units_Z 32
_cell_length_a 21.818168
_cell_length_b 8.761473
_cell_length_c 31.417291
_cell_angle_alpha 90.000000
_cell_angle_beta 160.568946
_cell_angle_gamma 90.000000
_cell_volume 1997.932401
_symmetry_space_group_name_H-M "P 21/M"
_symmetry_group_IT_number 11
_symmetry_cell_setting 'monoclinic'
loop_
_space_group_symop_operation_xyz
x,y,z
-x,1/2+y,-z
-x,-y,-z
x,1/2-y,z
loop_
_atom_site_type_symbol
_atom_site_label
_atom_site_fract_x
_atom_site_fract_y
_atom_site_fract_z
Si Si1 0.785092 0.067711 0.198219
Si Si2 0.175414 0.566834 0.590505
Si Si3 0.551993 0.432297 0.874703
Si Si4 0.570197 0.567500 0.979469
Si Si5 0.115280 0.932531 0.115482
Si Si6 0.843405 0.066742 0.521543
Si Si7 0.201087 0.567137 0.043708
Si Si8 0.430560 0.066669 0.273294
O O1 0.782348 0.250000 0.191946
O O2 0.630476 0.025671 0.132339
O O3 0.983733 0.011570 0.343127
O O4 0.717599 0.992651 0.110150
O O5 0.175008 0.750000 0.593253
O O6 0.362117 0.503717 0.733307
O O7 0.165974 0.524329 0.534490
O O8 0.000000 0.500000 0.500000
O O9 0.531573 0.250000 0.863051
O O10 0.593580 0.495679 0.948560
O O11 0.710219 0.467967 0.943786
O O12 0.579638 0.750000 0.982896
O O13 0.112727 0.750000 0.112765
O O14 0.318820 0.995887 0.239674
O O15 0.000000 0.000000 0.000000
O O16 0.999930 0.995291 0.079799
O O17 0.866463 0.250000 0.538844
O O18 0.646231 0.028822 0.413161
O O19 0.191873 0.750000 0.043308
O O20 0.336364 0.498976 0.168620
O O21 0.408865 0.250000 0.258841
#
# Coordination Sequence:
#
# PCOD9156409 Si02
#       8
#     4   4   4   4   4   4   4   4
#     4  10  21  36  55  76  98 128 169 217 259 299
#     4  11  22  35  49  70 101 137 173 206 249 303
#     4  11  22  34  51  75 103 134 170 211 253 299
#     4  10  21  37  56  75  98 131 170 214 260 303
#     4  10  18  28  45  68  96 131 167 204 246 295
#     4  10  21  34  50  72 101 135 169 207 251 301
#     4  10  19  31  47  70 100 134 168 205 247 296
#     4  10  18  31  48  69  99 134 169 206 247 296
#
# _framework density 16.016559000000001
#
# number of rings (size 3 to 8) (size 9 to 14) (size 15 to 20)
#    0.000    1.750    1.250    5.625    0.000    7.000 
#    0.000    0.000    0.000    0.000    0.000    0.875 
#    0.000    0.000    0.000    0.000    0.000    0.000 
#
# Total GULP energy -178639.064371 kJ/mol
# GULP energy per Si atom -5582.470762 kJ/mol
# Density = 1.598010 g / cm^3
# Si number density = 16.016559 Si / 1000 Ang^3
#
#
#
# Elastic Constant Matrix: (Units=GPa)
#
#
# Indices 1 2 3 4 5 6 
#
# 1 139.6896 65.3108 80.6638 0.0000 17.1817 0.0000
# 2 65.3108 76.2984 47.7354 0.0000 10.2597 0.0000
# 3 80.6638 47.7354 85.7718 0.0000 10.4575 0.0000
# 4 0.0000 0.0000 0.0000 28.7242 0.0000 1.0489
# 5 17.1817 10.2597 10.4575 0.0000 23.6269 0.0000
# 6 0.0000 0.0000 0.0000 1.0489 0.0000 26.6063
#
#
#
# Elastic Compliance Matrix: (Units=1/GPa)
#
#
# Indices 1 2 3 4 5 6 
#
# 1 0.018499 -0.007180 -0.012834 0.000000 -0.004655 0.000000
# 2 -0.007180 0.023257 -0.005916 0.000000 -0.002260 0.000000
# 3 -0.012834 -0.005916 0.027029 0.000000 -0.000061 0.000000
# 4 0.000000 0.000000 0.000000 0.034864 0.000000 -0.001374
# 5 -0.004655 -0.002260 -0.000061 0.000000 0.046718 0.000000
# 6 0.000000 0.000000 0.000000 -0.001374 0.000000 0.037639
#
#
# Mechanical properties :
#
#
# Convention : Reuss Voigt Hill
#
# Bulk Modulus (GPa) = 59.08301 76.57554 67.82928
# Shear Modulus (GPa) = 20.36596 22.99480 21.68038
#
# Velocity S-wave (km/s) = 3.56976 3.79316 3.68315
# Velocity P-wave (km/s) = 7.34573 8.19134 7.78003
#
# Compressibility (1/GPa) = 0.01692534
#
# Stress axis : x y z
#
# Youngs Moduli (GPa) = 54.05657 42.99729 36.99764
#
# Poissons Ratio (x) = 0.30870 0.47484
# Poissons Ratio (y) = 0.38810 0.21888
# Poissons Ratio (z) = 0.69378 0.25438
#
# Static dielectric constant tensor:
#      x y z
#    x 1.545500 0.000000 0.029210 
#    y 0.000000 1.535140 0.000000 
#    z 0.029210 0.000000 1.515260 
# 
# From -- ./inp_files/73630.got.cif
#   From: 2010.05.17/outbox.cif.g08.bks.cpg/sg11_37_cif.got.tgz:73630.got - 2010.06.03 12:22:45.
