data_PCOD9156498
_publ_section_title
;
Structure prediction by ZEFSAII (Michael W. Deem and Ramdas Pophale) SiO2 
 PCOD9156498
Probable space group: P 21/M
;
_chemical_formula_sum "Si O2"
_cell_formula_units_Z 32
_cell_length_a 12.246551
_cell_length_b 7.491691
_cell_length_c 20.367242
_cell_angle_alpha 90.000000
_cell_angle_beta 120.139669
_cell_angle_gamma 90.000000
_cell_volume 1616.008199
_symmetry_space_group_name_H-M "P 21/M"
_symmetry_group_IT_number 11
_symmetry_cell_setting 'monoclinic'
loop_
_space_group_symop_operation_xyz
x,y,z
-x,1/2+y,-z
-x,-y,-z
x,1/2-y,z
loop_
_atom_site_type_symbol
_atom_site_label
_atom_site_fract_x
_atom_site_fract_y
_atom_site_fract_z
Si Si1 0.658160 0.967172 0.760771
Si Si2 0.098134 0.536856 0.725523
Si Si3 0.623624 0.536415 0.191290
Si Si4 0.073548 0.468663 0.210460
Si Si5 0.086592 0.535736 0.962788
Si Si6 0.116603 0.964515 0.582325
Si Si7 0.646596 0.459081 0.912272
Si Si8 0.613022 0.046754 0.340733
O O1 0.654003 0.750000 0.760360
O O2 0.783287 0.024211 0.760547
O O3 0.525664 0.032963 0.690273
O O4 0.665605 0.024138 0.839215
O O5 0.083626 0.750000 0.717330
O O6 0.238905 0.502577 0.796163
O O7 0.093524 0.467140 0.649487
O O8 0.990424 0.469958 0.741591
O O9 0.613222 0.750000 0.196419
O O10 0.495422 0.471488 0.117507
O O11 0.623596 0.453122 0.264251
O O12 0.073876 0.250000 0.210466
O O13 0.985863 0.528162 0.123514
O O14 0.095965 0.750000 0.960124
O O15 0.228263 0.463702 0.016393
O O16 0.000000 0.500000 0.000000
O O17 0.130980 0.750000 0.591354
O O18 0.252689 0.033984 0.597839
O O19 0.000000 0.000000 0.500000
O O20 0.643629 0.250000 0.928263
O O21 0.608281 0.250000 0.364049
#
# Coordination Sequence:
#
# PCOD9156498 Si02
#       8
#     4   4   4   4   4   4   4   4
#     4   9  15  26  46  68  87 114 153 187 214 256
#     4   9  18  33  48  65  90 118 150 185 219 261
#     4   9  16  27  43  63  87 118 151 183 223 267
#     4   9  17  29  47  67  88 119 155 186 220 263
#     4  10  18  29  44  65  91 119 152 190 227 262
#     4   9  17  29  47  69  90 113 141 179 223 264
#     4   9  17  27  41  63  92 118 144 188 235 264
#     4   8  15  27  44  68  93 113 142 183 218 254
#
# _framework density 19.801880000000001
#
# number of rings (size 3 to 8) (size 9 to 14) (size 15 to 20)
#    0.000    3.000    1.250    1.125    0.000    2.500 
#    0.000    1.875    0.000    0.750    0.000    0.000 
#    0.000    0.000    0.000    0.000    0.000    1.000 
#
# Total GULP energy -178268.547110 kJ/mol
# GULP energy per Si atom -5570.892097 kJ/mol
# Density = 1.975681 g / cm^3
# Si number density = 19.801880 Si / 1000 Ang^3
#
#
#
# Elastic Constant Matrix: (Units=GPa)
#
#
# Indices 1 2 3 4 5 6 
#
# 1 150.9099 -4.9816 75.8427 0.0000 36.8815 0.0000
# 2 -4.9816 58.5024 2.1021 0.0000 0.0505 0.0000
# 3 75.8427 2.1021 100.1718 0.0000 39.4561 0.0000
# 4 0.0000 0.0000 0.0000 11.2862 0.0000 3.5779
# 5 36.8815 0.0505 39.4561 0.0000 38.7755 0.0000
# 6 0.0000 0.0000 0.0000 3.5779 0.0000 5.2813
#
#
#
# Elastic Compliance Matrix: (Units=1/GPa)
#
#
# Indices 1 2 3 4 5 6 
#
# 1 0.011027 0.001196 -0.007080 0.000000 -0.003286 0.000000
# 2 0.001196 0.017244 -0.001353 0.000000 0.000216 0.000000
# 3 -0.007080 -0.001353 0.021225 0.000000 -0.014862 0.000000
# 4 0.000000 0.000000 0.000000 0.112838 0.000000 -0.076444
# 5 -0.003286 0.000216 -0.014862 0.000000 0.044038 0.000000
# 6 0.000000 0.000000 0.000000 -0.076444 0.000000 0.241135
#
#
# Mechanical properties :
#
#
# Convention : Reuss Voigt Hill
#
# Bulk Modulus (GPa) = 28.55190 50.61227 39.58209
# Shear Modulus (GPa) = 10.55624 26.84333 18.69978
#
# Velocity S-wave (km/s) = 2.31138 3.68583 3.07635
# Velocity P-wave (km/s) = 4.64472 6.61276 5.71411
#
# Compressibility (1/GPa) = 0.03502394
#
# Stress axis : x y z
#
# Youngs Moduli (GPa) = 90.68584 57.99254 47.11316
#
# Poissons Ratio (x) = -0.06937 0.33354
# Poissons Ratio (y) = -0.10848 0.06373
# Poissons Ratio (z) = 0.64202 0.07845
#
# Static dielectric constant tensor:
#      x y z
#    x 1.732080 0.000000 0.050130 
#    y 0.000000 1.744810 0.000000 
#    z 0.050130 0.000000 1.684050 
# 
# From -- ./inp_files/40670.got.cif
#   From: 2010.05.17/outbox.cif.g08.bks.cpg/sg11_21_cif.got.tgz:40670.got - 2010.06.03 12:22:45.
