data_PCOD9156529
_publ_section_title
;
Structure prediction by ZEFSAII (Michael W. Deem and Ramdas Pophale) SiO2 
 PCOD9156529
Probable space group: P 21/M
;
_chemical_formula_sum "Si O2"
_cell_formula_units_Z 32
_cell_length_a 22.493776
_cell_length_b 8.842417
_cell_length_c 11.466180
_cell_angle_alpha 90.000000
_cell_angle_beta 55.615262
_cell_angle_gamma 90.000000
_cell_volume 1882.109960
_symmetry_space_group_name_H-M "P 21/M"
_symmetry_group_IT_number 11
_symmetry_cell_setting 'monoclinic'
loop_
_space_group_symop_operation_xyz
x,y,z
-x,1/2+y,-z
-x,-y,-z
x,1/2-y,z
loop_
_atom_site_type_symbol
_atom_site_label
_atom_site_fract_x
_atom_site_fract_y
_atom_site_fract_z
Si Si1 0.563864 0.423512 0.583422
Si Si2 0.143834 0.428726 0.602313
Si Si3 0.417003 0.923324 0.719396
Si Si4 0.126554 0.921348 0.100013
Si Si5 0.924723 0.421889 0.105995
Si Si6 0.715676 0.932395 0.433074
Si Si7 0.009497 0.930981 0.617403
Si Si8 0.733762 0.569609 0.140913
O O1 0.562002 0.250000 0.623988
O O2 0.570439 0.423617 0.434743
O O3 0.489097 0.506502 0.694139
O O4 0.636218 0.505204 0.545410
O O5 0.141300 0.250000 0.579663
O O6 0.114515 0.465884 0.763410
O O7 0.226785 0.478286 0.530739
O O8 0.086367 0.512405 0.583612
O O9 0.406681 0.750000 0.767059
O O10 0.344459 0.018070 0.817474
O O11 0.129907 0.750000 0.143967
O O12 0.058785 0.007617 0.232101
O O13 0.110941 0.911392 0.979808
O O14 0.203889 0.002460 0.010831
O O15 0.930374 0.250000 0.148173
O O16 0.000000 0.500000 0.000000
O O17 0.714694 0.750000 0.431892
O O18 0.736625 0.980901 0.275921
O O19 0.008029 0.750000 0.617261
O O20 0.000000 0.000000 0.500000
O O21 0.740162 0.750000 0.134720
#
# Coordination Sequence:
#
# PCOD9156529 Si02
#       8
#     4   4   4   4   4   4   4   4
#     4   9  16  25  39  59  88 128 170 206 240 288
#     4  11  21  35  53  75 103 132 168 210 254 302
#     4   9  16  26  39  58  89 130 170 205 243 290
#     4  11  22  35  52  75 103 132 167 209 253 301
#     4  11  21  31  49  74 102 131 164 204 251 302
#     4   9  18  29  44  67  98 132 165 204 247 294
#     4  12  26  43  60  75  96 129 169 211 258 307
#     4  10  18  29  45  69  99 132 169 207 249 294
#
# _framework density 17.002193999999999
#
# number of rings (size 3 to 8) (size 9 to 14) (size 15 to 20)
#    0.000    1.750    2.500    3.375    0.000    5.500 
#    0.000    0.000    0.000    0.000    0.000    0.000 
#    0.000    1.000    0.000    3.750    0.000    5.750 
#
# Total GULP energy -178268.955416 kJ/mol
# GULP energy per Si atom -5570.904857 kJ/mol
# Density = 1.696350 g / cm^3
# Si number density = 17.002194 Si / 1000 Ang^3
#
#
#
# Elastic Constant Matrix: (Units=GPa)
#
#
# Indices 1 2 3 4 5 6 
#
# 1 134.4340 51.2064 47.8975 0.0000 -30.5310 0.0000
# 2 51.2064 85.2625 23.0430 0.0000 -14.1916 0.0000
# 3 47.8975 23.0430 27.0178 0.0000 -4.5024 0.0000
# 4 0.0000 0.0000 0.0000 19.8769 0.0000 -4.0616
# 5 -30.5310 -14.1916 -4.5024 0.0000 26.5529 0.0000
# 6 0.0000 0.0000 0.0000 -4.0616 0.0000 24.8386
#
#
#
# Elastic Compliance Matrix: (Units=1/GPa)
#
#
# Indices 1 2 3 4 5 6 
#
# 1 0.033572 -0.000715 -0.054065 0.000000 0.029052 0.000000
# 2 -0.000715 0.016287 -0.011638 0.000000 0.005909 0.000000
# 3 -0.054065 -0.011638 0.135210 0.000000 -0.045459 0.000000
# 4 0.000000 0.000000 0.000000 0.052049 0.000000 0.008511
# 5 0.029052 0.005909 -0.045459 0.000000 0.066515 0.000000
# 6 0.000000 0.000000 0.000000 0.008511 0.000000 0.041652
#
#
# Mechanical properties :
#
#
# Convention : Reuss Voigt Hill
#
# Bulk Modulus (GPa) = 19.14540 54.55646 36.85093
# Shear Modulus (GPa) = 10.09019 22.55818 16.32418
#
# Velocity S-wave (km/s) = 2.43875 3.64645 3.10195
# Velocity P-wave (km/s) = 4.38349 7.06303 5.87798
#
# Compressibility (1/GPa) = 0.05223188
#
# Stress axis : x y z
#
# Youngs Moduli (GPa) = 29.78706 61.39912 7.39591
#
# Poissons Ratio (x) = 0.04391 0.39986
# Poissons Ratio (y) = 0.02130 0.08608
# Poissons Ratio (z) = 1.61043 0.71458
#
# Static dielectric constant tensor:
#      x y z
#    x 1.610990 0.000000 -0.019340 
#    y 0.000000 1.610400 0.000000 
#    z -0.019340 0.000000 1.590720 
# 
# From -- ./inp_files/42416.got.cif
#   From: 2010.05.17/outbox.cif.g08.bks.cpg/sg11_22_cif.got.tgz:42416.got - 2010.06.03 12:22:45.
