data_PCOD9156252
_publ_section_title
;
Structure prediction by ZEFSAII (Michael W. Deem and Ramdas Pophale) SiO2 
 PCOD9156252
Probable space group: P 21/M
;
_chemical_formula_sum "Si O2"
_cell_formula_units_Z 32
_cell_length_a 13.346983
_cell_length_b 7.554068
_cell_length_c 17.755869
_cell_angle_alpha 90.000000
_cell_angle_beta 89.610428
_cell_angle_gamma 90.000000
_cell_volume 1790.176660
_symmetry_space_group_name_H-M "P 21/M"
_symmetry_group_IT_number 11
_symmetry_cell_setting 'monoclinic'
loop_
_space_group_symop_operation_xyz
x,y,z
-x,1/2+y,-z
-x,-y,-z
x,1/2-y,z
loop_
_atom_site_type_symbol
_atom_site_label
_atom_site_fract_x
_atom_site_fract_y
_atom_site_fract_z
Si Si1 0.381196 0.962063 0.501424
Si Si2 0.889624 0.959502 0.091924
Si Si3 0.627160 0.459485 0.662060
Si Si4 0.391021 0.538106 0.664856
Si Si5 0.304916 0.039404 0.825487
Si Si6 0.885315 0.464383 0.918244
Si Si7 0.500171 0.037850 0.911682
Si Si8 0.302519 0.967333 0.178418
O O1 0.366304 0.750000 0.500529
O O2 0.344344 0.032670 0.420782
O O3 0.349098 0.027557 0.584213
O O4 0.500000 0.000000 0.500000
O O5 0.897000 0.750000 0.107068
O O6 0.800571 0.033099 0.143873
O O7 0.002532 0.030837 0.100663
O O8 0.861817 0.983309 0.004307
O O9 0.647375 0.250000 0.659610
O O10 0.506823 0.478599 0.673205
O O11 0.681828 0.529208 0.735959
O O12 0.394239 0.750000 0.661659
O O13 0.327431 0.485606 0.737547
O O14 0.302358 0.250000 0.839930
O O15 0.400269 0.967824 0.871499
O O16 0.886968 0.250000 0.916848
O O17 0.799277 0.524042 0.861740
O O18 0.499997 0.250000 0.902170
O O19 0.601099 0.974254 0.870480
O O20 0.500000 0.000000 0.000000
O O21 0.302665 0.750000 0.178966
#
# Coordination Sequence:
#
# PCOD9156252 Si02
#       8
#     4   4   4   4   4   4   4   4
#     4   8  15  25  40  60  83 111 140 169 204 248
#     4   9  18  31  46  63  83 109 143 180 213 249
#     4   9  15  28  45  60  85 118 142 165 207 258
#     4  10  18  27  40  64  90 110 140 178 209 243
#     4  10  19  31  44  59  84 117 146 169 205 256
#     4   9  17  30  47  65  84 106 139 182 218 245
#     4  10  19  29  40  57  81 110 140 166 199 248
#     4   9  16  27  44  63  83 109 140 170 204 249
#
# _framework density 17.875330000000002
#
# number of rings (size 3 to 8) (size 9 to 14) (size 15 to 20)
#    0.000    2.750    1.250    1.125    0.000    1.500 
#    0.000    0.625    0.000    0.000    0.000    0.875 
#    0.000    0.000    0.000    0.000    0.000    0.000 
#
# Total GULP energy -178338.031309 kJ/mol
# GULP energy per Si atom -5573.063478 kJ/mol
# Density = 1.783464 g / cm^3
# Si number density = 17.875330 Si / 1000 Ang^3
#
#
#
# Elastic Constant Matrix: (Units=GPa)
#
#
# Indices 1 2 3 4 5 6 
#
# 1 92.7468 -1.2634 89.4100 0.0000 -4.0982 0.0000
# 2 -1.2634 38.3630 -13.9232 0.0000 -1.4911 0.0000
# 3 89.4100 -13.9232 159.2339 0.0000 -7.2968 0.0000
# 4 0.0000 0.0000 0.0000 14.3965 0.0000 -1.7382
# 5 -4.0982 -1.4911 -7.2968 0.0000 18.5527 0.0000
# 6 0.0000 0.0000 0.0000 -1.7382 0.0000 -0.3297
#
#
#
# Elastic Compliance Matrix: (Units=1/GPa)
#
#
# Indices 1 2 3 4 5 6 
#
# 1 0.024167 -0.004293 -0.013968 0.000000 -0.000500 0.000000
# 2 -0.004293 0.027865 0.004996 0.000000 0.003256 0.000000
# 3 -0.013968 0.004996 0.014702 0.000000 0.003098 0.000000
# 4 0.000000 0.000000 0.000000 0.042446 0.000000 -0.223751
# 5 -0.000500 0.003256 0.003098 0.000000 0.055270 0.000000
# 6 0.000000 0.000000 0.000000 -0.223751 0.000000 -1.853161
#
#
# Mechanical properties :
#
#
# Convention : Reuss Voigt Hill
#
# Bulk Modulus (GPa) = 24.87278 48.75451 36.81364
# Shear Modulus (GPa) = -3.03255 20.93191 8.94968
#
# Velocity S-wave (km/s) = -1.30391 3.42569 2.24000
# Velocity P-wave (km/s) = 3.41729 6.55600 5.22776
#
# Compressibility (1/GPa) = 0.04020460
#
# Stress axis : x y z
#
# Youngs Moduli (GPa) = 41.37870 35.88692 68.01784
#
# Poissons Ratio (x) = 0.15406 0.95008
# Poissons Ratio (y) = 0.17764 -0.33983
# Poissons Ratio (z) = 0.57798 -0.17930
#
# Static dielectric constant tensor:
#      x y z
#    x 1.596440 0.000000 0.002610 
#    y 0.000000 1.661640 0.000000 
#    z 0.002610 0.000000 1.640370 
# 
# From -- ./inp_files/40623.got.cif
#   From: 2010.05.17/outbox.cif.g08.bks.cpg/sg11_21_cif.got.tgz:40623.got - 2010.06.03 12:22:45.
