data_PCOD9156117
_publ_section_title
;
Structure prediction by ZEFSAII (Michael W. Deem and Ramdas Pophale) SiO2 
 PCOD9156117
Probable space group: P 21/M
;
_chemical_formula_sum "Si O2"
_cell_formula_units_Z 32
_cell_length_a 12.331322
_cell_length_b 17.009547
_cell_length_c 20.972993
_cell_angle_alpha 90.000000
_cell_angle_beta 23.037642
_cell_angle_gamma 90.000000
_cell_volume 1721.521185
_symmetry_space_group_name_H-M "P 21/M"
_symmetry_group_IT_number 11
_symmetry_cell_setting 'monoclinic'
loop_
_space_group_symop_operation_xyz
x,y,z
-x,1/2+y,-z
-x,-y,-z
x,1/2-y,z
loop_
_atom_site_type_symbol
_atom_site_label
_atom_site_fract_x
_atom_site_fract_y
_atom_site_fract_z
Si Si1 0.445639 0.839852 0.355518
Si Si2 0.446075 0.343857 0.175616
Si Si3 0.130367 0.076407 0.463199
Si Si4 0.417811 0.844910 0.224946
Si Si5 0.007744 0.597883 0.065929
Si Si6 0.979081 0.654463 0.701510
Si Si7 0.708926 0.069715 0.218435
Si Si8 0.975104 0.844998 0.849316
O O1 0.353205 0.750000 0.397237
O O2 0.451996 0.872542 0.280207
O O3 0.756326 0.843128 0.212952
O O4 0.234281 0.875953 0.520413
O O5 0.490034 0.250000 0.155652
O O6 0.248588 0.369706 0.341339
O O7 0.292779 0.363196 0.192702
O O8 0.734542 0.389098 0.027444
O O9 0.391584 0.060063 0.367891
O O10 0.876794 0.119679 0.635694
O O11 0.000000 0.000000 0.500000
O O12 0.408317 0.750000 0.228088
O O13 0.686427 0.869739 0.039540
O O14 0.861718 0.513194 0.146870
O O15 0.135211 0.608937 0.926359
O O16 0.998143 0.750000 0.694646
O O17 0.980618 0.627154 0.773310
O O18 0.772127 0.121550 0.245968
O O19 0.983351 0.750000 0.846315
#
# Coordination Sequence:
#
# PCOD9156117 Si02
#       8
#     4   4   4   4   4   4   4   4
#     4  10  17  31  56  82 108 140 189 235 277 330
#     4  10  20  35  58  84 111 145 189 234 280 330
#     4  11  22  34  57  84 118 147 183 239 287 326
#     4  10  19  33  57  85 108 143 195 235 274 334
#     4  10  20  34  54  83 114 141 185 237 281 328
#     4   9  19  36  57  83 113 148 186 230 283 334
#     4  10  22  35  53  83 117 149 183 228 290 341
#     4  10  21  38  59  82 117 153 185 231 285 339
#
# _framework density 18.588211000000001
#
# number of rings (size 3 to 8) (size 9 to 14) (size 15 to 20)
#    0.000    2.000    2.500    1.500    3.500    2.500 
#    0.000    2.500    0.000    4.500    0.000    0.000 
#    0.000    0.000    0.000    0.000    0.000    0.000 
#
# Total GULP energy -178468.597928 kJ/mol
# GULP energy per Si atom -5577.143685 kJ/mol
# Density = 1.854590 g / cm^3
# Si number density = 18.588211 Si / 1000 Ang^3
#
#
#
# Elastic Constant Matrix: (Units=GPa)
#
#
# Indices 1 2 3 4 5 6 
#
# 1 142.6061 31.8065 76.5083 0.0000 -8.5209 0.0000
# 2 31.8065 30.3924 21.8433 0.0000 -4.2694 0.0000
# 3 76.5083 21.8433 119.6882 0.0000 -17.0480 0.0000
# 4 0.0000 0.0000 0.0000 21.9138 0.0000 -10.0011
# 5 -8.5209 -4.2694 -17.0480 0.0000 33.5438 0.0000
# 6 0.0000 0.0000 0.0000 -10.0011 0.0000 21.0728
#
#
#
# Elastic Compliance Matrix: (Units=1/GPa)
#
#
# Indices 1 2 3 4 5 6 
#
# 1 0.012297 -0.008364 -0.006512 0.000000 -0.001251 0.000000
# 2 -0.008364 0.043622 -0.002292 0.000000 0.002262 0.000000
# 3 -0.006512 -0.002292 0.013647 0.000000 0.004990 0.000000
# 4 0.000000 0.000000 0.000000 0.058250 0.000000 0.027645
# 5 -0.001251 0.002262 0.004990 0.000000 0.032318 0.000000
# 6 0.000000 0.000000 0.000000 0.027645 0.000000 0.060575
#
#
# Mechanical properties :
#
#
# Convention : Reuss Voigt Hill
#
# Bulk Modulus (GPa) = 28.38625 61.44475 44.91550
# Shear Modulus (GPa) = 18.74141 26.14131 22.44136
#
# Velocity S-wave (km/s) = 3.17873 3.75419 3.47838
# Velocity P-wave (km/s) = 5.36439 7.20551 6.35201
#
# Compressibility (1/GPa) = 0.03522833
#
# Stress axis : x y z
#
# Youngs Moduli (GPa) = 81.32070 22.92434 73.27690
#
# Poissons Ratio (x) = 0.19175 0.47719
# Poissons Ratio (y) = 0.68020 0.16795
# Poissons Ratio (z) = 0.52958 0.05254
#
# Static dielectric constant tensor:
#      x y z
#    x 1.641160 0.000000 -0.013650 
#    y 0.000000 1.681620 0.000000 
#    z -0.013650 0.000000 1.652220 
# 
# From -- ./inp_files/59602.got.cif
#   From: 2010.05.17/outbox.cif.g08.bks.cpg/sg11_30_cif.got.tgz:59602.got - 2010.06.03 12:22:45.
