data_PCOD9156390
_publ_section_title
;
Structure prediction by ZEFSAII (Michael W. Deem and Ramdas Pophale) SiO2 
 PCOD9156390
Probable space group: P 21/M
;
_chemical_formula_sum "Si O2"
_cell_formula_units_Z 24
_cell_length_a 27.098894
_cell_length_b 8.585781
_cell_length_c 11.815155
_cell_angle_alpha 90.000000
_cell_angle_beta 30.593743
_cell_angle_gamma 90.000000
_cell_volume 1399.083740
_symmetry_space_group_name_H-M "P 21/M"
_symmetry_group_IT_number 11
_symmetry_cell_setting 'monoclinic'
loop_
_space_group_symop_operation_xyz
x,y,z
-x,1/2+y,-z
-x,-y,-z
x,1/2-y,z
loop_
_atom_site_type_symbol
_atom_site_label
_atom_site_fract_x
_atom_site_fract_y
_atom_site_fract_z
Si Si1 0.744953 0.073759 0.191131
Si Si2 0.108585 0.937705 0.283237
Si Si3 0.400314 0.574012 0.731863
Si Si4 0.748857 0.930814 0.811029
Si Si5 0.385168 0.935835 0.105237
Si Si6 0.595766 0.438643 0.668676
O O1 0.773947 0.250000 0.168887
O O2 0.664859 0.085514 0.251005
O O3 0.684263 0.002563 0.415060
O O4 0.835036 0.003821 0.942118
O O5 0.111212 0.750000 0.274145
O O6 0.166267 0.989479 0.282669
O O7 0.000000 0.000000 0.500000
O O8 0.500000 0.500000 0.500000
O O9 0.409033 0.750000 0.761952
O O10 0.344874 0.461084 0.925770
O O11 0.770920 0.750000 0.754437
O O12 0.710390 0.002254 0.769664
O O13 0.386826 0.750000 0.094118
O O14 0.385018 0.979738 0.238288
O O15 0.487919 0.999130 0.853288
O O16 0.592605 0.250000 0.663936
#
# Coordination Sequence:
#
# PCOD9156390 Si02
#       6
#     4   4   4   4   4   4
#     4   8  16  30  48  69  94 125 158 195 240 294
#     4  10  20  36  56  77  99 122 157 205 259 312
#     4  10  18  28  44  69 100 130 161 199 245 297
#     4  11  21  33  49  69  97 133 170 206 246 292
#     4  10  19  30  47  73 104 136 170 207 242 284
#     4   9  17  31  50  72 101 137 171 200 239 292
#
# _framework density 17.154084000000001
#
# number of rings (size 3 to 8) (size 9 to 14) (size 15 to 20)
#    0.000    2.333    0.000    5.000    0.000    2.000 
#    0.000    4.167    0.000    1.000    0.000    0.000 
#    0.000    0.000    0.000    0.000    0.000    0.000 
#
# Total GULP energy -133651.343391 kJ/mol
# GULP energy per Si atom -5568.805975 kJ/mol
# Density = 1.711504 g / cm^3
# Si number density = 17.154084 Si / 1000 Ang^3
#
#
#
# Elastic Constant Matrix: (Units=GPa)
#
#
# Indices 1 2 3 4 5 6 
#
# 1 91.1906 21.1763 48.6266 0.0000 -5.2682 0.0000
# 2 21.1763 42.4624 21.8610 0.0000 -5.0273 0.0000
# 3 48.6266 21.8610 120.7516 0.0000 -8.5094 0.0000
# 4 0.0000 0.0000 0.0000 19.2798 0.0000 -4.1742
# 5 -5.2682 -5.0273 -8.5094 0.0000 25.1895 0.0000
# 6 0.0000 0.0000 0.0000 -4.1742 0.0000 22.8955
#
#
#
# Elastic Compliance Matrix: (Units=1/GPa)
#
#
# Indices 1 2 3 4 5 6 
#
# 1 0.014790 -0.004713 -0.005072 0.000000 0.000439 0.000000
# 2 -0.004713 0.027810 -0.002884 0.000000 0.003591 0.000000
# 3 -0.005072 -0.002884 0.010992 0.000000 0.002077 0.000000
# 4 0.000000 0.000000 0.000000 0.053999 0.000000 0.009845
# 5 0.000439 0.003591 0.002077 0.000000 0.041209 0.000000
# 6 0.000000 0.000000 0.000000 0.009845 0.000000 0.045472
#
#
# Mechanical properties :
#
#
# Convention : Reuss Voigt Hill
#
# Bulk Modulus (GPa) = 35.39096 48.63693 42.01394
# Shear Modulus (GPa) = 21.83125 24.32232 23.07679
#
# Velocity S-wave (km/s) = 3.57130 3.76955 3.67176
# Velocity P-wave (km/s) = 6.13853 6.88190 6.52082
#
# Compressibility (1/GPa) = 0.02825581
#
# Stress axis : x y z
#
# Youngs Moduli (GPa) = 67.61135 35.95770 90.97195
#
# Poissons Ratio (x) = 0.16947 0.46140
# Poissons Ratio (y) = 0.31865 0.26236
# Poissons Ratio (z) = 0.34292 0.10370
#
# Static dielectric constant tensor:
#      x y z
#    x 1.602180 0.000000 0.037680 
#    y 0.000000 1.603260 0.000000 
#    z 0.037680 0.000000 1.556630 
# 
# From -- ./inp_files/33816.got.cif
#   From: 2010.05.17/outbox.cif.g08.bks.cpg/sg11_17_cif.got.tgz:33816.got - 2010.06.03 12:22:45.
