data_PCOD9156978
_publ_section_title
;
Structure prediction by ZEFSAII (Michael W. Deem and Ramdas Pophale) SiO2 
 PCOD9156978
Probable space group: P 21/M
;
_chemical_formula_sum "Si O2"
_cell_formula_units_Z 28
_cell_length_a 22.602174
_cell_length_b 8.707048
_cell_length_c 18.586172
_cell_angle_alpha 90.000000
_cell_angle_beta 153.013592
_cell_angle_gamma 90.000000
_cell_volume 1659.799429
_symmetry_space_group_name_H-M "P 21/M"
_symmetry_group_IT_number 11
_symmetry_cell_setting 'monoclinic'
loop_
_space_group_symop_operation_xyz
x,y,z
-x,1/2+y,-z
-x,-y,-z
x,1/2-y,z
loop_
_atom_site_type_symbol
_atom_site_label
_atom_site_fract_x
_atom_site_fract_y
_atom_site_fract_z
Si Si1 0.614843 0.570643 0.961717
Si Si2 0.370997 0.066312 0.322570
Si Si3 0.134978 0.066293 0.174759
Si Si4 0.567856 0.067142 0.761169
Si Si5 0.276613 0.564358 0.464059
Si Si6 0.645305 0.435687 0.143326
Si Si7 0.699267 0.429866 0.353668
O O1 0.646796 0.750000 0.990748
O O2 0.635423 0.486839 0.908348
O O3 0.457794 0.560131 0.804962
O O4 0.682378 0.497274 0.104907
O O5 0.382882 0.250000 0.329884
O O6 0.248391 0.029669 0.240084
O O7 0.500000 0.000000 0.500000
O O8 0.361414 0.995059 0.233001
O O9 0.127916 0.250000 0.174062
O O10 0.178054 0.994305 0.297263
O O11 0.000000 0.000000 0.000000
O O12 0.557761 0.250000 0.748211
O O13 0.421344 0.997088 0.602224
O O14 0.281721 0.750000 0.469917
O O15 0.244001 0.507767 0.510058
O O16 0.641171 0.250000 0.138131
O O17 0.724782 0.489367 0.300567
O O18 0.500000 0.500000 0.000000
O O19 0.733691 0.250000 0.388920
#
# Coordination Sequence:
#
# PCOD9156978 Si02
#       7
#     4   4   4   4   4   4   4
#     4   9  16  26  38  57  88 124 161 201 248 294
#     4  11  22  36  55  77 102 132 170 212 256 307
#     4  11  24  39  55  76 102 134 172 212 260 310
#     4  11  20  30  47  72  98 128 168 208 252 302
#     4  10  18  31  50  70  97 130 166 209 254 299
#     4   9  14  22  35  54  84 121 160 197 240 295
#     4   7  13  23  37  58  84 119 158 196 240 290
#
# _framework density 16.869508
#
# number of rings (size 3 to 8) (size 9 to 14) (size 15 to 20)
#    0.000    2.286    1.429    5.143    0.000    1.714 
#    0.000    2.143    0.000    0.000    0.000    0.000 
#    0.000    1.143    0.000    3.429    0.000    6.429 
#
# Total GULP energy -155984.399332 kJ/mol
# GULP energy per Si atom -5570.871405 kJ/mol
# Density = 1.683111 g / cm^3
# Si number density = 16.869508 Si / 1000 Ang^3
#
#
#
# Elastic Constant Matrix: (Units=GPa)
#
#
# Indices 1 2 3 4 5 6 
#
# 1 116.7768 51.1522 71.8109 0.0000 -49.5186 0.0000
# 2 51.1522 74.9853 42.9809 0.0000 -13.6074 0.0000
# 3 71.8109 42.9809 84.8872 0.0000 -31.3546 0.0000
# 4 0.0000 0.0000 0.0000 19.8984 0.0000 -8.4537
# 5 -49.5186 -13.6074 -31.3546 0.0000 37.5325 0.0000
# 6 0.0000 0.0000 0.0000 -8.4537 0.0000 26.9413
#
#
#
# Elastic Compliance Matrix: (Units=1/GPa)
#
#
# Indices 1 2 3 4 5 6 
#
# 1 0.032971 -0.010448 -0.011474 0.000000 0.030127 0.000000
# 2 -0.010448 0.022170 -0.006522 0.000000 -0.011195 0.000000
# 3 -0.011474 -0.006522 0.026502 0.000000 0.004637 0.000000
# 4 0.000000 0.000000 0.000000 0.057985 0.000000 0.018195
# 5 0.030127 -0.011195 0.004637 0.000000 0.066206 0.000000
# 6 0.000000 0.000000 0.000000 0.018195 0.000000 0.042827
#
#
# Mechanical properties :
#
#
# Convention : Reuss Voigt Hill
#
# Bulk Modulus (GPa) = 40.39574 67.61526 54.00550
# Shear Modulus (GPa) = 15.93372 24.25478 20.09425
#
# Velocity S-wave (km/s) = 3.07665 3.79593 3.45506
# Velocity P-wave (km/s) = 6.05137 7.70587 6.92819
#
# Compressibility (1/GPa) = 0.02475508
#
# Stress axis : x y z
#
# Youngs Moduli (GPa) = 30.32992 45.10649 37.73328
#
# Poissons Ratio (x) = 0.47125 0.43295
# Poissons Ratio (y) = 0.31687 0.24610
# Poissons Ratio (z) = 0.34801 0.29419
#
# Static dielectric constant tensor:
#      x y z
#    x 1.610130 0.000000 -0.045430 
#    y 0.000000 1.568160 0.000000 
#    z -0.045430 0.000000 1.558780 
# 
# From -- ./inp_files/61280.got.cif
#   From: 2010.05.17/outbox.cif.g08.bks.cpg/sg11_31_cif.got.tgz:61280.got - 2010.06.03 12:22:45.
