data_PCOD9156950
_publ_section_title
;
Structure prediction by ZEFSAII (Michael W. Deem and Ramdas Pophale) SiO2 
 PCOD9156950
Probable space group: P 21/M
;
_chemical_formula_sum "Si O2"
_cell_formula_units_Z 32
_cell_length_a 12.978412
_cell_length_b 8.477755
_cell_length_c 24.601080
_cell_angle_alpha 90.000000
_cell_angle_beta 133.644841
_cell_angle_gamma 90.000000
_cell_volume 1958.728813
_symmetry_space_group_name_H-M "P 21/M"
_symmetry_group_IT_number 11
_symmetry_cell_setting 'monoclinic'
loop_
_space_group_symop_operation_xyz
x,y,z
-x,1/2+y,-z
-x,-y,-z
x,1/2-y,z
loop_
_atom_site_type_symbol
_atom_site_label
_atom_site_fract_x
_atom_site_fract_y
_atom_site_fract_z
Si Si1 0.112790 0.561172 0.311221
Si Si2 0.563422 0.440777 0.579994
Si Si3 0.732805 0.440630 0.324676
Si Si4 0.949126 0.940756 0.590057
Si Si5 0.615765 0.939076 0.998544
Si Si6 0.326273 0.440400 0.578641
Si Si7 0.836458 0.061559 0.156795
Si Si8 0.607772 0.441950 0.165579
O O1 0.111005 0.750000 0.311219
O O2 0.272836 0.507437 0.355340
O O3 0.074519 0.500274 0.357500
O O4 0.992552 0.501326 0.226346
O O5 0.500000 0.500000 0.500000
O O6 0.561431 0.250000 0.578292
O O7 0.460302 0.493155 0.591191
O O8 0.731463 0.250000 0.324515
O O9 0.673404 0.500372 0.359890
O O10 0.645552 0.495256 0.239778
O O11 0.897244 0.491563 0.376456
O O12 0.948651 0.750000 0.591651
O O13 0.818775 0.993052 0.504509
O O14 0.620804 0.750000 0.002105
O O15 0.764366 0.005039 0.074568
O O16 0.544699 0.988278 0.915416
O O17 0.500000 0.000000 0.000000
O O18 0.325419 0.250000 0.578729
O O19 0.837366 0.250000 0.157963
O O20 0.731973 0.008225 0.168447
O O21 0.611132 0.250000 0.167048
#
# Coordination Sequence:
#
# PCOD9156950 Si02
#       8
#     4   4   4   4   4   4   4   4
#     4  11  21  31  49  76  98 124 165 208 246 293
#     4  10  21  36  53  71  95 125 164 209 253 294
#     4  10  19  32  49  71  98 132 168 198 235 291
#     4  10  19  33  51  68  97 134 163 198 247 292
#     4   9  16  27  44  69  99 131 164 198 239 293
#     4  10  21  35  49  69  96 130 166 206 250 287
#     4  10  18  31  48  68  99 134 162 197 246 296
#     4   8  15  28  46  67  96 130 159 190 237 287
#
# _framework density 16.337126000000001
#
# number of rings (size 3 to 8) (size 9 to 14) (size 15 to 20)
#    0.000    2.250    2.500    2.250    0.000    2.000 
#    0.000    1.250    0.000    0.000    0.000    0.875 
#    0.000    0.000    0.000    0.000    0.000    0.000 
#
# Total GULP energy -178419.454764 kJ/mol
# GULP energy per Si atom -5575.607961 kJ/mol
# Density = 1.629994 g / cm^3
# Si number density = 16.337126 Si / 1000 Ang^3
#
#
#
# Elastic Constant Matrix: (Units=GPa)
#
#
# Indices 1 2 3 4 5 6 
#
# 1 113.8139 16.0633 77.2344 0.0000 -0.8131 0.0000
# 2 16.0633 10.6242 19.0994 0.0000 2.2733 0.0000
# 3 77.2344 19.0994 159.8215 0.0000 14.7533 0.0000
# 4 0.0000 0.0000 0.0000 23.4543 0.0000 -5.4638
# 5 -0.8131 2.2733 14.7533 0.0000 15.8481 0.0000
# 6 0.0000 0.0000 0.0000 -5.4638 0.0000 16.3940
#
#
#
# Elastic Compliance Matrix: (Units=1/GPa)
#
#
# Indices 1 2 3 4 5 6 
#
# 1 0.015139 -0.012937 -0.006578 0.000000 0.008756 0.000000
# 2 -0.012937 0.131193 -0.008345 0.000000 -0.011713 0.000000
# 3 -0.006578 -0.008345 0.011327 0.000000 -0.009685 0.000000
# 4 0.000000 0.000000 0.000000 0.046225 0.000000 0.015406
# 5 0.008756 -0.011713 -0.009685 0.000000 0.074244 0.000000
# 6 0.000000 0.000000 0.000000 0.015406 0.000000 0.066132
#
#
# Mechanical properties :
#
#
# Convention : Reuss Voigt Hill
#
# Bulk Modulus (GPa) = 9.80980 56.56152 33.18566
# Shear Modulus (GPa) = 11.52179 22.59678 17.05928
#
# Velocity S-wave (km/s) = 2.65854 3.72311 3.23492
# Velocity P-wave (km/s) = 3.92956 7.29237 5.85748
#
# Compressibility (1/GPa) = 0.10193888
#
# Stress axis : x y z
#
# Youngs Moduli (GPa) = 66.05653 7.62235 88.28326
#
# Poissons Ratio (x) = 0.09861 0.58073
# Poissons Ratio (y) = 0.85456 0.73674
# Poissons Ratio (z) = 0.43452 0.06361
#
# Static dielectric constant tensor:
#      x y z
#    x 1.522440 0.000000 0.015530 
#    y 0.000000 1.559640 0.000000 
#    z 0.015530 0.000000 1.571750 
# 
# From -- ./inp_files/40710.got.cif
#   From: 2010.05.17/outbox.cif.g08.bks.cpg/sg11_21_cif.got.tgz:40710.got - 2010.06.03 12:22:45.
