data_PCOD9156442
_publ_section_title
;
Structure prediction by ZEFSAII (Michael W. Deem and Ramdas Pophale) SiO2 
 PCOD9156442
Probable space group: P 21/M
;
_chemical_formula_sum "Si O2"
_cell_formula_units_Z 20
_cell_length_a 20.888197
_cell_length_b 7.495330
_cell_length_c 9.641639
_cell_angle_alpha 90.000000
_cell_angle_beta 37.633489
_cell_angle_gamma 90.000000
_cell_volume 921.733082
_symmetry_space_group_name_H-M "P 21/M"
_symmetry_group_IT_number 11
_symmetry_cell_setting 'monoclinic'
loop_
_space_group_symop_operation_xyz
x,y,z
-x,1/2+y,-z
-x,-y,-z
x,1/2-y,z
loop_
_atom_site_type_symbol
_atom_site_label
_atom_site_fract_x
_atom_site_fract_y
_atom_site_fract_z
Si Si1 0.842839 0.469329 0.987710
Si Si2 0.182380 0.966003 0.652740
Si Si3 0.385998 0.536316 0.136327
Si Si4 0.074086 0.457130 0.563754
Si Si5 0.718731 0.047924 0.950279
O O1 0.843101 0.250000 0.984573
O O2 0.751364 0.532165 0.041683
O O3 0.957421 0.525475 0.736791
O O4 0.830339 0.525597 0.167832
O O5 0.179219 0.750000 0.658165
O O6 0.293767 0.025504 0.397209
O O7 0.095570 0.029251 0.692097
O O8 0.374153 0.750000 0.147054
O O9 0.360871 0.465118 0.024650
O O10 0.500000 0.500000 0.000000
O O11 0.080487 0.250000 0.513525
O O12 0.170286 0.552677 0.323353
O O13 0.683023 0.250000 0.039577
#
# Coordination Sequence:
#
# PCOD9156442 Si02
#       5
#     4   4   4   4   4
#     4   9  17  30  49  71  97 125 157 191 225 269
#     4   9  18  33  50  69  93 126 160 189 226 278
#     4   9  18  32  51  68  86 117 156 195 236 277
#     4  10  18  28  46  73 100 128 156 188 224 264
#     4   9  18  33  50  69  93 126 160 189 226 278
#
# _framework density 21.698255
#
# number of rings (size 3 to 8) (size 9 to 14) (size 15 to 20)
#    0.000    2.800    0.000    3.000    0.000    3.200 
#    0.000    4.000    0.000    0.000    0.000    0.000 
#    0.000    0.000    0.000    0.000    0.000    0.000 
#
# Total GULP energy -111617.325367 kJ/mol
# GULP energy per Si atom -5580.866268 kJ/mol
# Density = 2.164887 g / cm^3
# Si number density = 21.698255 Si / 1000 Ang^3
#
#
#
# Elastic Constant Matrix: (Units=GPa)
#
#
# Indices 1 2 3 4 5 6 
#
# 1 161.8148 -4.3835 22.9569 0.0000 -1.9298 0.0000
# 2 -4.3835 67.9972 -2.6004 0.0000 -0.4196 0.0000
# 3 22.9569 -2.6004 19.7159 0.0000 2.9406 0.0000
# 4 0.0000 0.0000 0.0000 10.8448 0.0000 -1.6609
# 5 -1.9298 -0.4196 2.9406 0.0000 39.1543 0.0000
# 6 0.0000 0.0000 0.0000 -1.6609 0.0000 17.9490
#
#
#
# Elastic Compliance Matrix: (Units=1/GPa)
#
#
# Indices 1 2 3 4 5 6 
#
# 1 0.007445 0.000150 -0.008803 0.000000 0.001030 0.000000
# 2 0.000150 0.014784 0.001771 0.000000 0.000033 0.000000
# 3 -0.008803 0.001771 0.061960 0.000000 -0.005068 0.000000
# 4 0.000000 0.000000 0.000000 0.093535 0.000000 0.008655
# 5 0.001030 0.000033 -0.005068 0.000000 0.025972 0.000000
# 6 0.000000 0.000000 0.000000 0.008655 0.000000 0.056514
#
#
# Mechanical properties :
#
#
# Convention : Reuss Voigt Hill
#
# Bulk Modulus (GPa) = 14.19966 31.27490 22.73728
# Shear Modulus (GPa) = 16.80954 29.15995 22.98475
#
# Velocity S-wave (km/s) = 2.78636 3.66988 3.25820
# Velocity P-wave (km/s) = 4.11218 5.69229 4.96549
#
# Compressibility (1/GPa) = 0.07042423
#
# Stress axis : x y z
#
# Youngs Moduli (GPa) = 134.31624 67.64044 16.13945
#
# Poissons Ratio (x) = -0.01012 0.14207
# Poissons Ratio (y) = -0.02010 -0.02858
# Poissons Ratio (z) = 1.18237 -0.11977
#
# Static dielectric constant tensor:
#      x y z
#    x 1.829080 0.000000 0.037110 
#    y 0.000000 1.806680 0.000000 
#    z 0.037110 0.000000 1.756290 
# 
# From -- ./inp_files/16401.got.cif
#   From: 2010.05.17/outbox.cif.g08.bks.cpg/sg11_9_cif.got.tgz:16401.got - 2010.06.03 12:22:45.
