data_PCOD9156961
_publ_section_title
;
Structure prediction by ZEFSAII (Michael W. Deem and Ramdas Pophale) SiO2 
 PCOD9156961
Probable space group: P 21/M
;
_chemical_formula_sum "Si O2"
_cell_formula_units_Z 32
_cell_length_a 21.420826
_cell_length_b 7.948450
_cell_length_c 9.605624
_cell_angle_alpha 90.000000
_cell_angle_beta 94.702859
_cell_angle_gamma 90.000000
_cell_volume 1629.970091
_symmetry_space_group_name_H-M "P 21/M"
_symmetry_group_IT_number 11
_symmetry_cell_setting 'monoclinic'
loop_
_space_group_symop_operation_xyz
x,y,z
-x,1/2+y,-z
-x,-y,-z
x,1/2-y,z
loop_
_atom_site_type_symbol
_atom_site_label
_atom_site_fract_x
_atom_site_fract_y
_atom_site_fract_z
Si Si1 0.607324 0.553784 0.060511
Si Si2 0.663755 0.943844 0.490925
Si Si3 0.131860 0.950711 0.706824
Si Si4 0.007157 0.952985 0.841253
Si Si5 0.269818 0.946214 0.763301
Si Si6 0.541886 0.054360 0.316056
Si Si7 0.063784 0.049317 0.431211
Si Si8 0.402072 0.043888 0.257886
O O1 0.589216 0.750000 0.057315
O O2 0.676722 0.536766 0.137927
O O3 0.560924 0.458979 0.156873
O O4 0.606772 0.490705 0.902565
O O5 0.684257 0.750000 0.500436
O O6 0.651020 0.011035 0.643306
O O7 0.708923 0.039607 0.394009
O O8 0.594965 0.952773 0.406823
O O9 0.133691 0.750000 0.726672
O O10 0.072782 0.015662 0.785876
O O11 0.199760 0.016350 0.763310
O O12 0.117875 0.980896 0.540881
O O13 0.008367 0.750000 0.832360
O O14 0.950393 0.009968 0.728879
O O15 0.000000 0.000000 0.000000
O O16 0.271131 0.750000 0.803035
O O17 0.546164 0.250000 0.358318
O O18 0.471329 0.991756 0.320204
O O19 0.070111 0.250000 0.430795
O O20 0.000000 0.000000 0.500000
O O21 0.401778 0.250000 0.260384
#
# Coordination Sequence:
#
# PCOD9156961 Si02
#       8
#     4   4   4   4   4   4   4   4
#     4  10  19  33  50  70  96 128 163 200 243 294
#     4  10  19  33  50  70  96 126 159 201 247 292
#     4   9  19  35  54  73  98 131 168 203 239 283
#     4   9  18  32  50  77 107 133 157 192 237 281
#     4  10  20  36  53  71  95 127 166 206 242 285
#     4  10  18  31  49  71  96 124 159 199 245 299
#     4   9  17  30  50  76 104 130 163 198 233 275
#     4   9  19  32  48  70  97 125 157 201 251 297
#
# _framework density 19.632261
#
# number of rings (size 3 to 8) (size 9 to 14) (size 15 to 20)
#    0.000    2.500    0.000    4.875    0.000    3.500 
#    0.000    7.500    0.000    6.000    0.000    0.000 
#    0.000    0.000    0.000    0.000    0.000    0.000 
#
# Total GULP energy -178437.185082 kJ/mol
# GULP energy per Si atom -5576.162034 kJ/mol
# Density = 1.958758 g / cm^3
# Si number density = 19.632261 Si / 1000 Ang^3
#
#
#
# Elastic Constant Matrix: (Units=GPa)
#
#
# Indices 1 2 3 4 5 6 
#
# 1 64.2645 -2.7846 6.3369 0.0000 -2.5952 0.0000
# 2 -2.7846 26.1769 -10.5642 0.0000 -1.7952 0.0000
# 3 6.3369 -10.5642 87.3487 0.0000 -13.6516 0.0000
# 4 0.0000 0.0000 0.0000 23.3061 0.0000 -0.5419
# 5 -2.5952 -1.7952 -13.6516 0.0000 14.4282 0.0000
# 6 0.0000 0.0000 0.0000 -0.5419 0.0000 16.9245
#
#
#
# Elastic Compliance Matrix: (Units=1/GPa)
#
#
# Indices 1 2 3 4 5 6 
#
# 1 0.015788 0.001628 -0.000555 0.000000 0.002517 0.000000
# 2 0.001628 0.041951 0.006827 0.000000 0.011972 0.000000
# 3 -0.000555 0.006827 0.014589 0.000000 0.014553 0.000000
# 4 0.000000 0.000000 0.000000 0.042939 0.000000 0.001375
# 5 0.002517 0.011972 0.014553 0.000000 0.085021 0.000000
# 6 0.000000 0.000000 0.000000 0.001375 0.000000 0.059130
#
#
# Mechanical properties :
#
#
# Convention : Reuss Voigt Hill
#
# Bulk Modulus (GPa) = 11.34732 18.19623 14.77178
# Shear Modulus (GPa) = 18.31546 23.25189 20.78367
#
# Velocity S-wave (km/s) = 3.05770 3.44520 3.25722
# Velocity P-wave (km/s) = 4.27300 5.01144 4.65688
#
# Compressibility (1/GPa) = 0.08812651
#
# Stress axis : x y z
#
# Youngs Moduli (GPa) = 63.34074 23.83741 68.54605
#
# Poissons Ratio (x) = -0.03881 0.03804
# Poissons Ratio (y) = -0.10312 -0.46793
# Poissons Ratio (z) = 0.03516 -0.16273
#
# Static dielectric constant tensor:
#      x y z
#    x 1.691680 0.000000 0.002740 
#    y 0.000000 1.705190 0.000000 
#    z 0.002740 0.000000 1.724930 
# 
# From -- ./inp_files/27296.got.cif
#   From: 2010.05.17/outbox.cif.g08.bks.cpg/sg11_14_cif.got.tgz:27296.got - 2010.06.03 12:22:45.
