data_PCOD9156558
_publ_section_title
;
Structure prediction by ZEFSAII (Michael W. Deem and Ramdas Pophale) SiO2 
 PCOD9156558
Probable space group: P 21/M
;
_chemical_formula_sum "Si O2"
_cell_formula_units_Z 32
_cell_length_a 13.622804
_cell_length_b 8.480440
_cell_length_c 13.550765
_cell_angle_alpha 90.000000
_cell_angle_beta 66.436124
_cell_angle_gamma 90.000000
_cell_volume 1434.946301
_symmetry_space_group_name_H-M "P 21/M"
_symmetry_group_IT_number 11
_symmetry_cell_setting 'monoclinic'
loop_
_space_group_symop_operation_xyz
x,y,z
-x,1/2+y,-z
-x,-y,-z
x,1/2-y,z
loop_
_atom_site_type_symbol
_atom_site_label
_atom_site_fract_x
_atom_site_fract_y
_atom_site_fract_z
Si Si1 0.727465 0.439909 0.582193
Si Si2 0.510691 0.432762 0.309439
Si Si3 0.822276 0.441463 0.972248
Si Si4 0.961838 0.941335 0.202305
Si Si5 0.491351 0.924812 0.109951
Si Si6 0.238468 0.925978 0.219651
Si Si7 0.060429 0.061817 0.572502
Si Si8 0.736273 0.561867 0.212135
O O1 0.730388 0.250000 0.585273
O O2 0.603853 0.489919 0.616133
O O3 0.775683 0.504407 0.668034
O O4 0.816725 0.502403 0.472008
O O5 0.503087 0.250000 0.335163
O O6 0.523773 0.463500 0.186498
O O7 0.624174 0.499550 0.301172
O O8 0.811531 0.250000 0.982280
O O9 0.781001 0.494391 0.880680
O O10 0.947482 0.486376 0.912947
O O11 0.759737 0.514124 0.088830
O O12 0.958533 0.750000 0.202149
O O13 0.992646 0.988278 0.301813
O O14 0.843473 0.998437 0.223327
O O15 0.541683 0.750000 0.097338
O O16 0.365450 0.904760 0.173897
O O17 0.500000 0.000000 0.000000
O O18 0.187078 0.750000 0.241232
O O19 0.060678 0.250000 0.567948
O O20 0.000000 0.000000 0.500000
O O21 0.732281 0.750000 0.219976
#
# Coordination Sequence:
#
# PCOD9156558 Si02
#       8
#     4   4   4   4   4   4   4   4
#     4  10  20  38  61  88 120 156 195 245 300 353
#     4  11  22  37  56  81 113 155 201 247 295 353
#     4  10  18  34  58  84 114 154 194 236 289 349
#     4   9  21  39  60  84 117 155 194 239 295 355
#     4  10  18  29  46  74 110 149 189 234 283 340
#     4   8  16  29  49  75 108 145 181 218 274 341
#     4  11  22  40  65  94 122 154 192 237 293 356
#     4  11  22  38  57  82 115 156 200 246 294 347
#
# _framework density 22.300487
#
# number of rings (size 3 to 8) (size 9 to 14) (size 15 to 20)
#    0.000    2.000    0.000    5.250    0.000    3.000 
#    0.000    9.375    0.000    0.000    0.000    0.000 
#    0.000    0.000    0.000    0.000    0.000    0.000 
#
# Total GULP energy -178467.802342 kJ/mol
# GULP energy per Si atom -5577.118823 kJ/mol
# Density = 2.224973 g / cm^3
# Si number density = 22.300487 Si / 1000 Ang^3
#
#
#
# Elastic Constant Matrix: (Units=GPa)
#
#
# Indices 1 2 3 4 5 6 
#
# 1 120.5484 16.2121 15.2807 0.0000 -23.1301 0.0000
# 2 16.2121 61.2622 9.7653 0.0000 -13.0740 0.0000
# 3 15.2807 9.7653 67.1521 0.0000 -23.1972 0.0000
# 4 0.0000 0.0000 0.0000 20.0965 0.0000 -8.4243
# 5 -23.1301 -13.0740 -23.1972 0.0000 30.9820 0.0000
# 6 0.0000 0.0000 0.0000 -8.4243 0.0000 25.2367
#
#
#
# Elastic Compliance Matrix: (Units=1/GPa)
#
#
# Indices 1 2 3 4 5 6 
#
# 1 0.009761 -0.001129 0.000399 0.000000 0.007109 0.000000
# 2 -0.001129 0.018069 -0.000038 0.000000 0.006754 0.000000
# 3 0.000399 -0.000038 0.020103 0.000000 0.015334 0.000000
# 4 0.000000 0.000000 0.000000 0.057855 0.000000 0.019313
# 5 0.007109 0.006754 0.015334 0.000000 0.051915 0.000000
# 6 0.000000 0.000000 0.000000 0.019313 0.000000 0.046072
#
#
# Mechanical properties :
#
#
# Convention : Reuss Voigt Hill
#
# Bulk Modulus (GPa) = 21.55305 36.83100 29.19203
# Shear Modulus (GPa) = 22.64721 29.11003 25.87862
#
# Velocity S-wave (km/s) = 3.19022 3.61689 3.41023
# Velocity P-wave (km/s) = 4.82243 5.83045 5.35023
#
# Compressibility (1/GPa) = 0.04639714
#
# Stress axis : x y z
#
# Youngs Moduli (GPa) = 102.45054 55.34194 49.74326
#
# Poissons Ratio (x) = 0.06251 -0.01984
# Poissons Ratio (y) = 0.11571 0.00187
# Poissons Ratio (z) = -0.04087 0.00208
#
# Static dielectric constant tensor:
#      x y z
#    x 1.898880 0.000000 0.019710 
#    y 0.000000 1.776380 0.000000 
#    z 0.019710 0.000000 1.952710 
# 
# From -- ./inp_files/51661.got.cif
#   From: 2010.05.17/outbox.cif.g08.bks.cpg/sg11_26_cif.got.tgz:51661.got - 2010.06.03 12:22:45.
