data_PCOD9156660
_publ_section_title
;
Structure prediction by ZEFSAII (Michael W. Deem and Ramdas Pophale) SiO2 
 PCOD9156660
Probable space group: P 21/M
;
_chemical_formula_sum "Si O2"
_cell_formula_units_Z 32
_cell_length_a 26.672635
_cell_length_b 9.769633
_cell_length_c 15.561012
_cell_angle_alpha 90.000000
_cell_angle_beta 27.663127
_cell_angle_gamma 90.000000
_cell_volume 1882.585206
_symmetry_space_group_name_H-M "P 21/M"
_symmetry_group_IT_number 11
_symmetry_cell_setting 'monoclinic'
loop_
_space_group_symop_operation_xyz
x,y,z
-x,1/2+y,-z
-x,-y,-z
x,1/2-y,z
loop_
_atom_site_type_symbol
_atom_site_label
_atom_site_fract_x
_atom_site_fract_y
_atom_site_fract_z
Si Si1 0.356614 0.410881 0.065455
Si Si2 0.858967 0.901048 0.183646
Si Si3 0.618288 0.092334 0.135118
Si Si4 0.606223 0.091143 0.339264
Si Si5 0.230186 0.086343 0.429468
Si Si6 0.069732 0.910943 0.769363
Si Si7 0.368888 0.496304 0.513331
Si Si8 0.602817 0.094591 0.717179
O O1 0.358146 0.250000 0.041403
O O2 0.270413 0.434169 0.271160
O O3 0.341055 0.497622 0.003252
O O4 0.476681 0.441903 0.920121
O O5 0.886172 0.750000 0.179260
O O6 0.734513 0.903098 0.347170
O O7 0.881798 0.020711 0.217302
O O8 0.941175 0.920750 0.979557
O O9 0.641671 0.250000 0.080636
O O10 0.663420 0.057085 0.161786
O O11 0.487167 0.073511 0.338464
O O12 0.576930 0.250000 0.376558
O O13 0.500000 0.000000 0.500000
O O14 0.655365 0.067622 0.358608
O O15 0.223159 0.250000 0.456233
O O16 0.121249 0.003952 0.617054
O O17 0.320334 0.014603 0.353408
O O18 0.098233 0.750000 0.718281
O O19 0.377552 0.590067 0.415352
O O20 0.621808 0.250000 0.719710
#
# Coordination Sequence:
#
# PCOD9156660 Si02
#       8
#     4   4   4   4   4   4   4   4
#     4   9  20  34  47  66  93 126 162 200 244 287
#     4  10  20  34  50  70  97 128 163 201 242 288
#     4   9  18  31  48  72  99 127 160 197 235 283
#     4   9  18  31  47  71 101 131 163 196 238 287
#     4  11  21  33  48  66  93 128 163 202 243 284
#     4  10  21  34  49  69  95 127 164 205 244 284
#     4  10  18  29  50  73  99 131 160 193 237 290
#     4  10  19  30  45  68  95 125 162 198 234 282
#
# _framework density 16.997902
#
# number of rings (size 3 to 8) (size 9 to 14) (size 15 to 20)
#    0.000    2.250    1.250    1.875    0.000    7.500 
#    0.000    0.000    0.000    0.000    0.000    0.875 
#    0.000    0.000    0.000    0.000    0.000    0.000 
#
# Total GULP energy -178166.240805 kJ/mol
# GULP energy per Si atom -5567.695025 kJ/mol
# Density = 1.695921 g / cm^3
# Si number density = 16.997902 Si / 1000 Ang^3
#
#
#
# Elastic Constant Matrix: (Units=GPa)
#
#
# Indices 1 2 3 4 5 6 
#
# 1 41.4294 19.6802 18.4271 0.0000 24.6574 0.0000
# 2 19.6802 86.1641 35.5891 0.0000 20.5307 0.0000
# 3 18.4271 35.5891 99.5438 0.0000 21.1120 0.0000
# 4 0.0000 0.0000 0.0000 23.2474 0.0000 3.4482
# 5 24.6574 20.5307 21.1120 0.0000 24.9027 0.0000
# 6 0.0000 0.0000 0.0000 3.4482 0.0000 17.2123
#
#
#
# Elastic Compliance Matrix: (Units=1/GPa)
#
#
# Indices 1 2 3 4 5 6 
#
# 1 0.059033 0.000087 0.001771 0.000000 -0.060025 0.000000
# 2 0.000087 0.015340 -0.003414 0.000000 -0.009839 0.000000
# 3 0.001771 -0.003414 0.013062 0.000000 -0.010013 0.000000
# 4 0.000000 0.000000 0.000000 0.044333 0.000000 -0.008881
# 5 -0.060025 -0.009839 -0.010013 0.000000 0.116191 0.000000
# 6 0.000000 0.000000 0.000000 -0.008881 0.000000 0.059877
#
#
# Mechanical properties :
#
#
# Convention : Reuss Voigt Hill
#
# Bulk Modulus (GPa) = 11.85886 41.61446 26.73666
# Shear Modulus (GPa) = 14.74689 23.30187 19.02438
#
# Velocity S-wave (km/s) = 2.94865 3.70654 3.34910
# Velocity P-wave (km/s) = 4.31098 6.54623 5.54246
#
# Compressibility (1/GPa) = 0.08432513
#
# Stress axis : x y z
#
# Youngs Moduli (GPa) = 16.93975 65.18758 76.55715
#
# Poissons Ratio (x) = -0.00570 -0.13562
# Poissons Ratio (y) = -0.00148 0.26136
# Poissons Ratio (z) = -0.03001 0.22254
#
# Static dielectric constant tensor:
#      x y z
#    x 1.586680 0.000000 0.016780 
#    y 0.000000 1.582890 0.000000 
#    z 0.016780 0.000000 1.606870 
# 
# From -- ./inp_files/56139.got.cif
#   From: 2010.05.17/outbox.cif.g08.bks.cpg/sg11_29_cif.got.tgz:56139.got - 2010.06.03 12:22:45.
