data_PCOD9156836
_publ_section_title
;
Structure prediction by ZEFSAII (Michael W. Deem and Ramdas Pophale) SiO2 
 PCOD9156836
Probable space group: P 21/M
;
_chemical_formula_sum "Si O2"
_cell_formula_units_Z 32
_cell_length_a 20.117402
_cell_length_b 8.314818
_cell_length_c 28.275241
_cell_angle_alpha 90.000000
_cell_angle_beta 158.238495
_cell_angle_gamma 90.000000
_cell_volume 1753.496940
_symmetry_space_group_name_H-M "P 21/M"
_symmetry_group_IT_number 11
_symmetry_cell_setting 'monoclinic'
loop_
_space_group_symop_operation_xyz
x,y,z
-x,1/2+y,-z
-x,-y,-z
x,1/2-y,z
loop_
_atom_site_type_symbol
_atom_site_label
_atom_site_fract_x
_atom_site_fract_y
_atom_site_fract_z
Si Si1 0.461646 0.444569 0.421307
Si Si2 0.813362 0.058945 0.397312
Si Si3 0.702680 0.061571 0.871158
Si Si4 0.432161 0.439588 0.118416
Si Si5 0.674227 0.942285 0.406362
Si Si6 0.806610 0.441528 0.591035
Si Si7 0.061281 0.053574 0.147430
Si Si8 0.903801 0.058969 0.145771
O O1 0.500000 0.500000 0.500000
O O2 0.459248 0.250000 0.419384
O O3 0.624710 0.501075 0.496506
O O4 0.264986 0.499991 0.274346
O O5 0.822251 0.250000 0.408768
O O6 0.641344 0.022554 0.250218
O O7 0.762316 0.985981 0.414435
O O8 0.000000 0.000000 0.500000
O O9 0.716530 0.250000 0.868568
O O10 0.533325 0.993546 0.730180
O O11 0.634769 0.040936 0.880465
O O12 0.905684 0.995150 0.008607
O O13 0.417649 0.250000 0.120608
O O14 0.292290 0.480011 0.985065
O O15 0.666520 0.750000 0.405222
O O16 0.787594 0.012152 0.524093
O O17 0.814262 0.250000 0.600947
O O18 0.974838 0.513142 0.729850
O O19 0.058256 0.250000 0.143929
O O20 0.004719 0.006784 0.163706
O O21 0.883675 0.250000 0.130099
#
# Coordination Sequence:
#
# PCOD9156836 Si02
#       8
#     4   4   4   4   4   4   4   4
#     4  10  19  31  47  69  99 133 173 222 268 311
#     4  10  20  35  58  86 113 138 166 205 250 300
#     4   8  15  29  49  70  93 128 172 214 256 303
#     4   9  17  29  48  77 108 132 162 208 254 295
#     4  10  20  35  54  75 103 138 176 214 254 310
#     4  11  22  33  48  72 104 140 176 219 268 313
#     4   8  14  27  47  69  93 124 166 218 264 302
#     4  10  18  30  50  72  98 135 177 217 257 306
#
# _framework density 18.249248000000001
#
# number of rings (size 3 to 8) (size 9 to 14) (size 15 to 20)
#    0.000    2.500    1.250    2.625    0.000    2.500 
#    0.000    0.625    0.000    0.750    0.000    0.000 
#    0.000    0.000    0.000    0.000    0.000    0.000 
#
# Total GULP energy -178320.962363 kJ/mol
# GULP energy per Si atom -5572.530074 kJ/mol
# Density = 1.820771 g / cm^3
# Si number density = 18.249248 Si / 1000 Ang^3
#
#
#
# Elastic Constant Matrix: (Units=GPa)
#
#
# Indices 1 2 3 4 5 6 
#
# 1 35.3187 3.1889 34.7297 0.0000 5.4275 0.0000
# 2 3.1889 24.9454 13.9493 0.0000 4.3983 0.0000
# 3 34.7297 13.9493 139.3352 0.0000 10.3741 0.0000
# 4 0.0000 0.0000 0.0000 22.8459 0.0000 -1.9113
# 5 5.4275 4.3983 10.3741 0.0000 26.5230 0.0000
# 6 0.0000 0.0000 0.0000 -1.9113 0.0000 15.4386
#
#
#
# Elastic Compliance Matrix: (Units=1/GPa)
#
#
# Indices 1 2 3 4 5 6 
#
# 1 0.037980 0.001083 -0.009252 0.000000 -0.004332 0.000000
# 2 0.001083 0.043301 -0.004175 0.000000 -0.005769 0.000000
# 3 -0.009252 -0.004175 0.010000 0.000000 -0.001326 0.000000
# 4 0.000000 0.000000 0.000000 0.044230 0.000000 0.005476
# 5 -0.004332 -0.005769 -0.001326 0.000000 0.040065 0.000000
# 6 0.000000 0.000000 0.000000 0.005476 0.000000 0.065450
#
#
# Mechanical properties :
#
#
# Convention : Reuss Voigt Hill
#
# Bulk Modulus (GPa) = 15.01715 33.70389 24.36052
# Shear Modulus (GPa) = 17.36638 22.81027 20.08832
#
# Velocity S-wave (km/s) = 3.08818 3.53927 3.32139
# Velocity P-wave (km/s) = 4.57849 5.93386 5.29968
#
# Compressibility (1/GPa) = 0.06659054
#
# Stress axis : x y z
#
# Youngs Moduli (GPa) = 26.32988 23.09404 100.00182
#
# Poissons Ratio (x) = -0.02500 0.92525
# Poissons Ratio (y) = -0.02850 0.41754
# Poissons Ratio (z) = 0.24361 0.09643
#
# Static dielectric constant tensor:
#      x y z
#    x 1.582820 0.000000 0.011940 
#    y 0.000000 1.644800 0.000000 
#    z 0.011940 0.000000 1.682620 
# 
# From -- ./inp_files/42430.got.cif
#   From: 2010.05.17/outbox.cif.g08.bks.cpg/sg11_22_cif.got.tgz:42430.got - 2010.06.03 12:22:45.
