data_PCOD9156850
_publ_section_title
;
Structure prediction by ZEFSAII (Michael W. Deem and Ramdas Pophale) SiO2 
 PCOD9156850
Probable space group: P 21/M
;
_chemical_formula_sum "Si O2"
_cell_formula_units_Z 24
_cell_length_a 24.734982
_cell_length_b 8.697275
_cell_length_c 11.655561
_cell_angle_alpha 90.000000
_cell_angle_beta 145.152348
_cell_angle_gamma 90.000000
_cell_volume 1432.733487
_symmetry_space_group_name_H-M "P 21/M"
_symmetry_group_IT_number 11
_symmetry_cell_setting 'monoclinic'
loop_
_space_group_symop_operation_xyz
x,y,z
-x,1/2+y,-z
-x,-y,-z
x,1/2-y,z
loop_
_atom_site_type_symbol
_atom_site_label
_atom_site_fract_x
_atom_site_fract_y
_atom_site_fract_z
Si Si1 0.277034 0.935040 0.024382
Si Si2 0.517899 0.434814 0.657957
Si Si3 0.946007 0.935183 0.739535
Si Si4 0.313506 0.434627 0.343036
Si Si5 0.146009 0.933674 0.198317
Si Si6 0.088110 0.434604 0.582528
O O1 0.270074 0.750000 0.015066
O O2 0.185034 0.004014 0.805125
O O3 0.374311 0.980692 0.127174
O O4 0.286943 0.995007 0.172385
O O5 0.500000 0.500000 0.500000
O O6 0.518186 0.250000 0.653534
O O7 0.422958 0.479712 0.560712
O O8 0.939061 0.750000 0.736440
O O9 0.922462 0.980898 0.569080
O O10 0.878139 0.009425 0.716153
O O11 0.053744 0.977678 0.961413
O O12 0.308604 0.250000 0.326099
O O13 0.239085 0.493256 0.306076
O O14 0.154088 0.750000 0.210342
O O15 0.086283 0.250000 0.584791
O O16 0.000000 0.500000 0.500000
#
# Coordination Sequence:
#
# PCOD9156850 Si02
#       6
#     4   4   4   4   4   4
#     4  10  19  32  49  72 103 133 164 204 246 287
#     4   8  16  29  46  69  97 129 162 200 244 288
#     4   9  20  36  50  68  97 130 162 197 239 289
#     4  10  18  30  50  75 101 130 165 201 244 295
#     4  10  19  32  52  75  97 124 160 203 248 290
#     4  11  22  35  52  74 101 133 166 198 239 292
#
# _framework density 16.751197000000001
#
# number of rings (size 3 to 8) (size 9 to 14) (size 15 to 20)
#    0.000    2.333    0.000    3.000    0.000    4.667 
#    0.000    0.000    0.000    1.000    0.000    0.000 
#    0.000    0.000    0.000    0.000    0.000    0.000 
#
# Total GULP energy -133793.677222 kJ/mol
# GULP energy per Si atom -5574.736551 kJ/mol
# Density = 1.671307 g / cm^3
# Si number density = 16.751197 Si / 1000 Ang^3
#
#
#
# Elastic Constant Matrix: (Units=GPa)
#
#
# Indices 1 2 3 4 5 6 
#
# 1 136.7115 44.2856 89.8432 0.0000 30.3138 0.0000
# 2 44.2856 39.6405 39.6129 0.0000 8.0973 0.0000
# 3 89.8432 39.6129 134.6292 0.0000 24.3923 0.0000
# 4 0.0000 0.0000 0.0000 22.5764 0.0000 2.0731
# 5 30.3138 8.0973 24.3923 0.0000 34.0261 0.0000
# 6 0.0000 0.0000 0.0000 2.0731 0.0000 28.9874
#
#
#
# Elastic Compliance Matrix: (Units=1/GPa)
#
#
# Indices 1 2 3 4 5 6 
#
# 1 0.016876 -0.010512 -0.006779 0.000000 -0.007674 0.000000
# 2 -0.010512 0.042318 -0.006101 0.000000 0.003668 0.000000
# 3 -0.006779 -0.006101 0.014239 0.000000 -0.002716 0.000000
# 4 0.000000 0.000000 0.000000 0.044587 0.000000 -0.003189
# 5 -0.007674 0.003668 -0.002716 0.000000 0.037300 0.000000
# 6 0.000000 0.000000 0.000000 -0.003189 0.000000 0.034726
#
#
# Mechanical properties :
#
#
# Convention : Reuss Voigt Hill
#
# Bulk Modulus (GPa) = 37.52440 73.16273 55.34356
# Shear Modulus (GPa) = 20.34888 26.26727 23.30807
#
# Velocity S-wave (km/s) = 3.48914 3.96420 3.73423
# Velocity P-wave (km/s) = 6.21947 8.04513 7.19048
#
# Compressibility (1/GPa) = 0.02664933
#
# Stress axis : x y z
#
# Youngs Moduli (GPa) = 59.25423 23.63045 70.23061
#
# Poissons Ratio (x) = 0.24841 0.47608
# Poissons Ratio (y) = 0.62290 0.42847
# Poissons Ratio (z) = 0.40167 0.14417
#
# Static dielectric constant tensor:
#      x y z
#    x 1.552240 0.000000 0.031350 
#    y 0.000000 1.567500 0.000000 
#    z 0.031350 0.000000 1.569190 
# 
# From -- ./inp_files/40815.got.cif
#   From: 2010.05.17/outbox.cif.g08.bks.cpg/sg11_21_cif.got.tgz:40815.got - 2010.06.03 12:22:45.
