data_PCOD9156464
_publ_section_title
;
Structure prediction by ZEFSAII (Michael W. Deem and Ramdas Pophale) SiO2 
 PCOD9156464
Probable space group: P 21/M
;
_chemical_formula_sum "Si O2"
_cell_formula_units_Z 28
_cell_length_a 9.925422
_cell_length_b 8.702469
_cell_length_c 29.015715
_cell_angle_alpha 90.000000
_cell_angle_beta 39.078862
_cell_angle_gamma 90.000000
_cell_volume 1579.914865
_symmetry_space_group_name_H-M "P 21/M"
_symmetry_group_IT_number 11
_symmetry_cell_setting 'monoclinic'
loop_
_space_group_symop_operation_xyz
x,y,z
-x,1/2+y,-z
-x,-y,-z
x,1/2-y,z
loop_
_atom_site_type_symbol
_atom_site_label
_atom_site_fract_x
_atom_site_fract_y
_atom_site_fract_z
Si Si1 0.822756 0.067373 0.443839
Si Si2 0.724096 0.432477 0.201993
Si Si3 0.629560 0.565551 0.401290
Si Si4 0.068737 0.435537 0.763837
Si Si5 0.673484 0.063858 0.808535
Si Si6 0.801125 0.565441 0.080644
Si Si7 0.267804 0.566334 0.313525
O O1 0.852892 0.250000 0.436749
O O2 0.621755 0.027283 0.529897
O O3 0.744006 0.015948 0.413909
O O4 0.046656 0.986455 0.394623
O O5 0.724543 0.250000 0.197426
O O6 0.874810 0.487074 0.203215
O O7 0.794889 0.507036 0.134816
O O8 0.482891 0.491212 0.275754
O O9 0.650468 0.750000 0.403084
O O10 0.748254 0.528458 0.322484
O O11 0.064168 0.250000 0.770707
O O12 0.845615 0.487827 0.800178
O O13 0.679095 0.250000 0.807794
O O14 0.427897 0.016490 0.880184
O O15 0.740168 0.020301 0.738720
O O16 0.808278 0.750000 0.078816
O O17 0.000000 0.500000 0.000000
O O18 0.288772 0.750000 0.310219
#
# Coordination Sequence:
#
# PCOD9156464 Si02
#       7
#     4   4   4   4   4   4   4
#     4  10  18  28  47  78 108 137 180 235 279 319
#     4  11  23  37  54  82 113 141 175 224 273 324
#     4   9  18  31  49  73 106 145 184 224 275 328
#     4  10  18  35  56  77 106 145 184 222 268 327
#     4   8  16  31  56  81 103 135 181 220 258 313
#     4  10  20  38  62  88 112 143 177 216 262 318
#     4  10  18  34  55  76 102 143 188 227 270 326
#
# _framework density 17.722474999999999
#
# number of rings (size 3 to 8) (size 9 to 14) (size 15 to 20)
#    0.000    2.286    1.429    3.429    0.000    1.143 
#    0.000    2.857    0.000    0.000    0.000    0.000 
#    0.000    0.000    0.000    0.000    0.000    0.000 
#
# Total GULP energy -156212.704509 kJ/mol
# GULP energy per Si atom -5579.025161 kJ/mol
# Density = 1.768214 g / cm^3
# Si number density = 17.722475 Si / 1000 Ang^3
#
#
#
# Elastic Constant Matrix: (Units=GPa)
#
#
# Indices 1 2 3 4 5 6 
#
# 1 120.3835 32.8249 55.1999 0.0000 -15.8781 0.0000
# 2 32.8249 55.9884 39.1676 0.0000 -6.3789 0.0000
# 3 55.1999 39.1676 119.8005 0.0000 -23.1073 0.0000
# 4 0.0000 0.0000 0.0000 27.7162 0.0000 -3.6258
# 5 -15.8781 -6.3789 -23.1073 0.0000 20.5953 0.0000
# 6 0.0000 0.0000 0.0000 -3.6258 0.0000 22.1348
#
#
#
# Elastic Compliance Matrix: (Units=1/GPa)
#
#
# Indices 1 2 3 4 5 6 
#
# 1 0.011374 -0.004001 -0.003165 0.000000 0.003978 0.000000
# 2 -0.004001 0.024610 -0.006799 0.000000 -0.003090 0.000000
# 3 -0.003165 -0.006799 0.014231 0.000000 0.011421 0.000000
# 4 0.000000 0.000000 0.000000 0.036870 0.000000 0.006039
# 5 0.003978 -0.003090 0.011421 0.000000 0.063479 0.000000
# 6 0.000000 0.000000 0.000000 0.006039 0.000000 0.046167
#
#
# Mechanical properties :
#
#
# Convention : Reuss Voigt Hill
#
# Bulk Modulus (GPa) = 44.87088 61.17302 53.02195
# Shear Modulus (GPa) = 21.54340 25.35461 23.44901
#
# Velocity S-wave (km/s) = 3.49032 3.78649 3.64142
# Velocity P-wave (km/s) = 6.45110 7.32863 6.90382
#
# Compressibility (1/GPa) = 0.02228617
#
# Stress axis : x y z
#
# Youngs Moduli (GPa) = 87.92173 40.63311 70.26710
#
# Poissons Ratio (x) = 0.16256 0.22242
# Poissons Ratio (y) = 0.35174 0.47773
# Poissons Ratio (z) = 0.27830 0.27626
#
# Static dielectric constant tensor:
#      x y z
#    x 1.594840 0.000000 -0.022820 
#    y 0.000000 1.594610 0.000000 
#    z -0.022820 0.000000 1.602860 
# 
# From -- ./inp_files/28645.got.cif
#   From: 2010.05.17/outbox.cif.g08.bks.cpg/sg11_15_cif.got.tgz:28645.got - 2010.06.03 12:22:45.
