data_PCOD9156853
_publ_section_title
;
Structure prediction by ZEFSAII (Michael W. Deem and Ramdas Pophale) SiO2 
 PCOD9156853
Probable space group: P 21/M
;
_chemical_formula_sum "Si O2"
_cell_formula_units_Z 28
_cell_length_a 9.869878
_cell_length_b 8.797881
_cell_length_c 29.033107
_cell_angle_alpha 90.000000
_cell_angle_beta 141.013075
_cell_angle_gamma 90.000000
_cell_volume 1586.108057
_symmetry_space_group_name_H-M "P 21/M"
_symmetry_group_IT_number 11
_symmetry_cell_setting 'monoclinic'
loop_
_space_group_symop_operation_xyz
x,y,z
-x,1/2+y,-z
-x,-y,-z
x,1/2-y,z
loop_
_atom_site_type_symbol
_atom_site_label
_atom_site_fract_x
_atom_site_fract_y
_atom_site_fract_z
Si Si1 0.695523 0.431977 0.580057
Si Si2 0.817205 0.567266 0.303023
Si Si3 0.867425 0.568569 0.901942
Si Si4 0.777805 0.067448 0.706900
Si Si5 0.325388 0.569866 0.056151
Si Si6 0.555313 0.568340 0.735291
Si Si7 0.765238 0.431022 0.187663
O O1 0.500000 0.500000 0.500000
O O2 0.678718 0.250000 0.574379
O O3 0.699972 0.477846 0.635040
O O4 0.931959 0.472336 0.623017
O O5 0.798123 0.750000 0.295103
O O6 0.660458 0.501320 0.300087
O O7 0.754589 0.497015 0.236942
O O8 0.844809 0.750000 0.905313
O O9 0.757618 0.479670 0.915054
O O10 0.744375 0.535109 0.822365
O O11 0.121857 0.534009 0.969651
O O12 0.790354 0.250000 0.711811
O O13 0.621961 0.004473 0.704764
O O14 0.016981 0.999124 0.776117
O O15 0.363931 0.750000 0.065641
O O16 0.546982 0.483804 0.105230
O O17 0.535759 0.750000 0.726139
O O18 0.777785 0.250000 0.192612
#
# Coordination Sequence:
#
# PCOD9156853 Si02
#       7
#     4   4   4   4   4   4   4
#     4   9  20  38  61  86 111 138 176 219 264 319
#     4  10  20  35  56  83 111 145 182 220 266 323
#     4   9  19  32  48  75 109 141 182 232 276 320
#     4  10  22  39  57  80 111 146 180 220 272 330
#     4  10  18  30  50  75 105 143 184 229 280 326
#     4  11  21  35  55  83 113 144 183 228 273 321
#     4  11  20  33  53  79 107 140 187 236 272 320
#
# _framework density 17.653274
#
# number of rings (size 3 to 8) (size 9 to 14) (size 15 to 20)
#    0.000    2.000    1.429    3.857    0.000    4.571 
#    0.000    1.429    0.000    0.000    0.000    0.000 
#    0.000    0.000    0.000    0.000    0.000    0.000 
#
# Total GULP energy -156309.724177 kJ/mol
# GULP energy per Si atom -5582.490149 kJ/mol
# Density = 1.761309 g / cm^3
# Si number density = 17.653274 Si / 1000 Ang^3
#
#
#
# Elastic Constant Matrix: (Units=GPa)
#
#
# Indices 1 2 3 4 5 6 
#
# 1 130.5972 47.3154 56.8045 0.0000 13.1086 0.0000
# 2 47.3154 74.3345 49.2077 0.0000 8.3285 0.0000
# 3 56.8045 49.2077 121.1469 0.0000 20.7056 0.0000
# 4 0.0000 0.0000 0.0000 29.5717 0.0000 4.5412
# 5 13.1086 8.3285 20.7056 0.0000 17.9740 0.0000
# 6 0.0000 0.0000 0.0000 4.5412 0.0000 29.5497
#
#
#
# Elastic Compliance Matrix: (Units=1/GPa)
#
#
# Indices 1 2 3 4 5 6 
#
# 1 0.010831 -0.004835 -0.002674 0.000000 -0.002578 0.000000
# 2 -0.004835 0.020559 -0.006298 0.000000 0.001255 0.000000
# 3 -0.002674 -0.006298 0.013988 0.000000 -0.011246 0.000000
# 4 0.000000 0.000000 0.000000 0.034633 0.000000 -0.005322
# 5 -0.002578 0.001255 -0.011246 0.000000 0.069890 0.000000
# 6 0.000000 0.000000 0.000000 -0.005322 0.000000 0.034659
#
#
# Mechanical properties :
#
#
# Convention : Reuss Voigt Hill
#
# Bulk Modulus (GPa) = 56.29335 70.30375 63.29855
# Shear Modulus (GPa) = 22.92570 26.93581 24.93076
#
# Velocity S-wave (km/s) = 3.60761 3.91042 3.76206
# Velocity P-wave (km/s) = 7.02216 7.76529 7.40305
#
# Compressibility (1/GPa) = 0.01776409
#
# Stress axis : x y z
#
# Youngs Moduli (GPa) = 92.33036 48.64088 71.48785
#
# Poissons Ratio (x) = 0.23518 0.19114
# Poissons Ratio (y) = 0.44642 0.45023
# Poissons Ratio (z) = 0.24687 0.30634
#
# Static dielectric constant tensor:
#      x y z
#    x 1.584030 0.000000 0.015740 
#    y 0.000000 1.592650 0.000000 
#    z 0.015740 0.000000 1.604540 
# 
# From -- ./inp_files/28609.got.cif
#   From: 2010.05.17/outbox.cif.g08.bks.cpg/sg11_15_cif.got.tgz:28609.got - 2010.06.03 12:22:45.
