data_PCOD9156958
_publ_section_title
;
Structure prediction by ZEFSAII (Michael W. Deem and Ramdas Pophale) SiO2 
 PCOD9156958
Probable space group: P 21/M
;
_chemical_formula_sum "Si O2"
_cell_formula_units_Z 32
_cell_length_a 26.732254
_cell_length_b 8.631471
_cell_length_c 14.074159
_cell_angle_alpha 90.000000
_cell_angle_beta 146.868376
_cell_angle_gamma 90.000000
_cell_volume 1774.941607
_symmetry_space_group_name_H-M "P 21/M"
_symmetry_group_IT_number 11
_symmetry_cell_setting 'monoclinic'
loop_
_space_group_symop_operation_xyz
x,y,z
-x,1/2+y,-z
-x,-y,-z
x,1/2-y,z
loop_
_atom_site_type_symbol
_atom_site_label
_atom_site_fract_x
_atom_site_fract_y
_atom_site_fract_z
Si Si1 0.890783 0.563336 0.230923
Si Si2 0.048283 0.435690 0.982188
Si Si3 0.383830 0.566768 0.502509
Si Si4 0.716695 0.564314 0.843401
Si Si5 0.772085 0.936627 0.630309
Si Si6 0.881867 0.934976 0.614852
Si Si7 0.897184 0.435380 0.442760
Si Si8 0.551089 0.064996 0.675300
O O1 0.890461 0.750000 0.234321
O O2 0.860025 0.498255 0.284013
O O3 0.995657 0.513097 0.383535
O O4 0.819572 0.518784 0.035497
O O5 0.043084 0.250000 0.969391
O O6 0.984674 0.503410 0.799126
O O7 0.153909 0.476474 0.168947
O O8 0.000000 0.500000 0.000000
O O9 0.395940 0.750000 0.518978
O O10 0.324684 0.513832 0.316199
O O11 0.323354 0.514264 0.495638
O O12 0.482682 0.485661 0.650050
O O13 0.712349 0.750000 0.823527
O O14 0.650201 0.513128 0.824228
O O15 0.762590 0.750000 0.615765
O O16 0.817664 0.982185 0.602008
O O17 0.884257 0.750000 0.617749
O O18 0.851460 0.999602 0.465103
O O19 0.894363 0.250000 0.438896
O O20 0.558331 0.250000 0.681993
O O21 0.500000 0.000000 0.500000
#
# Coordination Sequence:
#
# PCOD9156958 Si02
#       8
#     4   4   4   4   4   4   4   4
#     4   9  20  36  52  72  97 129 164 204 250 293
#     4   9  17  29  44  62  89 122 160 200 238 280
#     4  11  21  31  47  73 102 131 165 201 241 288
#     4  10  19  33  52  72  99 131 164 200 245 294
#     4   9  19  33  46  65  95 130 165 200 239 286
#     4  10  20  33  49  68  94 130 166 203 247 291
#     4  10  20  34  52  73  98 129 165 209 250 287
#     4  10  18  31  49  70  98 129 161 197 242 291
#
# _framework density 18.028762
#
# number of rings (size 3 to 8) (size 9 to 14) (size 15 to 20)
#    0.000    2.250    0.000    6.000    1.750    4.500 
#    0.000    0.000    0.000    0.000    0.000    0.875 
#    0.000    0.000    0.000    0.000    0.000    0.000 
#
# Total GULP energy -178440.020793 kJ/mol
# GULP energy per Si atom -5576.250650 kJ/mol
# Density = 1.798773 g / cm^3
# Si number density = 18.028762 Si / 1000 Ang^3
#
#
#
# Elastic Constant Matrix: (Units=GPa)
#
#
# Indices 1 2 3 4 5 6 
#
# 1 77.9683 4.9526 4.2164 0.0000 -0.6701 0.0000
# 2 4.9526 34.6452 1.1382 0.0000 0.9373 0.0000
# 3 4.2164 1.1382 20.8440 0.0000 -1.4381 0.0000
# 4 0.0000 0.0000 0.0000 19.8485 0.0000 0.2017
# 5 -0.6701 0.9373 -1.4381 0.0000 29.6677 0.0000
# 6 0.0000 0.0000 0.0000 0.2017 0.0000 25.3457
#
#
#
# Elastic Compliance Matrix: (Units=1/GPa)
#
#
# Indices 1 2 3 4 5 6 
#
# 1 0.013078 -0.001793 -0.002532 0.000000 0.000229 0.000000
# 2 -0.001793 0.029191 -0.001302 0.000000 -0.001026 0.000000
# 3 -0.002532 -0.001302 0.048720 0.000000 0.002346 0.000000
# 4 0.000000 0.000000 0.000000 0.050386 0.000000 -0.000401
# 5 0.000229 -0.001026 0.002346 0.000000 0.033858 0.000000
# 6 0.000000 0.000000 0.000000 -0.000401 0.000000 0.039458
#
#
# Mechanical properties :
#
#
# Convention : Reuss Voigt Hill
#
# Bulk Modulus (GPa) = 12.54131 17.11911 14.83021
# Shear Modulus (GPa) = 19.80016 23.18239 21.49128
#
# Velocity S-wave (km/s) = 3.31759 3.58977 3.45636
# Velocity P-wave (km/s) = 4.65259 5.16701 4.91653
#
# Compressibility (1/GPa) = 0.07973648
#
# Stress axis : x y z
#
# Youngs Moduli (GPa) = 76.46142 34.25737 20.52527
#
# Poissons Ratio (x) = 0.06141 0.05197
# Poissons Ratio (y) = 0.13707 0.02673
# Poissons Ratio (z) = 0.19359 0.04461
#
# Static dielectric constant tensor:
#      x y z
#    x 1.671770 0.000000 0.016450 
#    y 0.000000 1.598810 0.000000 
#    z 0.016450 0.000000 1.637010 
# 
# From -- ./inp_files/56474.got.cif
#   From: 2010.05.17/outbox.cif.g08.bks.cpg/sg11_29_cif.got.tgz:56474.got - 2010.06.03 12:22:45.
