data_PCOD9156413
_publ_section_title
;
Structure prediction by ZEFSAII (Michael W. Deem and Ramdas Pophale) SiO2 
 PCOD9156413
Probable space group: P 21/M
;
_chemical_formula_sum "Si O2"
_cell_formula_units_Z 28
_cell_length_a 22.108210
_cell_length_b 8.532207
_cell_length_c 11.709059
_cell_angle_alpha 90.000000
_cell_angle_beta 50.157229
_cell_angle_gamma 90.000000
_cell_volume 1695.852833
_symmetry_space_group_name_H-M "P 21/M"
_symmetry_group_IT_number 11
_symmetry_cell_setting 'monoclinic'
loop_
_space_group_symop_operation_xyz
x,y,z
-x,1/2+y,-z
-x,-y,-z
x,1/2-y,z
loop_
_atom_site_type_symbol
_atom_site_label
_atom_site_fract_x
_atom_site_fract_y
_atom_site_fract_z
Si Si1 0.956125 0.560679 0.385285
Si Si2 0.432981 0.437232 0.737732
Si Si3 0.263056 0.061628 0.979815
Si Si4 0.927056 0.562356 0.161589
Si Si5 0.769716 0.437608 0.235706
Si Si6 0.878812 0.062637 0.702497
Si Si7 0.402740 0.940000 0.518913
O O1 0.952863 0.750000 0.393671
O O2 0.935891 0.508632 0.282143
O O3 0.898189 0.494035 0.551572
O O4 0.044958 0.513571 0.313994
O O5 0.433465 0.250000 0.749992
O O6 0.353171 0.494241 0.895379
O O7 0.523347 0.489824 0.649664
O O8 0.417665 0.481987 0.624088
O O9 0.262831 0.250000 0.974513
O O10 0.238431 0.997486 0.884716
O O11 0.200006 0.006114 0.148157
O O12 0.929833 0.750000 0.157858
O O13 0.845651 0.507126 0.204631
O O14 0.000000 0.500000 0.000000
O O15 0.776675 0.250000 0.223761
O O16 0.687645 0.478853 0.399657
O O17 0.874567 0.250000 0.710213
O O18 0.406441 0.750000 0.527503
#
# Coordination Sequence:
#
# PCOD9156413 Si02
#       7
#     4   4   4   4   4   4   4
#     4   9  20  36  50  66  89 119 153 187 225 270
#     4   8  14  24  39  61  88 119 153 186 224 270
#     4  10  18  28  45  69  97 126 156 190 229 275
#     4  11  22  35  51  70  95 125 156 189 225 270
#     4  10  19  30  45  67  96 127 159 193 230 272
#     4  10  19  32  51  71  91 116 149 190 233 276
#     4   8  14  25  40  59  87 121 153 187 226 268
#
# _framework density 16.510867999999999
#
# number of rings (size 3 to 8) (size 9 to 14) (size 15 to 20)
#    0.000    2.571    0.000    2.571    0.000    4.000 
#    0.000    0.000    0.000    0.000    0.000    1.000 
#    0.000    0.000    0.000    0.000    0.000    0.000 
#
# Total GULP energy -155928.586911 kJ/mol
# GULP energy per Si atom -5568.878104 kJ/mol
# Density = 1.647329 g / cm^3
# Si number density = 16.510868 Si / 1000 Ang^3
#
#
#
# Elastic Constant Matrix: (Units=GPa)
#
#
# Indices 1 2 3 4 5 6 
#
# 1 86.3089 18.9399 74.0016 0.0000 -19.1791 0.0000
# 2 18.9399 23.9874 27.7935 0.0000 -2.6972 0.0000
# 3 74.0016 27.7935 156.6075 0.0000 -33.6856 0.0000
# 4 0.0000 0.0000 0.0000 24.1994 0.0000 0.1871
# 5 -19.1791 -2.6972 -33.6856 0.0000 29.3550 0.0000
# 6 0.0000 0.0000 0.0000 0.1871 0.0000 15.5120
#
#
#
# Elastic Compliance Matrix: (Units=1/GPa)
#
#
# Indices 1 2 3 4 5 6 
#
# 1 0.020522 -0.006953 -0.007590 0.000000 0.004059 0.000000
# 2 -0.006953 0.056212 -0.008706 0.000000 -0.009368 0.000000
# 3 -0.007590 -0.008706 0.013647 0.000000 0.009901 0.000000
# 4 0.000000 0.000000 0.000000 0.041327 0.000000 -0.000499
# 5 0.004059 -0.009368 0.009901 0.000000 0.047219 0.000000
# 6 0.000000 0.000000 0.000000 -0.000499 0.000000 0.064472
#
#
# Mechanical properties :
#
#
# Convention : Reuss Voigt Hill
#
# Bulk Modulus (GPa) = 22.78766 56.48597 39.63682
# Shear Modulus (GPa) = 16.41913 23.55786 19.98850
#
# Velocity S-wave (km/s) = 3.15690 3.78141 3.48318
# Velocity P-wave (km/s) = 5.20765 7.30418 6.34313
#
# Compressibility (1/GPa) = 0.04388340
#
# Stress axis : x y z
#
# Youngs Moduli (GPa) = 48.72863 17.78989 73.27830
#
# Poissons Ratio (x) = 0.12369 0.55619
# Poissons Ratio (y) = 0.33879 0.63793
# Poissons Ratio (z) = 0.36986 0.15487
#
# Static dielectric constant tensor:
#      x y z
#    x 1.557120 0.000000 -0.045780 
#    y 0.000000 1.572820 0.000000 
#    z -0.045780 0.000000 1.572740 
# 
# From -- ./inp_files/37442.got.cif
#   From: 2010.05.17/outbox.cif.g08.bks.cpg/sg11_19_cif.got.tgz:37442.got - 2010.06.03 12:22:45.
