data_PCOD9156116
_publ_section_title
;
Structure prediction by ZEFSAII (Michael W. Deem and Ramdas Pophale) SiO2 
 PCOD9156116
Probable space group: P 21/M
;
_chemical_formula_sum "Si O2"
_cell_formula_units_Z 28
_cell_length_a 18.476208
_cell_length_b 18.121718
_cell_length_c 8.269886
_cell_angle_alpha 90.000000
_cell_angle_beta 36.213327
_cell_angle_gamma 90.000000
_cell_volume 1635.864516
_symmetry_space_group_name_H-M "P 21/M"
_symmetry_group_IT_number 11
_symmetry_cell_setting 'monoclinic'
loop_
_space_group_symop_operation_xyz
x,y,z
-x,1/2+y,-z
-x,-y,-z
x,1/2-y,z
loop_
_atom_site_type_symbol
_atom_site_label
_atom_site_fract_x
_atom_site_fract_y
_atom_site_fract_z
Si Si1 0.081593 0.036081 0.208805
Si Si2 0.402636 0.607508 0.622156
Si Si3 0.932241 0.164857 0.300423
Si Si4 0.336866 0.449173 0.901686
Si Si5 0.332202 0.828565 0.079979
Si Si6 0.634429 0.020187 0.813618
Si Si7 0.195571 0.578574 0.754374
O O1 0.017274 0.102015 0.225690
O O2 0.206220 0.069485 0.061131
O O3 0.000000 0.000000 0.500000
O O4 0.117437 0.969315 0.022048
O O5 0.373004 0.525252 0.744104
O O6 0.547121 0.605252 0.323162
O O7 0.307888 0.618229 0.646264
O O8 0.370189 0.661224 0.826839
O O9 0.977767 0.250000 0.205030
O O10 0.813610 0.167623 0.631864
O O11 0.882582 0.133769 0.217352
O O12 0.323325 0.470354 0.113451
O O13 0.375360 0.750000 0.065732
O O14 0.379977 0.897115 0.093704
O O15 0.734774 0.022442 0.492552
O O16 0.500000 0.000000 0.000000
#
# Coordination Sequence:
#
# PCOD9156116 Si02
#       7
#     4   4   4   4   4   4   4
#     4  11  21  36  56  80 112 146 192 226 261 325
#     4   9  16  30  51  79 104 132 172 222 270 319
#     4  10  21  37  54  78 112 148 184 228 276 321
#     4   9  18  30  50  79 107 135 175 220 268 317
#     4   9  19  33  51  76 107 142 180 220 273 326
#     4  10  17  31  55  81 109 135 170 226 277 320
#     4  10  19  32  57  84 106 140 184 230 276 321
#
# _framework density 17.116332
#
# number of rings (size 3 to 8) (size 9 to 14) (size 15 to 20)
#    0.000    2.286    1.429    3.857    2.000    0.571 
#    0.000    1.429    0.000    0.857    0.000    0.000 
#    0.000    0.000    0.000    0.000    0.000    0.000 
#
# Total GULP energy -155921.008578 kJ/mol
# GULP energy per Si atom -5568.607449 kJ/mol
# Density = 1.707737 g / cm^3
# Si number density = 17.116332 Si / 1000 Ang^3
#
#
#
# Elastic Constant Matrix: (Units=GPa)
#
#
# Indices 1 2 3 4 5 6 
#
# 1 103.3639 40.9820 51.1475 0.0000 -9.5422 0.0000
# 2 40.9820 71.3676 38.4742 0.0000 -11.8868 0.0000
# 3 51.1475 38.4742 96.6554 0.0000 12.9348 0.0000
# 4 0.0000 0.0000 0.0000 11.5354 0.0000 -5.4906
# 5 -9.5422 -11.8868 12.9348 0.0000 29.5990 0.0000
# 6 0.0000 0.0000 0.0000 -5.4906 0.0000 4.8694
#
#
#
# Elastic Compliance Matrix: (Units=1/GPa)
#
#
# Indices 1 2 3 4 5 6 
#
# 1 0.015577 -0.003620 -0.007732 0.000000 0.006947 0.000000
# 2 -0.003620 0.022752 -0.008718 0.000000 0.011780 0.000000
# 3 -0.007732 -0.008718 0.019872 0.000000 -0.014678 0.000000
# 4 0.000000 0.000000 0.000000 0.187111 0.000000 0.210979
# 5 0.006947 0.011780 -0.014678 0.000000 0.047169 0.000000
# 6 0.000000 0.000000 0.000000 0.210979 0.000000 0.443253
#
#
# Mechanical properties :
#
#
# Convention : Reuss Voigt Hill
#
# Bulk Modulus (GPa) = 55.36227 59.17714 57.26970
# Shear Modulus (GPa) = 6.39473 18.58632 12.49052
#
# Velocity S-wave (km/s) = 1.93498 3.29885 2.70431
# Velocity P-wave (km/s) = 6.11614 7.01131 6.57896
#
# Compressibility (1/GPa) = 0.01806284
#
# Stress axis : x y z
#
# Youngs Moduli (GPa) = 64.19772 43.95187 50.32262
#
# Poissons Ratio (x) = 0.15909 0.38908
# Poissons Ratio (y) = 0.23237 0.43870
# Poissons Ratio (z) = 0.49636 0.38316
#
# Static dielectric constant tensor:
#      x y z
#    x 1.604540 0.000000 -0.001390 
#    y 0.000000 1.574680 0.000000 
#    z -0.001390 0.000000 1.609480 
# 
# From -- ./inp_files/27089.got.cif
#   From: 2010.05.17/outbox.cif.g08.bks.cpg/sg11_14_cif.got.tgz:27089.got - 2010.06.03 12:22:45.
