data_PCOD9156397
_publ_section_title
;
Structure prediction by ZEFSAII (Michael W. Deem and Ramdas Pophale) SiO2 
 PCOD9156397
Probable space group: P 21/M
;
_chemical_formula_sum "Si O2"
_cell_formula_units_Z 32
_cell_length_a 18.480792
_cell_length_b 7.985808
_cell_length_c 24.916873
_cell_angle_alpha 90.000000
_cell_angle_beta 30.247451
_cell_angle_gamma 90.000000
_cell_volume 1852.403444
_symmetry_space_group_name_H-M "P 21/M"
_symmetry_group_IT_number 11
_symmetry_cell_setting 'monoclinic'
loop_
_space_group_symop_operation_xyz
x,y,z
-x,1/2+y,-z
-x,-y,-z
x,1/2-y,z
loop_
_atom_site_type_symbol
_atom_site_label
_atom_site_fract_x
_atom_site_fract_y
_atom_site_fract_z
Si Si1 0.389824 0.551521 0.296171
Si Si2 0.450670 0.545201 0.135354
Si Si3 0.827037 0.048027 0.752106
Si Si4 0.676686 0.448080 0.163947
Si Si5 0.774177 0.951930 0.905351
Si Si6 0.880959 0.048364 0.120528
Si Si7 0.934977 0.549635 0.484099
Si Si8 0.909677 0.948873 0.927319
O O1 0.410519 0.750000 0.281819
O O2 0.417192 0.489969 0.217641
O O3 0.511395 0.479938 0.257149
O O4 0.227201 0.513691 0.416443
O O5 0.449798 0.750000 0.135804
O O6 0.323484 0.488988 0.177515
O O7 0.608911 0.489017 0.016539
O O8 0.826179 0.250000 0.749834
O O9 0.958072 0.987736 0.631011
O O10 0.835691 0.997818 0.808252
O O11 0.704191 0.250000 0.143320
O O12 0.734380 0.507814 0.185283
O O13 0.774882 0.528113 0.054198
O O14 0.769818 0.750000 0.912130
O O15 0.864957 0.017290 0.898021
O O16 0.874778 0.250000 0.129446
O O17 0.948914 0.982733 0.132592
O O18 0.000000 0.000000 0.000000
O O19 0.931836 0.750000 0.483728
O O20 0.000000 0.500000 0.500000
O O21 0.931098 0.750000 0.907133
#
# Coordination Sequence:
#
# PCOD9156397 Si02
#       8
#     4   4   4   4   4   4   4   4
#     4  11  20  34  53  72  98 131 166 204 248 292
#     4   9  17  32  49  68  95 128 160 195 237 282
#     4  10  21  36  50  67  97 130 162 202 247 287
#     4  10  18  28  44  72 102 127 163 203 240 293
#     4  10  19  31  49  72  98 129 169 202 232 287
#     4   8  15  26  42  65  96 130 161 194 237 289
#     4  11  22  37  55  74  96 126 165 208 250 292
#     4   9  16  29  47  67  97 136 165 195 242 289
#
# _framework density 17.274853
#
# number of rings (size 3 to 8) (size 9 to 14) (size 15 to 20)
#    0.000    2.250    2.500    1.500    0.000    2.000 
#    0.000    0.000    0.000    0.000    0.000    0.875 
#    0.000    0.000    0.000    0.000    0.000    0.000 
#
# Total GULP energy -178389.944884 kJ/mol
# GULP energy per Si atom -5574.685778 kJ/mol
# Density = 1.723554 g / cm^3
# Si number density = 17.274853 Si / 1000 Ang^3
#
#
#
# Elastic Constant Matrix: (Units=GPa)
#
#
# Indices 1 2 3 4 5 6 
#
# 1 169.5736 -2.4710 74.9369 0.0000 -10.6855 0.0000
# 2 -2.4710 7.7039 -6.6935 0.0000 2.7285 0.0000
# 3 74.9369 -6.6935 83.6128 0.0000 9.6265 0.0000
# 4 0.0000 0.0000 0.0000 18.2550 0.0000 1.8417
# 5 -10.6855 2.7285 9.6265 0.0000 23.1337 0.0000
# 6 0.0000 0.0000 0.0000 1.8417 0.0000 14.3395
#
#
#
# Elastic Compliance Matrix: (Units=1/GPa)
#
#
# Indices 1 2 3 4 5 6 
#
# 1 0.012675 -0.012644 -0.013883 0.000000 0.013123 0.000000
# 2 -0.012644 0.163850 0.028722 0.000000 -0.037118 0.000000
# 3 -0.013883 0.028722 0.029230 0.000000 -0.021963 0.000000
# 4 0.000000 0.000000 0.000000 0.055499 0.000000 -0.007128
# 5 0.013123 -0.037118 -0.021963 0.000000 0.062806 0.000000
# 6 0.000000 0.000000 0.000000 -0.007128 0.000000 0.070653
#
#
# Mechanical properties :
#
#
# Convention : Reuss Voigt Hill
#
# Bulk Modulus (GPa) = 4.75861 43.60392 24.18126
# Shear Modulus (GPa) = 10.86085 24.15349 17.50717
#
# Velocity S-wave (km/s) = 2.51013 3.74329 3.18692
# Velocity P-wave (km/s) = 3.34090 6.63167 5.25074
#
# Compressibility (1/GPa) = 0.21014557
#
# Stress axis : x y z
#
# Youngs Moduli (GPa) = 78.89725 6.10315 34.21145
#
# Poissons Ratio (x) = 0.07717 0.47494
# Poissons Ratio (y) = 0.99758 -0.98263
# Poissons Ratio (z) = 1.09530 -0.17530
#
# Static dielectric constant tensor:
#      x y z
#    x 1.628670 0.000000 -0.014030 
#    y 0.000000 1.627340 0.000000 
#    z -0.014030 0.000000 1.547280 
# 
# From -- ./inp_files/43785.got.cif
#   From: 2010.05.17/outbox.cif.g08.bks.cpg/sg11_22_cif.got.tgz:43785.got - 2010.06.03 12:22:45.
