data_PCOD9156088
_publ_section_title
;
Structure prediction by ZEFSAII (Michael W. Deem and Ramdas Pophale) SiO2 
 PCOD9156088
Probable space group: P 21/M
;
_chemical_formula_sum "Si O2"
_cell_formula_units_Z 32
_cell_length_a 11.269514
_cell_length_b 17.499001
_cell_length_c 8.095469
_cell_angle_alpha 90.000000
_cell_angle_beta 83.568334
_cell_angle_gamma 90.000000
_cell_volume 1586.420963
_symmetry_space_group_name_H-M "P 21/M"
_symmetry_group_IT_number 11
_symmetry_cell_setting 'monoclinic'
loop_
_space_group_symop_operation_xyz
x,y,z
-x,1/2+y,-z
-x,-y,-z
x,1/2-y,z
loop_
_atom_site_type_symbol
_atom_site_label
_atom_site_fract_x
_atom_site_fract_y
_atom_site_fract_z
Si Si1 0.727769 0.834346 0.373936
Si Si2 0.653351 0.501617 0.826659
Si Si3 0.928360 0.565854 0.272578
Si Si4 0.852094 0.450554 0.568574
Si Si5 0.421995 0.015374 0.673807
Si Si6 0.052348 0.839761 0.724410
Si Si7 0.214187 0.944414 0.882008
Si Si8 0.769683 0.838055 0.761772
O O1 0.689347 0.750000 0.328451
O O2 0.859647 0.854504 0.283631
O O3 0.640837 0.901997 0.329840
O O4 0.739362 0.835759 0.570893
O O5 0.721714 0.468190 0.654955
O O6 0.514655 0.490873 0.810354
O O7 0.692340 0.590850 0.842333
O O8 0.709038 0.454405 0.967677
O O9 0.886244 0.523529 0.449848
O O10 0.876571 0.515166 0.133512
O O11 0.068263 0.561091 0.278487
O O12 0.890526 0.381135 0.444375
O O13 0.500000 0.000000 0.500000
O O14 0.314450 0.955786 0.722589
O O15 0.062194 0.750000 0.706643
O O16 0.131329 0.871767 0.863002
O O17 0.910864 0.857469 0.760557
O O18 0.750502 0.750000 0.826546
#
# Coordination Sequence:
#
# PCOD9156088 Si02
#       8
#     4   4   4   4   4   4   4   4
#     4  10  18  33  57  85 109 137 185 248 294 320
#     4  12  21  37  57  83 118 154 195 231 284 352
#     4   9  16  32  52  83 108 137 184 227 277 333
#     4  10  17  30  56  81 107 143 185 233 274 328
#     4  11  21  40  59  81 107 148 202 248 276 330
#     4  10  20  37  58  85 117 150 194 240 287 338
#     4  10  23  36  56  82 115 155 185 231 291 350
#     4  10  19  33  59  88 115 145 183 238 292 338
#
# _framework density 20.171191
#
# number of rings (size 3 to 8) (size 9 to 14) (size 15 to 20)
#    0.000    1.750    3.750    3.375    0.000    2.000 
#    0.000    6.875    0.000    0.000    0.000    0.000 
#    0.000    0.000    0.000    0.000    0.000    0.000 
#
# Total GULP energy -178471.443305 kJ/mol
# GULP energy per Si atom -5577.232603 kJ/mol
# Density = 2.012528 g / cm^3
# Si number density = 20.171191 Si / 1000 Ang^3
#
#
#
# Elastic Constant Matrix: (Units=GPa)
#
#
# Indices 1 2 3 4 5 6 
#
# 1 132.6693 42.7385 19.5064 0.0000 27.1118 0.0000
# 2 42.7385 111.4296 4.0092 0.0000 7.6445 0.0000
# 3 19.5064 4.0092 45.4935 0.0000 16.3276 0.0000
# 4 0.0000 0.0000 0.0000 14.9832 0.0000 2.5525
# 5 27.1118 7.6445 16.3276 0.0000 34.7536 0.0000
# 6 0.0000 0.0000 0.0000 2.5525 0.0000 27.7181
#
#
#
# Elastic Compliance Matrix: (Units=1/GPa)
#
#
# Indices 1 2 3 4 5 6 
#
# 1 0.010201 -0.003411 -0.001788 0.000000 -0.006367 0.000000
# 2 -0.003411 0.010253 0.000497 0.000000 0.000172 0.000000
# 3 -0.001788 0.000497 0.026754 0.000000 -0.011284 0.000000
# 4 0.000000 0.000000 0.000000 0.067805 0.000000 -0.006244
# 5 -0.006367 0.000172 -0.011284 0.000000 0.039005 0.000000
# 6 0.000000 0.000000 0.000000 -0.006244 0.000000 0.036652
#
#
# Mechanical properties :
#
#
# Convention : Reuss Voigt Hill
#
# Bulk Modulus (GPa) = 26.45256 46.90006 36.67631
# Shear Modulus (GPa) = 23.51012 30.38020 26.94516
#
# Velocity S-wave (km/s) = 3.41769 3.88508 3.65886
# Velocity P-wave (km/s) = 5.35879 6.58989 6.00597
#
# Compressibility (1/GPa) = 0.03780352
#
# Stress axis : x y z
#
# Youngs Moduli (GPa) = 98.03435 97.53304 37.37795
#
# Poissons Ratio (x) = 0.33271 0.06683
# Poissons Ratio (y) = 0.33442 -0.01859
# Poissons Ratio (z) = 0.17527 -0.04850
#
# Static dielectric constant tensor:
#      x y z
#    x 1.749840 0.000000 0.011780 
#    y 0.000000 1.714600 0.000000 
#    z 0.011780 0.000000 1.793650 
# 
# From -- ./inp_files/18661.got.cif
#   From: 2010.05.17/outbox.cif.g08.bks.cpg/sg11_10_cif.got.tgz:18661.got - 2010.06.03 12:22:45.
