data_PCOD9156614
_publ_section_title
;
Structure prediction by ZEFSAII (Michael W. Deem and Ramdas Pophale) SiO2 
 PCOD9156614
Probable space group: P 21/M
;
_chemical_formula_sum "Si O2"
_cell_formula_units_Z 24
_cell_length_a 14.088573
_cell_length_b 8.946804
_cell_length_c 26.578326
_cell_angle_alpha 90.000000
_cell_angle_beta 154.713967
_cell_angle_gamma 90.000000
_cell_volume 1430.968972
_symmetry_space_group_name_H-M "P 21/M"
_symmetry_group_IT_number 11
_symmetry_cell_setting 'monoclinic'
loop_
_space_group_symop_operation_xyz
x,y,z
-x,1/2+y,-z
-x,-y,-z
x,1/2-y,z
loop_
_atom_site_type_symbol
_atom_site_label
_atom_site_fract_x
_atom_site_fract_y
_atom_site_fract_z
Si Si1 0.929989 0.927825 0.518783
Si Si2 0.375642 0.072956 0.988372
Si Si3 0.459387 0.928399 0.607403
Si Si4 0.106444 0.071387 0.235109
Si Si5 0.797413 0.426518 0.251277
Si Si6 0.175366 0.925504 0.371410
O O1 0.918691 0.750000 0.508337
O O2 0.111937 0.962144 0.649738
O O3 0.693887 0.989295 0.425656
O O4 0.000000 0.000000 0.500000
O O5 0.352204 0.250000 0.967918
O O6 0.540189 0.052041 0.114862
O O7 0.500000 0.000000 0.000000
O O8 0.135509 0.002254 0.883059
O O9 0.448753 0.750000 0.611393
O O10 0.716053 0.972801 0.722845
O O11 0.342068 0.956302 0.497164
O O12 0.085462 0.250000 0.224417
O O13 0.209017 0.021003 0.337710
O O14 0.848409 0.250000 0.266326
O O15 0.937454 0.526576 0.279838
O O16 0.182753 0.750000 0.362997
#
# Coordination Sequence:
#
# PCOD9156614 Si02
#       6
#     4   4   4   4   4   4
#     4  10  20  36  59  82 102 128 163 213 269 317
#     4  11  21  33  50  73 104 142 181 214 247 295
#     4   9  20  35  50  73 103 135 172 214 259 307
#     4  11  21  32  47  70 106 144 174 209 254 302
#     4   9  19  34  51  73 103 136 171 211 257 303
#     4  10  18  29  48  72 100 136 176 213 250 300
#
# _framework density 16.771851999999999
#
# number of rings (size 3 to 8) (size 9 to 14) (size 15 to 20)
#    0.000    2.000    1.667    2.500    0.000    3.333 
#    0.000    0.000    0.000    1.000    0.000    0.000 
#    0.000    0.000    0.000    0.000    0.000    0.000 
#
# Total GULP energy -133871.477842 kJ/mol
# GULP energy per Si atom -5577.978243 kJ/mol
# Density = 1.673368 g / cm^3
# Si number density = 16.771852 Si / 1000 Ang^3
#
#
#
# Elastic Constant Matrix: (Units=GPa)
#
#
# Indices 1 2 3 4 5 6 
#
# 1 129.5511 56.2951 62.1958 0.0000 20.0153 0.0000
# 2 56.2951 57.7215 45.4939 0.0000 15.5543 0.0000
# 3 62.1958 45.4939 79.8383 0.0000 26.4505 0.0000
# 4 0.0000 0.0000 0.0000 24.4177 0.0000 0.5512
# 5 20.0153 15.5543 26.4505 0.0000 24.0062 0.0000
# 6 0.0000 0.0000 0.0000 0.5512 0.0000 26.5249
#
#
#
# Elastic Compliance Matrix: (Units=1/GPa)
#
#
# Indices 1 2 3 4 5 6 
#
# 1 0.014844 -0.009749 -0.006301 0.000000 0.000883 0.000000
# 2 -0.009749 0.037866 -0.013461 0.000000 -0.001575 0.000000
# 3 -0.006301 -0.013461 0.032245 0.000000 -0.021553 0.000000
# 4 0.000000 0.000000 0.000000 0.040973 0.000000 -0.000851
# 5 0.000883 -0.001575 -0.021553 0.000000 0.065688 0.000000
# 6 0.000000 0.000000 0.000000 -0.000851 0.000000 0.037718
#
#
# Mechanical properties :
#
#
# Convention : Reuss Voigt Hill
#
# Bulk Modulus (GPa) = 38.56022 66.12004 52.34013
# Shear Modulus (GPa) = 16.83505 21.86482 19.34993
#
# Velocity S-wave (km/s) = 3.17167 3.61454 3.40032
# Velocity P-wave (km/s) = 6.03768 7.54511 6.83309
#
# Compressibility (1/GPa) = 0.02593346
#
# Stress axis : x y z
#
# Youngs Moduli (GPa) = 67.36812 26.40888 31.01259
#
# Poissons Ratio (x) = 0.25745 0.19542
# Poissons Ratio (y) = 0.65674 0.41746
# Poissons Ratio (z) = 0.42450 0.35549
#
# Static dielectric constant tensor:
#      x y z
#    x 1.544720 0.000000 0.004890 
#    y 0.000000 1.541840 0.000000 
#    z 0.004890 0.000000 1.601580 
# 
# From -- ./inp_files/33672.got.cif
#   From: 2010.05.17/outbox.cif.g08.bks.cpg/sg11_17_cif.got.tgz:33672.got - 2010.06.03 12:22:45.
