data_PCOD9156363
_publ_section_title
;
Structure prediction by ZEFSAII (Michael W. Deem and Ramdas Pophale) SiO2 
 PCOD9156363
Probable space group: P 21/M
;
_chemical_formula_sum "Si O2"
_cell_formula_units_Z 32
_cell_length_a 24.714705
_cell_length_b 8.539508
_cell_length_c 18.336412
_cell_angle_alpha 90.000000
_cell_angle_beta 149.438368
_cell_angle_gamma 90.000000
_cell_volume 1967.721469
_symmetry_space_group_name_H-M "P 21/M"
_symmetry_group_IT_number 11
_symmetry_cell_setting 'monoclinic'
loop_
_space_group_symop_operation_xyz
x,y,z
-x,1/2+y,-z
-x,-y,-z
x,1/2-y,z
loop_
_atom_site_type_symbol
_atom_site_label
_atom_site_fract_x
_atom_site_fract_y
_atom_site_fract_z
Si Si1 0.248899 0.937732 0.826185
Si Si2 0.092046 0.940769 0.769517
Si Si3 0.141845 0.439360 0.555836
Si Si4 0.310016 0.062642 0.624817
Si Si5 0.822062 0.438086 0.659793
Si Si6 0.480474 0.063955 0.058875
Si Si7 0.882896 0.061330 0.884457
Si Si8 0.942445 0.060008 0.107382
O O1 0.255295 0.750000 0.834714
O O2 0.186203 0.992310 0.825560
O O3 0.181591 0.989328 0.677444
O O4 0.366800 0.005087 0.955084
O O5 0.092665 0.750000 0.770313
O O6 0.098351 0.991622 0.860936
O O7 0.977334 0.988132 0.604020
O O8 0.143792 0.250000 0.563844
O O9 0.223587 0.484229 0.586350
O O10 0.316349 0.250000 0.632813
O O11 0.265694 0.006016 0.496038
O O12 0.423077 0.993415 0.778761
O O13 0.820408 0.250000 0.654186
O O14 0.811245 0.487863 0.732426
O O15 0.938175 0.496779 0.767480
O O16 0.479840 0.250000 0.054506
O O17 0.500000 0.000000 0.000000
O O18 0.883714 0.250000 0.884734
O O19 0.869901 0.012707 0.953696
O O20 0.000000 0.000000 0.000000
O O21 0.949631 0.250000 0.116410
#
# Coordination Sequence:
#
# PCOD9156363 Si02
#       8
#     4   4   4   4   4   4   4   4
#     4  11  22  35  52  73  98 130 168 207 248 291
#     4   9  18  32  50  73 100 132 170 205 238 289
#     4  10  19  33  51  71  98 131 168 205 241 287
#     4  11  21  34  54  75  97 130 169 204 246 295
#     4  10  18  28  43  72 105 130 163 204 247 294
#     4  12  24  39  56  73  96 126 164 209 252 293
#     4   8  15  25  42  66  96 132 165 198 239 290
#     4   9  15  29  48  67  97 137 171 200 240 288
#
# _framework density 16.262464000000001
#
# number of rings (size 3 to 8) (size 9 to 14) (size 15 to 20)
#    0.000    2.000    2.500    2.625    0.000    1.000 
#    0.000    1.875    0.000    0.000    0.000    0.875 
#    0.000    0.000    0.000    0.000    0.000    0.000 
#
# Total GULP energy -178452.783341 kJ/mol
# GULP energy per Si atom -5576.649479 kJ/mol
# Density = 1.622545 g / cm^3
# Si number density = 16.262464 Si / 1000 Ang^3
#
#
#
# Elastic Constant Matrix: (Units=GPa)
#
#
# Indices 1 2 3 4 5 6 
#
# 1 133.6325 34.5625 104.3379 0.0000 -13.3045 0.0000
# 2 34.5625 34.5850 29.4690 0.0000 -5.8883 0.0000
# 3 104.3379 29.4690 116.2796 0.0000 -23.7616 0.0000
# 4 0.0000 0.0000 0.0000 23.9542 0.0000 -0.3554
# 5 -13.3045 -5.8883 -23.7616 0.0000 30.2510 0.0000
# 6 0.0000 0.0000 0.0000 -0.3554 0.0000 12.6622
#
#
#
# Elastic Compliance Matrix: (Units=1/GPa)
#
#
# Indices 1 2 3 4 5 6 
#
# 1 0.028512 -0.008494 -0.025262 0.000000 -0.008956 0.000000
# 2 -0.008494 0.039409 -0.001861 0.000000 0.002474 0.000000
# 3 -0.025262 -0.001861 0.035015 0.000000 0.016031 0.000000
# 4 0.000000 0.000000 0.000000 0.041764 0.000000 0.001172
# 5 -0.008956 0.002474 0.016031 0.000000 0.042192 0.000000
# 6 0.000000 0.000000 0.000000 0.001172 0.000000 0.079008
#
#
# Mechanical properties :
#
#
# Convention : Reuss Voigt Hill
#
# Bulk Modulus (GPa) = 31.54163 69.02619 50.28391
# Shear Modulus (GPa) = 14.38026 21.11533 17.74779
#
# Velocity S-wave (km/s) = 2.97688 3.60725 3.30712
# Velocity P-wave (km/s) = 5.59046 7.73867 6.75056
#
# Compressibility (1/GPa) = 0.03170413
#
# Stress axis : x y z
#
# Youngs Moduli (GPa) = 35.07284 25.37492 28.55943
#
# Poissons Ratio (x) = 0.21552 0.72146
# Poissons Ratio (y) = 0.29790 0.05314
# Poissons Ratio (z) = 0.88599 0.04721
#
# Static dielectric constant tensor:
#      x y z
#    x 1.559070 0.000000 -0.033660 
#    y 0.000000 1.555620 0.000000 
#    z -0.033660 0.000000 1.533550 
# 
# From -- ./inp_files/43815.got.cif
#   From: 2010.05.17/outbox.cif.g08.bks.cpg/sg11_22_cif.got.tgz:43815.got - 2010.06.03 12:22:45.
