data_PCOD9156666
_publ_section_title
;
Structure prediction by ZEFSAII (Michael W. Deem and Ramdas Pophale) SiO2 
 PCOD9156666
Probable space group: P 21/M
;
_chemical_formula_sum "Si O2"
_cell_formula_units_Z 32
_cell_length_a 11.433055
_cell_length_b 9.131692
_cell_length_c 21.403394
_cell_angle_alpha 90.000000
_cell_angle_beta 126.741662
_cell_angle_gamma 90.000000
_cell_volume 1790.661475
_symmetry_space_group_name_H-M "P 21/M"
_symmetry_group_IT_number 11
_symmetry_cell_setting 'monoclinic'
loop_
_space_group_symop_operation_xyz
x,y,z
-x,1/2+y,-z
-x,-y,-z
x,1/2-y,z
loop_
_atom_site_type_symbol
_atom_site_label
_atom_site_fract_x
_atom_site_fract_y
_atom_site_fract_z
Si Si1 0.214976 0.424631 0.123161
Si Si2 0.928378 0.925246 0.246844
Si Si3 0.616530 0.078431 0.159945
Si Si4 0.960792 0.074639 0.582972
Si Si5 0.672915 0.424729 0.965781
Si Si6 0.519018 0.080893 0.273981
Si Si7 0.770458 0.923897 0.422857
Si Si8 0.045305 0.575689 0.869456
O O1 0.220792 0.250000 0.109399
O O2 0.250119 0.517782 0.073132
O O3 0.347332 0.451878 0.214030
O O4 0.062725 0.458018 0.107684
O O5 0.917568 0.750000 0.241969
O O6 0.014775 0.967319 0.337402
O O7 0.767387 0.994961 0.199048
O O8 0.996648 0.987411 0.205401
O O9 0.630859 0.250000 0.148695
O O10 0.574959 0.066904 0.220213
O O11 0.481563 0.006422 0.079987
O O12 0.942556 0.250000 0.573501
O O13 0.108868 0.037453 0.591868
O O14 0.829414 0.997214 0.504837
O O15 0.651329 0.250000 0.955611
O O16 0.788449 0.457180 0.057280
O O17 0.538672 0.250000 0.298770
O O18 0.615969 0.981685 0.349458
O O19 0.769154 0.750000 0.428910
O O20 0.034320 0.750000 0.854467
#
# Coordination Sequence:
#
# PCOD9156666 Si02
#       8
#     4   4   4   4   4   4   4   4
#     4   9  19  36  56  78 104 136 176 219 262 308
#     4  11  22  36  54  76 106 140 175 216 258 309
#     4  10  20  34  53  76 105 141 175 210 261 316
#     4   9  19  33  48  73 107 137 166 206 253 304
#     4  10  20  34  55  80 105 133 171 223 269 305
#     4   9  17  30  51  77 104 134 166 209 260 305
#     4  10  18  29  50  78 106 134 166 206 252 304
#     4  10  22  38  54  75 104 140 179 216 260 314
#
# _framework density 17.87049
#
# number of rings (size 3 to 8) (size 9 to 14) (size 15 to 20)
#    0.000    2.250    1.250    2.625    0.000    5.500 
#    0.000    0.000    0.000    0.750    0.000    0.000 
#    0.000    0.000    0.000    0.000    0.000    0.000 
#
# Total GULP energy -178610.769420 kJ/mol
# GULP energy per Si atom -5581.586544 kJ/mol
# Density = 1.782982 g / cm^3
# Si number density = 17.870490 Si / 1000 Ang^3
#
#
#
# Elastic Constant Matrix: (Units=GPa)
#
#
# Indices 1 2 3 4 5 6 
#
# 1 9.7099 1.2943 1.9169 0.0000 -0.6955 0.0000
# 2 1.2943 37.0461 38.0980 0.0000 -5.0643 0.0000
# 3 1.9169 38.0980 96.2410 0.0000 -5.1466 0.0000
# 4 0.0000 0.0000 0.0000 30.0981 0.0000 0.2802
# 5 -0.6955 -5.0643 -5.1466 0.0000 21.9769 0.0000
# 6 0.0000 0.0000 0.0000 0.2802 0.0000 24.0061
#
#
#
# Elastic Compliance Matrix: (Units=1/GPa)
#
#
# Indices 1 2 3 4 5 6 
#
# 1 0.103670 -0.002179 -0.001067 0.000000 0.002529 0.000000
# 2 -0.002179 0.046466 -0.018007 0.000000 0.006422 0.000000
# 3 -0.001067 -0.018007 0.017536 0.000000 -0.000077 0.000000
# 4 0.000000 0.000000 0.000000 0.033228 0.000000 -0.000388
# 5 0.002529 0.006422 -0.000077 0.000000 0.047044 0.000000
# 6 0.000000 0.000000 0.000000 -0.000388 0.000000 0.041661
#
#
# Mechanical properties :
#
#
# Convention : Reuss Voigt Hill
#
# Bulk Modulus (GPa) = 7.98940 25.06837 16.52888
# Shear Modulus (GPa) = 13.37494 21.99540 17.68517
#
# Velocity S-wave (km/s) = 2.73873 3.51211 3.14925
# Velocity P-wave (km/s) = 3.80542 5.52312 4.74268
#
# Compressibility (1/GPa) = 0.12516589
#
# Stress axis : x y z
#
# Youngs Moduli (GPa) = 9.64597 21.52117 57.02537
#
# Poissons Ratio (x) = 0.04689 0.06085
# Poissons Ratio (y) = 0.02102 1.02687
# Poissons Ratio (z) = 0.01029 0.38754
#
# Static dielectric constant tensor:
#      x y z
#    x 1.610330 0.000000 -0.002560 
#    y 0.000000 1.594320 0.000000 
#    z -0.002560 0.000000 1.605950 
# 
# From -- ./inp_files/42904.got.cif
#   From: 2010.05.17/outbox.cif.g08.bks.cpg/sg11_22_cif.got.tgz:42904.got - 2010.06.03 12:22:45.
