data_PCOD9156370
_publ_section_title
;
Structure prediction by ZEFSAII (Michael W. Deem and Ramdas Pophale) SiO2 
 PCOD9156370
Probable space group: P 21/M
;
_chemical_formula_sum "Si O2"
_cell_formula_units_Z 32
_cell_length_a 15.337854
_cell_length_b 7.663928
_cell_length_c 14.670075
_cell_angle_alpha 90.000000
_cell_angle_beta 88.209461
_cell_angle_gamma 90.000000
_cell_volume 1723.599051
_symmetry_space_group_name_H-M "P 21/M"
_symmetry_group_IT_number 11
_symmetry_cell_setting 'monoclinic'
loop_
_space_group_symop_operation_xyz
x,y,z
-x,1/2+y,-z
-x,-y,-z
x,1/2-y,z
loop_
_atom_site_type_symbol
_atom_site_label
_atom_site_fract_x
_atom_site_fract_y
_atom_site_fract_z
Si Si1 0.824052 0.463312 0.330998
Si Si2 0.861541 0.544987 0.057620
Si Si3 0.163251 0.949340 0.285655
Si Si4 0.700382 0.050446 0.187026
Si Si5 0.102207 0.539557 0.481620
Si Si6 0.244657 0.960993 0.107883
Si Si7 0.011538 0.544154 0.800817
Si Si8 0.597979 0.039943 0.024639
O O1 0.820444 0.250000 0.330570
O O2 0.738591 0.527232 0.279285
O O3 0.842464 0.521495 0.432925
O O4 0.908802 0.510028 0.268178
O O5 0.852537 0.750000 0.074332
O O6 0.785521 0.449297 0.117984
O O7 0.952460 0.487242 0.098774
O O8 0.837016 0.509506 0.954204
O O9 0.191315 0.750000 0.302266
O O10 0.139131 0.029050 0.384260
O O11 0.230866 0.028594 0.210824
O O12 0.073564 0.948159 0.231135
O O13 0.674882 0.250000 0.207998
O O14 0.626793 0.971173 0.123705
O O15 0.107390 0.750000 0.478947
O O16 0.000000 0.500000 0.500000
O O17 0.247371 0.750000 0.111922
O O18 0.331203 0.022789 0.052186
O O19 0.995976 0.750000 0.789713
O O20 0.607443 0.250000 0.028382
O O21 0.500000 0.000000 0.000000
#
# Coordination Sequence:
#
# PCOD9156370 Si02
#       8
#     4   4   4   4   4   4   4   4
#     4   8  14  26  44  63  87 119 152 184 222 264
#     4  10  18  28  44  65  87 115 155 196 224 261
#     4  10  20  31  45  64  88 117 157 198 227 262
#     4   8  15  29  46  66  93 123 147 176 225 279
#     4  10  18  29  45  67  90 117 156 200 232 263
#     4   9  19  35  47  61  90 124 148 179 229 278
#     4  10  18  29  44  61  87 124 157 189 231 271
#     4   9  17  30  50  71  92 115 143 179 225 280
#
# _framework density 18.565802000000001
#
# number of rings (size 3 to 8) (size 9 to 14) (size 15 to 20)
#    0.000    2.750    1.250    3.000    0.000    3.000 
#    0.000    0.000    0.000    0.000    0.000    0.875 
#    0.000    0.000    0.000    0.000    0.000    0.000 
#
# Total GULP energy -178307.090866 kJ/mol
# GULP energy per Si atom -5572.096590 kJ/mol
# Density = 1.852355 g / cm^3
# Si number density = 18.565802 Si / 1000 Ang^3
#
#
#
# Elastic Constant Matrix: (Units=GPa)
#
#
# Indices 1 2 3 4 5 6 
#
# 1 84.0390 -1.7862 58.7793 0.0000 19.7580 0.0000
# 2 -1.7862 47.9702 1.2659 0.0000 -2.1929 0.0000
# 3 58.7793 1.2659 166.3010 0.0000 13.3041 0.0000
# 4 0.0000 0.0000 0.0000 5.4812 0.0000 4.6057
# 5 19.7580 -2.1929 13.3041 0.0000 24.5697 0.0000
# 6 0.0000 0.0000 0.0000 4.6057 0.0000 14.3259
#
#
#
# Elastic Compliance Matrix: (Units=1/GPa)
#
#
# Indices 1 2 3 4 5 6 
#
# 1 0.018654 0.000299 -0.005642 0.000000 -0.011919 0.000000
# 2 0.000299 0.020953 -0.000413 0.000000 0.001854 0.000000
# 3 -0.005642 -0.000413 0.007997 0.000000 0.000170 0.000000
# 4 0.000000 0.000000 0.000000 0.249971 0.000000 -0.080364
# 5 -0.011919 0.001854 0.000170 0.000000 0.050359 0.000000
# 6 0.000000 0.000000 0.000000 -0.080364 0.000000 0.095640
#
#
# Mechanical properties :
#
#
# Convention : Reuss Voigt Hill
#
# Bulk Modulus (GPa) = 27.70814 46.09203 36.90009
# Shear Modulus (GPa) = 10.70394 24.87875 17.79135
#
# Velocity S-wave (km/s) = 2.40373 3.66461 3.09898
# Velocity P-wave (km/s) = 4.76031 6.54111 5.72043
#
# Compressibility (1/GPa) = 0.03609047
#
# Stress axis : x y z
#
# Youngs Moduli (GPa) = 53.60772 47.72572 125.04808
#
# Poissons Ratio (x) = -0.01425 0.70553
# Poissons Ratio (y) = -0.01601 0.05169
# Poissons Ratio (z) = 0.30246 0.01973
#
# Static dielectric constant tensor:
#      x y z
#    x 1.626800 0.000000 0.009830 
#    y 0.000000 1.689530 0.000000 
#    z 0.009830 0.000000 1.704860 
# 
# From -- ./inp_files/51278.got.cif
#   From: 2010.05.17/outbox.cif.g08.bks.cpg/sg11_26_cif.got.tgz:51278.got - 2010.06.03 12:22:45.
