data_PCOD9156527
_publ_section_title
;
Structure prediction by ZEFSAII (Michael W. Deem and Ramdas Pophale) SiO2 
 PCOD9156527
Probable space group: P 21/M
;
_chemical_formula_sum "Si O2"
_cell_formula_units_Z 32
_cell_length_a 13.015301
_cell_length_b 8.649781
_cell_length_c 22.134543
_cell_angle_alpha 90.000000
_cell_angle_beta 127.384361
_cell_angle_gamma 90.000000
_cell_volume 1980.011545
_symmetry_space_group_name_H-M "P 21/M"
_symmetry_group_IT_number 11
_symmetry_cell_setting 'monoclinic'
loop_
_space_group_symop_operation_xyz
x,y,z
-x,1/2+y,-z
-x,-y,-z
x,1/2-y,z
loop_
_atom_site_type_symbol
_atom_site_label
_atom_site_fract_x
_atom_site_fract_y
_atom_site_fract_z
Si Si1 0.887511 0.563237 0.179841
Si Si2 0.710170 0.435608 0.330934
Si Si3 0.504309 0.432910 0.826938
Si Si4 0.400022 0.565965 0.915477
Si Si5 0.948597 0.562859 0.336664
Si Si6 0.789048 0.933636 0.919147
Si Si7 0.881571 0.063999 0.497353
Si Si8 0.995667 0.435937 0.904331
O O1 0.877738 0.750000 0.175034
O O2 0.743540 0.496581 0.123535
O O3 0.945293 0.517784 0.265495
O O4 0.972565 0.516761 0.152579
O O5 0.699845 0.250000 0.324521
O O6 0.579842 0.510658 0.259955
O O7 0.825938 0.489415 0.327446
O O8 0.754580 0.483672 0.414569
O O9 0.491593 0.250000 0.829154
O O10 0.444781 0.512164 0.865205
O O11 0.653102 0.480758 0.873861
O O12 0.400354 0.750000 0.918501
O O13 0.500000 0.500000 0.000000
O O14 0.934417 0.750000 0.334725
O O15 0.078289 0.519453 0.420284
O O16 0.766740 0.750000 0.911162
O O17 0.873458 0.983350 0.891474
O O18 0.879606 0.971628 0.009222
O O19 0.883503 0.250000 0.495767
O O20 0.000000 0.000000 0.500000
O O21 0.977114 0.250000 0.900083
#
# Coordination Sequence:
#
# PCOD9156527 Si02
#       8
#     4   4   4   4   4   4   4   4
#     4  10  19  32  51  74 102 133 165 201 245 294
#     4  10  18  29  45  68  99 132 166 204 244 290
#     4  12  23  35  51  72 100 132 167 206 252 299
#     4  12  24  36  50  70 100 134 169 202 243 296
#     4   9  16  28  46  69  99 133 166 199 240 293
#     4  10  20  35  54  73  95 126 167 211 251 292
#     4   8  15  26  42  65  94 129 165 199 238 286
#     4   9  19  35  53  73  97 126 162 205 249 294
#
# _framework density 16.161522000000001
#
# number of rings (size 3 to 8) (size 9 to 14) (size 15 to 20)
#    0.000    2.000    1.250    3.750    0.000    2.500 
#    0.000    0.000    0.000    0.000    0.000    0.875 
#    0.000    0.000    0.000    0.000    0.000    0.000 
#
# Total GULP energy -178479.178066 kJ/mol
# GULP energy per Si atom -5577.474315 kJ/mol
# Density = 1.612474 g / cm^3
# Si number density = 16.161522 Si / 1000 Ang^3
#
#
#
# Elastic Constant Matrix: (Units=GPa)
#
#
# Indices 1 2 3 4 5 6 
#
# 1 39.8670 7.2135 5.3095 0.0000 -15.2669 0.0000
# 2 7.2135 25.7099 10.8781 0.0000 -6.7321 0.0000
# 3 5.3095 10.8781 65.6719 0.0000 -20.2922 0.0000
# 4 0.0000 0.0000 0.0000 21.2176 0.0000 2.3439
# 5 -15.2669 -6.7321 -20.2922 0.0000 20.1033 0.0000
# 6 0.0000 0.0000 0.0000 2.3439 0.0000 19.9698
#
#
#
# Elastic Compliance Matrix: (Units=1/GPa)
#
#
# Indices 1 2 3 4 5 6 
#
# 1 0.039029 -0.005095 0.009184 0.000000 0.037204 0.000000
# 2 -0.005095 0.043980 -0.005112 0.000000 0.005698 0.000000
# 3 0.009184 -0.005112 0.024644 0.000000 0.030138 0.000000
# 4 0.000000 0.000000 0.000000 0.047750 0.000000 -0.005604
# 5 0.037204 0.005698 0.030138 0.000000 0.110326 0.000000
# 6 0.000000 0.000000 0.000000 -0.005604 0.000000 0.050733
#
#
# Mechanical properties :
#
#
# Convention : Reuss Voigt Hill
#
# Bulk Modulus (GPa) = 9.46896 19.78342 14.62619
# Shear Modulus (GPa) = 14.13583 19.44800 16.79191
#
# Velocity S-wave (km/s) = 2.96067 3.47270 3.22686
# Velocity P-wave (km/s) = 4.19036 5.32421 4.79094
#
# Compressibility (1/GPa) = 0.10560820
#
# Stress axis : x y z
#
# Youngs Moduli (GPa) = 25.62180 22.73756 40.57764
#
# Poissons Ratio (x) = 0.11584 -0.37268
# Poissons Ratio (y) = 0.13053 0.20745
# Poissons Ratio (z) = -0.23532 0.11624
#
# Static dielectric constant tensor:
#      x y z
#    x 1.502140 0.000000 -0.015980 
#    y 0.000000 1.543430 0.000000 
#    z -0.015980 0.000000 1.580810 
# 
# From -- ./inp_files/40725.got.cif
#   From: 2010.05.17/outbox.cif.g08.bks.cpg/sg11_21_cif.got.tgz:40725.got - 2010.06.03 12:22:45.
