data_PCOD9156188
_publ_section_title
;
Structure prediction by ZEFSAII (Michael W. Deem and Ramdas Pophale) SiO2 
 PCOD9156188
Probable space group: P 21/M
;
_chemical_formula_sum "Si O2"
_cell_formula_units_Z 28
_cell_length_a 8.776486
_cell_length_b 15.543198
_cell_length_c 11.034199
_cell_angle_alpha 90.000000
_cell_angle_beta 62.756841
_cell_angle_gamma 90.000000
_cell_volume 1338.254441
_symmetry_space_group_name_H-M "P 21/M"
_symmetry_group_IT_number 11
_symmetry_cell_setting 'monoclinic'
loop_
_space_group_symop_operation_xyz
x,y,z
-x,1/2+y,-z
-x,-y,-z
x,1/2-y,z
loop_
_atom_site_type_symbol
_atom_site_label
_atom_site_fract_x
_atom_site_fract_y
_atom_site_fract_z
Si Si1 0.771832 0.655291 0.032066
Si Si2 0.036887 0.424804 0.242035
Si Si3 0.711837 0.524211 0.632662
Si Si4 0.406370 0.978716 0.907621
Si Si5 0.946454 0.097274 0.891571
Si Si6 0.215818 0.654543 0.493581
Si Si7 0.909408 0.842826 0.411433
O O1 0.695068 0.750000 0.075196
O O2 0.660590 0.572727 0.108861
O O3 0.942373 0.645653 0.049960
O O4 0.831669 0.639094 0.872026
O O5 0.138598 0.469447 0.317804
O O6 0.995077 0.498942 0.159709
O O7 0.869979 0.376187 0.349646
O O8 0.540782 0.555600 0.761165
O O9 0.684217 0.426859 0.597015
O O10 0.779153 0.582087 0.497222
O O11 0.248934 0.916002 0.996196
O O12 0.500000 0.000000 0.000000
O O13 0.987011 0.142694 0.749759
O O14 0.294468 0.750000 0.470666
O O15 0.050916 0.660324 0.465218
O O16 0.820654 0.750000 0.438266
#
# Coordination Sequence:
#
# PCOD9156188 Si02
#       7
#     4   4   4   4   4   4   4
#     4  11  24  39  60  89 124 164 212 252 298 370
#     4  10  17  35  60  85 119 159 206 250 305 361
#     4  11  19  36  59  91 127 149 197 262 315 359
#     4  11  21  39  63  91 123 158 201 253 321 362
#     4  11  20  39  63  85 120 164 205 246 298 371
#     4  10  18  30  56  89 121 156 203 254 301 359
#     4  10  19  34  58  86 118 162 206 247 301 365
#
# _framework density 20.922775999999999
#
# number of rings (size 3 to 8) (size 9 to 14) (size 15 to 20)
#    0.000    1.429    5.714    3.429    0.000    1.143 
#    0.000    3.571    0.000    0.000    0.000    0.000 
#    0.000    0.000    0.000    0.000    0.000    0.000 
#
# Total GULP energy -156164.252723 kJ/mol
# GULP energy per Si atom -5577.294740 kJ/mol
# Density = 2.087516 g / cm^3
# Si number density = 20.922776 Si / 1000 Ang^3
#
#
#
# Elastic Constant Matrix: (Units=GPa)
#
#
# Indices 1 2 3 4 5 6 
#
# 1 29.9800 11.6543 10.1781 0.0000 -12.5557 0.0000
# 2 11.6543 109.4092 32.5108 0.0000 -6.3749 0.0000
# 3 10.1781 32.5108 109.6914 0.0000 -25.1106 0.0000
# 4 0.0000 0.0000 0.0000 3.8808 0.0000 -5.4836
# 5 -12.5557 -6.3749 -25.1106 0.0000 17.3751 0.0000
# 6 0.0000 0.0000 0.0000 -5.4836 0.0000 2.2550
#
#
#
# Elastic Compliance Matrix: (Units=1/GPa)
#
#
# Indices 1 2 3 4 5 6 
#
# 1 0.052296 -0.005024 0.007271 0.000000 0.046455 0.000000
# 2 -0.005024 0.010515 -0.003883 0.000000 -0.005384 0.000000
# 3 0.007271 -0.003883 0.015645 0.000000 0.026441 0.000000
# 4 0.000000 0.000000 0.000000 -0.105779 0.000000 -0.257225
# 5 0.046455 -0.005384 0.026441 0.000000 0.127360 0.000000
# 6 0.000000 0.000000 0.000000 -0.257225 0.000000 -0.182044
#
#
# Mechanical properties :
#
#
# Convention : Reuss Voigt Hill
#
# Bulk Modulus (GPa) = 13.30065 39.75191 26.52628
# Shear Modulus (GPa) = -93.15590 17.68470 -37.73560
#
# Velocity S-wave (km/s) = -6.67985 2.91045 -4.25145
# Velocity P-wave (km/s) = 7.28855 5.50771 3.37551
#
# Compressibility (1/GPa) = 0.07518428
#
# Stress axis : x y z
#
# Youngs Moduli (GPa) = 19.12201 95.09974 63.91647
#
# Poissons Ratio (x) = 0.47782 -0.46475
# Poissons Ratio (y) = 0.09608 0.24818
# Poissons Ratio (z) = -0.13904 0.36927
#
# Static dielectric constant tensor:
#      x y z
#    x 1.745230 0.000000 0.014170 
#    y 0.000000 1.810580 0.000000 
#    z 0.014170 0.000000 1.802510 
# 
# From -- ./inp_files/31794.got.cif
#   From: 2010.05.17/outbox.cif.g08.bks.cpg/sg11_16_cif.got.tgz:31794.got - 2010.06.03 12:22:45.
