data_PCOD9156913
_publ_section_title
;
Structure prediction by ZEFSAII (Michael W. Deem and Ramdas Pophale) SiO2 
 PCOD9156913
Probable space group: P 21/M
;
_chemical_formula_sum "Si O2"
_cell_formula_units_Z 32
_cell_length_a 27.718954
_cell_length_b 8.527704
_cell_length_c 22.441210
_cell_angle_alpha 90.000000
_cell_angle_beta 159.700400
_cell_angle_gamma 90.000000
_cell_volume 1840.331074
_symmetry_space_group_name_H-M "P 21/M"
_symmetry_group_IT_number 11
_symmetry_cell_setting 'monoclinic'
loop_
_space_group_symop_operation_xyz
x,y,z
-x,1/2+y,-z
-x,-y,-z
x,1/2-y,z
loop_
_atom_site_type_symbol
_atom_site_label
_atom_site_fract_x
_atom_site_fract_y
_atom_site_fract_z
Si Si1 0.346790 0.937363 0.812363
Si Si2 0.142966 0.939797 0.474283
Si Si3 0.844328 0.061233 0.174677
Si Si4 0.962698 0.439054 0.770060
Si Si5 0.742083 0.062228 0.934032
Si Si6 0.061893 0.438249 0.009965
Si Si7 0.152857 0.063411 0.691925
Si Si8 0.359573 0.560950 0.307421
O O1 0.350098 0.750000 0.814769
O O2 0.271259 0.991504 0.663804
O O3 0.253995 0.993435 0.759818
O O4 0.500000 0.000000 0.000000
O O5 0.133724 0.750000 0.467221
O O6 0.147248 0.982750 0.408921
O O7 0.000165 0.007124 0.336783
O O8 0.843480 0.250000 0.177307
O O9 0.808874 0.990097 0.197263
O O10 0.741331 0.008285 0.001735
O O11 0.974531 0.250000 0.782280
O O12 0.105531 0.513712 0.912163
O O13 0.959791 0.483619 0.836204
O O14 0.731467 0.250000 0.923558
O O15 0.644221 0.007677 0.766722
O O16 0.069889 0.250000 0.021526
O O17 0.216879 0.501063 0.173406
O O18 0.000000 0.500000 0.000000
O O19 0.152732 0.250000 0.688293
O O20 0.000000 0.000000 0.500000
O O21 0.500000 0.500000 0.500000
O O22 0.356997 0.750000 0.306236
#
# Coordination Sequence:
#
# PCOD9156913 Si02
#       8
#     4   4   4   4   4   4   4   4
#     4  11  23  38  56  78 107 141 177 216 262 316
#     4   9  17  31  52  76 102 133 171 214 259 307
#     4  10  18  30  52  80 107 134 169 216 266 310
#     4   8  15  28  48  74 100 129 168 214 257 304
#     4   8  16  29  47  74 105 135 168 212 260 308
#     4  10  19  32  52  78 107 137 173 216 263 311
#     4  12  23  36  55  81 109 138 176 219 262 309
#     4  10  19  33  53  78 108 141 178 216 258 311
#
# _framework density 17.388176999999999
#
# number of rings (size 3 to 8) (size 9 to 14) (size 15 to 20)
#    0.000    2.250    1.250    2.625    0.000    2.000 
#    0.000    0.000    2.750    0.000    0.000    0.000 
#    0.000    0.000    0.000    0.000    0.000    0.000 
#
# Total GULP energy -178243.779466 kJ/mol
# GULP energy per Si atom -5570.118108 kJ/mol
# Density = 1.734860 g / cm^3
# Si number density = 17.388177 Si / 1000 Ang^3
#
#
#
# Elastic Constant Matrix: (Units=GPa)
#
#
# Indices 1 2 3 4 5 6 
#
# 1 131.3309 26.4847 81.1061 0.0000 -37.9004 0.0000
# 2 26.4847 39.9294 31.9281 0.0000 -9.3098 0.0000
# 3 81.1061 31.9281 145.4521 0.0000 -34.6655 0.0000
# 4 0.0000 0.0000 0.0000 23.0090 0.0000 1.5163
# 5 -37.9004 -9.3098 -34.6655 0.0000 39.0060 0.0000
# 6 0.0000 0.0000 0.0000 1.5163 0.0000 25.7251
#
#
#
# Elastic Compliance Matrix: (Units=1/GPa)
#
#
# Indices 1 2 3 4 5 6 
#
# 1 0.013679 -0.003190 -0.005000 0.000000 0.008086 0.000000
# 2 -0.003190 0.031207 -0.005119 0.000000 -0.000201 0.000000
# 3 -0.005000 -0.005119 0.011847 0.000000 0.004448 0.000000
# 4 0.000000 0.000000 0.000000 0.043631 0.000000 -0.002572
# 5 0.008086 -0.000201 0.004448 0.000000 0.037400 0.000000
# 6 0.000000 0.000000 0.000000 -0.002572 0.000000 0.039024
#
#
# Mechanical properties :
#
#
# Convention : Reuss Voigt Hill
#
# Bulk Modulus (GPa) = 33.20665 66.19449 49.70057
# Shear Modulus (GPa) = 23.42527 29.36093 26.39310
#
# Velocity S-wave (km/s) = 3.67440 4.11366 3.90022
# Velocity P-wave (km/s) = 6.09429 7.79194 6.99481
#
# Compressibility (1/GPa) = 0.03011445
#
# Stress axis : x y z
#
# Youngs Moduli (GPa) = 73.10334 32.04453 84.40691
#
# Poissons Ratio (x) = 0.10221 0.42207
# Poissons Ratio (y) = 0.23317 0.43212
# Poissons Ratio (z) = 0.36555 0.16405
#
# Static dielectric constant tensor:
#      x y z
#    x 1.595940 0.000000 -0.068320 
#    y 0.000000 1.586830 0.000000 
#    z -0.068320 0.000000 1.600210 
# 
# From -- ./inp_files/67180.got.cif
#   From: 2010.05.17/outbox.cif.g08.bks.cpg/sg11_34_cif.got.tgz:67180.got - 2010.06.03 12:22:45.
