data_PCOD9156277
_publ_section_title
;
Structure prediction by ZEFSAII (Michael W. Deem and Ramdas Pophale) SiO2 
 PCOD9156277
Probable space group: P 21/M
;
_chemical_formula_sum "Si O2"
_cell_formula_units_Z 32
_cell_length_a 6.960320
_cell_length_b 10.532265
_cell_length_c 19.582346
_cell_angle_alpha 90.000000
_cell_angle_beta 106.423034
_cell_angle_gamma 90.000000
_cell_volume 1376.971816
_symmetry_space_group_name_H-M "P 21/M"
_symmetry_group_IT_number 11
_symmetry_cell_setting 'monoclinic'
loop_
_space_group_symop_operation_xyz
x,y,z
-x,1/2+y,-z
-x,-y,-z
x,1/2-y,z
loop_
_atom_site_type_symbol
_atom_site_label
_atom_site_fract_x
_atom_site_fract_y
_atom_site_fract_z
Si Si1 0.471094 0.611706 0.594868
Si Si2 0.214289 0.600123 0.777606
Si Si3 0.244917 0.897325 0.929001
Si Si4 0.730114 0.606889 0.959488
Si Si5 0.048747 0.109504 0.377515
Si Si6 0.144709 0.616077 0.445842
Si Si7 0.686020 0.600739 0.797563
Si Si8 0.644770 0.104886 0.681650
O O1 0.428688 0.750000 0.624069
O O2 0.710120 0.618084 0.604676
O O3 0.338969 0.605402 0.513609
O O4 0.458289 0.482812 0.637198
O O5 0.187056 0.750000 0.784535
O O6 0.169877 0.548652 0.848581
O O7 0.446236 0.584025 0.782484
O O8 0.070179 0.567118 0.701412
O O9 0.184716 0.750000 0.934616
O O10 0.487271 0.893396 0.943738
O O11 0.197797 0.992781 0.985423
O O12 0.795678 0.750000 0.985836
O O13 0.770935 0.588500 0.882877
O O14 0.981119 0.250000 0.387852
O O15 0.009694 0.007859 0.431556
O O16 0.043213 0.750000 0.450868
O O17 0.222185 0.620309 0.374176
O O18 0.724454 0.750000 0.779429
O O19 0.736242 0.487646 0.749642
O O20 0.600673 0.250000 0.700052
#
# Coordination Sequence:
#
# PCOD9156277 Si02
#       8
#     4   4   4   4   4   4   4   4
#     4   9  17  30  49  68  83 104 135 172 215 256
#     4   8  15  27  42  62  88 116 142 168 202 247
#     4   8  13  23  39  57  79 107 138 172 206 237
#     4   8  14  24  38  56  78 107 142 174 201 234
#     4   9  15  25  44  66  85 108 139 170 203 248
#     4   9  18  31  46  66  88 105 129 174 223 252
#     4   9  17  29  42  58  87 121 144 165 201 249
#     4  10  18  27  42  65  89 109 135 174 212 245
#
# _framework density 23.239401000000001
#
# number of rings (size 3 to 8) (size 9 to 14) (size 15 to 20)
#    0.000    3.250    0.000    3.375    0.000    2.500 
#    0.000    3.125    0.000    3.000    0.000    7.000 
#    0.000    2.000    0.000    0.000    0.000    0.000 
#
# Total GULP energy -178408.109688 kJ/mol
# GULP energy per Si atom -5575.253428 kJ/mol
# Density = 2.318651 g / cm^3
# Si number density = 23.239401 Si / 1000 Ang^3
#
#
#
# Elastic Constant Matrix: (Units=GPa)
#
#
# Indices 1 2 3 4 5 6 
#
# 1 96.8440 6.4673 19.9642 0.0000 -1.1856 0.0000
# 2 6.4673 194.2023 90.6589 0.0000 -3.5527 0.0000
# 3 19.9642 90.6589 173.1034 0.0000 -6.1959 0.0000
# 4 0.0000 0.0000 0.0000 37.6431 0.0000 2.3634
# 5 -1.1856 -3.5527 -6.1959 0.0000 31.5894 0.0000
# 6 0.0000 0.0000 0.0000 2.3634 0.0000 -11.0037
#
#
#
# Elastic Compliance Matrix: (Units=1/GPa)
#
#
# Indices 1 2 3 4 5 6 
#
# 1 0.010590 0.000288 -0.001367 0.000000 0.000162 0.000000
# 2 0.000288 0.006824 -0.003604 0.000000 0.000071 0.000000
# 3 -0.001367 -0.003604 0.007861 0.000000 0.001085 0.000000
# 4 0.000000 0.000000 0.000000 0.026212 0.000000 0.005630
# 5 0.000162 0.000071 0.001085 0.000000 0.031883 0.000000
# 6 0.000000 0.000000 0.000000 0.005630 0.000000 -0.089670
#
#
# Mechanical properties :
#
#
# Convention : Reuss Voigt Hill
#
# Bulk Modulus (GPa) = 62.85532 77.59227 70.22379
# Shear Modulus (GPa) = 597.45423 34.78307 316.11865
#
# Velocity S-wave (km/s) = 16.05132 3.87295 11.67572
# Velocity P-wave (km/s) = 19.25181 7.31166 14.56181
#
# Compressibility (1/GPa) = 0.01590955
#
# Stress axis : x y z
#
# Youngs Moduli (GPa) = 94.42578 146.55015 127.20927
#
# Poissons Ratio (x) = -0.04224 0.17384
# Poissons Ratio (y) = -0.02722 0.45851
# Poissons Ratio (z) = 0.12904 0.52822
#
# Static dielectric constant tensor:
#      x y z
#    x 1.977590 0.000000 -0.017760 
#    y 0.000000 1.987650 0.000000 
#    z -0.017760 0.000000 1.910480 
# 
# From -- ./inp_files/63569.got.cif
#   From: 2010.05.17/outbox.cif.g08.bks.cpg/sg11_32_cif.got.tgz:63569.got - 2010.06.03 12:22:45.
