data_PCOD9156316
_publ_section_title
;
Structure prediction by ZEFSAII (Michael W. Deem and Ramdas Pophale) SiO2 
 PCOD9156316
Probable space group: P 21/M
;
_chemical_formula_sum "Si O2"
_cell_formula_units_Z 32
_cell_length_a 28.715125
_cell_length_b 8.944149
_cell_length_c 21.055707
_cell_angle_alpha 90.000000
_cell_angle_beta 22.839315
_cell_angle_gamma 90.000000
_cell_volume 2099.021951
_symmetry_space_group_name_H-M "P 21/M"
_symmetry_group_IT_number 11
_symmetry_cell_setting 'monoclinic'
loop_
_space_group_symop_operation_xyz
x,y,z
-x,1/2+y,-z
-x,-y,-z
x,1/2-y,z
loop_
_atom_site_type_symbol
_atom_site_label
_atom_site_fract_x
_atom_site_fract_y
_atom_site_fract_z
Si Si1 0.838678 0.072504 0.160476
Si Si2 0.945137 0.570311 0.293024
Si Si3 0.818743 0.423847 0.851801
Si Si4 0.109643 0.423330 0.501112
Si Si5 0.370869 0.571362 0.673301
Si Si6 0.207535 0.428022 0.985840
Si Si7 0.079880 0.927172 0.804880
Si Si8 0.130678 0.928633 0.347700
O O1 0.866609 0.250000 0.117975
O O2 0.716305 0.042528 0.277332
O O3 0.838887 0.040635 0.235380
O O4 0.946874 0.980261 0.993076
O O5 0.958788 0.750000 0.276171
O O6 0.873302 0.527685 0.447432
O O7 0.888224 0.513854 0.299282
O O8 0.077546 0.497384 0.131263
O O9 0.785220 0.250000 0.903659
O O10 0.793147 0.468633 0.811018
O O11 0.964301 0.430792 0.675606
O O12 0.768524 0.524111 0.971389
O O13 0.143677 0.250000 0.451731
O O14 0.167796 0.514885 0.370553
O O15 0.500000 0.500000 0.500000
O O16 0.379603 0.750000 0.670567
O O17 0.304707 0.498797 0.816765
O O18 0.203337 0.250000 0.984737
O O19 0.079797 0.750000 0.793285
O O20 0.119110 0.750000 0.362287
O O21 0.000000 0.000000 0.500000
#
# Coordination Sequence:
#
# PCOD9156316 Si02
#       8
#     4   4   4   4   4   4   4   4
#     4   9  19  33  47  64  87 113 138 175 224 261
#     4  10  18  28  40  58  85 116 142 175 220 255
#     4   8  15  26  37  51  74 105 135 171 215 252
#     4   8  15  24  34  49  74 106 139 169 205 249
#     4  11  22  36  51  65  87 115 143 180 224 265
#     4  11  20  29  43  63  81 105 145 183 214 258
#     4  10  18  28  46  68  86 109 145 180 212 260
#     4   9  15  22  33  49  71 100 136 171 206 245
#
# _framework density 15.245195000000001
#
# number of rings (size 3 to 8) (size 9 to 14) (size 15 to 20)
#    0.000    2.500    1.250    4.125    0.000    6.500 
#    0.000    0.000    0.000    0.000    0.000    0.000 
#    0.000    0.000    0.000    1.125    0.000   14.375 
#
# Total GULP energy -178210.722192 kJ/mol
# GULP energy per Si atom -5569.085069 kJ/mol
# Density = 1.521050 g / cm^3
# Si number density = 15.245195 Si / 1000 Ang^3
#
#
#
# Elastic Constant Matrix: (Units=GPa)
#
#
# Indices 1 2 3 4 5 6 
#
# 1 138.1017 61.3149 43.0425 0.0000 32.7352 0.0000
# 2 61.3149 72.5335 31.4167 0.0000 12.5425 0.0000
# 3 43.0425 31.4167 39.4107 0.0000 7.2848 0.0000
# 4 0.0000 0.0000 0.0000 16.2457 0.0000 7.2287
# 5 32.7352 12.5425 7.2848 0.0000 18.6176 0.0000
# 6 0.0000 0.0000 0.0000 7.2287 0.0000 27.3809
#
#
#
# Elastic Compliance Matrix: (Units=1/GPa)
#
#
# Indices 1 2 3 4 5 6 
#
# 1 0.020475 -0.007914 -0.011194 0.000000 -0.026290 0.000000
# 2 -0.007914 0.025349 -0.011836 0.000000 0.001469 0.000000
# 3 -0.011194 -0.011836 0.045191 0.000000 0.009973 0.000000
# 4 0.000000 0.000000 0.000000 0.069748 0.000000 -0.018414
# 5 -0.026290 0.001469 0.009973 0.000000 0.095046 0.000000
# 6 0.000000 0.000000 0.000000 -0.018414 0.000000 0.041383
#
#
# Mechanical properties :
#
#
# Convention : Reuss Voigt Hill
#
# Bulk Modulus (GPa) = 34.33097 57.95489 46.14293
# Shear Modulus (GPa) = 13.55792 20.06695 16.81243
#
# Velocity S-wave (km/s) = 2.98539 3.63199 3.32445
# Velocity P-wave (km/s) = 5.86954 7.46232 6.71333
#
# Compressibility (1/GPa) = 0.02912822
#
# Stress axis : x y z
#
# Youngs Moduli (GPa) = 48.83985 39.44933 22.12852
#
# Poissons Ratio (x) = 0.31220 0.24770
# Poissons Ratio (y) = 0.38651 0.26190
# Poissons Ratio (z) = 0.54670 0.46691
#
# Static dielectric constant tensor:
#      x y z
#    x 1.570980 0.000000 0.027290 
#    y 0.000000 1.507370 0.000000 
#    z 0.027290 0.000000 1.462410 
# 
# From -- ./inp_files/66960.got.cif
#   From: 2010.05.17/outbox.cif.g08.bks.cpg/sg11_34_cif.got.tgz:66960.got - 2010.06.03 12:22:45.
