data_PCOD9156417
_publ_section_title
;
Structure prediction by ZEFSAII (Michael W. Deem and Ramdas Pophale) SiO2 
 PCOD9156417
Probable space group: P 21/M
;
_chemical_formula_sum "Si O2"
_cell_formula_units_Z 32
_cell_length_a 28.660630
_cell_length_b 7.841141
_cell_length_c 22.578425
_cell_angle_alpha 90.000000
_cell_angle_beta 18.346947
_cell_angle_gamma 90.000000
_cell_volume 1597.174525
_symmetry_space_group_name_H-M "P 21/M"
_symmetry_group_IT_number 11
_symmetry_cell_setting 'monoclinic'
loop_
_space_group_symop_operation_xyz
x,y,z
-x,1/2+y,-z
-x,-y,-z
x,1/2-y,z
loop_
_atom_site_type_symbol
_atom_site_label
_atom_site_fract_x
_atom_site_fract_y
_atom_site_fract_z
Si Si1 0.868046 0.557407 0.701873
Si Si2 0.434219 0.956995 0.781158
Si Si3 0.876887 0.547464 0.906001
Si Si4 0.052477 0.051209 0.586624
Si Si5 0.261583 0.450766 0.811121
Si Si6 0.454243 0.947621 0.889621
Si Si7 0.615513 0.956024 0.809809
Si Si8 0.426624 0.042516 0.503818
O O1 0.827673 0.750000 0.735404
O O2 0.000000 0.500000 0.500000
O O3 0.935838 0.544519 0.685844
O O4 0.716018 0.454097 0.883358
O O5 0.425345 0.750000 0.794063
O O6 0.459087 0.022704 0.817621
O O7 0.559674 0.003916 0.581670
O O8 0.277296 0.016423 0.943468
O O9 0.097997 0.250000 0.121538
O O10 0.004276 0.465729 0.712792
O O11 0.851564 0.478562 0.003367
O O12 0.044527 0.250000 0.578819
O O13 0.218171 0.984874 0.377264
O O14 0.228834 0.250000 0.845547
O O15 0.422269 0.472813 0.648769
O O16 0.291437 0.517091 0.708618
O O17 0.498018 0.750000 0.830693
O O18 0.555776 0.023234 0.818858
O O19 0.623095 0.750000 0.797083
O O20 0.500000 0.000000 0.000000
O O21 0.432196 0.250000 0.500746
#
# Coordination Sequence:
#
# PCOD9156417 Si02
#       8
#     4   4   4   4   4   4   4   4
#     4  12  24  37  55  79 103 130 163 202 250 306
#     4   9  16  27  47  71  99 131 164 203 251 303
#     4  10  18  28  45  71 101 133 168 208 251 295
#     4  11  22  37  54  75 102 134 170 210 251 298
#     4   8  14  23  36  59  95 130 162 200 241 288
#     4  10  20  36  55  77 103 131 164 208 256 304
#     4  10  23  40  57  75  98 129 167 209 255 303
#     4   8  13  22  37  61  92 129 164 195 239 295
#
# _framework density 20.035378999999999
#
# number of rings (size 3 to 8) (size 9 to 14) (size 15 to 20)
#    0.000    2.250    1.250    2.625    0.000    4.000 
#    0.000    0.000    0.000    0.000    0.000    0.875 
#    0.000    0.000    0.000    0.000    0.000    0.000 
#
# Total GULP energy -178392.349269 kJ/mol
# GULP energy per Si atom -5574.760915 kJ/mol
# Density = 1.998978 g / cm^3
# Si number density = 20.035379 Si / 1000 Ang^3
#
#
#
# Elastic Constant Matrix: (Units=GPa)
#
#
# Indices 1 2 3 4 5 6 
#
# 1 43.4834 -0.8579 2.7874 0.0000 17.6833 0.0000
# 2 -0.8579 33.2648 -6.6217 0.0000 -0.6366 0.0000
# 3 2.7874 -6.6217 45.7563 0.0000 21.8805 0.0000
# 4 0.0000 0.0000 0.0000 10.3526 0.0000 7.7256
# 5 17.6833 -0.6366 21.8805 0.0000 40.9203 0.0000
# 6 0.0000 0.0000 0.0000 7.7256 0.0000 10.4101
#
#
#
# Elastic Compliance Matrix: (Units=1/GPa)
#
#
# Indices 1 2 3 4 5 6 
#
# 1 0.029041 0.001640 0.005989 0.000000 -0.015726 0.000000
# 2 0.001640 0.031249 0.006085 0.000000 -0.003476 0.000000
# 3 0.005989 0.006085 0.031658 0.000000 -0.019421 0.000000
# 4 0.000000 0.000000 0.000000 0.216488 0.000000 -0.160661
# 5 -0.015726 -0.003476 -0.019421 0.000000 0.041564 0.000000
# 6 0.000000 0.000000 0.000000 -0.160661 0.000000 0.215291
#
#
# Mechanical properties :
#
#
# Convention : Reuss Voigt Hill
#
# Bulk Modulus (GPa) = 8.37701 12.56889 10.47295
# Shear Modulus (GPa) = 8.65568 20.81638 14.73603
#
# Velocity S-wave (km/s) = 2.08076 3.22682 2.71495
# Velocity P-wave (km/s) = 3.15641 4.49112 3.88156
#
# Compressibility (1/GPa) = 0.11937430
#
# Stress axis : x y z
#
# Youngs Moduli (GPa) = 34.43387 32.00121 31.58787
#
# Poissons Ratio (x) = -0.05249 -0.18917
# Poissons Ratio (y) = -0.05648 -0.19220
# Poissons Ratio (z) = -0.20621 -0.19471
#
# Static dielectric constant tensor:
#      x y z
#    x 1.748050 0.000000 0.064750 
#    y 0.000000 1.736120 0.000000 
#    z 0.064750 0.000000 1.720900 
# 
# From -- ./inp_files/66974.got.cif
#   From: 2010.05.17/outbox.cif.g08.bks.cpg/sg11_34_cif.got.tgz:66974.got - 2010.06.03 12:22:45.
