data_PCOD9156346
_publ_section_title
;
Structure prediction by ZEFSAII (Michael W. Deem and Ramdas Pophale) SiO2 
 PCOD9156346
Probable space group: P 21/M
;
_chemical_formula_sum "Si O2"
_cell_formula_units_Z 32
_cell_length_a 14.875204
_cell_length_b 9.198853
_cell_length_c 20.468871
_cell_angle_alpha 90.000000
_cell_angle_beta 44.871931
_cell_angle_gamma 90.000000
_cell_volume 1976.071165
_symmetry_space_group_name_H-M "P 21/M"
_symmetry_group_IT_number 11
_symmetry_cell_setting 'monoclinic'
loop_
_space_group_symop_operation_xyz
x,y,z
-x,1/2+y,-z
-x,-y,-z
x,1/2-y,z
loop_
_atom_site_type_symbol
_atom_site_label
_atom_site_fract_x
_atom_site_fract_y
_atom_site_fract_z
Si Si1 0.080693 0.083380 0.540680
Si Si2 0.659036 0.076776 0.605131
Si Si3 0.617093 0.076040 0.475517
Si Si4 0.872639 0.582295 0.823913
Si Si5 0.409391 0.426234 0.992325
Si Si6 0.830390 0.583281 0.689265
Si Si7 0.428476 0.923670 0.214069
Si Si8 0.122792 0.416447 0.676447
O O1 0.066197 0.250000 0.527029
O O2 0.097484 0.084775 0.611188
O O3 0.210088 0.009355 0.449370
O O4 0.954043 0.990556 0.593859
O O5 0.686672 0.250000 0.592511
O O6 0.613294 0.043257 0.555463
O O7 0.561365 0.042613 0.714046
O O8 0.613485 0.250000 0.469507
O O9 0.500000 0.000000 0.500000
O O10 0.750478 0.011893 0.380362
O O11 0.895106 0.750000 0.832058
O O12 0.852310 0.582016 0.756065
O O13 0.997102 0.486335 0.773088
O O14 0.738074 0.531226 0.922644
O O15 0.415585 0.250000 0.997463
O O16 0.462517 0.465883 0.893305
O O17 0.500000 0.500000 0.000000
O O18 0.816733 0.750000 0.675799
O O19 0.702599 0.495904 0.741315
O O20 0.415621 0.750000 0.215334
O O21 0.142874 0.250000 0.686810
#
# Coordination Sequence:
#
# PCOD9156346 Si02
#       8
#     4   4   4   4   4   4   4   4
#     4   9  17  29  45  64  88 121 160 197 232 275
#     4   9  19  34  48  66  93 124 154 189 233 281
#     4  10  19  33  54  77 101 124 149 184 230 287
#     4   9  17  29  44  65  94 126 160 200 243 278
#     4  10  19  31  47  67  92 125 167 210 245 278
#     4  10  18  28  43  63  89 123 162 201 239 276
#     4  10  20  32  46  64  90 124 163 201 237 277
#     4   9  17  29  47  72  97 122 155 192 233 280
#
# _framework density 16.193747999999999
#
# number of rings (size 3 to 8) (size 9 to 14) (size 15 to 20)
#    0.000    2.500    1.250    1.500    0.000    5.500 
#    0.000    0.000    0.000    0.000    0.000    0.875 
#    0.000    0.000    0.000    0.000    0.000    0.000 
#
# Total GULP energy -178433.239113 kJ/mol
# GULP energy per Si atom -5576.038722 kJ/mol
# Density = 1.615689 g / cm^3
# Si number density = 16.193748 Si / 1000 Ang^3
#
#
#
# Elastic Constant Matrix: (Units=GPa)
#
#
# Indices 1 2 3 4 5 6 
#
# 1 63.5873 35.3200 49.3443 0.0000 -14.8442 0.0000
# 2 35.3200 47.0721 52.3313 0.0000 -6.4172 0.0000
# 3 49.3443 52.3313 152.1589 0.0000 -12.5190 0.0000
# 4 0.0000 0.0000 0.0000 20.4842 0.0000 -7.8813
# 5 -14.8442 -6.4172 -12.5190 0.0000 18.7108 0.0000
# 6 0.0000 0.0000 0.0000 -7.8813 0.0000 21.4624
#
#
#
# Elastic Compliance Matrix: (Units=1/GPa)
#
#
# Indices 1 2 3 4 5 6 
#
# 1 0.032354 -0.019152 -0.002470 0.000000 0.017447 0.000000
# 2 -0.019152 0.046033 -0.010130 0.000000 -0.006184 0.000000
# 3 -0.002470 -0.010130 0.011016 0.000000 0.001937 0.000000
# 4 0.000000 0.000000 0.000000 0.056850 0.000000 0.020876
# 5 0.017447 -0.006184 0.001937 0.000000 0.066462 0.000000
# 6 0.000000 0.000000 0.000000 0.020876 0.000000 0.054259
#
#
# Mechanical properties :
#
#
# Convention : Reuss Voigt Hill
#
# Bulk Modulus (GPa) = 38.61025 59.64548 49.12786
# Shear Modulus (GPa) = 14.74438 20.51968 17.63203
#
# Velocity S-wave (km/s) = 3.02072 3.56355 3.30330
# Velocity P-wave (km/s) = 6.00506 7.33786 6.70466
#
# Compressibility (1/GPa) = 0.02589986
#
# Stress axis : x y z
#
# Youngs Moduli (GPa) = 30.90783 21.72346 90.77447
#
# Poissons Ratio (x) = 0.41605 0.22420
# Poissons Ratio (y) = 0.59196 0.91953
# Poissons Ratio (z) = 0.07634 0.22005
#
# Static dielectric constant tensor:
#      x y z
#    x 1.522730 0.000000 0.031080 
#    y 0.000000 1.545900 0.000000 
#    z 0.031080 0.000000 1.565980 
# 
# From -- ./inp_files/51209.got.cif
#   From: 2010.05.17/outbox.cif.g08.bks.cpg/sg11_26_cif.got.tgz:51209.got - 2010.06.03 12:22:45.
