data_PCOD9156955
_publ_section_title
;
Structure prediction by ZEFSAII (Michael W. Deem and Ramdas Pophale) SiO2 
 PCOD9156955
Probable space group: P 21/M
;
_chemical_formula_sum "Si O2"
_cell_formula_units_Z 32
_cell_length_a 22.240680
_cell_length_b 8.653783
_cell_length_c 16.502907
_cell_angle_alpha 90.000000
_cell_angle_beta 140.302323
_cell_angle_gamma 90.000000
_cell_volume 2028.786433
_symmetry_space_group_name_H-M "P 21/M"
_symmetry_group_IT_number 11
_symmetry_cell_setting 'monoclinic'
loop_
_space_group_symop_operation_xyz
x,y,z
-x,1/2+y,-z
-x,-y,-z
x,1/2-y,z
loop_
_atom_site_type_symbol
_atom_site_label
_atom_site_fract_x
_atom_site_fract_y
_atom_site_fract_z
Si Si1 0.197577 0.436953 0.920369
Si Si2 0.078030 0.934458 0.142168
Si Si3 0.348417 0.935170 0.200189
Si Si4 0.465633 0.564801 0.551425
Si Si5 0.072392 0.925368 0.461738
Si Si6 0.003981 0.432382 0.232646
Si Si7 0.141059 0.072334 0.688689
Si Si8 0.719630 0.935048 0.696606
O O1 0.195100 0.250000 0.921246
O O2 0.199528 0.483003 0.827303
O O3 0.100117 0.501100 0.856647
O O4 0.283482 0.502981 0.060757
O O5 0.083483 0.750000 0.140464
O O6 0.046970 0.983016 0.199861
O O7 0.178023 0.009053 0.223699
O O8 0.000000 0.000000 0.000000
O O9 0.349859 0.750000 0.204207
O O10 0.454780 0.000553 0.306059
O O11 0.304050 0.997818 0.238639
O O12 0.500000 0.500000 0.500000
O O13 0.465818 0.750000 0.550911
O O14 0.360101 0.500234 0.447087
O O15 0.091913 0.750000 0.456768
O O16 0.966684 0.928330 0.389745
O O17 0.066348 0.033094 0.377112
O O18 0.139918 0.977785 0.604548
O O19 0.997677 0.250000 0.211304
O O20 0.165579 0.250000 0.696574
O O21 0.714053 0.750000 0.694279
#
# Coordination Sequence:
#
# PCOD9156955 Si02
#       8
#     4   4   4   4   4   4   4   4
#     4  10  19  31  45  65  93 124 155 189 229 273
#     4  12  24  38  51  67  91 121 157 194 231 269
#     4  11  20  31  47  69  94 122 153 187 229 275
#     4  10  18  31  49  69  90 116 149 187 229 272
#     4   9  16  27  43  62  85 115 150 187 225 266
#     4  11  21  33  47  65  89 121 158 193 229 269
#     4   8  15  26  41  61  86 116 149 184 224 269
#     4  11  21  35  51  68  90 119 154 192 231 271
#
# _framework density 15.772976999999999
#
# number of rings (size 3 to 8) (size 9 to 14) (size 15 to 20)
#    0.000    1.750    0.000    9.375    0.000    3.500 
#    0.000    0.000    0.000    0.000    0.000    0.000 
#    0.000    1.000    0.000    3.750    0.000    6.000 
#
# Total GULP energy -178525.727650 kJ/mol
# GULP energy per Si atom -5578.928989 kJ/mol
# Density = 1.573708 g / cm^3
# Si number density = 15.772977 Si / 1000 Ang^3
#
#
#
# Elastic Constant Matrix: (Units=GPa)
#
#
# Indices 1 2 3 4 5 6 
#
# 1 37.2075 18.5850 41.9605 0.0000 5.4459 0.0000
# 2 18.5850 127.1983 50.9321 0.0000 3.6622 0.0000
# 3 41.9605 50.9321 146.9643 0.0000 2.8146 0.0000
# 4 0.0000 0.0000 0.0000 28.8191 0.0000 -0.9683
# 5 5.4459 3.6622 2.8146 0.0000 23.0357 0.0000
# 6 0.0000 0.0000 0.0000 -0.9683 0.0000 20.6619
#
#
#
# Elastic Compliance Matrix: (Units=1/GPa)
#
#
# Indices 1 2 3 4 5 6 
#
# 1 0.041361 -0.001325 -0.011193 0.000000 -0.008200 0.000000
# 2 -0.001325 0.009197 -0.002793 0.000000 -0.000807 0.000000
# 3 -0.011193 -0.002793 0.010935 0.000000 0.001754 0.000000
# 4 0.000000 0.000000 0.000000 0.034754 0.000000 0.001629
# 5 -0.008200 -0.000807 0.001754 0.000000 0.045263 0.000000
# 6 0.000000 0.000000 0.000000 0.001629 0.000000 0.048475
#
#
# Mechanical properties :
#
#
# Convention : Reuss Voigt Hill
#
# Bulk Modulus (GPa) = 32.39449 59.36949 45.88199
# Shear Modulus (GPa) = 21.65454 27.82949 24.74201
#
# Velocity S-wave (km/s) = 3.70927 4.20501 3.96489
# Velocity P-wave (km/s) = 6.23919 7.82929 7.07903
#
# Compressibility (1/GPa) = 0.03086945
#
# Stress axis : x y z
#
# Youngs Moduli (GPa) = 24.17724 108.72863 91.45257
#
# Poissons Ratio (x) = 0.14411 1.02362
# Poissons Ratio (y) = 0.03205 0.25547
# Poissons Ratio (z) = 0.27061 0.30373
#
# Static dielectric constant tensor:
#      x y z
#    x 1.507800 0.000000 -0.002750 
#    y 0.000000 1.528190 0.000000 
#    z -0.002750 0.000000 1.559010 
# 
# From -- ./inp_files/54311.got.cif
#   From: 2010.05.17/outbox.cif.g08.bks.cpg/sg11_28_cif.got.tgz:54311.got - 2010.06.03 12:22:45.
