data_PCOD9156602
_publ_section_title
;
Structure prediction by ZEFSAII (Michael W. Deem and Ramdas Pophale) SiO2 
 PCOD9156602
Probable space group: P 21/M
;
_chemical_formula_sum "Si O2"
_cell_formula_units_Z 32
_cell_length_a 24.986264
_cell_length_b 7.966947
_cell_length_c 16.431594
_cell_angle_alpha 90.000000
_cell_angle_beta 27.277433
_cell_angle_gamma 90.000000
_cell_volume 1499.071512
_symmetry_space_group_name_H-M "P 21/M"
_symmetry_group_IT_number 11
_symmetry_cell_setting 'monoclinic'
loop_
_space_group_symop_operation_xyz
x,y,z
-x,1/2+y,-z
-x,-y,-z
x,1/2-y,z
loop_
_atom_site_type_symbol
_atom_site_label
_atom_site_fract_x
_atom_site_fract_y
_atom_site_fract_z
Si Si1 0.396966 0.944409 0.078678
Si Si2 0.232468 0.049345 0.436226
Si Si3 0.371188 0.061432 0.658181
Si Si4 0.787340 0.559633 0.969175
Si Si5 0.595383 0.946642 0.113942
Si Si6 0.662207 0.454098 0.540406
Si Si7 0.825447 0.058980 0.185701
Si Si8 0.980675 0.050718 0.830377
O O1 0.412914 0.750000 0.037765
O O2 0.279589 0.972885 0.289181
O O3 0.500000 0.000000 0.000000
O O4 0.397565 0.040141 0.992705
O O5 0.226612 0.250000 0.434156
O O6 0.107172 0.983418 0.635945
O O7 0.320976 0.006808 0.389451
O O8 0.369287 0.250000 0.626004
O O9 0.500000 0.000000 0.500000
O O10 0.293324 0.942753 0.707169
O O11 0.307187 0.067399 0.830915
O O12 0.824235 0.750000 0.897637
O O13 0.895967 0.474090 0.867338
O O14 0.712022 0.479831 0.997891
O O15 0.596090 0.750000 0.136399
O O16 0.466814 0.012627 0.313521
O O17 0.663144 0.250000 0.534243
O O18 0.774674 0.518896 0.337301
O O19 0.862336 0.250000 0.153545
O O20 0.920500 0.980816 0.995057
O O21 0.990743 0.250000 0.830550
#
# Coordination Sequence:
#
# PCOD9156602 Si02
#       8
#     4   4   4   4   4   4   4   4
#     4  12  24  40  62  88 114 145 183 230 288 346
#     4  11  23  39  59  84 114 150 191 237 285 337
#     4  10  18  29  47  74 107 147 190 233 279 330
#     4   9  19  35  56  81 111 149 190 231 279 335
#     4  10  20  36  58  86 118 148 183 234 288 339
#     4  10  20  34  56  84 116 153 190 231 287 341
#     4   9  18  34  53  77 111 152 191 231 279 331
#     4   9  20  38  58  81 115 155 195 237 278 325
#
# _framework density 21.346547999999999
#
# number of rings (size 3 to 8) (size 9 to 14) (size 15 to 20)
#    0.000    2.000    1.250    2.625    0.000    5.000 
#    0.000    1.875    0.000    0.000    0.000    0.000 
#    0.000    0.000    0.000    0.000    0.000    0.000 
#
# Total GULP energy -178514.017280 kJ/mol
# GULP energy per Si atom -5578.563040 kJ/mol
# Density = 2.129796 g / cm^3
# Si number density = 21.346548 Si / 1000 Ang^3
#
#
#
# Elastic Constant Matrix: (Units=GPa)
#
#
# Indices 1 2 3 4 5 6 
#
# 1 52.8424 -9.8403 10.9505 0.0000 11.9241 0.0000
# 2 -9.8403 36.9997 -4.7037 0.0000 -2.7208 0.0000
# 3 10.9505 -4.7037 102.9279 0.0000 2.3187 0.0000
# 4 0.0000 0.0000 0.0000 4.1141 0.0000 0.1922
# 5 11.9241 -2.7208 2.3187 0.0000 22.0002 0.0000
# 6 0.0000 0.0000 0.0000 0.1922 0.0000 23.2630
#
#
#
# Elastic Compliance Matrix: (Units=1/GPa)
#
#
# Indices 1 2 3 4 5 6 
#
# 1 0.022866 0.004983 -0.001944 0.000000 -0.011572 0.000000
# 2 0.004983 0.028503 0.000756 0.000000 0.000745 0.000000
# 3 -0.001944 0.000756 0.009955 0.000000 0.000098 0.000000
# 4 0.000000 0.000000 0.000000 0.243163 0.000000 -0.002009
# 5 -0.011572 0.000745 0.000098 0.000000 0.051808 0.000000
# 6 0.000000 0.000000 0.000000 -0.002009 0.000000 0.043003
#
#
# Mechanical properties :
#
#
# Convention : Reuss Voigt Hill
#
# Bulk Modulus (GPa) = 14.51089 20.62033 17.56561
# Shear Modulus (GPa) = 12.05746 22.96633 17.51190
#
# Velocity S-wave (km/s) = 2.37922 3.28362 2.86730
# Velocity P-wave (km/s) = 3.78948 4.90479 4.38276
#
# Compressibility (1/GPa) = 0.06891376
#
# Stress axis : x y z
#
# Youngs Moduli (GPa) = 43.73215 35.08355 100.45483
#
# Poissons Ratio (x) = -0.17483 0.19532
# Poissons Ratio (y) = -0.21793 -0.07591
# Poissons Ratio (z) = 0.08503 -0.02651
#
# Static dielectric constant tensor:
#      x y z
#    x 1.866330 0.000000 0.005190 
#    y 0.000000 1.775880 0.000000 
#    z 0.005190 0.000000 1.821220 
# 
# From -- ./inp_files/55623.got.cif
#   From: 2010.05.17/outbox.cif.g08.bks.cpg/sg11_28_cif.got.tgz:55623.got - 2010.06.03 12:22:45.
