data_PCOD9156153
_publ_section_title
;
Structure prediction by ZEFSAII (Michael W. Deem and Ramdas Pophale) SiO2 
 PCOD9156153
Probable space group: P 21/M
;
_chemical_formula_sum "Si O2"
_cell_formula_units_Z 32
_cell_length_a 8.909090
_cell_length_b 25.394041
_cell_length_c 8.536998
_cell_angle_alpha 90.000000
_cell_angle_beta 131.974182
_cell_angle_gamma 90.000000
_cell_volume 1435.885887
_symmetry_space_group_name_H-M "P 21/M"
_symmetry_group_IT_number 11
_symmetry_cell_setting 'monoclinic'
loop_
_space_group_symop_operation_xyz
x,y,z
-x,1/2+y,-z
-x,-y,-z
x,1/2-y,z
loop_
_atom_site_type_symbol
_atom_site_label
_atom_site_fract_x
_atom_site_fract_y
_atom_site_fract_z
Si Si1 0.991277 0.052487 0.088896
Si Si2 0.729426 0.480844 0.176532
Si Si3 0.572569 0.810743 0.673016
Si Si4 0.995710 0.156554 0.892104
Si Si5 0.184097 0.811206 0.931785
Si Si6 0.173159 0.098020 0.755307
Si Si7 0.226069 0.373139 0.440919
Si Si8 0.599831 0.123704 0.183657
O O1 0.798665 0.046722 0.064527
O O2 0.174357 0.069819 0.329762
O O3 0.987473 0.098849 0.962858
O O4 0.000000 0.000000 0.000000
O O5 0.859501 0.534587 0.285180
O O6 0.731434 0.429958 0.293162
O O7 0.500000 0.500000 0.000000
O O8 0.529586 0.750000 0.611283
O O9 0.598923 0.845579 0.535162
O O10 0.413394 0.837320 0.678843
O O11 0.793702 0.814719 0.913351
O O12 0.015157 0.139093 0.724041
O O13 0.826477 0.184205 0.884383
O O14 0.200984 0.750000 0.904562
O O15 0.336931 0.844134 0.928745
O O16 0.969340 0.836208 0.728179
O O17 0.239709 0.119091 0.633180
O O18 0.370849 0.103183 0.002796
#
# Coordination Sequence:
#
# PCOD9156153 Si02
#       8
#     4   4   4   4   4   4   4   4
#     4  10  17  33  55  80 103 149 183 218 263 325
#     4  10  19  32  56  80 115 142 179 220 274 330
#     4   9  18  35  57  77 102 146 189 225 268 331
#     4   9  17  32  55  79 106 135 189 222 260 333
#     4  10  19  36  59  81 105 143 189 234 271 323
#     4  10  21  35  55  84 115 146 173 230 286 328
#     4  10  21  36  55  82 113 141 186 231 277 326
#     4  10  19  36  58  82 107 141 190 225 270 339
#
# _framework density 22.285896000000001
#
# number of rings (size 3 to 8) (size 9 to 14) (size 15 to 20)
#    0.000    2.500    3.750    1.875    1.750    0.500 
#    0.000    9.375    0.000    0.000    0.000    0.000 
#    0.000    0.000    0.000    0.000    0.000    0.000 
#
# Total GULP energy -178174.733355 kJ/mol
# GULP energy per Si atom -5567.960417 kJ/mol
# Density = 2.223517 g / cm^3
# Si number density = 22.285896 Si / 1000 Ang^3
#
#
#
# Elastic Constant Matrix: (Units=GPa)
#
#
# Indices 1 2 3 4 5 6 
#
# 1 114.8361 35.9792 27.8387 0.0000 -27.4554 0.0000
# 2 35.9792 127.7978 19.8074 0.0000 -12.7841 0.0000
# 3 27.8387 19.8074 46.7002 0.0000 -16.3576 0.0000
# 4 0.0000 0.0000 0.0000 12.9407 0.0000 -9.9786
# 5 -27.4554 -12.7841 -16.3576 0.0000 47.7058 0.0000
# 6 0.0000 0.0000 0.0000 -9.9786 0.0000 36.8516
#
#
#
# Elastic Compliance Matrix: (Units=1/GPa)
#
#
# Indices 1 2 3 4 5 6 
#
# 1 0.011521 -0.002109 -0.004374 0.000000 0.004565 0.000000
# 2 -0.002109 0.008819 -0.002365 0.000000 0.000339 0.000000
# 3 -0.004374 -0.002365 0.027185 0.000000 0.006170 0.000000
# 4 0.000000 0.000000 0.000000 0.097669 0.000000 0.026447
# 5 0.004565 0.000339 0.006170 0.000000 0.025796 0.000000
# 6 0.000000 0.000000 0.000000 0.026447 0.000000 0.034297
#
#
# Mechanical properties :
#
#
# Convention : Reuss Voigt Hill
#
# Bulk Modulus (GPa) = 33.52412 50.73162 42.12787
# Shear Modulus (GPa) = 21.46622 33.21353 27.33987
#
# Velocity S-wave (km/s) = 3.10695 3.86468 3.50634
# Velocity P-wave (km/s) = 5.28642 6.53665 5.94449
#
# Compressibility (1/GPa) = 0.02982927
#
# Stress axis : x y z
#
# Youngs Moduli (GPa) = 86.80061 113.39213 36.78519
#
# Poissons Ratio (x) = 0.23912 0.16090
# Poissons Ratio (y) = 0.18305 0.08699
# Poissons Ratio (z) = 0.37967 0.26814
#
# Static dielectric constant tensor:
#      x y z
#    x 1.887810 0.000000 0.017960 
#    y 0.000000 1.825480 0.000000 
#    z 0.017960 0.000000 1.885370 
# 
# From -- ./inp_files/15095.got.cif
#   From: 2010.05.17/outbox.cif.g08.bks.cpg/sg11_8_cif.got.tgz:15095.got - 2010.06.03 12:22:45.
