data_PCOD9156964
_publ_section_title
;
Structure prediction by ZEFSAII (Michael W. Deem and Ramdas Pophale) SiO2 
 PCOD9156964
Probable space group: P 21/M
;
_chemical_formula_sum "Si O2"
_cell_formula_units_Z 32
_cell_length_a 24.052210
_cell_length_b 7.767009
_cell_length_c 17.739474
_cell_angle_alpha 90.000000
_cell_angle_beta 28.174849
_cell_angle_gamma 90.000000
_cell_volume 1564.740315
_symmetry_space_group_name_H-M "P 21/M"
_symmetry_group_IT_number 11
_symmetry_cell_setting 'monoclinic'
loop_
_space_group_symop_operation_xyz
x,y,z
-x,1/2+y,-z
-x,-y,-z
x,1/2-y,z
loop_
_atom_site_type_symbol
_atom_site_label
_atom_site_fract_x
_atom_site_fract_y
_atom_site_fract_z
Si Si1 0.270022 0.948424 0.574768
Si Si2 0.469639 0.953699 0.759657
Si Si3 0.889009 0.043183 0.579452
Si Si4 0.969736 0.951766 0.191386
Si Si5 0.397771 0.543039 0.681313
Si Si6 0.731274 0.455470 0.896604
Si Si7 0.179095 0.961153 0.844997
Si Si8 0.950866 0.542749 0.741194
O O1 0.298684 0.750000 0.554358
O O2 0.224866 0.021641 0.709066
O O3 0.390520 0.027335 0.401096
O O4 0.157732 0.962432 0.654997
O O5 0.444854 0.750000 0.786886
O O6 0.428945 0.025256 0.726899
O O7 0.388953 0.024933 0.923464
O O8 0.877861 0.250000 0.587601
O O9 0.778281 0.975105 0.759917
O O10 0.933875 0.982553 0.444329
O O11 0.000000 0.000000 0.500000
O O12 0.950137 0.750000 0.202799
O O13 0.039099 0.976256 0.186314
O O14 0.051636 0.020543 0.025713
O O15 0.500000 0.500000 0.500000
O O16 0.391614 0.750000 0.693380
O O17 0.275081 0.484053 0.792323
O O18 0.719412 0.250000 0.900415
O O19 0.834788 0.484145 0.834667
O O20 0.175670 0.750000 0.847726
O O21 0.949526 0.750000 0.744044
#
# Coordination Sequence:
#
# PCOD9156964 Si02
#       8
#     4   4   4   4   4   4   4   4
#     4  11  22  37  54  72  99 133 172 218 262 299
#     4  10  20  33  52  76 104 137 174 208 246 303
#     4   8  15  28  49  76 106 136 163 199 248 301
#     4  11  22  37  55  73  98 134 175 214 254 304
#     4  10  18  31  49  72 100 130 162 199 244 294
#     4   9  17  32  54  79 107 139 170 202 247 303
#     4   9  19  35  54  74  99 130 167 211 256 302
#     4  10  19  32  51  80 111 134 165 208 255 302
#
# _framework density 20.450676999999999
#
# number of rings (size 3 to 8) (size 9 to 14) (size 15 to 20)
#    0.000    2.250    1.250    2.250    0.000    3.000 
#    0.000    4.375    0.000    0.750    0.000    0.000 
#    0.000    0.000    0.000    0.000    0.000    0.000 
#
# Total GULP energy -178507.164142 kJ/mol
# GULP energy per Si atom -5578.348879 kJ/mol
# Density = 2.040413 g / cm^3
# Si number density = 20.450677 Si / 1000 Ang^3
#
#
#
# Elastic Constant Matrix: (Units=GPa)
#
#
# Indices 1 2 3 4 5 6 
#
# 1 25.8281 -7.5841 24.6951 0.0000 7.4839 0.0000
# 2 -7.5841 29.4903 -2.9076 0.0000 7.0886 0.0000
# 3 24.6951 -2.9076 148.0822 0.0000 26.1078 0.0000
# 4 0.0000 0.0000 0.0000 14.1708 0.0000 -0.2615
# 5 7.4839 7.0886 26.1078 0.0000 32.0511 0.0000
# 6 0.0000 0.0000 0.0000 -0.2615 0.0000 13.1820
#
#
#
# Elastic Compliance Matrix: (Units=1/GPa)
#
#
# Indices 1 2 3 4 5 6 
#
# 1 0.052546 0.015317 -0.006658 0.000000 -0.010234 0.000000
# 2 0.015317 0.041057 0.000564 0.000000 -0.013117 0.000000
# 3 -0.006658 0.000564 0.008901 0.000000 -0.005820 0.000000
# 4 0.000000 0.000000 0.000000 0.070594 0.000000 0.001400
# 5 -0.010234 -0.013117 -0.005820 0.000000 0.041232 0.000000
# 6 0.000000 0.000000 0.000000 0.001400 0.000000 0.075889
#
#
# Mechanical properties :
#
#
# Convention : Reuss Voigt Hill
#
# Bulk Modulus (GPa) = 8.26785 25.75638 17.01211
# Shear Modulus (GPa) = 16.02113 24.49393 20.25753
#
# Velocity S-wave (km/s) = 2.80197 3.46455 3.15072
# Velocity P-wave (km/s) = 3.81047 5.35031 4.64465
#
# Compressibility (1/GPa) = 0.12095045
#
# Stress axis : x y z
#
# Youngs Moduli (GPa) = 19.03087 24.35638 112.35259
#
# Poissons Ratio (x) = -0.37306 0.74803
# Poissons Ratio (y) = -0.29149 -0.06341
# Poissons Ratio (z) = 0.12671 -0.01375
#
# Static dielectric constant tensor:
#      x y z
#    x 1.713300 0.000000 0.039200 
#    y 0.000000 1.728060 0.000000 
#    z 0.039200 0.000000 1.765190 
# 
# From -- ./inp_files/67069.got.cif
#   From: 2010.05.17/outbox.cif.g08.bks.cpg/sg11_34_cif.got.tgz:67069.got - 2010.06.03 12:22:45.
