data_PCOD9156339
_publ_section_title
;
Structure prediction by ZEFSAII (Michael W. Deem and Ramdas Pophale) SiO2 
 PCOD9156339
Probable space group: P 21/M
;
_chemical_formula_sum "Si O2"
_cell_formula_units_Z 32
_cell_length_a 18.857049
_cell_length_b 9.080069
_cell_length_c 27.083253
_cell_angle_alpha 90.000000
_cell_angle_beta 151.844999
_cell_angle_gamma 90.000000
_cell_volume 2188.141744
_symmetry_space_group_name_H-M "P 21/M"
_symmetry_group_IT_number 11
_symmetry_cell_setting 'monoclinic'
loop_
_space_group_symop_operation_xyz
x,y,z
-x,1/2+y,-z
-x,-y,-z
x,1/2-y,z
loop_
_atom_site_type_symbol
_atom_site_label
_atom_site_fract_x
_atom_site_fract_y
_atom_site_fract_z
Si Si1 0.793952 0.575095 0.908028
Si Si2 0.555026 0.425981 0.292315
Si Si3 0.766331 0.927472 0.504094
Si Si4 0.236250 0.418595 0.653082
Si Si5 0.918219 0.575272 0.874896
Si Si6 0.630459 0.075698 0.513632
Si Si7 0.977102 0.419132 0.409182
Si Si8 0.315158 0.575797 0.337579
O O1 0.816912 0.750000 0.930277
O O2 0.621382 0.539540 0.813342
O O3 0.831296 0.546430 0.873357
O O4 0.914309 0.485181 0.013697
O O5 0.574279 0.250000 0.308682
O O6 0.642538 0.505285 0.390797
O O7 0.632261 0.483503 0.289571
O O8 0.755136 0.750000 0.496815
O O9 0.929720 0.967073 0.581774
O O10 0.733612 0.993828 0.537366
O O11 0.283991 0.250000 0.688565
O O12 0.104588 0.420372 0.530511
O O13 0.158717 0.482770 0.654408
O O14 0.918314 0.750000 0.866392
O O15 0.829162 0.491801 0.777486
O O16 0.623665 0.250000 0.498941
O O17 0.685854 0.055183 0.603870
O O18 0.463597 0.006856 0.408905
O O19 0.927897 0.250000 0.373223
O O20 0.327629 0.750000 0.335266
#
# Coordination Sequence:
#
# PCOD9156339 Si02
#       8
#     4   4   4   4   4   4   4   4
#     4   9  19  32  44  62  86 113 145 177 213 256
#     4  10  18  28  43  61  86 118 148 180 214 253
#     4  10  19  29  43  63  87 115 146 181 216 252
#     4   9  16  25  38  57  81 110 144 178 212 251
#     4  10  19  31  48  66  85 111 143 180 218 255
#     4  10  20  32  46  65  87 113 146 179 213 254
#     4   8  15  26  38  55  80 111 144 173 208 253
#     4  10  20  33  48  64  86 115 144 178 216 254
#
# _framework density 14.624281999999999
#
# number of rings (size 3 to 8) (size 9 to 14) (size 15 to 20)
#    0.000    2.500    0.000    3.750    0.000    7.500 
#    0.000    0.000    0.000    0.000    0.000    0.000 
#    0.000    1.000    0.000    3.250    0.000    4.250 
#
# Total GULP energy -178389.091798 kJ/mol
# GULP energy per Si atom -5574.659119 kJ/mol
# Density = 1.459100 g / cm^3
# Si number density = 14.624282 Si / 1000 Ang^3
#
#
#
# Elastic Constant Matrix: (Units=GPa)
#
#
# Indices 1 2 3 4 5 6 
#
# 1 91.4676 46.0712 18.2130 0.0000 12.3473 0.0000
# 2 46.0712 71.5580 35.5186 0.0000 5.3821 0.0000
# 3 18.2130 35.5186 52.3966 0.0000 4.9233 0.0000
# 4 0.0000 0.0000 0.0000 21.1543 0.0000 1.9021
# 5 12.3473 5.3821 4.9233 0.0000 15.7456 0.0000
# 6 0.0000 0.0000 0.0000 1.9021 0.0000 26.8247
#
#
#
# Elastic Compliance Matrix: (Units=1/GPa)
#
#
# Indices 1 2 3 4 5 6 
#
# 1 0.017975 -0.012300 0.003110 0.000000 -0.010864 0.000000
# 2 -0.012300 0.029600 -0.016222 0.000000 0.004600 0.000000
# 3 0.003110 -0.016222 0.029578 0.000000 -0.006143 0.000000
# 4 0.000000 0.000000 0.000000 0.047575 0.000000 -0.003373
# 5 -0.010864 0.004600 -0.006143 0.000000 0.072378 0.000000
# 6 0.000000 0.000000 0.000000 -0.003373 0.000000 0.037518
#
#
# Mechanical properties :
#
#
# Convention : Reuss Voigt Hill
#
# Bulk Modulus (GPa) = 37.97928 46.11422 42.04675
# Shear Modulus (GPa) = 16.99394 20.45287 18.72341
#
# Velocity S-wave (km/s) = 3.41256 3.74378 3.58200
# Velocity P-wave (km/s) = 6.44623 7.09147 6.77653
#
# Compressibility (1/GPa) = 0.02633015
#
# Stress axis : x y z
#
# Youngs Moduli (GPa) = 55.63176 33.78425 33.80937
#
# Poissons Ratio (x) = 0.41554 -0.10516
# Poissons Ratio (y) = 0.68426 0.54845
# Poissons Ratio (z) = -0.17304 0.54804
#
# Static dielectric constant tensor:
#      x y z
#    x 1.493390 0.000000 0.000670 
#    y 0.000000 1.487710 0.000000 
#    z 0.000670 0.000000 1.451700 
# 
# From -- ./inp_files/61784.got.cif
#   From: 2010.05.17/outbox.cif.g08.bks.cpg/sg11_31_cif.got.tgz:61784.got - 2010.06.03 12:22:45.
