data_PCOD9156334
_publ_section_title
;
Structure prediction by ZEFSAII (Michael W. Deem and Ramdas Pophale) SiO2 
 PCOD9156334
Probable space group: P 21/M
;
_chemical_formula_sum "Si O2"
_cell_formula_units_Z 32
_cell_length_a 21.497990
_cell_length_b 8.550319
_cell_length_c 32.238232
_cell_angle_alpha 90.000000
_cell_angle_beta 20.492250
_cell_angle_gamma 90.000000
_cell_volume 2074.529122
_symmetry_space_group_name_H-M "P 21/M"
_symmetry_group_IT_number 11
_symmetry_cell_setting 'monoclinic'
loop_
_space_group_symop_operation_xyz
x,y,z
-x,1/2+y,-z
-x,-y,-z
x,1/2-y,z
loop_
_atom_site_type_symbol
_atom_site_label
_atom_site_fract_x
_atom_site_fract_y
_atom_site_fract_z
Si Si1 0.501774 0.060744 0.436061
Si Si2 0.552986 0.436811 0.012073
Si Si3 0.872560 0.436247 0.485622
Si Si4 0.945758 0.939109 0.783776
Si Si5 0.769040 0.937830 0.461479
Si Si6 0.269255 0.936724 0.254916
Si Si7 0.784851 0.062963 0.318868
Si Si8 0.801122 0.563389 0.615545
O O1 0.490421 0.250000 0.447406
O O2 0.419860 0.022806 0.442429
O O3 0.697699 0.011186 0.329556
O O4 0.363562 0.983979 0.554533
O O5 0.546243 0.250000 0.016053
O O6 0.750675 0.494229 0.899204
O O7 0.500000 0.500000 0.000000
O O8 0.414136 0.502275 0.132261
O O9 0.880294 0.250000 0.483697
O O10 0.793730 0.489637 0.491137
O O11 0.762416 0.502598 0.593610
O O12 0.074163 0.501302 0.363517
O O13 0.941135 0.750000 0.785122
O O14 0.033230 0.991684 0.773180
O O15 0.076502 0.999094 0.665647
O O16 0.784902 0.750000 0.454037
O O17 0.263871 0.750000 0.258534
O O18 0.307584 0.998144 0.277537
O O19 0.798664 0.250000 0.308156
O O20 0.801600 0.750000 0.615964
O O21 0.000000 0.500000 0.500000
#
# Coordination Sequence:
#
# PCOD9156334 Si02
#       8
#     4   4   4   4   4   4   4   4
#     4   8  14  24  39  59  83 112 144 177 215 258
#     4  12  24  37  49  64  87 117 153 189 224 259
#     4  11  20  31  46  66  91 119 149 181 220 263
#     4  10  19  31  45  63  87 117 152 187 223 262
#     4  10  18  28  42  63  91 121 151 183 220 262
#     4  11  21  35  51  67  87 114 148 185 224 262
#     4   8  14  25  41  59  81 110 144 180 216 257
#     4  10  18  31  49  69  89 112 143 179 220 263
#
# _framework density 15.425188
#
# number of rings (size 3 to 8) (size 9 to 14) (size 15 to 20)
#    0.000    2.000    0.000    7.500    0.000    1.000 
#    0.000    0.000    0.000    0.000    0.000    0.000 
#    0.000    1.000    0.000    2.750    0.000    4.500 
#
# Total GULP energy -178302.344225 kJ/mol
# GULP energy per Si atom -5571.948257 kJ/mol
# Density = 1.539008 g / cm^3
# Si number density = 15.425188 Si / 1000 Ang^3
#
#
#
# Elastic Constant Matrix: (Units=GPa)
#
#
# Indices 1 2 3 4 5 6 
#
# 1 150.5076 46.2613 69.2343 0.0000 -3.9356 0.0000
# 2 46.2613 109.3029 34.0097 0.0000 3.5066 0.0000
# 3 69.2343 34.0097 64.9542 0.0000 5.0833 0.0000
# 4 0.0000 0.0000 0.0000 19.4628 0.0000 4.3814
# 5 -3.9356 3.5066 5.0833 0.0000 27.6081 0.0000
# 6 0.0000 0.0000 0.0000 4.3814 0.0000 20.1402
#
#
#
# Elastic Compliance Matrix: (Units=1/GPa)
#
#
# Indices 1 2 3 4 5 6 
#
# 1 0.013824 -0.001557 -0.014296 0.000000 0.004801 0.000000
# 2 -0.001557 0.011108 -0.004088 0.000000 -0.000880 0.000000
# 3 -0.014296 -0.004088 0.033374 0.000000 -0.007664 0.000000
# 4 0.000000 0.000000 0.000000 0.054026 0.000000 -0.011753
# 5 0.004801 -0.000880 -0.007664 0.000000 0.038428 0.000000
# 6 0.000000 0.000000 0.000000 -0.011753 0.000000 0.052209
#
#
# Mechanical properties :
#
#
# Convention : Reuss Voigt Hill
#
# Bulk Modulus (GPa) = 54.27462 69.30837 61.79150
# Shear Modulus (GPa) = 20.08098 25.12617 22.60358
#
# Velocity S-wave (km/s) = 3.61200 4.04035 3.83217
# Velocity P-wave (km/s) = 7.25655 8.17284 7.72829
#
# Compressibility (1/GPa) = 0.01842482
#
# Stress axis : x y z
#
# Youngs Moduli (GPa) = 72.33550 90.02552 29.96386
#
# Poissons Ratio (x) = 0.14016 0.42836
# Poissons Ratio (y) = 0.11262 0.12248
# Poissons Ratio (z) = 1.03411 0.36800
#
# Static dielectric constant tensor:
#      x y z
#    x 1.569230 0.000000 -0.013190 
#    y 0.000000 1.525050 0.000000 
#    z -0.013190 0.000000 1.485830 
# 
# From -- ./inp_files/73623.got.cif
#   From: 2010.05.17/outbox.cif.g08.bks.cpg/sg11_37_cif.got.tgz:73623.got - 2010.06.03 12:22:45.
