data_PCOD9156418
_publ_section_title
;
Structure prediction by ZEFSAII (Michael W. Deem and Ramdas Pophale) SiO2 
 PCOD9156418
Probable space group: P 21/M
;
_chemical_formula_sum "Si O2"
_cell_formula_units_Z 28
_cell_length_a 32.140078
_cell_length_b 9.025613
_cell_length_c 9.878386
_cell_angle_alpha 90.000000
_cell_angle_beta 34.554131
_cell_angle_gamma 90.000000
_cell_volume 1625.301921
_symmetry_space_group_name_H-M "P 21/M"
_symmetry_group_IT_number 11
_symmetry_cell_setting 'monoclinic'
loop_
_space_group_symop_operation_xyz
x,y,z
-x,1/2+y,-z
-x,-y,-z
x,1/2-y,z
loop_
_atom_site_type_symbol
_atom_site_label
_atom_site_fract_x
_atom_site_fract_y
_atom_site_fract_z
Si Si1 0.766064 0.572359 0.631552
Si Si2 0.920801 0.426119 0.716985
Si Si3 0.195143 0.427870 0.775082
Si Si4 0.444349 0.574089 0.455278
Si Si5 0.598779 0.926662 0.145384
Si Si6 0.685617 0.573500 0.324112
Si Si7 0.801382 0.426066 0.812525
O O1 0.774554 0.750000 0.624650
O O2 0.796641 0.529765 0.403077
O O3 0.803464 0.490240 0.656606
O O4 0.678935 0.540357 0.873320
O O5 0.927485 0.250000 0.715264
O O6 0.874698 0.454732 0.702924
O O7 0.000000 0.500000 0.500000
O O8 0.870896 0.492660 0.970483
O O9 0.184528 0.250000 0.811526
O O10 0.269953 0.460839 0.657728
O O11 0.434170 0.750000 0.474257
O O12 0.415815 0.515238 0.677393
O O13 0.531287 0.541326 0.225133
O O14 0.394701 0.495230 0.476312
O O15 0.595602 0.750000 0.184768
O O16 0.681910 0.750000 0.318141
O O17 0.735766 0.505841 0.069923
O O18 0.788083 0.250000 0.846687
#
# Coordination Sequence:
#
# PCOD9156418 Si02
#       7
#     4   4   4   4   4   4   4
#     4  10  19  34  54  77 105 139 176 214 260 313
#     4  10  21  38  60  84 109 135 168 208 252 304
#     4   9  20  36  55  78 106 139 174 212 257 309
#     4  10  18  28  45  71 101 133 177 228 267 303
#     4   9  18  30  46  70 101 137 175 219 268 309
#     4  10  18  31  50  72 100 137 179 219 259 308
#     4  10  20  33  53  81 106 132 170 215 256 301
#
# _framework density 17.227568000000002
#
# number of rings (size 3 to 8) (size 9 to 14) (size 15 to 20)
#    0.000    2.286    1.429    1.714    0.000    3.429 
#    0.000    1.429    0.000    0.000    0.000    0.000 
#    0.000    0.000    0.000    0.000    0.000    0.000 
#
# Total GULP energy -156209.748722 kJ/mol
# GULP energy per Si atom -5578.919597 kJ/mol
# Density = 1.718836 g / cm^3
# Si number density = 17.227568 Si / 1000 Ang^3
#
#
#
# Elastic Constant Matrix: (Units=GPa)
#
#
# Indices 1 2 3 4 5 6 
#
# 1 106.8297 54.6755 65.0436 0.0000 3.3724 0.0000
# 2 54.6755 52.6845 43.6558 0.0000 -2.9201 0.0000
# 3 65.0436 43.6558 83.1937 0.0000 0.9417 0.0000
# 4 0.0000 0.0000 0.0000 19.5572 0.0000 -5.1492
# 5 3.3724 -2.9201 0.9417 0.0000 32.0231 0.0000
# 6 0.0000 0.0000 0.0000 -5.1492 0.0000 31.7722
#
#
#
# Elastic Compliance Matrix: (Units=1/GPa)
#
#
# Indices 1 2 3 4 5 6 
#
# 1 0.024382 -0.017263 -0.009960 0.000000 -0.003849 0.000000
# 2 -0.017263 0.046223 -0.010830 0.000000 0.006351 0.000000
# 3 -0.009960 -0.010830 0.025498 0.000000 -0.000688 0.000000
# 4 0.000000 0.000000 0.000000 0.053411 0.000000 0.008656
# 5 -0.003849 0.006351 -0.000688 0.000000 0.032232 0.000000
# 6 0.000000 0.000000 0.000000 0.008656 0.000000 0.032877
#
#
# Mechanical properties :
#
#
# Convention : Reuss Voigt Hill
#
# Bulk Modulus (GPa) = 50.01086 63.27308 56.64197
# Shear Modulus (GPa) = 16.81261 21.95936 19.38598
#
# Velocity S-wave (km/s) = 3.12735 3.57412 3.35817
# Velocity P-wave (km/s) = 6.49099 7.33757 6.92723
#
# Compressibility (1/GPa) = 0.01999566
#
# Stress axis : x y z
#
# Youngs Moduli (GPa) = 41.01420 21.63424 39.21862
#
# Poissons Ratio (x) = 0.37348 0.39062
# Poissons Ratio (y) = 0.70805 0.42475
# Poissons Ratio (z) = 0.40850 0.23430
#
# Static dielectric constant tensor:
#      x y z
#    x 1.601960 0.000000 -0.013240 
#    y 0.000000 1.575320 0.000000 
#    z -0.013240 0.000000 1.550720 
# 
# From -- ./inp_files/29003.got.cif
#   From: 2010.05.17/outbox.cif.g08.bks.cpg/sg11_15_cif.got.tgz:29003.got - 2010.06.03 12:22:45.
