data_PCOD9156740
_publ_section_title
;
Structure prediction by ZEFSAII (Michael W. Deem and Ramdas Pophale) SiO2 
 PCOD9156740
Probable space group: P 21/M
;
_chemical_formula_sum "Si O2"
_cell_formula_units_Z 32
_cell_length_a 14.737007
_cell_length_b 8.880486
_cell_length_c 26.910341
_cell_angle_alpha 90.000000
_cell_angle_beta 144.761940
_cell_angle_gamma 90.000000
_cell_volume 2031.993046
_symmetry_space_group_name_H-M "P 21/M"
_symmetry_group_IT_number 11
_symmetry_cell_setting 'monoclinic'
loop_
_space_group_symop_operation_xyz
x,y,z
-x,1/2+y,-z
-x,-y,-z
x,1/2-y,z
loop_
_atom_site_type_symbol
_atom_site_label
_atom_site_fract_x
_atom_site_fract_y
_atom_site_fract_z
Si Si1 0.450014 0.068422 0.900479
Si Si2 0.824711 0.430329 0.419677
Si Si3 0.085679 0.426860 0.268897
Si Si4 0.744331 0.068497 0.096364
Si Si5 0.576412 0.428276 0.584054
Si Si6 0.658449 0.075008 0.446569
Si Si7 0.721383 0.927706 0.272539
Si Si8 0.965754 0.079488 0.652918
O O1 0.435147 0.250000 0.895275
O O2 0.408414 0.021884 0.825834
O O3 0.326043 0.002143 0.884642
O O4 0.622019 0.027013 0.998141
O O5 0.841171 0.250000 0.429274
O O6 0.721634 0.477371 0.421368
O O7 0.739690 0.481439 0.331264
O O8 0.000000 0.500000 0.500000
O O9 0.112813 0.250000 0.272923
O O10 0.245172 0.515578 0.329966
O O11 0.044754 0.459683 0.308150
O O12 0.925553 0.475015 0.169347
O O13 0.741032 0.250000 0.100261
O O14 0.500000 0.500000 0.500000
O O15 0.572431 0.250000 0.576194
O O16 0.474979 0.479925 0.586023
O O17 0.607654 0.250000 0.419904
O O18 0.809564 0.071564 0.550249
O O19 0.699317 0.750000 0.273884
O O20 0.885493 0.941668 0.316015
O O21 0.976384 0.250000 0.679053
#
# Coordination Sequence:
#
# PCOD9156740 Si02
#       8
#     4   4   4   4   4   4   4   4
#     4   9  17  30  48  70 101 136 166 203 248 292
#     4  11  22  35  52  73 100 132 167 206 246 291
#     4  11  21  32  48  72 101 133 169 206 245 291
#     4   9  18  30  46  72 101 131 169 206 244 293
#     4  12  24  36  52  73  97 129 167 205 247 295
#     4  10  21  37  51  68  98 132 166 206 246 286
#     4  10  19  32  49  72 101 136 171 202 244 291
#     4  10  18  30  48  69  99 135 169 202 239 286
#
# _framework density 15.748086000000001
#
# number of rings (size 3 to 8) (size 9 to 14) (size 15 to 20)
#    0.000    1.750    3.750    1.875    0.000    2.500 
#    0.000    0.000    0.000    0.000    0.000    0.875 
#    0.000    0.000    0.000    0.000    0.000    0.000 
#
# Total GULP energy -178520.357274 kJ/mol
# GULP energy per Si atom -5578.761165 kJ/mol
# Density = 1.571224 g / cm^3
# Si number density = 15.748086 Si / 1000 Ang^3
#
#
#
# Elastic Constant Matrix: (Units=GPa)
#
#
# Indices 1 2 3 4 5 6 
#
# 1 89.3035 40.1875 56.5109 0.0000 3.7542 0.0000
# 2 40.1875 52.5996 40.0541 0.0000 7.2156 0.0000
# 3 56.5109 40.0541 119.9639 0.0000 5.2957 0.0000
# 4 0.0000 0.0000 0.0000 19.1075 0.0000 -0.0921
# 5 3.7542 7.2156 5.2957 0.0000 22.9945 0.0000
# 6 0.0000 0.0000 0.0000 -0.0921 0.0000 25.4120
#
#
#
# Elastic Compliance Matrix: (Units=1/GPa)
#
#
# Indices 1 2 3 4 5 6 
#
# 1 0.019622 -0.010875 -0.005679 0.000000 0.001517 0.000000
# 2 -0.010875 0.032397 -0.005378 0.000000 -0.007152 0.000000
# 3 -0.005679 -0.005378 0.012822 0.000000 -0.000338 0.000000
# 4 0.000000 0.000000 0.000000 0.052337 0.000000 0.000190
# 5 0.001517 -0.007152 -0.000338 0.000000 0.045563 0.000000
# 6 0.000000 0.000000 0.000000 0.000190 0.000000 0.039352
#
#
# Mechanical properties :
#
#
# Convention : Reuss Voigt Hill
#
# Bulk Modulus (GPa) = 47.67442 59.48578 53.58010
# Shear Modulus (GPa) = 19.76688 21.84375 20.80531
#
# Velocity S-wave (km/s) = 3.54671 3.72838 3.63868
# Velocity P-wave (km/s) = 6.86375 7.50931 7.19378
#
# Compressibility (1/GPa) = 0.02097561
#
# Stress axis : x y z
#
# Youngs Moduli (GPa) = 50.96449 30.86710 77.99285
#
# Poissons Ratio (x) = 0.33568 0.44292
# Poissons Ratio (y) = 0.55424 0.41947
# Poissons Ratio (z) = 0.28943 0.16601
#
# Static dielectric constant tensor:
#      x y z
#    x 1.503140 0.000000 -0.000960 
#    y 0.000000 1.546970 0.000000 
#    z -0.000960 0.000000 1.551430 
# 
# From -- ./inp_files/73307.got.cif
#   From: 2010.05.17/outbox.cif.g08.bks.cpg/sg11_37_cif.got.tgz:73307.got - 2010.06.03 12:22:45.
