data_PCOD9156590
_publ_section_title
;
Structure prediction by ZEFSAII (Michael W. Deem and Ramdas Pophale) SiO2 
 PCOD9156590
Probable space group: P 21/M
;
_chemical_formula_sum "Si O2"
_cell_formula_units_Z 24
_cell_length_a 16.410964
_cell_length_b 8.713090
_cell_length_c 28.682374
_cell_angle_alpha 90.000000
_cell_angle_beta 159.881294
_cell_angle_gamma 90.000000
_cell_volume 1410.708386
_symmetry_space_group_name_H-M "P 21/M"
_symmetry_group_IT_number 11
_symmetry_cell_setting 'monoclinic'
loop_
_space_group_symop_operation_xyz
x,y,z
-x,1/2+y,-z
-x,-y,-z
x,1/2-y,z
loop_
_atom_site_type_symbol
_atom_site_label
_atom_site_fract_x
_atom_site_fract_y
_atom_site_fract_z
Si Si1 0.100462 0.066551 0.005903
Si Si2 0.380266 0.433327 0.713817
Si Si3 0.067863 0.565568 0.465411
Si Si4 0.769863 0.434546 0.741263
Si Si5 0.761939 0.065905 0.544384
Si Si6 0.231987 0.433432 0.356098
O O1 0.100846 0.250000 0.009118
O O2 0.366316 0.007524 0.141624
O O3 0.932042 0.022759 0.872210
O O4 0.000000 0.000000 0.000000
O O5 0.403495 0.250000 0.725949
O O6 0.270131 0.487999 0.605515
O O7 0.183885 0.477307 0.647061
O O8 0.093460 0.750000 0.483676
O O9 0.098210 0.526533 0.427611
O O10 0.751333 0.250000 0.728217
O O11 0.506540 0.503812 0.605663
O O12 0.873241 0.499786 0.748199
O O13 0.753098 0.250000 0.544887
O O14 0.867669 0.992736 0.648275
O O15 0.500000 0.500000 0.500000
O O16 0.237440 0.250000 0.357762
#
# Coordination Sequence:
#
# PCOD9156590 Si02
#       6
#     4   4   4   4   4   4
#     4  11  23  36  52  74 101 133 166 202 244 294
#     4  10  20  34  52  74 101 132 166 205 246 290
#     4   9  19  34  52  74 100 132 167 203 245 291
#     4  10  20  33  48  70 100 131 163 199 243 291
#     4  10  18  30  50  74 100 128 161 201 243 289
#     4  10  18  29  47  71  98 127 160 199 244 290
#
# _framework density 17.012729
#
# number of rings (size 3 to 8) (size 9 to 14) (size 15 to 20)
#    0.000    2.000    0.000    6.500    0.000    7.333 
#    0.000    0.000    0.000    1.000    0.000    0.000 
#    0.000    0.000    0.000    0.000    0.000    0.000 
#
# Total GULP energy -133928.414744 kJ/mol
# GULP energy per Si atom -5580.350614 kJ/mol
# Density = 1.697401 g / cm^3
# Si number density = 17.012729 Si / 1000 Ang^3
#
#
#
# Elastic Constant Matrix: (Units=GPa)
#
#
# Indices 1 2 3 4 5 6 
#
# 1 144.3813 47.6852 53.6772 0.0000 -33.9661 0.0000
# 2 47.6852 63.9984 32.5400 0.0000 -15.8345 0.0000
# 3 53.6772 32.5400 84.5280 0.0000 -18.8905 0.0000
# 4 0.0000 0.0000 0.0000 26.2368 0.0000 -2.6365
# 5 -33.9661 -15.8345 -18.8905 0.0000 25.9492 0.0000
# 6 0.0000 0.0000 0.0000 -2.6365 0.0000 28.1843
#
#
#
# Elastic Compliance Matrix: (Units=1/GPa)
#
#
# Indices 1 2 3 4 5 6 
#
# 1 0.012335 -0.004710 -0.003647 0.000000 0.010617 0.000000
# 2 -0.004710 0.022589 -0.004780 0.000000 0.004140 0.000000
# 3 -0.003647 -0.004780 0.017040 0.000000 0.004714 0.000000
# 4 0.000000 0.000000 0.000000 0.038476 0.000000 0.003599
# 5 0.010617 0.004140 0.004714 0.000000 0.058392 0.000000
# 6 0.000000 0.000000 0.000000 0.003599 0.000000 0.035817
#
#
# Mechanical properties :
#
#
# Convention : Reuss Voigt Hill
#
# Bulk Modulus (GPa) = 38.92507 62.30139 50.61323
# Shear Modulus (GPa) = 22.78034 26.67442 24.72738
#
# Velocity S-wave (km/s) = 3.66323 3.96398 3.81657
# Velocity P-wave (km/s) = 6.38921 7.59281 7.01686
#
# Compressibility (1/GPa) = 0.02569039
#
# Stress axis : x y z
#
# Youngs Moduli (GPa) = 81.06837 44.26897 58.68477
#
# Poissons Ratio (x) = 0.20849 0.21405
# Poissons Ratio (y) = 0.38180 0.28052
# Poissons Ratio (z) = 0.29569 0.21161
#
# Static dielectric constant tensor:
#      x y z
#    x 1.609680 0.000000 -0.014750 
#    y 0.000000 1.567850 0.000000 
#    z -0.014750 0.000000 1.552770 
# 
# From -- ./inp_files/48702.got.cif
#   From: 2010.05.17/outbox.cif.g08.bks.cpg/sg11_25_cif.got.tgz:48702.got - 2010.06.03 12:22:45.
