data_PCOD9156279
_publ_section_title
;
Structure prediction by ZEFSAII (Michael W. Deem and Ramdas Pophale) SiO2 
 PCOD9156279
Probable space group: P 21/M
;
_chemical_formula_sum "Si O2"
_cell_formula_units_Z 28
_cell_length_a 16.768269
_cell_length_b 8.804250
_cell_length_c 16.606660
_cell_angle_alpha 90.000000
_cell_angle_beta 49.224333
_cell_angle_gamma 90.000000
_cell_volume 1856.586004
_symmetry_space_group_name_H-M "P 21/M"
_symmetry_group_IT_number 11
_symmetry_cell_setting 'monoclinic'
loop_
_space_group_symop_operation_xyz
x,y,z
-x,1/2+y,-z
-x,-y,-z
x,1/2-y,z
loop_
_atom_site_type_symbol
_atom_site_label
_atom_site_fract_x
_atom_site_fract_y
_atom_site_fract_z
Si Si1 0.978310 0.431512 0.386883
Si Si2 0.892194 0.567514 0.106250
Si Si3 0.621910 0.931234 0.829685
Si Si4 0.602975 0.932713 0.030413
Si Si5 0.804608 0.933823 0.000764
Si Si6 0.978411 0.932388 0.213090
Si Si7 0.836544 0.068525 0.633095
O O1 0.986588 0.250000 0.376387
O O2 0.954204 0.499114 0.315780
O O3 0.890796 0.470560 0.511889
O O4 0.088133 0.497105 0.348356
O O5 0.898621 0.750000 0.101218
O O6 0.894395 0.522489 0.198558
O O7 0.806802 0.525495 0.094608
O O8 0.000000 0.500000 0.000000
O O9 0.626746 0.750000 0.819345
O O10 0.508520 0.991502 0.876334
O O11 0.719647 0.005572 0.719805
O O12 0.629760 0.970846 0.919812
O O13 0.591623 0.750000 0.042557
O O14 0.698578 0.979670 0.024992
O O15 0.814064 0.750000 0.987599
O O16 0.907450 0.006620 0.891452
O O17 0.982342 0.750000 0.215457
O O18 0.837227 0.250000 0.640970
#
# Coordination Sequence:
#
# PCOD9156279 Si02
#       7
#     4   4   4   4   4   4   4
#     4  10  20  32  46  65  88 116 148 177 213 259
#     4   8  15  26  40  61  87 115 146 179 217 257
#     4  10  19  30  45  65  90 117 144 177 215 256
#     4   9  18  30  44  63  86 116 150 178 210 254
#     4   9  16  28  45  63  88 120 151 183 217 256
#     4  10  18  27  42  65  92 119 147 180 217 258
#     4  10  20  33  48  65  87 114 145 182 217 253
#
# _framework density 15.081445
#
# number of rings (size 3 to 8) (size 9 to 14) (size 15 to 20)
#    0.000    2.571    0.000    2.571    0.000    4.571 
#    0.000    0.000    0.000    0.000    0.000    1.000 
#    0.000    0.000    0.000    0.000    0.000    0.000 
#
# Total GULP energy -156001.215437 kJ/mol
# GULP energy per Si atom -5571.471980 kJ/mol
# Density = 1.504712 g / cm^3
# Si number density = 15.081445 Si / 1000 Ang^3
#
#
#
# Elastic Constant Matrix: (Units=GPa)
#
#
# Indices 1 2 3 4 5 6 
#
# 1 123.5212 28.1976 44.7715 0.0000 11.2563 0.0000
# 2 28.1976 24.2999 24.8674 0.0000 1.7149 0.0000
# 3 44.7715 24.8674 63.1401 0.0000 3.5988 0.0000
# 4 0.0000 0.0000 0.0000 22.7190 0.0000 -2.3376
# 5 11.2563 1.7149 3.5988 0.0000 28.3226 0.0000
# 6 0.0000 0.0000 0.0000 -2.3376 0.0000 18.8215
#
#
#
# Elastic Compliance Matrix: (Units=1/GPa)
#
#
# Indices 1 2 3 4 5 6 
#
# 1 0.012267 -0.008858 -0.004999 0.000000 -0.003704 0.000000
# 2 -0.008858 0.075349 -0.023505 0.000000 0.001945 0.000000
# 3 -0.004999 -0.023505 0.028653 0.000000 -0.000231 0.000000
# 4 0.000000 0.000000 0.000000 0.044586 0.000000 0.005538
# 5 -0.003704 0.001945 -0.000231 0.000000 0.036691 0.000000
# 6 0.000000 0.000000 0.000000 0.005538 0.000000 0.053819
#
#
# Mechanical properties :
#
#
# Convention : Reuss Voigt Hill
#
# Bulk Modulus (GPa) = 24.07063 45.18158 34.62611
# Shear Modulus (GPa) = 14.70862 21.51425 18.11144
#
# Velocity S-wave (km/s) = 3.12633 3.78105 3.46917
# Velocity P-wave (km/s) = 5.38767 7.00608 6.24949
#
# Compressibility (1/GPa) = 0.04154440
#
# Stress axis : x y z
#
# Youngs Moduli (GPa) = 81.51768 13.27164 34.90059
#
# Poissons Ratio (x) = 0.11756 0.17445
# Poissons Ratio (y) = 0.72210 0.82035
# Poissons Ratio (z) = 0.40747 0.31195
#
# Static dielectric constant tensor:
#      x y z
#    x 1.514570 0.000000 0.028080 
#    y 0.000000 1.500890 0.000000 
#    z 0.028080 0.000000 1.482290 
# 
# From -- ./inp_files/37468.got.cif
#   From: 2010.05.17/outbox.cif.g08.bks.cpg/sg11_19_cif.got.tgz:37468.got - 2010.06.03 12:22:45.
