data_PCOD9156491
_publ_section_title
;
Structure prediction by ZEFSAII (Michael W. Deem and Ramdas Pophale) SiO2 
 PCOD9156491
Probable space group: P 21/M
;
_chemical_formula_sum "Si O2"
_cell_formula_units_Z 32
_cell_length_a 21.913108
_cell_length_b 8.677465
_cell_length_c 28.960310
_cell_angle_alpha 90.000000
_cell_angle_beta 21.022757
_cell_angle_gamma 90.000000
_cell_volume 1975.505834
_symmetry_space_group_name_H-M "P 21/M"
_symmetry_group_IT_number 11
_symmetry_cell_setting 'monoclinic'
loop_
_space_group_symop_operation_xyz
x,y,z
-x,1/2+y,-z
-x,-y,-z
x,1/2-y,z
loop_
_atom_site_type_symbol
_atom_site_label
_atom_site_fract_x
_atom_site_fract_y
_atom_site_fract_z
Si Si1 0.226026 0.435897 0.302936
Si Si2 0.231451 0.564426 0.498370
Si Si3 0.126497 0.570120 0.716376
Si Si4 0.548503 0.063947 0.015649
Si Si5 0.869997 0.565809 0.525863
Si Si6 0.537173 0.069316 0.586633
Si Si7 0.659840 0.936127 0.357904
Si Si8 0.927716 0.065338 0.775377
O O1 0.210548 0.250000 0.311025
O O2 0.402395 0.482851 0.155000
O O3 0.210623 0.478779 0.367744
O O4 0.065071 0.508718 0.390467
O O5 0.231117 0.750000 0.499971
O O6 0.222835 0.506663 0.452368
O O7 0.394033 0.505765 0.413434
O O8 0.063034 0.506156 0.644023
O O9 0.088032 0.750000 0.748907
O O10 0.296238 0.559100 0.564208
O O11 0.176643 0.496736 0.730032
O O12 0.983347 0.486867 0.787297
O O13 0.548720 0.250000 0.013531
O O14 0.737122 0.014983 0.897513
O O15 0.500000 0.000000 0.000000
O O16 0.867415 0.750000 0.523731
O O17 0.501570 0.250000 0.619224
O O18 0.381237 0.009552 0.665493
O O19 0.656882 0.750000 0.361110
O O20 0.500000 0.000000 0.500000
O O21 0.938575 0.250000 0.764562
#
# Coordination Sequence:
#
# PCOD9156491 Si02
#       8
#     4   4   4   4   4   4   4   4
#     4   9  19  35  50  64  86 115 144 178 222 263
#     4  10  18  29  44  63  90 120 146 175 218 263
#     4   9  16  26  38  55  81 114 147 177 217 262
#     4  10  21  34  48  66  88 115 145 179 219 261
#     4  10  19  31  48  68  87 110 145 183 216 258
#     4   7  13  23  35  53  78 109 142 172 204 249
#     4   9  14  22  36  54  78 110 147 182 214 253
#     4  10  19  30  44  64  87 113 150 187 216 257
#
# _framework density 16.198383
#
# number of rings (size 3 to 8) (size 9 to 14) (size 15 to 20)
#    0.000    2.750    0.000    4.125    0.000    4.000 
#    0.000    1.875    0.000    0.000    0.000    0.000 
#    0.000    1.000    0.000    2.000    0.000    4.000 
#
# Total GULP energy -178168.272655 kJ/mol
# GULP energy per Si atom -5567.758520 kJ/mol
# Density = 1.616151 g / cm^3
# Si number density = 16.198383 Si / 1000 Ang^3
#
#
#
# Elastic Constant Matrix: (Units=GPa)
#
#
# Indices 1 2 3 4 5 6 
#
# 1 150.1954 29.4037 35.2554 0.0000 -30.2975 0.0000
# 2 29.4037 34.9189 8.9891 0.0000 -6.3527 0.0000
# 3 35.2554 8.9891 40.4142 0.0000 -9.9336 0.0000
# 4 0.0000 0.0000 0.0000 13.7382 0.0000 -4.3787
# 5 -30.2975 -6.3527 -9.9336 0.0000 21.1215 0.0000
# 6 0.0000 0.0000 0.0000 -4.3787 0.0000 28.4460
#
#
#
# Elastic Compliance Matrix: (Units=1/GPa)
#
#
# Indices 1 2 3 4 5 6 
#
# 1 0.011681 -0.006119 -0.005838 0.000000 0.012170 0.000000
# 2 -0.006119 0.034455 -0.002189 0.000000 0.000556 0.000000
# 3 -0.005838 -0.002189 0.031776 0.000000 0.005913 0.000000
# 4 0.000000 0.000000 0.000000 0.076545 0.000000 0.011783
# 5 0.012170 0.000556 0.005913 0.000000 0.067750 0.000000
# 6 0.000000 0.000000 0.000000 0.011783 0.000000 0.036968
#
#
# Mechanical properties :
#
#
# Convention : Reuss Voigt Hill
#
# Bulk Modulus (GPa) = 20.15275 41.42497 30.78886
# Shear Modulus (GPa) = 16.44693 22.78649 19.61671
#
# Velocity S-wave (km/s) = 3.18990 3.75469 3.48376
# Velocity P-wave (km/s) = 5.10250 6.66528 5.93555
#
# Compressibility (1/GPa) = 0.04962102
#
# Stress axis : x y z
#
# Youngs Moduli (GPa) = 85.60769 29.02322 31.46985
#
# Poissons Ratio (x) = 0.17760 0.18371
# Poissons Ratio (y) = 0.52387 0.06888
# Poissons Ratio (z) = 0.49975 0.06353
#
# Static dielectric constant tensor:
#      x y z
#    x 1.585190 0.000000 -0.022980 
#    y 0.000000 1.547680 0.000000 
#    z -0.022980 0.000000 1.529680 
# 
# From -- ./inp_files/64191.got.cif
#   From: 2010.05.17/outbox.cif.g08.bks.cpg/sg11_33_cif.got.tgz:64191.got - 2010.06.03 12:22:45.
