data_PCOD9156926
_publ_section_title
;
Structure prediction by ZEFSAII (Michael W. Deem and Ramdas Pophale) SiO2 
 PCOD9156926
Probable space group: P 21/M
;
_chemical_formula_sum "Si O2"
_cell_formula_units_Z 24
_cell_length_a 11.385675
_cell_length_b 15.216805
_cell_length_c 13.221439
_cell_angle_alpha 90.000000
_cell_angle_beta 32.419770
_cell_angle_gamma 90.000000
_cell_volume 1228.065281
_symmetry_space_group_name_H-M "P 21/M"
_symmetry_group_IT_number 11
_symmetry_cell_setting 'monoclinic'
loop_
_space_group_symop_operation_xyz
x,y,z
-x,1/2+y,-z
-x,-y,-z
x,1/2-y,z
loop_
_atom_site_type_symbol
_atom_site_label
_atom_site_fract_x
_atom_site_fract_y
_atom_site_fract_z
Si Si1 0.671035 0.488220 0.965377
Si Si2 0.289412 0.891501 0.655983
Si Si3 0.768543 0.847334 0.236897
Si Si4 0.802801 0.650902 0.994552
Si Si5 0.559302 0.357063 0.230914
Si Si6 0.147193 0.061633 0.635418
O O1 0.686291 0.583441 0.006363
O O2 0.609403 0.413591 0.093550
O O3 0.500000 0.500000 0.000000
O O4 0.922050 0.468483 0.749125
O O5 0.516827 0.848659 0.455926
O O6 0.302457 0.887986 0.769237
O O7 0.271726 0.983571 0.607275
O O8 0.063504 0.846484 0.787698
O O9 0.842817 0.750000 0.157637
O O10 0.779841 0.894160 0.121859
O O11 0.911926 0.878284 0.225457
O O12 0.712606 0.750000 0.054512
O O13 0.575446 0.250000 0.209417
O O14 0.312953 0.386603 0.443394
#
# Coordination Sequence:
#
# PCOD9156926 Si02
#       6
#     4   4   4   4   4   4
#     4  11  25  41  57  78 112 156 202 244 277 320
#     4  10  18  32  56  86 118 143 174 227 291 352
#     4  10  18  30  53  85 115 139 171 222 286 351
#     4  10  20  35  56  82 112 148 189 233 287 345
#     4  11  22  37  60  89 118 149 187 233 289 348
#     4  10  20  35  58  84 114 148 184 229 287 345
#
# _framework density 19.542935
#
# number of rings (size 3 to 8) (size 9 to 14) (size 15 to 20)
#    0.000    1.667    0.000    8.000    0.000    6.667 
#    0.000    0.000    0.000    4.000    0.000    0.000 
#    0.000    0.000    0.000    0.000    0.000    0.000 
#
# Total GULP energy -133705.407152 kJ/mol
# GULP energy per Si atom -5571.058631 kJ/mol
# Density = 1.949845 g / cm^3
# Si number density = 19.542935 Si / 1000 Ang^3
#
#
#
# Elastic Constant Matrix: (Units=GPa)
#
#
# Indices 1 2 3 4 5 6 
#
# 1 132.9879 47.2998 49.4254 0.0000 -28.9844 0.0000
# 2 47.2998 121.1178 25.4553 0.0000 -2.9423 0.0000
# 3 49.4254 25.4553 67.4292 0.0000 -6.1664 0.0000
# 4 0.0000 0.0000 0.0000 20.8397 0.0000 6.4258
# 5 -28.9844 -2.9423 -6.1664 0.0000 22.0172 0.0000
# 6 0.0000 0.0000 0.0000 6.4258 0.0000 12.4693
#
#
#
# Elastic Compliance Matrix: (Units=1/GPa)
#
#
# Indices 1 2 3 4 5 6 
#
# 1 0.016166 -0.004051 -0.008645 0.000000 0.018319 0.000000
# 2 -0.004051 0.009985 -0.001196 0.000000 -0.004334 0.000000
# 3 -0.008645 -0.001196 0.021104 0.000000 -0.005630 0.000000
# 4 0.000000 0.000000 0.000000 0.057051 0.000000 -0.029400
# 5 0.018319 -0.004334 -0.005630 0.000000 0.067379 0.000000
# 6 0.000000 0.000000 0.000000 -0.029400 0.000000 0.095347
#
#
# Mechanical properties :
#
#
# Convention : Reuss Voigt Hill
#
# Bulk Modulus (GPa) = 51.36169 62.87733 57.11951
# Shear Modulus (GPa) = 16.59447 24.35556 20.47501
#
# Velocity S-wave (km/s) = 2.91714 3.53407 3.24032
# Velocity P-wave (km/s) = 6.13880 6.99261 6.57957
#
# Compressibility (1/GPa) = 0.01946976
#
# Stress axis : x y z
#
# Youngs Moduli (GPa) = 61.85891 100.15367 47.38506
#
# Poissons Ratio (x) = 0.40575 0.40964
# Poissons Ratio (y) = 0.25061 0.05668
# Poissons Ratio (z) = 0.53476 0.11979
#
# Static dielectric constant tensor:
#      x y z
#    x 1.672410 0.000000 0.013870 
#    y 0.000000 1.728220 0.000000 
#    z 0.013870 0.000000 1.741860 
# 
# From -- ./inp_files/39726.got.cif
#   From: 2010.05.17/outbox.cif.g08.bks.cpg/sg11_20_cif.got.tgz:39726.got - 2010.06.03 12:22:45.
