data_PCOD9156878
_publ_section_title
;
Structure prediction by ZEFSAII (Michael W. Deem and Ramdas Pophale) SiO2 
 PCOD9156878
Probable space group: P 21/M
;
_chemical_formula_sum "Si O2"
_cell_formula_units_Z 32
_cell_length_a 13.161888
_cell_length_b 18.997869
_cell_length_c 18.766155
_cell_angle_alpha 90.000000
_cell_angle_beta 157.682140
_cell_angle_gamma 90.000000
_cell_volume 1781.927052
_symmetry_space_group_name_H-M "P 21/M"
_symmetry_group_IT_number 11
_symmetry_cell_setting 'monoclinic'
loop_
_space_group_symop_operation_xyz
x,y,z
-x,1/2+y,-z
-x,-y,-z
x,1/2-y,z
loop_
_atom_site_type_symbol
_atom_site_label
_atom_site_fract_x
_atom_site_fract_y
_atom_site_fract_z
Si Si1 0.785332 0.063097 0.117898
Si Si2 0.418994 0.443563 0.354403
Si Si3 0.343839 0.092858 0.468575
Si Si4 0.344498 0.560629 0.689136
Si Si5 0.386313 0.169079 0.213468
Si Si6 0.782908 0.969894 0.255824
Si Si7 0.235271 0.668480 0.158557
Si Si8 0.180068 0.539111 0.024245
O O1 0.806000 0.006300 0.194270
O O2 0.039801 0.114127 0.291145
O O3 0.838419 0.034273 0.073077
O O4 0.471048 0.083024 0.912120
O O5 0.613100 0.510466 0.482528
O O6 0.399224 0.408089 0.419910
O O7 0.478861 0.381495 0.338099
O O8 0.122081 0.476157 0.146336
O O9 0.552910 0.139386 0.647420
O O10 0.479657 0.636566 0.769894
O O11 0.294072 0.529516 0.735000
O O12 0.565551 0.509803 0.794741
O O13 0.062212 0.559971 0.465123
O O14 0.456305 0.250000 0.270338
O O15 0.064433 0.163195 0.003889
O O16 0.283074 0.750000 0.171500
O O17 0.241162 0.616670 0.094215
#
# Coordination Sequence:
#
# PCOD9156878 Si02
#       8
#     4   4   4   4   4   4   4   4
#     4   9  17  30  48  74  99 122 158 204 252 287
#     4   9  18  30  48  76 102 125 158 197 240 298
#     4  10  18  30  51  75  99 127 161 201 242 290
#     4  10  18  31  53  74  96 131 172 210 249 286
#     4  10  20  33  49  71 102 134 159 193 246 303
#     4   9  18  30  50  76  97 122 166 217 251 283
#     4  10  20  32  48  73 102 130 161 196 242 305
#     4   9  17  30  50  73  98 127 159 200 246 294
#
# _framework density 17.958086000000002
#
# number of rings (size 3 to 8) (size 9 to 14) (size 15 to 20)
#    0.000    2.500    0.000    3.000    0.000    3.500 
#    0.000    1.875    0.000   13.500    0.000    0.000 
#    0.000    0.000    0.000    0.000    0.000    0.000 
#
# Total GULP energy -178153.919850 kJ/mol
# GULP energy per Si atom -5567.309995 kJ/mol
# Density = 1.791721 g / cm^3
# Si number density = 17.958086 Si / 1000 Ang^3
#
#
#
# Elastic Constant Matrix: (Units=GPa)
#
#
# Indices 1 2 3 4 5 6 
#
# 1 78.6487 31.5052 33.1539 0.0000 0.8563 0.0000
# 2 31.5052 83.5855 37.9090 0.0000 4.4247 0.0000
# 3 33.1539 37.9090 99.0381 0.0000 -1.5315 0.0000
# 4 0.0000 0.0000 0.0000 19.9609 0.0000 1.6093
# 5 0.8563 4.4247 -1.5315 0.0000 27.4881 0.0000
# 6 0.0000 0.0000 0.0000 1.6093 0.0000 13.6982
#
#
#
# Elastic Compliance Matrix: (Units=1/GPa)
#
#
# Indices 1 2 3 4 5 6 
#
# 1 0.016019 -0.004363 -0.003692 0.000000 -0.000002 0.000000
# 2 -0.004363 0.015860 -0.004651 0.000000 -0.002676 0.000000
# 3 -0.003692 -0.004651 0.013138 0.000000 0.001596 0.000000
# 4 0.000000 0.000000 0.000000 0.050577 0.000000 -0.005942
# 5 -0.000002 -0.002676 0.001596 0.000000 0.036899 0.000000
# 6 0.000000 0.000000 0.000000 -0.005942 0.000000 0.073700
#
#
# Mechanical properties :
#
#
# Convention : Reuss Voigt Hill
#
# Bulk Modulus (GPa) = 51.01265 51.82317 51.41791
# Shear Modulus (GPa) = 20.99587 22.80972 21.90280
#
# Velocity S-wave (km/s) = 3.42301 3.56780 3.49615
# Velocity P-wave (km/s) = 6.64009 6.77442 6.70759
#
# Compressibility (1/GPa) = 0.01960298
#
# Stress axis : x y z
#
# Youngs Moduli (GPa) = 62.42529 63.05326 76.11329
#
# Poissons Ratio (x) = 0.27511 0.28105
# Poissons Ratio (y) = 0.27237 0.35403
# Poissons Ratio (z) = 0.23050 0.29329
#
# Static dielectric constant tensor:
#      x y z
#    x 1.651530 0.000000 0.007280 
#    y 0.000000 1.584040 0.000000 
#    z 0.007280 0.000000 1.679320 
# 
# From -- ./inp_files/55089.got.cif
#   From: 2010.05.17/outbox.cif.g08.bks.cpg/sg11_28_cif.got.tgz:55089.got - 2010.06.03 12:22:45.
