data_PCOD9156233
_publ_section_title
;
Structure prediction by ZEFSAII (Michael W. Deem and Ramdas Pophale) SiO2 
 PCOD9156233
Probable space group: P 21/M
;
_chemical_formula_sum "Si O2"
_cell_formula_units_Z 32
_cell_length_a 5.157768
_cell_length_b 21.628225
_cell_length_c 18.091943
_cell_angle_alpha 90.000000
_cell_angle_beta 71.570540
_cell_angle_gamma 90.000000
_cell_volume 1914.710037
_symmetry_space_group_name_H-M "P 21/M"
_symmetry_group_IT_number 11
_symmetry_cell_setting 'monoclinic'
loop_
_space_group_symop_operation_xyz
x,y,z
-x,1/2+y,-z
-x,-y,-z
x,1/2-y,z
loop_
_atom_site_type_symbol
_atom_site_label
_atom_site_fract_x
_atom_site_fract_y
_atom_site_fract_z
Si Si1 0.195324 0.020000 0.202955
Si Si2 0.555295 0.614293 0.363411
Si Si3 0.795160 0.453958 0.114150
Si Si4 0.299749 0.441805 0.509236
Si Si5 0.769385 0.503417 0.629946
Si Si6 0.881830 0.905295 0.047978
Si Si7 0.870303 0.178470 0.704396
Si Si8 0.714258 0.379717 0.864127
O O1 0.472743 0.053819 0.152201
O O2 0.943336 0.046366 0.179677
O O3 0.163091 0.022737 0.293591
O O4 0.239435 0.947954 0.176142
O O5 0.570229 0.611375 0.451650
O O6 0.489635 0.543560 0.344692
O O7 0.850898 0.639250 0.314047
O O8 0.322522 0.654206 0.344429
O O9 0.843976 0.523552 0.078545
O O10 0.943181 0.409370 0.042476
O O11 0.500000 0.500000 0.500000
O O12 0.265570 0.439826 0.424093
O O13 0.012320 0.461807 0.572220
O O14 0.576812 0.879947 0.069031
O O15 0.047500 0.871176 0.097751
O O16 0.936086 0.250000 0.687605
O O17 0.717518 0.166940 0.795551
#
# Coordination Sequence:
#
# PCOD9156233 Si02
#       8
#     4   4   4   4   4   4   4   4
#     4  10  18  26  45  64  95 123 159 191 231 275
#     4  11  20  36  50  65  98 130 165 209 247 290
#     4   9  18  27  39  65  88 120 155 196 218 283
#     4   9  19  31  51  71  96 126 173 200 240 300
#     4  10  19  31  49  74  95 131 169 205 238 298
#     4   9  17  29  43  59  86 119 163 188 231 272
#     4  12  24  35  50  72  95 128 174 216 246 281
#     4  10  18  29  47  60  85 127 161 197 237 278
#
# _framework density 16.712713000000001
#
# number of rings (size 3 to 8) (size 9 to 14) (size 15 to 20)
#    0.000    2.000    2.500    1.875    7.000    3.000 
#    0.000    0.000    0.000    0.000    0.000    0.000 
#    0.000    0.000    0.000   22.500    0.250    0.000 
#
# Total GULP energy -178336.844994 kJ/mol
# GULP energy per Si atom -5573.026406 kJ/mol
# Density = 1.667467 g / cm^3
# Si number density = 16.712713 Si / 1000 Ang^3
#
#
#
# Elastic Constant Matrix: (Units=GPa)
#
#
# Indices 1 2 3 4 5 6 
#
# 1 65.4084 9.3490 -4.1904 0.0000 -3.7040 0.0000
# 2 9.3490 23.2501 13.5927 0.0000 -1.9290 0.0000
# 3 -4.1904 13.5927 53.9124 0.0000 8.4993 0.0000
# 4 0.0000 0.0000 0.0000 8.1008 0.0000 2.2016
# 5 -3.7040 -1.9290 8.4993 0.0000 30.3091 0.0000
# 6 0.0000 0.0000 0.0000 2.2016 0.0000 11.1443
#
#
#
# Elastic Compliance Matrix: (Units=1/GPa)
#
#
# Indices 1 2 3 4 5 6 
#
# 1 0.016781 -0.008698 0.003412 0.000000 0.000540 0.000000
# 2 -0.008698 0.056454 -0.016016 0.000000 0.007021 0.000000
# 3 0.003412 -0.016016 0.024008 0.000000 -0.007335 0.000000
# 4 0.000000 0.000000 0.000000 0.130448 0.000000 -0.025770
# 5 0.000540 0.007021 -0.007335 0.000000 0.035563 0.000000
# 6 0.000000 0.000000 0.000000 -0.025770 0.000000 0.094823
#
#
# Mechanical properties :
#
#
# Convention : Reuss Voigt Hill
#
# Bulk Modulus (GPa) = 18.30189 20.00817 19.15503
# Shear Modulus (GPa) = 11.93619 18.16550 15.05085
#
# Velocity S-wave (km/s) = 2.67535 3.30043 3.00419
# Velocity P-wave (km/s) = 4.52968 5.14992 4.84972
#
# Compressibility (1/GPa) = 0.05463916
#
# Stress axis : x y z
#
# Youngs Moduli (GPa) = 59.59147 17.71351 41.65229
#
# Poissons Ratio (x) = 0.15407 -0.14212
# Poissons Ratio (y) = 0.51830 0.66712
# Poissons Ratio (z) = -0.20333 0.28371
#
# Static dielectric constant tensor:
#      x y z
#    x 1.618020 0.000000 0.001670 
#    y 0.000000 1.540560 0.000000 
#    z 0.001670 0.000000 1.603080 
# 
# From -- ./inp_files/57212.got.cif
#   From: 2010.05.17/outbox.cif.g08.bks.cpg/sg11_29_cif.got.tgz:57212.got - 2010.06.03 12:22:45.
