data_PCOD9156507
_publ_section_title
;
Structure prediction by ZEFSAII (Michael W. Deem and Ramdas Pophale) SiO2 
 PCOD9156507
Probable space group: P 21/M
;
_chemical_formula_sum "Si O2"
_cell_formula_units_Z 32
_cell_length_a 25.235358
_cell_length_b 7.435044
_cell_length_c 18.089946
_cell_angle_alpha 90.000000
_cell_angle_beta 152.774089
_cell_angle_gamma 90.000000
_cell_volume 1552.821301
_symmetry_space_group_name_H-M "P 21/M"
_symmetry_group_IT_number 11
_symmetry_cell_setting 'monoclinic'
loop_
_space_group_symop_operation_xyz
x,y,z
-x,1/2+y,-z
-x,-y,-z
x,1/2-y,z
loop_
_atom_site_type_symbol
_atom_site_label
_atom_site_fract_x
_atom_site_fract_y
_atom_site_fract_z
Si Si1 0.603746 0.041284 0.942545
Si Si2 0.848572 0.970513 0.659870
Si Si3 0.202595 0.529127 0.926870
Si Si4 0.137017 0.461959 0.161143
Si Si5 0.888023 0.040070 0.032936
Si Si6 0.636367 0.529970 0.295227
Si Si7 0.283037 0.468140 0.760494
Si Si8 0.022460 0.464120 0.441832
O O1 0.584472 0.250000 0.899481
O O2 0.685889 0.964804 0.980486
O O3 0.672795 0.033278 0.105715
O O4 0.477442 0.964056 0.803543
O O5 0.851736 0.750000 0.664598
O O6 0.812989 0.029130 0.698868
O O7 0.753788 0.023882 0.482530
O O8 0.980007 0.033584 0.806506
O O9 0.206360 0.750000 0.928039
O O10 0.188229 0.470588 0.993881
O O11 0.085451 0.469353 0.739696
O O12 0.155557 0.250000 0.182191
O O13 0.167523 0.528175 0.117342
O O14 0.000000 0.500000 0.000000
O O15 0.904229 0.250000 0.069100
O O16 0.633981 0.750000 0.292058
O O17 0.640764 0.474497 0.215045
O O18 0.283445 0.250000 0.764177
O O19 0.151053 0.529640 0.582930
O O20 0.025247 0.250000 0.433495
O O21 0.000000 0.500000 0.500000
#
# Coordination Sequence:
#
# PCOD9156507 Si02
#       8
#     4   4   4   4   4   4   4   4
#     4  10  19  31  47  64  87 119 154 194 226 258
#     4   8  14  26  45  67  88 112 144 180 217 261
#     4   9  17  29  45  65  88 118 153 185 223 267
#     4   9  16  27  46  71  96 119 143 177 224 272
#     4   9  16  28  47  68  91 118 148 183 222 268
#     4   9  17  29  46  67  87 114 156 192 220 262
#     4  10  19  30  46  66  88 117 151 188 230 271
#     4  10  18  29  45  64  89 118 149 186 226 271
#
# _framework density 20.607652000000002
#
# number of rings (size 3 to 8) (size 9 to 14) (size 15 to 20)
#    0.000    2.750    1.250    2.250    0.000    3.000 
#    0.000    1.250    0.000   11.250    0.000    0.000 
#    0.000    0.000    0.000    0.000    0.000    0.500 
#
# Total GULP energy -178472.348732 kJ/mol
# GULP energy per Si atom -5577.260898 kJ/mol
# Density = 2.056075 g / cm^3
# Si number density = 20.607652 Si / 1000 Ang^3
#
#
#
# Elastic Constant Matrix: (Units=GPa)
#
#
# Indices 1 2 3 4 5 6 
#
# 1 187.6980 0.6951 46.9982 0.0000 -3.9815 0.0000
# 2 0.6951 59.9086 -2.0700 0.0000 7.1541 0.0000
# 3 46.9982 -2.0700 33.6751 0.0000 9.9036 0.0000
# 4 0.0000 0.0000 0.0000 6.6044 0.0000 -7.2798
# 5 -3.9815 7.1541 9.9036 0.0000 29.2047 0.0000
# 6 0.0000 0.0000 0.0000 -7.2798 0.0000 10.0635
#
#
#
# Elastic Compliance Matrix: (Units=1/GPa)
#
#
# Indices 1 2 3 4 5 6 
#
# 1 0.009200 -0.001415 -0.014882 0.000000 0.006648 0.000000
# 2 -0.001415 0.017612 0.004868 0.000000 -0.006158 0.000000
# 3 -0.014882 0.004868 0.057441 0.000000 -0.022700 0.000000
# 4 0.000000 0.000000 0.000000 0.747206 0.000000 0.540516
# 5 0.006648 -0.006158 -0.022700 0.000000 0.044354 0.000000
# 6 0.000000 0.000000 0.000000 0.540516 0.000000 0.490369
#
#
# Mechanical properties :
#
#
# Convention : Reuss Voigt Hill
#
# Bulk Modulus (GPa) = 16.28776 41.39202 28.83989
# Shear Modulus (GPa) = 3.54734 24.88507 14.21621
#
# Velocity S-wave (km/s) = 1.31343 3.47877 2.62935
# Velocity P-wave (km/s) = 3.19704 6.02206 4.82111
#
# Compressibility (1/GPa) = 0.06139579
#
# Stress axis : x y z
#
# Youngs Moduli (GPa) = 108.69091 56.77910 17.40911
#
# Poissons Ratio (x) = 0.08033 0.25909
# Poissons Ratio (y) = 0.15378 -0.08475
# Poissons Ratio (z) = 1.61758 -0.27642
#
# Static dielectric constant tensor:
#      x y z
#    x 1.755350 0.000000 0.004010 
#    y 0.000000 1.806540 0.000000 
#    z 0.004010 0.000000 1.702920 
# 
# From -- ./inp_files/61743.got.cif
#   From: 2010.05.17/outbox.cif.g08.bks.cpg/sg11_31_cif.got.tgz:61743.got - 2010.06.03 12:22:45.
