data_PCOD9156261
_publ_section_title
;
Structure prediction by ZEFSAII (Michael W. Deem and Ramdas Pophale) SiO2 
 PCOD9156261
Probable space group: P 21/M
;
_chemical_formula_sum "Si O2"
_cell_formula_units_Z 32
_cell_length_a 13.907413
_cell_length_b 8.925291
_cell_length_c 17.601681
_cell_angle_alpha 90.000000
_cell_angle_beta 78.362428
_cell_angle_gamma 90.000000
_cell_volume 2139.942625
_symmetry_space_group_name_H-M "P 21/M"
_symmetry_group_IT_number 11
_symmetry_cell_setting 'monoclinic'
loop_
_space_group_symop_operation_xyz
x,y,z
-x,1/2+y,-z
-x,-y,-z
x,1/2-y,z
loop_
_atom_site_type_symbol
_atom_site_label
_atom_site_fract_x
_atom_site_fract_y
_atom_site_fract_z
Si Si1 0.247671 0.576066 0.817767
Si Si2 0.392199 0.570488 0.506273
Si Si3 0.893143 0.069712 0.025925
Si Si4 0.376325 0.430306 0.184183
Si Si5 0.270013 0.071224 0.054640
Si Si6 0.648577 0.928608 0.335511
Si Si7 0.577448 0.070484 0.665451
Si Si8 0.415932 0.924788 0.918644
O O1 0.234274 0.750000 0.798012
O O2 0.156738 0.527728 0.885166
O O3 0.274836 0.480106 0.740280
O O4 0.340610 0.569357 0.860033
O O5 0.500000 0.500000 0.500000
O O6 0.397286 0.750000 0.512051
O O7 0.331758 0.503268 0.585825
O O8 0.367863 0.533625 0.422574
O O9 0.895863 0.250000 0.022489
O O10 0.820282 0.009929 0.972032
O O11 0.000000 0.000000 0.000000
O O12 0.378715 0.250000 0.189663
O O13 0.290420 0.470983 0.138864
O O14 0.375666 0.498101 0.267906
O O15 0.478977 0.476291 0.128121
O O16 0.257425 0.250000 0.051670
O O17 0.366832 0.023387 0.991806
O O18 0.647203 0.750000 0.343919
O O19 0.537833 0.975191 0.325967
O O20 0.577518 0.250000 0.673762
O O21 0.422089 0.750000 0.942001
#
# Coordination Sequence:
#
# PCOD9156261 Si02
#       8
#     4   4   4   4   4   4   4   4
#     4   9  17  29  46  66  89 117 148 184 225 266
#     4   9  17  28  40  57  82 115 154 191 226 263
#     4  10  21  37  54  70  89 115 146 184 233 277
#     4  10  19  29  42  61  88 121 155 187 221 261
#     4  10  20  31  45  66  88 115 150 186 224 267
#     4  10  18  27  41  63  87 116 154 189 223 263
#     4   9  18  28  39  59  85 118 157 190 223 259
#     4   9  17  29  42  60  87 120 154 186 223 260
#
# _framework density 14.953671
#
# number of rings (size 3 to 8) (size 9 to 14) (size 15 to 20)
#    0.000    2.500    1.250    3.375    0.000    6.500 
#    0.000    0.000    0.000    0.000    0.000    0.000 
#    0.000    1.000    0.000    3.250    0.000    4.000 
#
# Total GULP energy -178293.463746 kJ/mol
# GULP energy per Si atom -5571.670742 kJ/mol
# Density = 1.491964 g / cm^3
# Si number density = 14.953671 Si / 1000 Ang^3
#
#
#
# Elastic Constant Matrix: (Units=GPa)
#
#
# Indices 1 2 3 4 5 6 
#
# 1 47.5147 25.2358 54.5973 0.0000 -0.3614 0.0000
# 2 25.2358 44.8997 52.4448 0.0000 3.4887 0.0000
# 3 54.5973 52.4448 137.7015 0.0000 12.7122 0.0000
# 4 0.0000 0.0000 0.0000 29.1647 0.0000 1.0191
# 5 -0.3614 3.4887 12.7122 0.0000 17.7858 0.0000
# 6 0.0000 0.0000 0.0000 1.0191 0.0000 16.8127
#
#
#
# Elastic Compliance Matrix: (Units=1/GPa)
#
#
# Indices 1 2 3 4 5 6 
#
# 1 0.042615 -0.006873 -0.015507 0.000000 0.013297 0.000000
# 2 -0.006873 0.041406 -0.013150 0.000000 0.001137 0.000000
# 3 -0.015507 -0.013150 0.019496 0.000000 -0.011670 0.000000
# 4 0.000000 0.000000 0.000000 0.034361 0.000000 -0.002083
# 5 0.013297 0.001137 -0.011670 0.000000 0.064613 0.000000
# 6 0.000000 0.000000 0.000000 -0.002083 0.000000 0.059605
#
#
# Mechanical properties :
#
#
# Convention : Reuss Voigt Hill
#
# Bulk Modulus (GPa) = 30.80818 54.96352 42.88585
# Shear Modulus (GPa) = 14.53599 19.27517 16.90558
#
# Velocity S-wave (km/s) = 3.12118 3.59415 3.36598
# Velocity P-wave (km/s) = 5.79967 7.35252 6.62177
#
# Compressibility (1/GPa) = 0.03245892
#
# Stress axis : x y z
#
# Youngs Moduli (GPa) = 23.46566 24.15118 51.29293
#
# Poissons Ratio (x) = 0.16598 0.79538
# Poissons Ratio (y) = 0.16127 0.67449
# Poissons Ratio (z) = 0.36387 0.31758
#
# Static dielectric constant tensor:
#      x y z
#    x 1.474430 0.000000 0.007780 
#    y 0.000000 1.494310 0.000000 
#    z 0.007780 0.000000 1.521670 
# 
# From -- ./inp_files/59869.got.cif
#   From: 2010.05.17/outbox.cif.g08.bks.cpg/sg11_30_cif.got.tgz:59869.got - 2010.06.03 12:22:45.
