data_PCOD9156900
_publ_section_title
;
Structure prediction by ZEFSAII (Michael W. Deem and Ramdas Pophale) SiO2 
 PCOD9156900
Probable space group: P 21/M
;
_chemical_formula_sum "Si O2"
_cell_formula_units_Z 32
_cell_length_a 14.121437
_cell_length_b 14.843088
_cell_length_c 19.279195
_cell_angle_alpha 90.000000
_cell_angle_beta 21.111004
_cell_angle_gamma 90.000000
_cell_volume 1455.481865
_symmetry_space_group_name_H-M "P 21/M"
_symmetry_group_IT_number 11
_symmetry_cell_setting 'monoclinic'
loop_
_space_group_symop_operation_xyz
x,y,z
-x,1/2+y,-z
-x,-y,-z
x,1/2-y,z
loop_
_atom_site_type_symbol
_atom_site_label
_atom_site_fract_x
_atom_site_fract_y
_atom_site_fract_z
Si Si1 0.060743 0.572787 0.740404
Si Si2 0.493517 0.015724 0.254805
Si Si3 0.786304 0.347280 0.225427
Si Si4 0.515850 0.647342 0.348668
Si Si5 0.955679 0.144761 0.950986
Si Si6 0.348718 0.852210 0.080430
Si Si7 0.226846 0.389253 0.561258
Si Si8 0.459191 0.526399 0.128678
O O1 0.117383 0.586552 0.782100
O O2 0.229066 0.642370 0.579356
O O3 0.185789 0.480108 0.631002
O O4 0.754269 0.567542 0.932749
O O5 0.755207 0.073362 0.055079
O O6 0.321807 0.083287 0.419104
O O7 0.542928 0.928753 0.270492
O O8 0.361575 0.984317 0.273774
O O9 0.884918 0.250000 0.180738
O O10 0.892800 0.365993 0.076114
O O11 0.473882 0.343976 0.428753
O O12 0.566097 0.750000 0.289959
O O13 0.732132 0.628337 0.261440
O O14 0.904490 0.250000 0.966518
O O15 0.455070 0.750000 0.012715
O O16 0.313755 0.903844 0.177822
O O17 0.057849 0.845668 0.246476
O O18 0.516134 0.926718 0.922865
#
# Coordination Sequence:
#
# PCOD9156900 Si02
#       8
#     4   4   4   4   4   4   4   4
#     4  10  20  34  52  79 115 150 186 232 279 330
#     4  10  20  36  58  82 115 147 185 240 287 337
#     4  10  18  30  51  79 111 146 185 226 274 333
#     4  10  20  33  51  80 118 157 194 231 278 336
#     4   9  19  33  50  77 114 156 194 228 276 336
#     4  10  22  42  63  83 112 147 189 240 285 335
#     4   9  20  36  56  81 111 148 187 230 283 334
#     4  10  23  40  61  87 111 148 194 232 284 343
#
# _framework density 21.985847
#
# number of rings (size 3 to 8) (size 9 to 14) (size 15 to 20)
#    0.000    2.250    0.000    2.250    0.000    7.000 
#    0.000    1.250    0.000    0.000    0.000    0.000 
#    0.000    0.000    0.000    0.000    0.000    0.000 
#
# Total GULP energy -178635.437403 kJ/mol
# GULP energy per Si atom -5582.357419 kJ/mol
# Density = 2.193581 g / cm^3
# Si number density = 21.985847 Si / 1000 Ang^3
#
#
#
# Elastic Constant Matrix: (Units=GPa)
#
#
# Indices 1 2 3 4 5 6 
#
# 1 63.8562 29.6715 1.6583 0.0000 3.0261 0.0000
# 2 29.6715 105.2679 12.1216 0.0000 -7.0768 0.0000
# 3 1.6583 12.1216 32.7349 0.0000 1.6538 0.0000
# 4 0.0000 0.0000 0.0000 -3.8903 0.0000 12.1346
# 5 3.0261 -7.0768 1.6538 0.0000 21.0899 0.0000
# 6 0.0000 0.0000 0.0000 12.1346 0.0000 -24.9463
#
#
#
# Elastic Compliance Matrix: (Units=1/GPa)
#
#
# Indices 1 2 3 4 5 6 
#
# 1 0.018488 -0.005687 0.001405 0.000000 -0.004671 0.000000
# 2 -0.005687 0.011957 -0.004401 0.000000 0.005173 0.000000
# 3 0.001405 -0.004401 0.032320 0.000000 -0.004213 0.000000
# 4 0.000000 0.000000 0.000000 0.496942 0.000000 0.241727
# 5 -0.004671 0.005173 -0.004213 0.000000 0.050153 0.000000
# 6 0.000000 0.000000 0.000000 0.241727 0.000000 0.077497
#
#
# Mechanical properties :
#
#
# Convention : Reuss Voigt Hill
#
# Bulk Modulus (GPa) = 22.02680 32.08466 27.05573
# Shear Modulus (GPa) = 6.94585 9.01114 7.97850
#
# Velocity S-wave (km/s) = 1.77935 2.02670 1.90704
# Velocity P-wave (km/s) = 3.77648 4.48349 4.14509
#
# Compressibility (1/GPa) = 0.04539924
#
# Stress axis : x y z
#
# Youngs Moduli (GPa) = 54.09053 83.63256 30.94084
#
# Poissons Ratio (x) = 0.47561 -0.04348
# Poissons Ratio (y) = 0.30761 0.13617
# Poissons Ratio (z) = -0.07601 0.36806
#
# Static dielectric constant tensor:
#      x y z
#    x 1.806270 0.000000 0.003790 
#    y 0.000000 1.907050 0.000000 
#    z 0.003790 0.000000 1.870570 
# 
# From -- ./inp_files/65758.got.cif
#   From: 2010.05.17/outbox.cif.g08.bks.cpg/sg11_33_cif.got.tgz:65758.got - 2010.06.03 12:22:45.
