data_PCOD9156207
_publ_section_title
;
Structure prediction by ZEFSAII (Michael W. Deem and Ramdas Pophale) SiO2 
 PCOD9156207
Probable space group: P 21/M
;
_chemical_formula_sum "Si O2"
_cell_formula_units_Z 32
_cell_length_a 16.842907
_cell_length_b 7.874586
_cell_length_c 24.619655
_cell_angle_alpha 90.000000
_cell_angle_beta 29.040338
_cell_angle_gamma 90.000000
_cell_volume 1585.072441
_symmetry_space_group_name_H-M "P 21/M"
_symmetry_group_IT_number 11
_symmetry_cell_setting 'monoclinic'
loop_
_space_group_symop_operation_xyz
x,y,z
-x,1/2+y,-z
-x,-y,-z
x,1/2-y,z
loop_
_atom_site_type_symbol
_atom_site_label
_atom_site_fract_x
_atom_site_fract_y
_atom_site_fract_z
Si Si1 0.537839 0.958445 0.600397
Si Si2 0.515746 0.947639 0.734569
Si Si3 0.883137 0.052730 0.521155
Si Si4 0.082942 0.044401 0.617600
Si Si5 0.046171 0.547706 0.194113
Si Si6 0.013328 0.056203 0.053153
Si Si7 0.741814 0.445313 0.303865
Si Si8 0.289640 0.941849 0.961203
O O1 0.529015 0.750000 0.605469
O O2 0.478473 0.016659 0.696172
O O3 0.728365 0.005432 0.483505
O O4 0.431724 0.018892 0.612233
O O5 0.464019 0.750000 0.764136
O O6 0.710718 0.955536 0.624365
O O7 0.429723 0.023487 0.839615
O O8 0.843275 0.250000 0.549835
O O9 0.962089 0.019690 0.415014
O O10 0.000000 0.000000 0.500000
O O11 0.079408 0.250000 0.618615
O O12 0.973104 0.983379 0.733257
O O13 0.071652 0.750000 0.180619
O O14 0.870459 0.523039 0.269272
O O15 0.197884 0.476253 0.068055
O O16 0.074238 0.250000 0.020289
O O17 0.842794 0.052225 0.186824
O O18 0.138160 0.937679 0.010068
O O19 0.000000 0.000000 0.000000
O O20 0.718298 0.250000 0.334864
O O21 0.342863 0.750000 0.944256
#
# Coordination Sequence:
#
# PCOD9156207 Si02
#       8
#     4   4   4   4   4   4   4   4
#     4   8  14  26  44  64  90 129 171 210 254 295
#     4   9  17  32  53  75 102 133 164 202 253 305
#     4  11  22  37  59  85 107 125 152 192 242 299
#     4   9  18  34  53  73 101 135 168 203 247 297
#     4   9  18  31  47  70 100 136 176 212 246 287
#     4  10  18  26  38  58  87 125 171 222 266 300
#     4   9  17  28  41  60  90 131 177 217 253 293
#     4   9  17  30  48  69  96 132 169 205 249 299
#
# _framework density 20.188351999999998
#
# number of rings (size 3 to 8) (size 9 to 14) (size 15 to 20)
#    0.000    2.750    0.000    3.000    0.000    4.000 
#    0.000    2.500    0.000    0.750    0.000    0.000 
#    0.000    0.000    0.000    0.000    0.000    0.000 
#
# Total GULP energy -178261.424803 kJ/mol
# GULP energy per Si atom -5570.669525 kJ/mol
# Density = 2.014240 g / cm^3
# Si number density = 20.188352 Si / 1000 Ang^3
#
#
#
# Elastic Constant Matrix: (Units=GPa)
#
#
# Indices 1 2 3 4 5 6 
#
# 1 62.3902 -11.8655 31.2796 0.0000 20.1454 0.0000
# 2 -11.8655 35.9112 0.8298 0.0000 3.5754 0.0000
# 3 31.2796 0.8298 90.6731 0.0000 36.0463 0.0000
# 4 0.0000 0.0000 0.0000 8.0019 0.0000 -1.3519
# 5 20.1454 3.5754 36.0463 0.0000 29.3634 0.0000
# 6 0.0000 0.0000 0.0000 -1.3519 0.0000 14.5509
#
#
#
# Elastic Compliance Matrix: (Units=1/GPa)
#
#
# Indices 1 2 3 4 5 6 
#
# 1 0.023684 0.009295 -0.002629 0.000000 -0.014154 0.000000
# 2 0.009295 0.032055 0.001146 0.000000 -0.011688 0.000000
# 3 -0.002629 0.001146 0.022000 0.000000 -0.025343 0.000000
# 4 0.000000 0.000000 0.000000 0.126963 0.000000 0.011796
# 5 -0.014154 -0.011688 -0.025343 0.000000 0.076301 0.000000
# 6 0.000000 0.000000 0.000000 0.011796 0.000000 0.069820
#
#
# Mechanical properties :
#
#
# Convention : Reuss Voigt Hill
#
# Bulk Modulus (GPa) = 10.71059 25.49580 18.10320
# Shear Modulus (GPa) = 13.64934 21.63196 17.64065
#
# Velocity S-wave (km/s) = 2.60301 3.27694 2.95922
# Velocity P-wave (km/s) = 3.78828 5.19366 4.54562
#
# Compressibility (1/GPa) = 0.09336554
#
# Stress axis : x y z
#
# Youngs Moduli (GPa) = 42.22246 31.19641 45.45486
#
# Poissons Ratio (x) = -0.28999 0.11948
# Poissons Ratio (y) = -0.39248 -0.05211
# Poissons Ratio (z) = 0.11098 -0.03576
#
# Static dielectric constant tensor:
#      x y z
#    x 1.699770 0.000000 0.022820 
#    y 0.000000 1.750480 0.000000 
#    z 0.022820 0.000000 1.806180 
# 
# From -- ./inp_files/69431.got.cif
#   From: 2010.05.17/outbox.cif.g08.bks.cpg/sg11_35_cif.got.tgz:69431.got - 2010.06.03 12:22:45.
