data_PCOD9156909
_publ_section_title
;
Structure prediction by ZEFSAII (Michael W. Deem and Ramdas Pophale) SiO2 
 PCOD9156909
Probable space group: P 21/M
;
_chemical_formula_sum "Si O2"
_cell_formula_units_Z 28
_cell_length_a 21.363608
_cell_length_b 8.937216
_cell_length_c 23.858592
_cell_angle_alpha 90.000000
_cell_angle_beta 161.856796
_cell_angle_gamma 90.000000
_cell_volume 1418.504186
_symmetry_space_group_name_H-M "P 21/M"
_symmetry_group_IT_number 11
_symmetry_cell_setting 'monoclinic'
loop_
_space_group_symop_operation_xyz
x,y,z
-x,1/2+y,-z
-x,-y,-z
x,1/2-y,z
loop_
_atom_site_type_symbol
_atom_site_label
_atom_site_fract_x
_atom_site_fract_y
_atom_site_fract_z
Si Si1 0.762204 0.928220 0.567622
Si Si2 0.376106 0.067596 0.176109
Si Si3 0.563365 0.419732 0.497117
Si Si4 0.982135 0.069940 0.657550
Si Si5 0.403960 0.930922 0.743839
Si Si6 0.864123 0.918284 0.929673
Si Si7 0.429833 0.430274 0.998273
O O1 0.766517 0.750000 0.572712
O O2 0.566390 0.988616 0.367241
O O3 0.728442 0.994122 0.600854
O O4 0.942184 0.994354 0.683598
O O5 0.392600 0.250000 0.196082
O O6 0.410284 0.032617 0.139913
O O7 0.180646 0.021128 0.045708
O O8 0.500000 0.500000 0.500000
O O9 0.628471 0.250000 0.562909
O O10 0.358186 0.414380 0.286489
O O11 0.967408 0.250000 0.652605
O O12 0.803094 0.022823 0.462585
O O13 0.198144 0.034855 0.815636
O O14 0.397853 0.750000 0.741196
O O15 0.441001 0.984483 0.838178
O O16 0.942143 0.750000 0.001378
O O17 0.000000 0.000000 0.000000
O O18 0.446441 0.250000 0.008862
O O19 0.500000 0.500000 0.000000
#
# Coordination Sequence:
#
# PCOD9156909 Si02
#       7
#     4   4   4   4   4   4   4
#     4  10  18  30  52  78 103 133 173 220 269 319
#     4   8  15  31  52  71  97 135 177 217 258 312
#     4  10  20  35  52  73 104 141 181 225 271 322
#     4   9  18  35  56  77 104 140 181 219 263 322
#     4   8  15  32  56  76 100 136 179 220 260 315
#     4   9  18  31  48  71 102 135 171 217 267 319
#     4  10  21  36  55  80 110 142 176 218 271 325
#
# _framework density 19.739103
#
# number of rings (size 3 to 8) (size 9 to 14) (size 15 to 20)
#    0.000    2.857    0.000    3.429    0.000    4.000 
#    2.571    2.857    0.000    0.000    0.000    0.000 
#    0.000    0.000    0.000    0.000    0.000    0.000 
#
# Total GULP energy -156035.812775 kJ/mol
# GULP energy per Si atom -5572.707599 kJ/mol
# Density = 1.969418 g / cm^3
# Si number density = 19.739103 Si / 1000 Ang^3
#
#
#
# Elastic Constant Matrix: (Units=GPa)
#
#
# Indices 1 2 3 4 5 6 
#
# 1 189.5892 61.2766 39.5188 0.0000 17.4743 0.0000
# 2 61.2766 58.2000 23.2022 0.0000 15.3087 0.0000
# 3 39.5188 23.2022 64.5313 0.0000 8.5333 0.0000
# 4 0.0000 0.0000 0.0000 12.4515 0.0000 4.5556
# 5 17.4743 15.3087 8.5333 0.0000 33.1306 0.0000
# 6 0.0000 0.0000 0.0000 4.5556 0.0000 36.9887
#
#
#
# Elastic Compliance Matrix: (Units=1/GPa)
#
#
# Indices 1 2 3 4 5 6 
#
# 1 0.008269 -0.007757 -0.002248 0.000000 -0.000198 0.000000
# 2 -0.007757 0.029414 -0.004730 0.000000 -0.008281 0.000000
# 3 -0.002248 -0.004730 0.018767 0.000000 -0.001462 0.000000
# 4 0.000000 0.000000 0.000000 0.084102 0.000000 -0.010358
# 5 -0.000198 -0.008281 -0.001462 0.000000 0.034491 0.000000
# 6 0.000000 0.000000 0.000000 -0.010358 0.000000 0.028311
#
#
# Mechanical properties :
#
#
# Convention : Reuss Voigt Hill
#
# Bulk Modulus (GPa) = 37.06722 62.25729 49.66225
# Shear Modulus (GPa) = 20.67673 29.06901 24.87287
#
# Velocity S-wave (km/s) = 3.24002 3.84169 3.55361
# Velocity P-wave (km/s) = 5.72855 7.16147 6.48471
#
# Compressibility (1/GPa) = 0.02697802
#
# Stress axis : x y z
#
# Youngs Moduli (GPa) = 120.93778 33.99780 53.28417
#
# Poissons Ratio (x) = 0.26374 0.11980
# Poissons Ratio (y) = 0.93817 0.25203
# Poissons Ratio (z) = 0.27192 0.16081
#
# Static dielectric constant tensor:
#      x y z
#    x 1.727450 0.000000 -0.019000 
#    y 0.000000 1.669010 0.000000 
#    z -0.019000 0.000000 1.735600 
# 
# From -- ./inp_files/66672.got.cif
#   From: 2010.05.17/outbox.cif.g08.bks.cpg/sg11_34_cif.got.tgz:66672.got - 2010.06.03 12:22:45.
