data_PCOD9156080
_publ_section_title
;
Structure prediction by ZEFSAII (Michael W. Deem and Ramdas Pophale) SiO2 
 PCOD9156080
Probable space group: P 21/M
;
_chemical_formula_sum "Si O2"
_cell_formula_units_Z 32
_cell_length_a 12.100987
_cell_length_b 17.785300
_cell_length_c 23.964207
_cell_angle_alpha 90.000000
_cell_angle_beta 157.941480
_cell_angle_gamma 90.000000
_cell_volume 1936.942558
_symmetry_space_group_name_H-M "P 21/M"
_symmetry_group_IT_number 11
_symmetry_cell_setting 'monoclinic'
loop_
_space_group_symop_operation_xyz
x,y,z
-x,1/2+y,-z
-x,-y,-z
x,1/2-y,z
loop_
_atom_site_type_symbol
_atom_site_label
_atom_site_fract_x
_atom_site_fract_y
_atom_site_fract_z
Si Si1 0.802034 0.468415 0.733593
Si Si2 0.075110 0.570906 0.763982
Si Si3 0.859039 0.669174 0.824907
Si Si4 0.328602 0.599413 0.519544
Si Si5 0.899968 0.480398 0.014789
Si Si6 0.283824 0.450569 0.773414
Si Si7 0.398794 0.835417 0.995064
Si Si8 0.463647 0.659474 0.461717
O O1 0.510403 0.521043 0.601230
O O2 0.711653 0.387089 0.667831
O O3 0.992218 0.513120 0.775666
O O4 0.965063 0.472292 0.869652
O O5 0.170067 0.520245 0.756841
O O6 0.341779 0.622582 0.910488
O O7 0.791970 0.623025 0.618540
O O8 0.889130 0.750000 0.865807
O O9 0.531100 0.652981 0.651335
O O10 0.973940 0.602652 0.915927
O O11 0.072531 0.667808 0.870582
O O12 0.319325 0.635006 0.453299
O O13 0.003763 0.584444 0.389496
O O14 0.549560 0.476268 0.858720
O O15 0.000000 0.500000 0.000000
O O16 0.412644 0.387596 0.875942
O O17 0.507942 0.750000 0.041517
O O18 0.468496 0.750000 0.458037
#
# Coordination Sequence:
#
# PCOD9156080 Si02
#       8
#     4   4   4   4   4   4   4   4
#     4  10  18  35  53  75 108 141 177 208 265 331
#     4  11  17  32  53  76 112 148 171 202 268 340
#     4   9  17  33  55  77 106 141 175 217 270 318
#     4  10  17  30  53  82 107 138 174 212 265 324
#     4  10  22  39  57  76  98 143 193 227 265 317
#     4  11  20  32  53  80 110 139 176 228 265 312
#     4  10  19  29  46  77 112 143 171 211 266 318
#     4  11  19  29  51  83 117 146 171 208 263 334
#
# _framework density 16.520883000000001
#
# number of rings (size 3 to 8) (size 9 to 14) (size 15 to 20)
#    0.000    1.750    7.500    1.875    0.000    1.000 
#    0.000    3.125    0.000    1.500    0.000    0.000 
#    0.000    0.000    0.000    0.000    0.000    0.000 
#
# Total GULP energy -178374.588905 kJ/mol
# GULP energy per Si atom -5574.205903 kJ/mol
# Density = 1.648328 g / cm^3
# Si number density = 16.520883 Si / 1000 Ang^3
#
#
#
# Elastic Constant Matrix: (Units=GPa)
#
#
# Indices 1 2 3 4 5 6 
#
# 1 68.8006 27.3853 32.0001 0.0000 3.0939 0.0000
# 2 27.3853 90.0306 15.5533 0.0000 -3.0239 0.0000
# 3 32.0001 15.5533 68.4047 0.0000 16.6031 0.0000
# 4 0.0000 0.0000 0.0000 12.0684 0.0000 4.8874
# 5 3.0939 -3.0239 16.6031 0.0000 14.4623 0.0000
# 6 0.0000 0.0000 0.0000 4.8874 0.0000 8.3552
#
#
#
# Elastic Compliance Matrix: (Units=1/GPa)
#
#
# Indices 1 2 3 4 5 6 
#
# 1 0.020751 -0.004315 -0.010300 0.000000 0.006483 0.000000
# 2 -0.004315 0.013083 -0.002556 0.000000 0.006593 0.000000
# 3 -0.010300 -0.002556 0.027190 0.000000 -0.029546 0.000000
# 4 0.000000 0.000000 0.000000 0.108583 0.000000 -0.063515
# 5 0.006483 0.006593 -0.029546 0.000000 0.103056 0.000000
# 6 0.000000 0.000000 0.000000 -0.063515 0.000000 0.156839
#
#
# Mechanical properties :
#
#
# Convention : Reuss Voigt Hill
#
# Bulk Modulus (GPa) = 37.47966 41.90146 39.69056
# Shear Modulus (GPa) = 10.57665 17.13034 13.85349
#
# Velocity S-wave (km/s) = 2.53296 3.22357 2.89890
# Velocity P-wave (km/s) = 5.59375 6.26682 5.93982
#
# Compressibility (1/GPa) = 0.02668114
#
# Stress axis : x y z
#
# Youngs Moduli (GPa) = 48.18934 76.43528 36.77828
#
# Poissons Ratio (x) = 0.32982 0.37882
# Poissons Ratio (y) = 0.20794 0.09402
# Poissons Ratio (z) = 0.49636 0.19541
#
# Static dielectric constant tensor:
#      x y z
#    x 1.537400 0.000000 0.010140 
#    y 0.000000 1.574080 0.000000 
#    z 0.010140 0.000000 1.598080 
# 
# From -- ./inp_files/68700.got.cif
#   From: 2010.05.17/outbox.cif.g08.bks.cpg/sg11_35_cif.got.tgz:68700.got - 2010.06.03 12:22:45.
