data_PCOD9156798
_publ_section_title
;
Structure prediction by ZEFSAII (Michael W. Deem and Ramdas Pophale) SiO2 
 PCOD9156798
Probable space group: P 21/M
;
_chemical_formula_sum "Si O2"
_cell_formula_units_Z 32
_cell_length_a 11.938726
_cell_length_b 9.113642
_cell_length_c 21.592708
_cell_angle_alpha 90.000000
_cell_angle_beta 49.569433
_cell_angle_gamma 90.000000
_cell_volume 1788.345896
_symmetry_space_group_name_H-M "P 21/M"
_symmetry_group_IT_number 11
_symmetry_cell_setting 'monoclinic'
loop_
_space_group_symop_operation_xyz
x,y,z
-x,1/2+y,-z
-x,-y,-z
x,1/2-y,z
loop_
_atom_site_type_symbol
_atom_site_label
_atom_site_fract_x
_atom_site_fract_y
_atom_site_fract_z
Si Si1 0.039558 0.918409 0.667228
Si Si2 0.635146 0.920055 0.225392
Si Si3 0.362543 0.074490 0.269516
Si Si4 0.865433 0.923345 0.249146
Si Si5 0.804026 0.077367 0.922105
Si Si6 0.703640 0.581883 0.840479
Si Si7 0.057225 0.574375 0.416987
Si Si8 0.851880 0.580049 0.030796
O O1 0.074814 0.750000 0.639612
O O2 0.871919 0.920541 0.754085
O O3 0.136392 0.982759 0.687908
O O4 0.039377 0.018497 0.606567
O O5 0.586110 0.750000 0.249980
O O6 0.736092 0.959260 0.247816
O O7 0.739169 0.926218 0.127968
O O8 0.499558 0.025829 0.261314
O O9 0.336529 0.250000 0.280757
O O10 0.387428 0.035314 0.187688
O O11 0.219671 0.988165 0.344293
O O12 0.857839 0.750000 0.266615
O O13 0.024414 0.945482 0.159273
O O14 0.779680 0.250000 0.938344
O O15 0.705619 0.015293 0.901211
O O16 0.786601 0.995224 0.993103
O O17 0.666617 0.750000 0.869564
O O18 0.057275 0.750000 0.421026
O O19 0.000000 0.500000 0.500000
O O20 0.885419 0.750000 0.005210
O O21 0.000000 0.500000 0.000000
#
# Coordination Sequence:
#
# PCOD9156798 Si02
#       8
#     4   4   4   4   4   4   4   4
#     4   9  17  30  50  80 110 136 174 219 260 307
#     4  10  21  36  52  74 106 144 182 221 270 323
#     4  10  21  37  56  81 109 138 178 219 261 319
#     4   9  17  31  49  73 105 140 180 222 265 315
#     4  10  18  30  49  74 100 131 176 227 274 318
#     4   8  16  31  49  71 100 133 170 218 266 312
#     4  11  21  36  60  87 114 143 172 211 259 308
#     4  11  21  34  50  72 103 138 180 228 274 319
#
# _framework density 17.893630000000002
#
# number of rings (size 3 to 8) (size 9 to 14) (size 15 to 20)
#    0.000    2.250    1.250    3.375    0.000    5.500 
#    0.000    0.625    0.000    0.750    0.000    0.000 
#    0.000    0.000    0.000    0.000    0.000    0.000 
#
# Total GULP energy -178561.665275 kJ/mol
# GULP energy per Si atom -5580.052040 kJ/mol
# Density = 1.785290 g / cm^3
# Si number density = 17.893630 Si / 1000 Ang^3
#
#
#
# Elastic Constant Matrix: (Units=GPa)
#
#
# Indices 1 2 3 4 5 6 
#
# 1 99.9730 60.8440 27.5613 0.0000 21.0132 0.0000
# 2 60.8440 115.5684 45.0609 0.0000 21.2264 0.0000
# 3 27.5613 45.0609 41.3119 0.0000 21.7514 0.0000
# 4 0.0000 0.0000 0.0000 24.7228 0.0000 7.5011
# 5 21.0132 21.2264 21.7514 0.0000 24.1296 0.0000
# 6 0.0000 0.0000 0.0000 7.5011 0.0000 32.7622
#
#
#
# Elastic Compliance Matrix: (Units=1/GPa)
#
#
# Indices 1 2 3 4 5 6 
#
# 1 0.015960 -0.007762 0.002934 0.000000 -0.009715 0.000000
# 2 -0.007762 0.018944 -0.019546 0.000000 0.007715 0.000000
# 3 0.002934 -0.019546 0.068257 0.000000 -0.046890 0.000000
# 4 0.000000 0.000000 0.000000 0.043468 0.000000 -0.009952
# 5 -0.009715 0.007715 -0.046890 0.000000 0.085386 0.000000
# 6 0.000000 0.000000 0.000000 -0.009952 0.000000 0.032802
#
#
# Mechanical properties :
#
#
# Convention : Reuss Voigt Hill
#
# Bulk Modulus (GPa) = 18.37821 58.19841 38.28831
# Shear Modulus (GPa) = 15.07374 24.54871 19.81123
#
# Velocity S-wave (km/s) = 2.90558 3.70797 3.33102
# Velocity P-wave (km/s) = 4.64215 7.13634 6.01984
#
# Compressibility (1/GPa) = 0.05441226
#
# Stress axis : x y z
#
# Youngs Moduli (GPa) = 62.65681 52.78785 14.65044
#
# Poissons Ratio (x) = 0.40975 -0.04299
# Poissons Ratio (y) = 0.48635 0.28636
# Poissons Ratio (z) = -0.18385 1.03181
#
# Static dielectric constant tensor:
#      x y z
#    x 1.622320 0.000000 -0.002970 
#    y 0.000000 1.603560 0.000000 
#    z -0.002970 0.000000 1.600210 
# 
# From -- ./inp_files/42863.got.cif
#   From: 2010.05.17/outbox.cif.g08.bks.cpg/sg11_22_cif.got.tgz:42863.got - 2010.06.03 12:22:45.
