data_PCOD9156482
_publ_section_title
;
Structure prediction by ZEFSAII (Michael W. Deem and Ramdas Pophale) SiO2 
 PCOD9156482
Probable space group: P 21/M
;
_chemical_formula_sum "Si O2"
_cell_formula_units_Z 32
_cell_length_a 29.700331
_cell_length_b 8.721437
_cell_length_c 19.941857
_cell_angle_alpha 90.000000
_cell_angle_beta 23.717576
_cell_angle_gamma 90.000000
_cell_volume 2077.724360
_symmetry_space_group_name_H-M "P 21/M"
_symmetry_group_IT_number 11
_symmetry_cell_setting 'monoclinic'
loop_
_space_group_symop_operation_xyz
x,y,z
-x,1/2+y,-z
-x,-y,-z
x,1/2-y,z
loop_
_atom_site_type_symbol
_atom_site_label
_atom_site_fract_x
_atom_site_fract_y
_atom_site_fract_z
Si Si1 0.060760 0.431338 0.753962
Si Si2 0.270445 0.567059 0.392778
Si Si3 0.413958 0.565901 0.563673
Si Si4 0.608411 0.933513 0.891090
Si Si5 0.190044 0.429301 0.713475
Si Si6 0.487134 0.432129 0.174664
Si Si7 0.429225 0.569545 0.389564
Si Si8 0.832895 0.931278 0.100357
O O1 0.064867 0.250000 0.734917
O O2 0.151426 0.516201 0.584299
O O3 0.103387 0.455963 0.772260
O O4 0.934920 0.493004 0.921555
O O5 0.282483 0.750000 0.376207
O O6 0.290726 0.500461 0.290529
O O7 0.369900 0.497199 0.303847
O O8 0.500000 0.500000 0.500000
O O9 0.411464 0.750000 0.569694
O O10 0.449228 0.521836 0.439377
O O11 0.288961 0.502721 0.746521
O O12 0.608124 0.750000 0.889548
O O13 0.500000 0.000000 0.000000
O O14 0.587288 0.993954 0.994731
O O15 0.226537 0.250000 0.659262
O O16 0.297676 0.535773 0.557586
O O17 0.145923 0.454008 0.848642
O O18 0.486563 0.250000 0.166776
O O19 0.491964 0.478490 0.245726
O O20 0.451353 0.750000 0.352347
O O21 0.829481 0.750000 0.092338
#
# Coordination Sequence:
#
# PCOD9156482 Si02
#       8
#     4   4   4   4   4   4   4   4
#     4  11  20  30  44  65  93 126 161 196 231 273
#     4  11  20  30  43  62  89 125 163 197 234 274
#     4  10  21  37  55  73  94 121 153 194 242 289
#     4  10  18  29  43  60  85 120 159 197 234 273
#     4   9  18  30  44  62  90 124 157 192 231 272
#     4  11  19  29  44  64  91 122 158 197 234 275
#     4  10  19  30  47  70  93 121 158 195 234 280
#     4  10  20  33  48  68  91 121 157 194 235 279
#
# _framework density 15.401465999999999
#
# number of rings (size 3 to 8) (size 9 to 14) (size 15 to 20)
#    0.000    1.750    1.250    6.750    0.000    2.500 
#    0.000    0.000    0.000    0.000    0.000    0.000 
#    0.000    1.000    0.000    3.750    0.000    5.750 
#
# Total GULP energy -178530.307664 kJ/mol
# GULP energy per Si atom -5579.072114 kJ/mol
# Density = 1.536641 g / cm^3
# Si number density = 15.401466 Si / 1000 Ang^3
#
#
#
# Elastic Constant Matrix: (Units=GPa)
#
#
# Indices 1 2 3 4 5 6 
#
# 1 70.3434 44.0244 51.1985 0.0000 8.3379 0.0000
# 2 44.0244 109.3852 56.7256 0.0000 12.7040 0.0000
# 3 51.1985 56.7256 95.4877 0.0000 17.6372 0.0000
# 4 0.0000 0.0000 0.0000 27.4691 0.0000 4.2031
# 5 8.3379 12.7040 17.6372 0.0000 15.3462 0.0000
# 6 0.0000 0.0000 0.0000 4.2031 0.0000 20.1632
#
#
#
# Elastic Compliance Matrix: (Units=1/GPa)
#
#
# Indices 1 2 3 4 5 6 
#
# 1 0.024843 -0.004559 -0.011192 0.000000 0.003139 0.000000
# 2 -0.004559 0.014121 -0.005386 0.000000 -0.003023 0.000000
# 3 -0.011192 -0.005386 0.022503 0.000000 -0.015323 0.000000
# 4 0.000000 0.000000 0.000000 0.037604 0.000000 -0.007839
# 5 0.003139 -0.003023 -0.015323 0.000000 0.083570 0.000000
# 6 0.000000 0.000000 0.000000 -0.007839 0.000000 0.051229
#
#
# Mechanical properties :
#
#
# Convention : Reuss Voigt Hill
#
# Bulk Modulus (GPa) = 52.10053 64.34592 58.22323
# Shear Modulus (GPa) = 17.69647 20.81355 19.25501
#
# Velocity S-wave (km/s) = 3.39339 3.68013 3.53966
# Velocity P-wave (km/s) = 7.01820 7.74129 7.38860
#
# Compressibility (1/GPa) = 0.01919366
#
# Stress axis : x y z
#
# Youngs Moduli (GPa) = 40.25278 70.81597 44.43842
#
# Poissons Ratio (x) = 0.32288 0.49733
# Poissons Ratio (y) = 0.18353 0.23934
# Poissons Ratio (z) = 0.45049 0.38140
#
# Static dielectric constant tensor:
#      x y z
#    x 1.516440 0.000000 0.040800 
#    y 0.000000 1.515410 0.000000 
#    z 0.040800 0.000000 1.516860 
# 
# From -- ./inp_files/67392.got.cif
#   From: 2010.05.17/outbox.cif.g08.bks.cpg/sg11_34_cif.got.tgz:67392.got - 2010.06.03 12:22:45.
