data_PCOD9156127
_publ_section_title
;
Structure prediction by ZEFSAII (Michael W. Deem and Ramdas Pophale) SiO2 
 PCOD9156127
Probable space group: P 21/M
;
_chemical_formula_sum "Si O2"
_cell_formula_units_Z 32
_cell_length_a 19.152208
_cell_length_b 19.314354
_cell_length_c 10.438041
_cell_angle_alpha 90.000000
_cell_angle_beta 22.364616
_cell_angle_gamma 90.000000
_cell_volume 1469.169610
_symmetry_space_group_name_H-M "P 21/M"
_symmetry_group_IT_number 11
_symmetry_cell_setting 'monoclinic'
loop_
_space_group_symop_operation_xyz
x,y,z
-x,1/2+y,-z
-x,-y,-z
x,1/2-y,z
loop_
_atom_site_type_symbol
_atom_site_label
_atom_site_fract_x
_atom_site_fract_y
_atom_site_fract_z
Si Si1 0.047288 0.971131 0.217922
Si Si2 0.192292 0.670345 0.858246
Si Si3 0.543111 0.173731 0.371457
Si Si4 0.792342 0.826370 0.221015
Si Si5 0.625050 0.025056 0.166323
Si Si6 0.221203 0.827550 0.503703
Si Si7 0.696782 0.029414 0.706343
Si Si8 0.282436 0.472886 0.586637
O O1 0.073445 0.890368 0.128192
O O2 0.168652 0.990237 0.136991
O O3 0.836094 0.995418 0.571447
O O4 0.156052 0.012091 0.922526
O O5 0.123012 0.750000 0.992454
O O6 0.387884 0.666503 0.600367
O O7 0.221973 0.660169 0.656670
O O8 0.604858 0.250000 0.223111
O O9 0.328397 0.169054 0.703631
O O10 0.626909 0.108645 0.157313
O O11 0.757615 0.750000 0.336836
O O12 0.730729 0.890499 0.412260
O O13 0.006916 0.830689 0.830747
O O14 0.490643 0.005734 0.276041
O O15 0.500000 0.000000 0.500000
O O16 0.291274 0.750000 0.361325
O O17 0.317042 0.888201 0.262833
O O18 0.794039 0.013079 0.404493
O O19 0.500000 0.000000 0.000000
#
# Coordination Sequence:
#
# PCOD9156127 Si02
#       8
#     4   4   4   4   4   4   4   4
#     4  10  17  32  53  74 100 127 163 203 250 291
#     4   9  16  27  49  78 101 125 159 202 249 293
#     4   8  14  24  40  72 108 124 145 194 251 297
#     4   9  16  27  49  78 101 125 159 202 249 293
#     4   8  16  26  47  76  97 122 154 202 247 293
#     4  10  19  33  50  70  95 127 164 203 245 289
#     4  12  24  36  49  71 100 138 172 203 245 292
#     4  10  17  32  53  74 100 127 163 203 250 291
#
# _framework density 21.781010999999999
#
# number of rings (size 3 to 8) (size 9 to 14) (size 15 to 20)
#    0.000    2.500    2.500    1.125    0.000    0.000 
#    0.000    1.875    0.000    0.000    0.000    0.000 
#    0.000    0.000    0.000    0.000    0.000    0.000 
#
# Total GULP energy -178134.804323 kJ/mol
# GULP energy per Si atom -5566.712635 kJ/mol
# Density = 2.173144 g / cm^3
# Si number density = 21.781011 Si / 1000 Ang^3
#
#
#
# Elastic Constant Matrix: (Units=GPa)
#
#
# Indices 1 2 3 4 5 6 
#
# 1 107.6850 19.4814 29.6154 0.0000 -35.3783 0.0000
# 2 19.4814 117.8106 7.6566 0.0000 -5.3506 0.0000
# 3 29.6154 7.6566 66.2358 0.0000 -28.9376 0.0000
# 4 0.0000 0.0000 0.0000 13.9504 0.0000 -14.0123
# 5 -35.3783 -5.3506 -28.9376 0.0000 31.4823 0.0000
# 6 0.0000 0.0000 0.0000 -14.0123 0.0000 18.0793
#
#
#
# Elastic Compliance Matrix: (Units=1/GPa)
#
#
# Indices 1 2 3 4 5 6 
#
# 1 0.015125 -0.001771 0.001230 0.000000 0.017827 0.000000
# 2 -0.001771 0.008776 -0.000736 0.000000 -0.001176 0.000000
# 3 0.001230 -0.000736 0.025370 0.000000 0.024577 0.000000
# 4 0.000000 0.000000 0.000000 0.323602 0.000000 0.250807
# 5 0.017827 -0.001176 0.024577 0.000000 0.074187 0.000000
# 6 0.000000 0.000000 0.000000 0.250807 0.000000 0.249699
#
#
# Mechanical properties :
#
#
# Convention : Reuss Voigt Hill
#
# Bulk Modulus (GPa) = 21.40593 45.02644 33.21618
# Shear Modulus (GPa) = 6.99413 28.36759 17.68086
#
# Velocity S-wave (km/s) = 1.79390 3.61279 2.85222
# Velocity P-wave (km/s) = 3.76031 6.17416 5.11176
#
# Compressibility (1/GPa) = 0.04671602
#
# Stress axis : x y z
#
# Youngs Moduli (GPa) = 66.11500 113.95272 39.41700
#
# Poissons Ratio (x) = 0.20186 -0.04849
# Poissons Ratio (y) = 0.11712 0.02901
# Poissons Ratio (z) = -0.08134 0.08387
#
# Static dielectric constant tensor:
#      x y z
#    x 2.091570 0.000000 0.246720 
#    y 0.000000 1.879170 0.000000 
#    z 0.246720 0.000000 2.063340 
# 
# From -- ./inp_files/43557.got.cif
#   From: 2010.05.17/outbox.cif.g08.bks.cpg/sg11_22_cif.got.tgz:43557.got - 2010.06.03 12:22:45.
