data_PCOD9156521
_publ_section_title
;
Structure prediction by ZEFSAII (Michael W. Deem and Ramdas Pophale) SiO2 
 PCOD9156521
Probable space group: P 21/M
;
_chemical_formula_sum "Si O2"
_cell_formula_units_Z 24
_cell_length_a 12.476872
_cell_length_b 8.660894
_cell_length_c 22.186115
_cell_angle_alpha 90.000000
_cell_angle_beta 141.966506
_cell_angle_gamma 90.000000
_cell_volume 1477.122242
_symmetry_space_group_name_H-M "P 21/M"
_symmetry_group_IT_number 11
_symmetry_cell_setting 'monoclinic'
loop_
_space_group_symop_operation_xyz
x,y,z
-x,1/2+y,-z
-x,-y,-z
x,1/2-y,z
loop_
_atom_site_type_symbol
_atom_site_label
_atom_site_fract_x
_atom_site_fract_y
_atom_site_fract_z
Si Si1 0.071455 0.434504 0.967952
Si Si2 0.158897 0.434960 0.497215
Si Si3 0.516831 0.934985 0.440624
Si Si4 0.264530 0.065485 0.227598
Si Si5 0.231250 0.933063 0.660853
Si Si6 0.404889 0.933226 0.162576
O O1 0.066119 0.250000 0.965989
O O2 0.932747 0.501369 0.859396
O O3 0.268893 0.494134 0.054998
O O4 0.000000 0.500000 0.000000
O O5 0.167948 0.250000 0.513132
O O6 0.294726 0.471395 0.504998
O O7 0.213900 0.520777 0.582773
O O8 0.957447 0.472054 0.394963
O O9 0.497145 0.750000 0.431985
O O10 0.500000 0.000000 0.500000
O O11 0.374289 0.007858 0.332923
O O12 0.262770 0.250000 0.223217
O O13 0.354724 0.999986 0.206574
O O14 0.260039 0.750000 0.678407
O O15 0.396278 0.020831 0.760693
O O16 0.382587 0.750000 0.154410
#
# Coordination Sequence:
#
# PCOD9156521 Si02
#       6
#     4   4   4   4   4   4
#     4  10  18  29  45  67  95 128 161 198 241 294
#     4   9  19  33  48  68  97 129 164 204 245 290
#     4  11  22  36  52  72  98 132 170 208 246 287
#     4  11  20  32  48  69  96 129 164 204 246 292
#     4  10  18  29  48  72  97 129 164 199 244 295
#     4  11  19  29  45  70 101 132 161 197 243 296
#
# _framework density 16.247809
#
# number of rings (size 3 to 8) (size 9 to 14) (size 15 to 20)
#    0.000    1.667    1.667    7.500    0.000    1.333 
#    0.000    0.000    0.000    0.000    0.000    1.167 
#    0.000    0.000    0.000    0.000    0.000    0.000 
#
# Total GULP energy -133919.403212 kJ/mol
# GULP energy per Si atom -5579.975134 kJ/mol
# Density = 1.621083 g / cm^3
# Si number density = 16.247809 Si / 1000 Ang^3
#
#
#
# Elastic Constant Matrix: (Units=GPa)
#
#
# Indices 1 2 3 4 5 6 
#
# 1 71.7716 43.3803 59.3599 0.0000 11.2432 0.0000
# 2 43.3803 126.0946 61.9441 0.0000 14.4541 0.0000
# 3 59.3599 61.9441 130.6526 0.0000 27.6330 0.0000
# 4 0.0000 0.0000 0.0000 31.3265 0.0000 3.8413
# 5 11.2432 14.4541 27.6330 0.0000 24.7981 0.0000
# 6 0.0000 0.0000 0.0000 3.8413 0.0000 18.0590
#
#
#
# Elastic Compliance Matrix: (Units=1/GPa)
#
#
# Indices 1 2 3 4 5 6 
#
# 1 0.023652 -0.003752 -0.009370 0.000000 0.001904 0.000000
# 2 -0.003752 0.010944 -0.003264 0.000000 -0.001041 0.000000
# 3 -0.009370 -0.003264 0.015906 0.000000 -0.011574 0.000000
# 4 0.000000 0.000000 0.000000 0.032777 0.000000 -0.006972
# 5 0.001904 -0.001041 -0.011574 0.000000 0.052966 0.000000
# 6 0.000000 0.000000 0.000000 -0.006972 0.000000 0.056857
#
#
# Mechanical properties :
#
#
# Convention : Reuss Voigt Hill
#
# Bulk Modulus (GPa) = 56.39937 73.09859 64.74898
# Shear Modulus (GPa) = 21.57179 25.75902 23.66541
#
# Velocity S-wave (km/s) = 3.64768 3.98601 3.82059
# Velocity P-wave (km/s) = 7.24763 8.14075 7.70714
#
# Compressibility (1/GPa) = 0.01773070
#
# Stress axis : x y z
#
# Youngs Moduli (GPa) = 42.27939 91.37297 62.86895
#
# Poissons Ratio (x) = 0.34288 0.58906
# Poissons Ratio (y) = 0.15865 0.20519
# Poissons Ratio (z) = 0.39614 0.29822
#
# Static dielectric constant tensor:
#      x y z
#    x 1.534290 0.000000 0.046160 
#    y 0.000000 1.542640 0.000000 
#    z 0.046160 0.000000 1.571970 
# 
# From -- ./inp_files/48828.got.cif
#   From: 2010.05.17/outbox.cif.g08.bks.cpg/sg11_25_cif.got.tgz:48828.got - 2010.06.03 12:22:45.
