data_PCOD9156393
_publ_section_title
;
Structure prediction by ZEFSAII (Michael W. Deem and Ramdas Pophale) SiO2 
 PCOD9156393
Probable space group: P 21/M
;
_chemical_formula_sum "Si O2"
_cell_formula_units_Z 32
_cell_length_a 20.960517
_cell_length_b 7.541955
_cell_length_c 26.425829
_cell_angle_alpha 90.000000
_cell_angle_beta 157.349397
_cell_angle_gamma 90.000000
_cell_volume 1608.792209
_symmetry_space_group_name_H-M "P 21/M"
_symmetry_group_IT_number 11
_symmetry_cell_setting 'monoclinic'
loop_
_space_group_symop_operation_xyz
x,y,z
-x,1/2+y,-z
-x,-y,-z
x,1/2-y,z
loop_
_atom_site_type_symbol
_atom_site_label
_atom_site_fract_x
_atom_site_fract_y
_atom_site_fract_z
Si Si1 0.152164 0.460800 0.148889
Si Si2 0.664342 0.037724 0.153249
Si Si3 0.991469 0.456552 0.849362
Si Si4 0.367653 0.032714 0.136845
Si Si5 0.819824 0.044564 0.624549
Si Si6 0.464046 0.463500 0.098013
Si Si7 0.521710 0.532372 0.671741
Si Si8 0.865523 0.038904 0.208804
O O1 0.164533 0.250000 0.163260
O O2 0.110313 0.533912 0.173423
O O3 0.321840 0.524402 0.247569
O O4 0.000000 0.500000 0.000000
O O5 0.685000 0.250000 0.172002
O O6 0.613541 0.970034 0.171571
O O7 0.811790 0.970962 0.225198
O O8 0.500000 0.000000 0.000000
O O9 0.019158 0.250000 0.856582
O O10 0.893169 0.536201 0.729945
O O11 0.176184 0.528428 0.993734
O O12 0.367693 0.250000 0.137461
O O13 0.456385 0.974609 0.150111
O O14 0.448867 0.975631 0.248853
O O15 0.780257 0.250000 0.606958
O O16 0.651027 0.969204 0.478156
O O17 0.968184 0.038396 0.692729
O O18 0.475580 0.250000 0.107474
O O19 0.289470 0.504709 0.942427
O O20 0.522086 0.750000 0.672768
O O21 0.886932 0.250000 0.227314
#
# Coordination Sequence:
#
# PCOD9156393 Si02
#       8
#     4   4   4   4   4   4   4   4
#     4  11  21  35  55  78 103 131 161 202 249 294
#     4   8  15  25  40  67  99 128 160 198 243 289
#     4  10  19  33  53  76  98 126 165 205 242 287
#     4   9  15  28  51  75  96 122 162 207 240 277
#     4  10  20  35  53  71  95 132 170 202 239 292
#     4   9  15  27  49  73  96 129 169 202 238 293
#     4   9  19  34  52  73  97 125 163 205 243 286
#     4  10  18  28  44  70 104 132 157 203 253 290
#
# _framework density 19.890699000000001
#
# number of rings (size 3 to 8) (size 9 to 14) (size 15 to 20)
#    0.000    2.500    2.500    0.750    0.000    1.500 
#    0.000    1.250    0.000    0.750    0.000    0.000 
#    0.000    0.000    0.000    0.000    0.000    0.625 
#
# Total GULP energy -178446.836705 kJ/mol
# GULP energy per Si atom -5576.463647 kJ/mol
# Density = 1.984543 g / cm^3
# Si number density = 19.890699 Si / 1000 Ang^3
#
#
#
# Elastic Constant Matrix: (Units=GPa)
#
#
# Indices 1 2 3 4 5 6 
#
# 1 167.9657 -9.7150 78.2903 0.0000 -4.1390 0.0000
# 2 -9.7150 48.9007 -1.6299 0.0000 -7.2459 0.0000
# 3 78.2903 -1.6299 127.5133 0.0000 -10.5406 0.0000
# 4 0.0000 0.0000 0.0000 2.9566 0.0000 5.3682
# 5 -4.1390 -7.2459 -10.5406 0.0000 22.2993 0.0000
# 6 0.0000 0.0000 0.0000 5.3682 0.0000 11.4806
#
#
#
# Elastic Compliance Matrix: (Units=1/GPa)
#
#
# Indices 1 2 3 4 5 6 
#
# 1 0.008454 0.001443 -0.005207 0.000000 -0.000423 0.000000
# 2 0.001443 0.021827 0.000001 0.000000 0.007361 0.000000
# 3 -0.005207 0.000001 0.011405 0.000000 0.004425 0.000000
# 4 0.000000 0.000000 0.000000 2.239657 0.000000 -1.047227
# 5 -0.000423 0.007361 0.004425 0.000000 0.049249 0.000000
# 6 0.000000 0.000000 0.000000 -1.047227 0.000000 0.576769
#
#
# Mechanical properties :
#
#
# Convention : Reuss Voigt Hill
#
# Bulk Modulus (GPa) = 29.27302 53.14119 41.20711
# Shear Modulus (GPa) = 1.70866 25.84292 13.77579
#
# Velocity S-wave (km/s) = 0.92784 3.60842 2.63454
# Velocity P-wave (km/s) = 3.98707 6.64346 5.47870
#
# Compressibility (1/GPa) = 0.03416115
#
# Stress axis : x y z
#
# Youngs Moduli (GPa) = 118.29272 45.81465 87.68074
#
# Poissons Ratio (x) = -0.06612 0.45654
# Poissons Ratio (y) = -0.17072 -0.00012
# Poissons Ratio (z) = 0.61593 -0.00006
#
# Static dielectric constant tensor:
#      x y z
#    x 1.724270 0.000000 0.004780 
#    y 0.000000 1.726870 0.000000 
#    z 0.004780 0.000000 1.665200 
# 
# From -- ./inp_files/66444.got.cif
#   From: 2010.05.17/outbox.cif.g08.bks.cpg/sg11_34_cif.got.tgz:66444.got - 2010.06.03 12:22:45.
