data_PCOD9156501
_publ_section_title
;
Structure prediction by ZEFSAII (Michael W. Deem and Ramdas Pophale) SiO2 
 PCOD9156501
Probable space group: P 21/M
;
_chemical_formula_sum "Si O2"
_cell_formula_units_Z 24
_cell_length_a 22.219643
_cell_length_b 8.597094
_cell_length_c 12.533300
_cell_angle_alpha 90.000000
_cell_angle_beta 38.733842
_cell_angle_gamma 90.000000
_cell_volume 1498.037827
_symmetry_space_group_name_H-M "P 21/M"
_symmetry_group_IT_number 11
_symmetry_cell_setting 'monoclinic'
loop_
_space_group_symop_operation_xyz
x,y,z
-x,1/2+y,-z
-x,-y,-z
x,1/2-y,z
loop_
_atom_site_type_symbol
_atom_site_label
_atom_site_fract_x
_atom_site_fract_y
_atom_site_fract_z
Si Si1 0.666982 0.938152 0.087158
Si Si2 0.850962 0.562170 0.714317
Si Si3 0.533035 0.437494 0.569513
Si Si4 0.991725 0.563873 0.338298
Si Si5 0.265265 0.563053 0.776034
Si Si6 0.945883 0.565307 0.972022
O O1 0.669121 0.750000 0.092232
O O2 0.554938 0.986166 0.232064
O O3 0.708103 0.004795 0.141678
O O4 0.741563 0.983325 0.891518
O O5 0.858353 0.750000 0.712415
O O6 0.896904 0.518372 0.537171
O O7 0.919147 0.490194 0.711159
O O8 0.500000 0.500000 0.500000
O O9 0.533481 0.250000 0.566517
O O10 0.644472 0.485263 0.424286
O O11 0.994525 0.750000 0.324053
O O12 0.002356 0.489673 0.208117
O O13 0.259044 0.750000 0.786602
O O14 0.163567 0.495392 0.882226
O O15 0.944998 0.750000 0.976796
O O16 0.000000 0.500000 0.000000
#
# Coordination Sequence:
#
# PCOD9156501 Si02
#       6
#     4   4   4   4   4   4
#     4   9  15  26  44  68  96 128 157 184 223 274
#     4   9  17  28  46  70  98 129 157 187 228 275
#     4   8  15  25  40  63  93 123 153 185 224 272
#     4  10  19  31  46  68  96 125 158 194 232 276
#     4  10  18  29  44  66  94 124 155 193 233 274
#     4  12  24  37  51  67  89 122 161 200 240 283
#
# _framework density 16.020956999999999
#
# number of rings (size 3 to 8) (size 9 to 14) (size 15 to 20)
#    0.000    2.333    1.667    2.500    0.000    1.333 
#    0.000    0.000    0.000    0.000    0.000    1.167 
#    0.000    0.000    0.000    0.000    0.000    0.000 
#
# Total GULP energy -133659.511598 kJ/mol
# GULP energy per Si atom -5569.146317 kJ/mol
# Density = 1.598449 g / cm^3
# Si number density = 16.020957 Si / 1000 Ang^3
#
#
#
# Elastic Constant Matrix: (Units=GPa)
#
#
# Indices 1 2 3 4 5 6 
#
# 1 67.0120 22.3683 62.7772 0.0000 -0.2566 0.0000
# 2 22.3683 34.1087 41.1573 0.0000 -0.7923 0.0000
# 3 62.7772 41.1573 191.1043 0.0000 -18.0176 0.0000
# 4 0.0000 0.0000 0.0000 17.2489 0.0000 1.5708
# 5 -0.2566 -0.7923 -18.0176 0.0000 16.7744 0.0000
# 6 0.0000 0.0000 0.0000 1.5708 0.0000 19.5176
#
#
#
# Elastic Compliance Matrix: (Units=1/GPa)
#
#
# Indices 1 2 3 4 5 6 
#
# 1 0.023888 -0.007462 -0.006942 0.000000 -0.007443 0.000000
# 2 -0.007462 0.042961 -0.007366 0.000000 -0.005997 0.000000
# 3 -0.006942 -0.007366 0.010077 0.000000 0.010370 0.000000
# 4 0.000000 0.000000 0.000000 0.058403 0.000000 -0.004700
# 5 -0.007443 -0.005997 0.010370 0.000000 0.070356 0.000000
# 6 0.000000 0.000000 0.000000 -0.004700 0.000000 0.051614
#
#
# Mechanical properties :
#
#
# Convention : Reuss Voigt Hill
#
# Bulk Modulus (GPa) = 29.95310 60.53675 45.24493
# Shear Modulus (GPa) = 16.02719 21.76966 18.89843
#
# Velocity S-wave (km/s) = 3.16632 3.69022 3.43827
# Velocity P-wave (km/s) = 5.66606 7.48498 6.63812
#
# Compressibility (1/GPa) = 0.03338553
#
# Stress axis : x y z
#
# Youngs Moduli (GPa) = 41.86153 23.27678 99.23253
#
# Poissons Ratio (x) = 0.17370 0.68886
# Poissons Ratio (y) = 0.31238 0.73099
# Poissons Ratio (z) = 0.29060 0.17147
#
# Static dielectric constant tensor:
#      x y z
#    x 1.477220 0.000000 -0.029410 
#    y 0.000000 1.533860 0.000000 
#    z -0.029410 0.000000 1.613180 
# 
# From -- ./inp_files/36986.got.cif
#   From: 2010.05.17/outbox.cif.g08.bks.cpg/sg11_19_cif.got.tgz:36986.got - 2010.06.03 12:22:45.
