data_PCOD9156223
_publ_section_title
;
Structure prediction by ZEFSAII (Michael W. Deem and Ramdas Pophale) SiO2 
 PCOD9156223
Probable space group: P 21/M
;
_chemical_formula_sum "Si O2"
_cell_formula_units_Z 28
_cell_length_a 14.760649
_cell_length_b 9.344877
_cell_length_c 17.466751
_cell_angle_alpha 90.000000
_cell_angle_beta 129.571311
_cell_angle_gamma 90.000000
_cell_volume 1857.167542
_symmetry_space_group_name_H-M "P 21/M"
_symmetry_group_IT_number 11
_symmetry_cell_setting 'monoclinic'
loop_
_space_group_symop_operation_xyz
x,y,z
-x,1/2+y,-z
-x,-y,-z
x,1/2-y,z
loop_
_atom_site_type_symbol
_atom_site_label
_atom_site_fract_x
_atom_site_fract_y
_atom_site_fract_z
Si Si1 0.192803 0.082974 0.079860
Si Si2 0.565571 0.419774 0.771302
Si Si3 0.549836 0.580291 0.139743
Si Si4 0.085581 0.922196 0.883097
Si Si5 0.826778 0.917092 0.749722
Si Si6 0.683115 0.420697 0.084979
Si Si7 0.585338 0.420174 0.604256
O O1 0.197138 0.250000 0.061960
O O2 0.157335 0.071852 0.149695
O O3 0.320799 0.010998 0.145136
O O4 0.111110 0.999360 0.977001
O O5 0.592936 0.250000 0.795387
O O6 0.464294 0.453579 0.778080
O O7 0.543292 0.444750 0.669611
O O8 0.569224 0.750000 0.141854
O O9 0.647070 0.496703 0.144132
O O10 0.423204 0.547627 0.031845
O O11 0.090832 0.750000 0.897076
O O12 0.191974 0.963238 0.883781
O O13 0.953943 0.955904 0.784093
O O14 0.800166 0.750000 0.718330
O O15 0.716538 0.014709 0.668744
O O16 0.684535 0.250000 0.096500
O O17 0.500000 0.500000 0.500000
O O18 0.586589 0.250000 0.591722
#
# Coordination Sequence:
#
# PCOD9156223 Si02
#       7
#     4   4   4   4   4   4   4
#     4  10  18  26  40  65  92 119 154 192 220 254
#     4   9  17  31  48  65  88 123 155 182 224 275
#     4   9  16  28  43  61  87 119 157 191 220 259
#     4  10  18  30  44  60  90 129 158 183 219 269
#     4   9  19  32  46  65  90 120 154 187 223 268
#     4   9  17  27  41  61  88 123 158 188 220 257
#     4  10  20  34  53  72  93 116 145 186 231 277
#
# _framework density 15.076724
#
# number of rings (size 3 to 8) (size 9 to 14) (size 15 to 20)
#    0.000    2.571    1.429    1.286    0.000    2.857 
#    0.000    0.000    0.000    0.000    0.000    1.000 
#    0.000    0.000    0.000    0.000    0.000    0.000 
#
# Total GULP energy -155993.172442 kJ/mol
# GULP energy per Si atom -5571.184730 kJ/mol
# Density = 1.504241 g / cm^3
# Si number density = 15.076724 Si / 1000 Ang^3
#
#
#
# Elastic Constant Matrix: (Units=GPa)
#
#
# Indices 1 2 3 4 5 6 
#
# 1 89.1615 42.8011 44.8343 0.0000 12.3633 0.0000
# 2 42.8011 47.7522 50.5100 0.0000 3.8400 0.0000
# 3 44.8343 50.5100 81.4422 0.0000 6.8942 0.0000
# 4 0.0000 0.0000 0.0000 22.1743 0.0000 -1.9082
# 5 12.3633 3.8400 6.8942 0.0000 11.8366 0.0000
# 6 0.0000 0.0000 0.0000 -1.9082 0.0000 22.0945
#
#
#
# Elastic Compliance Matrix: (Units=1/GPa)
#
#
# Indices 1 2 3 4 5 6 
#
# 1 0.022914 -0.021403 0.002207 0.000000 -0.018276 0.000000
# 2 -0.021403 0.080932 -0.040056 0.000000 0.019430 0.000000
# 3 0.002207 -0.040056 0.036817 0.000000 -0.010754 0.000000
# 4 0.000000 0.000000 0.000000 0.045435 0.000000 0.003924
# 5 -0.018276 0.019430 -0.010754 0.000000 0.103533 0.000000
# 6 0.000000 0.000000 0.000000 0.003924 0.000000 0.045599
#
#
# Mechanical properties :
#
#
# Convention : Reuss Voigt Hill
#
# Bulk Modulus (GPa) = 45.12937 54.96075 50.04506
# Shear Modulus (GPa) = 10.84313 16.56844 13.70579
#
# Velocity S-wave (km/s) = 2.68469 3.31863 3.01835
# Velocity P-wave (km/s) = 6.29351 7.15664 6.73891
#
# Compressibility (1/GPa) = 0.02215852
#
# Stress axis : x y z
#
# Youngs Moduli (GPa) = 43.64055 12.35602 27.16149
#
# Poissons Ratio (x) = 0.26446 -0.05993
# Poissons Ratio (y) = 0.93404 1.08798
# Poissons Ratio (z) = -0.09630 0.49493
#
# Static dielectric constant tensor:
#      x y z
#    x 1.527380 0.000000 -0.005280 
#    y 0.000000 1.500680 0.000000 
#    z -0.005280 0.000000 1.473950 
# 
# From -- ./inp_files/42612.got.cif
#   From: 2010.05.17/outbox.cif.g08.bks.cpg/sg11_22_cif.got.tgz:42612.got - 2010.06.03 12:22:45.
