data_PCOD9156323
_publ_section_title
;
Structure prediction by ZEFSAII (Michael W. Deem and Ramdas Pophale) SiO2 
 PCOD9156323
Probable space group: P 21/M
;
_chemical_formula_sum "Si O2"
_cell_formula_units_Z 32
_cell_length_a 27.740717
_cell_length_b 8.666345
_cell_length_c 19.222801
_cell_angle_alpha 90.000000
_cell_angle_beta 151.927706
_cell_angle_gamma 90.000000
_cell_volume 2174.746544
_symmetry_space_group_name_H-M "P 21/M"
_symmetry_group_IT_number 11
_symmetry_cell_setting 'monoclinic'
loop_
_space_group_symop_operation_xyz
x,y,z
-x,1/2+y,-z
-x,-y,-z
x,1/2-y,z
loop_
_atom_site_type_symbol
_atom_site_label
_atom_site_fract_x
_atom_site_fract_y
_atom_site_fract_z
Si Si1 0.936967 0.935060 0.516010
Si Si2 0.400057 0.433955 0.282266
Si Si3 0.021229 0.936008 0.136080
Si Si4 0.379421 0.436078 0.418232
Si Si5 0.776721 0.432539 0.037651
Si Si6 0.007330 0.435390 0.741316
Si Si7 0.153318 0.066734 0.737777
Si Si8 0.838337 0.936141 0.800937
O O1 0.952277 0.750000 0.533873
O O2 0.849084 0.972160 0.347474
O O3 0.930275 0.992097 0.586447
O O4 0.039997 0.018070 0.619742
O O5 0.392096 0.250000 0.264552
O O6 0.371298 0.473735 0.325677
O O7 0.516937 0.487983 0.421843
O O8 0.322099 0.513879 0.130510
O O9 0.024710 0.750000 0.139044
O O10 0.016671 0.984073 0.210468
O O11 0.918342 0.984112 0.963427
O O12 0.115840 0.000448 0.212343
O O13 0.388753 0.250000 0.435083
O O14 0.276188 0.485698 0.325692
O O15 0.789866 0.250000 0.050522
O O16 0.773031 0.483334 0.113896
O O17 0.877853 0.511012 0.132859
O O18 0.003482 0.250000 0.731866
O O19 0.165616 0.250000 0.760757
O O20 0.839051 0.750000 0.799717
#
# Coordination Sequence:
#
# PCOD9156323 Si02
#       8
#     4   4   4   4   4   4   4   4
#     4   9  16  25  38  57  80 107 140 173 204 245
#     4  10  19  31  46  63  85 111 140 174 211 251
#     4   9  18  30  43  62  85 110 142 175 208 248
#     4   9  18  32  47  63  84 110 141 175 212 251
#     4  11  20  28  41  61  85 112 144 178 208 246
#     4  10  18  28  42  59  84 115 143 175 212 248
#     4   9  16  26  39  55  79 110 140 170 206 246
#     4   9  17  30  46  61  82 111 140 175 213 246
#
# _framework density 14.714359
#
# number of rings (size 3 to 8) (size 9 to 14) (size 15 to 20)
#    0.000    2.500    0.000    4.875    0.000    5.500 
#    0.000    2.500    0.000    0.000    0.000    0.000 
#    0.000    1.000    0.000    3.250    0.000    5.250 
#
# Total GULP energy -178282.136196 kJ/mol
# GULP energy per Si atom -5571.316756 kJ/mol
# Density = 1.468087 g / cm^3
# Si number density = 14.714359 Si / 1000 Ang^3
#
#
#
# Elastic Constant Matrix: (Units=GPa)
#
#
# Indices 1 2 3 4 5 6 
#
# 1 97.6052 16.6058 54.6059 0.0000 -11.3974 0.0000
# 2 16.6058 24.4385 20.5811 0.0000 -3.8771 0.0000
# 3 54.6059 20.5811 85.7152 0.0000 -13.6345 0.0000
# 4 0.0000 0.0000 0.0000 22.4872 0.0000 -2.1134
# 5 -11.3974 -3.8771 -13.6345 0.0000 27.8962 0.0000
# 6 0.0000 0.0000 0.0000 -2.1134 0.0000 21.0228
#
#
#
# Elastic Compliance Matrix: (Units=1/GPa)
#
#
# Indices 1 2 3 4 5 6 
#
# 1 0.016148 -0.002844 -0.009344 0.000000 0.001635 0.000000
# 2 -0.002844 0.051829 -0.010487 0.000000 0.000916 0.000000
# 3 -0.009344 -0.010487 0.020925 0.000000 0.004952 0.000000
# 4 0.000000 0.000000 0.000000 0.044894 0.000000 0.004513
# 5 0.001635 0.000916 0.004952 0.000000 0.039063 0.000000
# 6 0.000000 0.000000 0.000000 0.004513 0.000000 0.048021
#
#
# Mechanical properties :
#
#
# Convention : Reuss Voigt Hill
#
# Bulk Modulus (GPa) = 22.96149 43.48272 33.22210
# Shear Modulus (GPa) = 17.80965 22.01234 19.91099
#
# Velocity S-wave (km/s) = 3.48279 3.87198 3.68253
# Velocity P-wave (km/s) = 5.64020 7.04308 6.38032
#
# Compressibility (1/GPa) = 0.04355119
#
# Stress axis : x y z
#
# Youngs Moduli (GPa) = 61.92799 19.29439 47.78911
#
# Poissons Ratio (x) = 0.05487 0.44655
# Poissons Ratio (y) = 0.17610 0.50118
# Poissons Ratio (z) = 0.57867 0.20235
#
# Static dielectric constant tensor:
#      x y z
#    x 1.492340 0.000000 -0.033830 
#    y 0.000000 1.494130 0.000000 
#    z -0.033830 0.000000 1.484260 
# 
# From -- ./inp_files/61808.got.cif
#   From: 2010.05.17/outbox.cif.g08.bks.cpg/sg11_31_cif.got.tgz:61808.got - 2010.06.03 12:22:45.
