data_PCOD9156242
_publ_section_title
;
Structure prediction by ZEFSAII (Michael W. Deem and Ramdas Pophale) SiO2 
 PCOD9156242
Probable space group: P 21/M
;
_chemical_formula_sum "Si O2"
_cell_formula_units_Z 32
_cell_length_a 15.269550
_cell_length_b 7.370480
_cell_length_c 34.323049
_cell_angle_alpha 90.000000
_cell_angle_beta 25.489057
_cell_angle_gamma 90.000000
_cell_volume 1662.333960
_symmetry_space_group_name_H-M "P 21/M"
_symmetry_group_IT_number 11
_symmetry_cell_setting 'monoclinic'
loop_
_space_group_symop_operation_xyz
x,y,z
-x,1/2+y,-z
-x,-y,-z
x,1/2-y,z
loop_
_atom_site_type_symbol
_atom_site_label
_atom_site_fract_x
_atom_site_fract_y
_atom_site_fract_z
Si Si1 0.896574 0.469873 0.806225
Si Si2 0.364947 0.532410 0.515643
Si Si3 0.143322 0.464906 0.822788
Si Si4 0.942681 0.033305 0.978671
Si Si5 0.481372 0.526743 0.887516
Si Si6 0.085833 0.043549 0.290726
Si Si7 0.671908 0.971124 0.327735
Si Si8 0.303075 0.535461 0.038058
O O1 0.886435 0.250000 0.808308
O O2 0.890478 0.545733 0.765584
O O3 0.728173 0.534007 0.905392
O O4 0.118259 0.517470 0.734486
O O5 0.500000 0.500000 0.500000
O O6 0.350736 0.750000 0.518513
O O7 0.486203 0.466214 0.428990
O O8 0.134661 0.460901 0.611934
O O9 0.185589 0.250000 0.809235
O O10 0.303352 0.535910 0.726729
O O11 0.922123 0.483079 0.890940
O O12 0.105469 0.537332 0.881391
O O13 0.936883 0.250000 0.975540
O O14 0.716907 0.969802 0.057134
O O15 0.000000 0.000000 0.000000
O O16 0.484291 0.750000 0.887272
O O17 0.696854 0.463929 0.783981
O O18 0.448939 0.463638 0.945487
O O19 0.080606 0.250000 0.307598
O O20 0.665323 0.750000 0.329458
O O21 0.339862 0.750000 0.026524
#
# Coordination Sequence:
#
# PCOD9156242 Si02
#       8
#     4   4   4   4   4   4   4   4
#     4   9  15  24  39  56  74 104 143 175 201 226
#     4  10  18  27  40  58  79 107 144 182 210 232
#     4   7  11  21  39  61  78  98 131 165 195 231
#     4   9  16  28  48  68  84 102 126 159 202 250
#     4   8  15  28  41  56  82 111 133 159 198 244
#     4  10  19  27  37  56  82 109 138 169 203 242
#     4   8  13  23  39  56  76 103 139 177 201 223
#     4   7  11  21  38  55  72 102 142 168 186 226
#
# _framework density 19.250042000000001
#
# number of rings (size 3 to 8) (size 9 to 14) (size 15 to 20)
#    0.000    3.500    1.250    3.000    0.000    0.500 
#    0.000    0.625    0.000    7.500    0.000    0.875 
#    0.000    0.000    0.000    0.000    0.000    0.000 
#
# Total GULP energy -178276.867477 kJ/mol
# GULP energy per Si atom -5571.152109 kJ/mol
# Density = 1.920623 g / cm^3
# Si number density = 19.250042 Si / 1000 Ang^3
#
#
#
# Elastic Constant Matrix: (Units=GPa)
#
#
# Indices 1 2 3 4 5 6 
#
# 1 90.3604 -1.3963 61.7154 0.0000 18.4292 0.0000
# 2 -1.3963 68.6290 9.1348 0.0000 0.5126 0.0000
# 3 61.7154 9.1348 193.5978 0.0000 9.9023 0.0000
# 4 0.0000 0.0000 0.0000 -1.4451 0.0000 4.1086
# 5 18.4292 0.5126 9.9023 0.0000 23.5304 0.0000
# 6 0.0000 0.0000 0.0000 4.1086 0.0000 13.6596
#
#
#
# Elastic Compliance Matrix: (Units=1/GPa)
#
#
# Indices 1 2 3 4 5 6 
#
# 1 0.016589 0.001055 -0.004775 0.000000 -0.011006 0.000000
# 2 0.001055 0.014730 -0.000994 0.000000 -0.000729 0.000000
# 3 -0.004775 -0.000994 0.006686 0.000000 0.000948 0.000000
# 4 0.000000 0.000000 0.000000 -0.373011 0.000000 0.112197
# 5 -0.011006 -0.000729 0.000948 0.000000 0.050735 0.000000
# 6 0.000000 0.000000 0.000000 0.112197 0.000000 0.039461
#
#
# Mechanical properties :
#
#
# Convention : Reuss Voigt Hill
#
# Bulk Modulus (GPa) = 34.99251 54.61056 44.80154
# Shear Modulus (GPa) = -22.13815 26.02454 1.94319
#
# Velocity S-wave (km/s) = -3.39489 3.68084 1.00580
# Velocity P-wave (km/s) = 1.68829 6.81875 4.96718
#
# Compressibility (1/GPa) = 0.02857754
#
# Stress axis : x y z
#
# Youngs Moduli (GPa) = 60.27994 67.88710 149.56602
#
# Poissons Ratio (x) = -0.07164 0.71421
# Poissons Ratio (y) = -0.06361 0.14869
# Poissons Ratio (z) = 0.28785 0.06749
#
# Static dielectric constant tensor:
#      x y z
#    x 1.663420 0.000000 0.007580 
#    y 0.000000 1.769200 0.000000 
#    z 0.007580 0.000000 1.736120 
# 
# From -- ./inp_files/43056.got.cif
#   From: 2010.05.17/outbox.cif.g08.bks.cpg/sg11_22_cif.got.tgz:43056.got - 2010.06.03 12:22:45.
