data_PCOD9156276
_publ_section_title
;
Structure prediction by ZEFSAII (Michael W. Deem and Ramdas Pophale) SiO2 
 PCOD9156276
Probable space group: P 21/M
;
_chemical_formula_sum "Si O2"
_cell_formula_units_Z 28
_cell_length_a 18.043250
_cell_length_b 9.130673
_cell_length_c 16.459261
_cell_angle_alpha 90.000000
_cell_angle_beta 41.584164
_cell_angle_gamma 90.000000
_cell_volume 1799.751182
_symmetry_space_group_name_H-M "P 21/M"
_symmetry_group_IT_number 11
_symmetry_cell_setting 'monoclinic'
loop_
_space_group_symop_operation_xyz
x,y,z
-x,1/2+y,-z
-x,-y,-z
x,1/2-y,z
loop_
_atom_site_type_symbol
_atom_site_label
_atom_site_fract_x
_atom_site_fract_y
_atom_site_fract_z
Si Si1 0.937189 0.423035 0.788181
Si Si2 0.916147 0.925593 0.631563
Si Si3 0.342720 0.076378 0.175937
Si Si4 0.942770 0.419050 0.168205
Si Si5 0.175175 0.418995 0.874989
Si Si6 0.292859 0.577258 0.921615
Si Si7 0.543905 0.924038 0.091247
O O1 0.955769 0.250000 0.761107
O O2 0.935239 0.507711 0.705090
O O3 0.028035 0.491244 0.774912
O O4 0.816929 0.440981 0.931052
O O5 0.930006 0.750000 0.622026
O O6 0.787922 0.956853 0.711687
O O7 0.000000 0.000000 0.500000
O O8 0.359736 0.250000 0.175833
O O9 0.421650 0.986013 0.171254
O O10 0.384264 0.045612 0.049778
O O11 0.915395 0.250000 0.207782
O O12 0.851259 0.496011 0.186380
O O13 0.058007 0.419504 0.021267
O O14 0.205086 0.250000 0.836204
O O15 0.262662 0.499747 0.861615
O O16 0.310204 0.750000 0.896048
O O17 0.395269 0.503422 0.884461
O O18 0.542155 0.750000 0.104990
#
# Coordination Sequence:
#
# PCOD9156276 Si02
#       7
#     4   4   4   4   4   4   4
#     4  10  19  30  45  64  87 119 157 192 230 276
#     4  11  22  36  51  68  92 121 157 198 238 278
#     4   9  19  33  47  65  90 119 152 191 235 277
#     4   9  16  26  40  58  84 117 151 187 227 271
#     4   9  16  25  38  58  86 118 152 186 223 269
#     4  10  18  27  42  64  92 122 154 188 227 276
#     4  10  18  29  47  68  91 119 154 191 230 278
#
# _framework density 15.557705
#
# number of rings (size 3 to 8) (size 9 to 14) (size 15 to 20)
#    0.000    2.286    1.429    2.571    0.000    6.286 
#    0.000    0.000    0.000    0.000    0.000    0.000 
#    0.000    1.143    0.000    4.286    0.000    6.571 
#
# Total GULP energy -156149.089075 kJ/mol
# GULP energy per Si atom -5576.753181 kJ/mol
# Density = 1.552230 g / cm^3
# Si number density = 15.557705 Si / 1000 Ang^3
#
#
#
# Elastic Constant Matrix: (Units=GPa)
#
#
# Indices 1 2 3 4 5 6 
#
# 1 172.0163 100.0901 36.3472 0.0000 4.9931 0.0000
# 2 100.0901 117.3227 37.0763 0.0000 1.7917 0.0000
# 3 36.3472 37.0763 41.0827 0.0000 -5.2935 0.0000
# 4 0.0000 0.0000 0.0000 16.4563 0.0000 3.0914
# 5 4.9931 1.7917 -5.2935 0.0000 9.2950 0.0000
# 6 0.0000 0.0000 0.0000 3.0914 0.0000 35.5141
#
#
#
# Elastic Compliance Matrix: (Units=1/GPa)
#
#
# Indices 1 2 3 4 5 6 
#
# 1 0.011980 -0.009102 -0.003225 0.000000 -0.006517 0.000000
# 2 -0.009102 0.019597 -0.010242 0.000000 -0.004721 0.000000
# 3 -0.003225 -0.010242 0.039838 0.000000 0.026394 0.000000
# 4 0.000000 0.000000 0.000000 0.061777 0.000000 -0.005378
# 5 -0.006517 -0.004721 0.026394 0.000000 0.127027 0.000000
# 6 0.000000 0.000000 0.000000 -0.005378 0.000000 0.028626
#
#
# Mechanical properties :
#
#
# Convention : Reuss Voigt Hill
#
# Bulk Modulus (GPa) = 38.05352 75.27211 56.66281
# Shear Modulus (GPa) = 14.58833 22.71362 18.65097
#
# Velocity S-wave (km/s) = 3.06550 3.82509 3.46616
# Velocity P-wave (km/s) = 6.08625 8.24597 7.24701
#
# Compressibility (1/GPa) = 0.02627878
#
# Stress axis : x y z
#
# Youngs Moduli (GPa) = 83.47306 51.02848 25.10178
#
# Poissons Ratio (x) = 0.46444 0.08095
# Poissons Ratio (y) = 0.75974 0.25708
# Poissons Ratio (z) = 0.26918 0.52261
#
# Static dielectric constant tensor:
#      x y z
#    x 1.508360 0.000000 -0.000150 
#    y 0.000000 1.516050 0.000000 
#    z -0.000150 0.000000 1.486080 
# 
# From -- ./inp_files/37490.got.cif
#   From: 2010.05.17/outbox.cif.g08.bks.cpg/sg11_19_cif.got.tgz:37490.got - 2010.06.03 12:22:45.
