data_PCOD9156014
_publ_section_title
;
Structure prediction by ZEFSAII (Michael W. Deem and Ramdas Pophale) SiO2 
 PCOD9156014
Probable space group: P 21/M
;
_chemical_formula_sum "Si O2"
_cell_formula_units_Z 28
_cell_length_a 5.074267
_cell_length_b 16.643138
_cell_length_c 19.289605
_cell_angle_alpha 90.000000
_cell_angle_beta 76.449876
_cell_angle_gamma 90.000000
_cell_volume 1583.696621
_symmetry_space_group_name_H-M "P 21/M"
_symmetry_group_IT_number 11
_symmetry_cell_setting 'monoclinic'
loop_
_space_group_symop_operation_xyz
x,y,z
-x,1/2+y,-z
-x,-y,-z
x,1/2-y,z
loop_
_atom_site_type_symbol
_atom_site_label
_atom_site_fract_x
_atom_site_fract_y
_atom_site_fract_z
Si Si1 0.745928 0.656791 0.576850
Si Si2 0.314267 0.889736 0.874032
Si Si3 0.217644 0.458462 0.536655
Si Si4 0.898719 0.657696 0.789647
Si Si5 0.815233 0.078423 0.353668
Si Si6 0.152300 0.054804 0.933118
Si Si7 0.353891 0.844774 0.033648
O O1 0.693124 0.750000 0.588087
O O2 0.767995 0.630995 0.494545
O O3 0.495705 0.607254 0.625298
O O4 0.017356 0.631760 0.600783
O O5 0.584150 0.863004 0.817610
O O6 0.341277 0.858671 0.951233
O O7 0.613254 0.892159 0.046773
O O8 0.280440 0.986385 0.876537
O O9 0.500000 0.500000 0.500000
O O10 0.161803 0.487447 0.618195
O O11 0.000000 0.500000 0.500000
O O12 0.928589 0.750000 0.764115
O O13 0.051175 0.647204 0.853494
O O14 0.047201 0.598266 0.727385
O O15 0.917629 0.113151 0.919583
O O16 0.000000 0.000000 0.000000
O O17 0.366915 0.750000 0.046894
#
# Coordination Sequence:
#
# PCOD9156014 Si02
#       7
#     4   4   4   4   4   4   4
#     4  10  17  29  48  70  93 121 158 206 245 275
#     4  11  22  35  49  71 103 134 162 194 238 297
#     4   8  16  29  45  64  90 121 155 194 237 276
#     4  12  22  32  47  70 100 138 169 193 228 289
#     4  10  20  32  45  67 100 132 160 190 231 285
#     4  10  20  35  52  72 100 131 161 201 252 296
#     4  11  20  34  55  78  98 123 162 212 253 288
#
# _framework density 17.680154000000002
#
# number of rings (size 3 to 8) (size 9 to 14) (size 15 to 20)
#    0.000    1.714    0.000    8.143    0.000    0.000 
#    0.000    0.000    0.000    0.000    0.000    6.000 
#    0.000    0.000    0.000    0.000    0.000    0.000 
#
# Total GULP energy -156114.677802 kJ/mol
# GULP energy per Si atom -5575.524207 kJ/mol
# Density = 1.763991 g / cm^3
# Si number density = 17.680154 Si / 1000 Ang^3
#
#
#
# Elastic Constant Matrix: (Units=GPa)
#
#
# Indices 1 2 3 4 5 6 
#
# 1 95.5435 22.2056 -1.5541 0.0000 -13.9996 0.0000
# 2 22.2056 63.3512 0.6338 0.0000 0.8408 0.0000
# 3 -1.5541 0.6338 28.8814 0.0000 -2.2876 0.0000
# 4 0.0000 0.0000 0.0000 22.2240 0.0000 -1.4187
# 5 -13.9996 0.8408 -2.2876 0.0000 16.2589 0.0000
# 6 0.0000 0.0000 0.0000 -1.4187 0.0000 28.9901
#
#
#
# Elastic Compliance Matrix: (Units=1/GPa)
#
#
# Indices 1 2 3 4 5 6 
#
# 1 0.013391 -0.004871 0.001780 0.000000 0.012032 0.000000
# 2 -0.004871 0.017573 -0.001064 0.000000 -0.005253 0.000000
# 3 0.001780 -0.001064 0.035262 0.000000 0.006549 0.000000
# 4 0.000000 0.000000 0.000000 0.045137 0.000000 0.002209
# 5 0.012032 -0.005253 0.006549 0.000000 0.073058 0.000000
# 6 0.000000 0.000000 0.000000 0.002209 0.000000 0.034603
#
#
# Mechanical properties :
#
#
# Convention : Reuss Voigt Hill
#
# Bulk Modulus (GPa) = 17.26616 25.59408 21.43012
# Shear Modulus (GPa) = 20.27260 24.59398 22.43329
#
# Velocity S-wave (km/s) = 3.38987 3.73372 3.56594
# Velocity P-wave (km/s) = 5.01085 5.75284 5.39462
#
# Compressibility (1/GPa) = 0.05791677
#
# Stress axis : x y z
#
# Youngs Moduli (GPa) = 74.67966 56.90628 28.35892
#
# Poissons Ratio (x) = 0.27720 -0.05049
# Poissons Ratio (y) = 0.36377 0.03017
# Poissons Ratio (z) = -0.13297 0.06054
#
# Static dielectric constant tensor:
#      x y z
#    x 1.607260 0.000000 0.007850 
#    y 0.000000 1.633050 0.000000 
#    z 0.007850 0.000000 1.640450 
# 
# From -- ./inp_files/67696.got.cif
#   From: 2010.05.17/outbox.cif.g08.bks.cpg/sg11_34_cif.got.tgz:67696.got - 2010.06.03 12:22:45.
