data_PCOD9156326
_publ_section_title
;
Structure prediction by ZEFSAII (Michael W. Deem and Ramdas Pophale) SiO2 
 PCOD9156326
Probable space group: P 21/M
;
_chemical_formula_sum "Si O2"
_cell_formula_units_Z 32
_cell_length_a 35.542980
_cell_length_b 8.904141
_cell_length_c 16.877131
_cell_angle_alpha 90.000000
_cell_angle_beta 23.892139
_cell_angle_gamma 90.000000
_cell_volume 2163.300372
_symmetry_space_group_name_H-M "P 21/M"
_symmetry_group_IT_number 11
_symmetry_cell_setting 'monoclinic'
loop_
_space_group_symop_operation_xyz
x,y,z
-x,1/2+y,-z
-x,-y,-z
x,1/2-y,z
loop_
_atom_site_type_symbol
_atom_site_label
_atom_site_fract_x
_atom_site_fract_y
_atom_site_fract_z
Si Si1 0.488591 0.567945 0.787112
Si Si2 0.575147 0.431013 0.914399
Si Si3 0.777629 0.068362 0.462613
Si Si4 0.365741 0.078515 0.705695
Si Si5 0.167791 0.069347 0.812601
Si Si6 0.027245 0.569937 0.863289
Si Si7 0.415627 0.577368 0.764072
Si Si8 0.683706 0.071362 0.357868
O O1 0.498864 0.750000 0.762883
O O2 0.420883 0.523947 0.844732
O O3 0.589014 0.495395 0.578336
O O4 0.449144 0.526837 0.948651
O O5 0.570137 0.250000 0.919395
O O6 0.678609 0.476120 0.688822
O O7 0.500000 0.500000 0.000000
O O8 0.777528 0.250000 0.451405
O O9 0.864248 0.030260 0.354067
O O10 0.796096 0.991395 0.342142
O O11 0.334059 0.250000 0.760951
O O12 0.475600 0.076250 0.471470
O O13 0.361041 0.017550 0.804030
O O14 0.317084 0.979107 0.732391
O O15 0.176679 0.250000 0.797245
O O16 0.230217 0.997065 0.760226
O O17 0.058057 0.027252 0.029508
O O18 0.023303 0.750000 0.876725
O O19 0.000000 0.500000 0.000000
O O20 0.383954 0.750000 0.822413
O O21 0.682489 0.250000 0.366584
#
# Coordination Sequence:
#
# PCOD9156326 Si02
#       8
#     4   4   4   4   4   4   4   4
#     4   9  18  31  43  57  80 111 143 172 202 237
#     4  10  20  31  43  59  82 111 142 174 204 234
#     4   9  17  30  45  61  80 105 139 175 206 238
#     4   9  16  26  40  58  80 105 132 163 200 242
#     4  10  18  28  42  60  82 108 135 166 207 250
#     4   8  15  27  43  60  78 101 131 167 206 246
#     4   8  14  25  40  56  76 103 135 167 197 234
#     4  11  20  28  40  59  83 110 138 168 201 240
#
# _framework density 14.792213
#
# number of rings (size 3 to 8) (size 9 to 14) (size 15 to 20)
#    0.000    2.750    0.000    3.375    0.000    6.500 
#    0.000    0.000    0.000    0.000    0.000    0.000 
#    0.000    1.000    0.000    1.750    0.000    2.750 
#
# Total GULP energy -178143.826444 kJ/mol
# GULP energy per Si atom -5566.994576 kJ/mol
# Density = 1.475854 g / cm^3
# Si number density = 14.792213 Si / 1000 Ang^3
#
#
#
# Elastic Constant Matrix: (Units=GPa)
#
#
# Indices 1 2 3 4 5 6 
#
# 1 128.0798 40.8304 57.7441 0.0000 -7.2942 0.0000
# 2 40.8304 41.1714 23.3429 0.0000 -6.8461 0.0000
# 3 57.7441 23.3429 75.0597 0.0000 -14.3907 0.0000
# 4 0.0000 0.0000 0.0000 12.0091 0.0000 -0.7243
# 5 -7.2942 -6.8461 -14.3907 0.0000 22.6331 0.0000
# 6 0.0000 0.0000 0.0000 -0.7243 0.0000 24.2993
#
#
#
# Elastic Compliance Matrix: (Units=1/GPa)
#
#
# Indices 1 2 3 4 5 6 
#
# 1 0.014978 -0.010388 -0.009076 0.000000 -0.004085 0.000000
# 2 -0.010388 0.036940 -0.002273 0.000000 0.006380 0.000000
# 3 -0.009076 -0.002273 0.023140 0.000000 0.011100 0.000000
# 4 0.000000 0.000000 0.000000 0.083420 0.000000 0.002486
# 5 -0.004085 0.006380 0.011100 0.000000 0.051854 0.000000
# 6 0.000000 0.000000 0.000000 0.002486 0.000000 0.041228
#
#
# Mechanical properties :
#
#
# Convention : Reuss Voigt Hill
#
# Bulk Modulus (GPa) = 31.66082 54.23840 42.94961
# Shear Modulus (GPa) = 16.36329 19.94788 18.15558
#
# Velocity S-wave (km/s) = 3.32958 3.67623 3.50719
# Velocity P-wave (km/s) = 6.01927 7.40041 6.74528
#
# Compressibility (1/GPa) = 0.03158478
#
# Stress axis : x y z
#
# Youngs Moduli (GPa) = 66.76374 27.07064 43.21551
#
# Poissons Ratio (x) = 0.28121 0.39221
# Poissons Ratio (y) = 0.69353 0.09824
# Poissons Ratio (z) = 0.60592 0.06154
#
# Static dielectric constant tensor:
#      x y z
#    x 1.502250 0.000000 -0.013660 
#    y 0.000000 1.501050 0.000000 
#    z -0.013660 0.000000 1.481250 
# 
# From -- ./inp_files/52912.got.cif
#   From: 2010.05.17/outbox.cif.g08.bks.cpg/sg11_27_cif.got.tgz:52912.got - 2010.06.03 12:22:45.
