data_PCOD9156735
_publ_section_title
;
Structure prediction by ZEFSAII (Michael W. Deem and Ramdas Pophale) SiO2 
 PCOD9156735
Probable space group: P 21/M
;
_chemical_formula_sum "Si O2"
_cell_formula_units_Z 32
_cell_length_a 24.583314
_cell_length_b 8.502200
_cell_length_c 12.899647
_cell_angle_alpha 90.000000
_cell_angle_beta 133.335816
_cell_angle_gamma 90.000000
_cell_volume 1961.053199
_symmetry_space_group_name_H-M "P 21/M"
_symmetry_group_IT_number 11
_symmetry_cell_setting 'monoclinic'
loop_
_space_group_symop_operation_xyz
x,y,z
-x,1/2+y,-z
-x,-y,-z
x,1/2-y,z
loop_
_atom_site_type_symbol
_atom_site_label
_atom_site_fract_x
_atom_site_fract_y
_atom_site_fract_z
Si Si1 0.336732 0.062167 0.899958
Si Si2 0.819203 0.061917 0.228964
Si Si3 0.922164 0.938810 0.945583
Si Si4 0.505631 0.438548 0.889391
Si Si5 0.342362 0.058468 0.665277
Si Si6 0.908210 0.559931 0.544197
Si Si7 0.923794 0.059811 0.180180
Si Si8 0.186756 0.058397 0.376646
O O1 0.336970 0.250000 0.899138
O O2 0.331862 0.009564 0.772205
O O3 0.264015 0.002627 0.864044
O O4 0.415852 0.003619 0.048455
O O5 0.816262 0.250000 0.223911
O O6 0.860387 0.008020 0.177984
O O7 0.869007 0.008498 0.391778
O O8 0.923969 0.750000 0.946437
O O9 0.855398 0.993230 0.782193
O O10 0.913362 0.996892 0.051032
O O11 0.000000 0.000000 0.000000
O O12 0.508947 0.250000 0.894107
O O13 0.425518 0.487990 0.737094
O O14 0.500000 0.500000 0.000000
O O15 0.341062 0.250000 0.664161
O O16 0.271619 0.003980 0.506296
O O17 0.905243 0.750000 0.533478
O O18 0.862349 0.513396 0.587200
O O19 0.994350 0.511683 0.670501
O O20 0.923939 0.250000 0.176091
O O21 0.187870 0.250000 0.376565
#
# Coordination Sequence:
#
# PCOD9156735 Si02
#       8
#     4   4   4   4   4   4   4   4
#     4  10  18  30  48  68  96 135 166 194 244 302
#     4  11  22  33  48  73 102 130 167 211 249 293
#     4  11  21  34  54  74  96 128 170 213 251 293
#     4   9  16  26  43  68  98 130 163 198 238 294
#     4   8  14  26  45  68  94 126 159 191 238 293
#     4  10  18  33  53  69  97 135 166 200 247 300
#     4  10  22  38  51  68  99 135 169 209 253 294
#     4   9  16  29  50  73  96 128 164 200 244 292
#
# _framework density 16.317761000000001
#
# number of rings (size 3 to 8) (size 9 to 14) (size 15 to 20)
#    0.000    2.250    2.500    2.625    0.000    1.500 
#    0.000    0.000    0.000    0.000    0.000    0.875 
#    0.000    0.000    0.000    0.000    0.000    0.000 
#
# Total GULP energy -178409.853646 kJ/mol
# GULP energy per Si atom -5575.307926 kJ/mol
# Density = 1.628062 g / cm^3
# Si number density = 16.317761 Si / 1000 Ang^3
#
#
#
# Elastic Constant Matrix: (Units=GPa)
#
#
# Indices 1 2 3 4 5 6 
#
# 1 136.5679 29.9518 97.8865 0.0000 19.4355 0.0000
# 2 29.9518 24.2675 23.1034 0.0000 5.5025 0.0000
# 3 97.8865 23.1034 116.7766 0.0000 30.4651 0.0000
# 4 0.0000 0.0000 0.0000 21.1436 0.0000 0.6386
# 5 19.4355 5.5025 30.4651 0.0000 31.2142 0.0000
# 6 0.0000 0.0000 0.0000 0.6386 0.0000 21.5461
#
#
#
# Elastic Compliance Matrix: (Units=1/GPa)
#
#
# Indices 1 2 3 4 5 6 
#
# 1 0.021110 -0.011205 -0.016857 0.000000 0.005283 0.000000
# 2 -0.011205 0.056748 -0.001402 0.000000 -0.001659 0.000000
# 3 -0.016857 -0.001402 0.027058 0.000000 -0.015665 0.000000
# 4 0.000000 0.000000 0.000000 0.047338 0.000000 -0.001403
# 5 0.005283 -0.001659 -0.015665 0.000000 0.044329 0.000000
# 6 0.000000 0.000000 0.000000 -0.001403 0.000000 0.046454
#
#
# Mechanical properties :
#
#
# Convention : Reuss Voigt Hill
#
# Bulk Modulus (GPa) = 21.74487 64.38837 43.06662
# Shear Modulus (GPa) = 15.75827 23.22546 19.49186
#
# Velocity S-wave (km/s) = 3.11096 3.77679 3.45993
# Velocity P-wave (km/s) = 5.12435 7.65268 6.51239
#
# Compressibility (1/GPa) = 0.04598786
#
# Stress axis : x y z
#
# Youngs Moduli (GPa) = 47.37009 17.62187 36.95783
#
# Poissons Ratio (x) = 0.19745 0.62300
# Poissons Ratio (y) = 0.53077 0.05182
# Poissons Ratio (z) = 0.79852 0.02471
#
# Static dielectric constant tensor:
#      x y z
#    x 1.542610 0.000000 0.031250 
#    y 0.000000 1.558060 0.000000 
#    z 0.031250 0.000000 1.551670 
# 
# From -- ./inp_files/42856.got.cif
#   From: 2010.05.17/outbox.cif.g08.bks.cpg/sg11_22_cif.got.tgz:42856.got - 2010.06.03 12:22:45.
