data_PCOD9156972
_publ_section_title
;
Structure prediction by ZEFSAII (Michael W. Deem and Ramdas Pophale) SiO2 
 PCOD9156972
Probable space group: P 21/M
;
_chemical_formula_sum "Si O2"
_cell_formula_units_Z 32
_cell_length_a 9.155655
_cell_length_b 22.583514
_cell_length_c 17.432875
_cell_angle_alpha 90.000000
_cell_angle_beta 149.409394
_cell_angle_gamma 90.000000
_cell_volume 1834.351878
_symmetry_space_group_name_H-M "P 21/M"
_symmetry_group_IT_number 11
_symmetry_cell_setting 'monoclinic'
loop_
_space_group_symop_operation_xyz
x,y,z
-x,1/2+y,-z
-x,-y,-z
x,1/2-y,z
loop_
_atom_site_type_symbol
_atom_site_label
_atom_site_fract_x
_atom_site_fract_y
_atom_site_fract_z
Si Si1 0.576132 0.381078 0.455456
Si Si2 0.382573 0.979901 0.117212
Si Si3 0.042248 0.976448 0.435586
Si Si4 0.001625 0.397821 0.778570
Si Si5 0.977852 0.904933 0.035084
Si Si6 0.097087 0.319191 0.144491
Si Si7 0.106270 0.465661 0.318672
Si Si8 0.668735 0.103431 0.043249
O O1 0.784812 0.415921 0.491942
O O2 0.386384 0.334106 0.323426
O O3 0.346724 0.429150 0.382950
O O4 0.779207 0.365386 0.620055
O O5 0.718278 0.970025 0.260293
O O6 0.280993 0.047164 0.078782
O O7 0.263457 0.949208 0.986952
O O8 0.248823 0.943577 0.127578
O O9 0.189539 0.022553 0.444313
O O10 0.000000 0.000000 0.500000
O O11 0.942473 0.468284 0.737182
O O12 0.969778 0.383713 0.854332
O O13 0.333585 0.386675 0.905502
O O14 0.917190 0.856523 0.941565
O O15 0.075625 0.250000 0.119243
O O16 0.835947 0.341626 0.081184
O O17 0.825083 0.423940 0.187989
#
# Coordination Sequence:
#
# PCOD9156972 Si02
#       8
#     4   4   4   4   4   4   4   4
#     4  10  22  35  53  81 113 154 184 217 281 331
#     4  10  18  31  49  85 119 143 176 214 280 345
#     4  11  20  27  47  79 122 147 173 208 264 341
#     4  11  18  32  56  91 116 136 177 231 274 330
#     4  10  21  31  58  82 112 149 180 227 280 334
#     4  10  23  44  58  71 104 152 197 234 276 338
#     4  10  19  31  49  79 122 153 168 207 275 348
#     4  10  18  34  58  81 109 145 183 223 279 329
#
# _framework density 17.444853999999999
#
# number of rings (size 3 to 8) (size 9 to 14) (size 15 to 20)
#    0.000    1.750    3.750    3.375    5.250    0.000 
#    0.000    1.875    0.000    0.000    0.000    0.000 
#    0.000    0.000    0.000    0.000    0.000    0.000 
#
# Total GULP energy -178306.610100 kJ/mol
# GULP energy per Si atom -5572.081566 kJ/mol
# Density = 1.740515 g / cm^3
# Si number density = 17.444854 Si / 1000 Ang^3
#
#
#
# Elastic Constant Matrix: (Units=GPa)
#
#
# Indices 1 2 3 4 5 6 
#
# 1 79.9544 21.7680 23.5965 0.0000 -14.7017 0.0000
# 2 21.7680 76.9818 25.3682 0.0000 -6.6821 0.0000
# 3 23.5965 25.3682 79.4335 0.0000 -2.1998 0.0000
# 4 0.0000 0.0000 0.0000 14.6646 0.0000 -3.1558
# 5 -14.7017 -6.6821 -2.1998 0.0000 39.7289 0.0000
# 6 0.0000 0.0000 0.0000 -3.1558 0.0000 10.5070
#
#
#
# Elastic Compliance Matrix: (Units=1/GPa)
#
#
# Indices 1 2 3 4 5 6 
#
# 1 0.015195 -0.002708 -0.003511 0.000000 0.004973 0.000000
# 2 -0.002708 0.015193 -0.004011 0.000000 0.001331 0.000000
# 3 -0.003511 -0.004011 0.014881 0.000000 -0.001150 0.000000
# 4 0.000000 0.000000 0.000000 0.072903 0.000000 0.021897
# 5 0.004973 0.001331 -0.001150 0.000000 0.027171 0.000000
# 6 0.000000 0.000000 0.000000 0.021897 0.000000 0.101752
#
#
# Mechanical properties :
#
#
# Convention : Reuss Voigt Hill
#
# Bulk Modulus (GPa) = 40.30747 41.98168 41.14458
# Shear Modulus (GPa) = 18.12739 24.02257 21.07498
#
# Velocity S-wave (km/s) = 3.22704 3.71490 3.47953
# Velocity P-wave (km/s) = 6.08612 6.52060 6.30710
#
# Compressibility (1/GPa) = 0.02480930
#
# Stress axis : x y z
#
# Youngs Moduli (GPa) = 65.81072 65.81955 67.19849
#
# Poissons Ratio (x) = 0.17823 0.23596
# Poissons Ratio (y) = 0.17821 0.26952
# Poissons Ratio (z) = 0.23108 0.26399
#
# Static dielectric constant tensor:
#      x y z
#    x 1.534860 0.000000 0.070270 
#    y 0.000000 1.562660 0.000000 
#    z 0.070270 0.000000 1.589110 
# 
# From -- ./inp_files/25353.got.cif
#   From: 2010.05.17/outbox.cif.g08.bks.cpg/sg11_13_cif.got.tgz:25353.got - 2010.06.03 12:22:45.
