data_PCOD9156637
_publ_section_title
;
Structure prediction by ZEFSAII (Michael W. Deem and Ramdas Pophale) SiO2 
 PCOD9156637
Probable space group: P 21/M
;
_chemical_formula_sum "Si O2"
_cell_formula_units_Z 32
_cell_length_a 22.592354
_cell_length_b 8.913715
_cell_length_c 28.987965
_cell_angle_alpha 90.000000
_cell_angle_beta 161.678907
_cell_angle_gamma 90.000000
_cell_volume 1835.017927
_symmetry_space_group_name_H-M "P 21/M"
_symmetry_group_IT_number 11
_symmetry_cell_setting 'monoclinic'
loop_
_space_group_symop_operation_xyz
x,y,z
-x,1/2+y,-z
-x,-y,-z
x,1/2-y,z
loop_
_atom_site_type_symbol
_atom_site_label
_atom_site_fract_x
_atom_site_fract_y
_atom_site_fract_z
Si Si1 0.134673 0.570655 0.061127
Si Si2 0.266257 0.069154 0.554540
Si Si3 0.700516 0.578269 0.274327
Si Si4 0.548046 0.572231 0.837630
Si Si5 0.536575 0.430713 0.382817
Si Si6 0.043427 0.429352 0.896381
Si Si7 0.630094 0.429906 0.556762
Si Si8 0.961966 0.076899 0.399920
O O1 0.139148 0.750000 0.068142
O O2 0.341294 0.501967 0.221420
O O3 0.061467 0.519551 0.957112
O O4 0.000000 0.500000 0.000000
O O5 0.274277 0.250000 0.558073
O O6 0.068530 0.026078 0.432475
O O7 0.430802 0.012355 0.710864
O O8 0.304555 0.994609 0.533773
O O9 0.640932 0.750000 0.225716
O O10 0.536821 0.481259 0.176547
O O11 0.871293 0.573363 0.438189
O O12 0.790982 0.516994 0.294259
O O13 0.516766 0.750000 0.808867
O O14 0.768750 0.541188 0.994270
O O15 0.528464 0.250000 0.373312
O O16 0.569964 0.473834 0.460685
O O17 0.041638 0.250000 0.905305
O O18 0.848279 0.467845 0.727267
O O19 0.500000 0.500000 0.500000
O O20 0.612182 0.250000 0.546408
O O21 0.904570 0.250000 0.352396
#
# Coordination Sequence:
#
# PCOD9156637 Si02
#       8
#     4   4   4   4   4   4   4   4
#     4  12  24  37  56  80 107 136 172 217 264 319
#     4  10  19  31  49  75 106 138 175 220 263 309
#     4   9  16  25  40  65 100 137 174 213 256 309
#     4  10  18  29  49  73 103 139 174 215 265 315
#     4  11  22  37  56  80 108 140 176 216 267 322
#     4  10  21  38  57  79 106 138 177 220 266 317
#     4  10  23  41  59  79 105 137 177 221 266 319
#     4   8  15  26  40  63  98 137 174 210 255 309
#
# _framework density 17.438521000000001
#
# number of rings (size 3 to 8) (size 9 to 14) (size 15 to 20)
#    0.000    2.000    1.250    4.125    0.000    7.500 
#    0.000    0.000    0.000    0.000    0.000    0.875 
#    0.000    0.000    0.000    0.000    0.000    0.000 
#
# Total GULP energy -178553.408858 kJ/mol
# GULP energy per Si atom -5579.794027 kJ/mol
# Density = 1.739883 g / cm^3
# Si number density = 17.438521 Si / 1000 Ang^3
#
#
#
# Elastic Constant Matrix: (Units=GPa)
#
#
# Indices 1 2 3 4 5 6 
#
# 1 98.4410 23.8624 4.2731 0.0000 19.2796 0.0000
# 2 23.8624 52.3601 6.4488 0.0000 8.7268 0.0000
# 3 4.2731 6.4488 20.8271 0.0000 1.5010 0.0000
# 4 0.0000 0.0000 0.0000 9.0225 0.0000 7.7247
# 5 19.2796 8.7268 1.5010 0.0000 27.3733 0.0000
# 6 0.0000 0.0000 0.0000 7.7247 0.0000 33.8000
#
#
#
# Elastic Compliance Matrix: (Units=1/GPa)
#
#
# Indices 1 2 3 4 5 6 
#
# 1 0.012743 -0.004471 -0.000689 0.000000 -0.007512 0.000000
# 2 -0.004471 0.022463 -0.005772 0.000000 -0.003696 0.000000
# 3 -0.000689 -0.005772 0.049973 0.000000 -0.000415 0.000000
# 4 0.000000 0.000000 0.000000 0.137795 0.000000 -0.031492
# 5 -0.007512 -0.003696 -0.000415 0.000000 0.043024 0.000000
# 6 0.000000 0.000000 0.000000 -0.031492 0.000000 0.036783
#
#
# Mechanical properties :
#
#
# Convention : Reuss Voigt Hill
#
# Bulk Modulus (GPa) = 15.79373 26.75522 21.27448
# Shear Modulus (GPa) = 14.46136 23.17543 18.81840
#
# Velocity S-wave (km/s) = 2.88284 3.64947 3.28857
# Velocity P-wave (km/s) = 4.48971 5.75622 5.16196
#
# Compressibility (1/GPa) = 0.06331627
#
# Stress axis : x y z
#
# Youngs Moduli (GPa) = 78.47301 44.51804 20.01096
#
# Poissons Ratio (x) = 0.19902 0.01379
# Poissons Ratio (y) = 0.35082 0.11550
# Poissons Ratio (z) = 0.05406 0.25694
#
# Static dielectric constant tensor:
#      x y z
#    x 1.606170 0.000000 0.017790 
#    y 0.000000 1.588970 0.000000 
#    z 0.017790 0.000000 1.580050 
# 
# From -- ./inp_files/72166.got.cif
#   From: 2010.05.17/outbox.cif.g08.bks.cpg/sg11_37_cif.got.tgz:72166.got - 2010.06.03 12:22:45.
