data_PCOD9156392
_publ_section_title
;
Structure prediction by ZEFSAII (Michael W. Deem and Ramdas Pophale) SiO2 
 PCOD9156392
Probable space group: P 21/M
;
_chemical_formula_sum "Si O2"
_cell_formula_units_Z 32
_cell_length_a 26.649610
_cell_length_b 7.512592
_cell_length_c 21.022243
_cell_angle_alpha 90.000000
_cell_angle_beta 22.294595
_cell_angle_gamma 90.000000
_cell_volume 1596.692971
_symmetry_space_group_name_H-M "P 21/M"
_symmetry_group_IT_number 11
_symmetry_cell_setting 'monoclinic'
loop_
_space_group_symop_operation_xyz
x,y,z
-x,1/2+y,-z
-x,-y,-z
x,1/2-y,z
loop_
_atom_site_type_symbol
_atom_site_label
_atom_site_fract_x
_atom_site_fract_y
_atom_site_fract_z
Si Si1 0.096861 0.035500 0.535737
Si Si2 0.670017 0.956138 0.491299
Si Si3 0.126093 0.468237 0.643319
Si Si4 0.845546 0.963043 0.666988
Si Si5 0.153095 0.538282 0.835350
Si Si6 0.163802 0.531960 0.967071
Si Si7 0.788212 0.538633 0.869999
Si Si8 0.380553 0.955315 0.811636
O O1 0.106226 0.250000 0.524426
O O2 0.143767 0.973694 0.549708
O O3 0.173020 0.969374 0.383196
O O4 0.941097 0.992772 0.710439
O O5 0.647140 0.750000 0.536276
O O6 0.761169 0.031971 0.440643
O O7 0.525754 0.037231 0.648594
O O8 0.755163 0.960514 0.327093
O O9 0.125933 0.250000 0.644489
O O10 0.980905 0.522891 0.838260
O O11 0.826776 0.750000 0.687978
O O12 0.771775 0.029964 0.816727
O O13 0.000000 0.000000 0.500000
O O14 0.172026 0.750000 0.811638
O O15 0.183056 0.475658 0.871692
O O16 0.000000 0.500000 0.000000
O O17 0.162627 0.750000 0.969591
O O18 0.279050 0.467947 0.878848
O O19 0.765988 0.750000 0.896153
O O20 0.693516 0.458361 0.033931
O O21 0.400187 0.750000 0.768578
#
# Coordination Sequence:
#
# PCOD9156392 Si02
#       8
#     4   4   4   4   4   4   4   4
#     4   9  15  27  49  71  94 128 167 196 234 288
#     4  10  21  36  53  75  99 124 161 205 243 284
#     4   9  15  28  51  74  96 122 159 204 239 276
#     4   8  15  25  40  67  97 126 158 196 237 282
#     4  11  21  35  55  75 100 129 160 198 244 289
#     4   9  17  31  52  74  95 124 162 200 236 279
#     4  10  18  28  44  70 104 129 155 201 248 280
#     4  10  20  35  53  71  95 131 168 197 234 290
#
# _framework density 20.041423999999999
#
# number of rings (size 3 to 8) (size 9 to 14) (size 15 to 20)
#    0.000    2.500    2.500    0.750    0.000    1.500 
#    0.000    3.125    0.000    0.750    0.000    0.000 
#    0.000    0.000    0.000    0.000    0.000    0.625 
#
# Total GULP energy -178459.610264 kJ/mol
# GULP energy per Si atom -5576.862821 kJ/mol
# Density = 1.999581 g / cm^3
# Si number density = 20.041424 Si / 1000 Ang^3
#
#
#
# Elastic Constant Matrix: (Units=GPa)
#
#
# Indices 1 2 3 4 5 6 
#
# 1 190.1656 2.3737 86.9328 0.0000 6.0195 0.0000
# 2 2.3737 55.3323 -8.1531 0.0000 -6.2754 0.0000
# 3 86.9328 -8.1531 96.4288 0.0000 -9.6996 0.0000
# 4 0.0000 0.0000 0.0000 7.2091 0.0000 8.0629
# 5 6.0195 -6.2754 -9.6996 0.0000 32.8278 0.0000
# 6 0.0000 0.0000 0.0000 8.0629 0.0000 3.0309
#
#
#
# Elastic Compliance Matrix: (Units=1/GPa)
#
#
# Indices 1 2 3 4 5 6 
#
# 1 0.009827 -0.002410 -0.009575 0.000000 -0.005092 0.000000
# 2 -0.002410 0.019437 0.004364 0.000000 0.005447 0.000000
# 3 -0.009575 0.004364 0.020234 0.000000 0.008568 0.000000
# 4 0.000000 0.000000 0.000000 -0.070224 0.000000 0.186813
# 5 -0.005092 0.005447 0.008568 0.000000 0.034969 0.000000
# 6 0.000000 0.000000 0.000000 0.186813 0.000000 -0.167031
#
#
# Mechanical properties :
#
#
# Convention : Reuss Voigt Hill
#
# Bulk Modulus (GPa) = 29.19310 56.02596 42.60953
# Shear Modulus (GPa) = -39.64225 25.99846 -6.82190
#
# Velocity S-wave (km/s) = -4.45231 3.60562 -1.84697
# Velocity P-wave (km/s) = 3.43988 6.73423 4.09371
#
# Compressibility (1/GPa) = 0.03425467
#
# Stress axis : x y z
#
# Youngs Moduli (GPa) = 101.75936 51.44892 49.42292
#
# Poissons Ratio (x) = 0.12399 0.47324
# Poissons Ratio (y) = 0.24524 -0.21568
# Poissons Ratio (z) = 0.97438 -0.22452
#
# Static dielectric constant tensor:
#      x y z
#    x 1.735550 0.000000 0.014260 
#    y 0.000000 1.735780 0.000000 
#    z 0.014260 0.000000 1.656960 
# 
# From -- ./inp_files/66926.got.cif
#   From: 2010.05.17/outbox.cif.g08.bks.cpg/sg11_34_cif.got.tgz:66926.got - 2010.06.03 12:22:45.
