data_PCOD9156369
_publ_section_title
;
Structure prediction by ZEFSAII (Michael W. Deem and Ramdas Pophale) SiO2 
 PCOD9156369
Probable space group: P 21/M
;
_chemical_formula_sum "Si O2"
_cell_formula_units_Z 32
_cell_length_a 21.116360
_cell_length_b 9.453093
_cell_length_c 14.933684
_cell_angle_alpha 90.000000
_cell_angle_beta 137.646770
_cell_angle_gamma 90.000000
_cell_volume 2008.288428
_symmetry_space_group_name_H-M "P 21/M"
_symmetry_group_IT_number 11
_symmetry_cell_setting 'monoclinic'
loop_
_space_group_symop_operation_xyz
x,y,z
-x,1/2+y,-z
-x,-y,-z
x,1/2-y,z
loop_
_atom_site_type_symbol
_atom_site_label
_atom_site_fract_x
_atom_site_fract_y
_atom_site_fract_z
Si Si1 0.952930 0.411358 0.336640
Si Si2 0.189362 0.412426 0.708609
Si Si3 0.811398 0.411841 0.017559
Si Si4 0.879810 0.918248 0.620576
Si Si5 0.489449 0.580413 0.894614
Si Si6 0.273695 0.917793 0.631104
Si Si7 0.020802 0.579089 0.930060
Si Si8 0.330874 0.087810 0.026027
O O1 0.954381 0.250000 0.373418
O O2 0.908286 0.522080 0.358515
O O3 0.052086 0.446222 0.393971
O O4 0.880713 0.410143 0.176521
O O5 0.179503 0.250000 0.668180
O O6 0.235353 0.509845 0.681508
O O7 0.260275 0.412930 0.867132
O O8 0.784585 0.250000 0.971485
O O9 0.721028 0.500982 0.951013
O O10 0.878582 0.463595 0.007712
O O11 0.861200 0.750000 0.602035
O O12 0.940694 0.952741 0.772148
O O13 0.785909 0.007636 0.509217
O O14 0.502056 0.750000 0.922911
O O15 0.385443 0.557940 0.746906
O O16 0.570401 0.533771 0.910030
O O17 0.500000 0.500000 0.000000
O O18 0.256769 0.750000 0.614600
O O19 0.022314 0.750000 0.942294
O O20 0.000000 0.500000 0.000000
O O21 0.343271 0.250000 0.067612
#
# Coordination Sequence:
#
# PCOD9156369 Si02
#       8
#     4   4   4   4   4   4   4   4
#     4   8  15  29  46  62  86 121 158 194 230 272
#     4  10  18  28  44  64  88 122 161 201 240 277
#     4   8  15  28  46  70  97 122 151 187 231 281
#     4   9  19  35  50  66  94 127 156 191 234 282
#     4  10  20  33  47  66  92 124 166 211 249 283
#     4  11  22  32  45  65  91 125 164 203 241 280
#     4   9  18  33  54  79 103 126 151 184 230 287
#     4   9  17  29  45  66  92 122 160 203 242 279
#
# _framework density 15.933968
#
# number of rings (size 3 to 8) (size 9 to 14) (size 15 to 20)
#    0.000    2.750    1.250    2.250    0.000    3.500 
#    0.000    2.500    0.000    0.000    0.000    0.875 
#    0.000    0.000    0.000    0.000    0.000    0.000 
#
# Total GULP energy -178391.033771 kJ/mol
# GULP energy per Si atom -5574.719805 kJ/mol
# Density = 1.589770 g / cm^3
# Si number density = 15.933968 Si / 1000 Ang^3
#
#
#
# Elastic Constant Matrix: (Units=GPa)
#
#
# Indices 1 2 3 4 5 6 
#
# 1 131.1864 63.3328 52.7766 0.0000 12.6324 0.0000
# 2 63.3328 62.2295 42.6781 0.0000 11.1775 0.0000
# 3 52.7766 42.6781 62.3011 0.0000 13.4489 0.0000
# 4 0.0000 0.0000 0.0000 22.4254 0.0000 -0.4073
# 5 12.6324 11.1775 13.4489 0.0000 26.8588 0.0000
# 6 0.0000 0.0000 0.0000 -0.4073 0.0000 28.6661
#
#
#
# Elastic Compliance Matrix: (Units=1/GPa)
#
#
# Indices 1 2 3 4 5 6 
#
# 1 0.015605 -0.012870 -0.004457 0.000000 0.000248 0.000000
# 2 -0.012870 0.041071 -0.016650 0.000000 -0.002702 0.000000
# 3 -0.004457 -0.016650 0.032833 0.000000 -0.007415 0.000000
# 4 0.000000 0.000000 0.000000 0.044604 0.000000 0.000634
# 5 0.000248 -0.002702 -0.007415 0.000000 0.041953 0.000000
# 6 0.000000 0.000000 0.000000 0.000634 0.000000 0.034893
#
#
# Mechanical properties :
#
#
# Convention : Reuss Voigt Hill
#
# Bulk Modulus (GPa) = 46.38856 63.69909 55.04382
# Shear Modulus (GPa) = 17.47667 22.05203 19.76435
#
# Velocity S-wave (km/s) = 3.31542 3.72420 3.52574
# Velocity P-wave (km/s) = 6.62059 7.65223 7.15503
#
# Compressibility (1/GPa) = 0.02155704
#
# Stress axis : x y z
#
# Youngs Moduli (GPa) = 64.08276 24.34798 30.45759
#
# Poissons Ratio (x) = 0.31335 0.13574
# Poissons Ratio (y) = 0.82472 0.50710
# Poissons Ratio (z) = 0.28560 0.40538
#
# Static dielectric constant tensor:
#      x y z
#    x 1.525960 0.000000 0.013960 
#    y 0.000000 1.535410 0.000000 
#    z 0.013960 0.000000 1.550150 
# 
# From -- ./inp_files/54336.got.cif
#   From: 2010.05.17/outbox.cif.g08.bks.cpg/sg11_28_cif.got.tgz:54336.got - 2010.06.03 12:22:45.
