data_PCOD9156773
_publ_section_title
;
Structure prediction by ZEFSAII (Michael W. Deem and Ramdas Pophale) SiO2 
 PCOD9156773
Probable space group: P 21/M
;
_chemical_formula_sum "Si O2"
_cell_formula_units_Z 32
_cell_length_a 21.295924
_cell_length_b 8.756667
_cell_length_c 33.076242
_cell_angle_alpha 90.000000
_cell_angle_beta 18.314876
_cell_angle_gamma 90.000000
_cell_volume 1938.257611
_symmetry_space_group_name_H-M "P 21/M"
_symmetry_group_IT_number 11
_symmetry_cell_setting 'monoclinic'
loop_
_space_group_symop_operation_xyz
x,y,z
-x,1/2+y,-z
-x,-y,-z
x,1/2-y,z
loop_
_atom_site_type_symbol
_atom_site_label
_atom_site_fract_x
_atom_site_fract_y
_atom_site_fract_z
Si Si1 0.979234 0.429925 0.362646
Si Si2 0.319146 0.070536 0.007891
Si Si3 0.286258 0.066763 0.939560
Si Si4 0.255356 0.069218 0.272190
Si Si5 0.291200 0.930132 0.111030
Si Si6 0.627721 0.434074 0.628512
Si Si7 0.826300 0.932483 0.078997
Si Si8 0.716125 0.929489 0.658389
O O1 0.971634 0.250000 0.356811
O O2 0.102684 0.444476 0.328943
O O3 0.106214 0.514944 0.251270
O O4 0.757976 0.485036 0.510400
O O5 0.300945 0.250000 0.027293
O O6 0.211726 0.036702 0.030589
O O7 0.550335 0.028045 0.858074
O O8 0.258222 0.980298 0.084939
O O9 0.338410 0.250000 0.906128
O O10 0.152113 0.035224 0.982273
O O11 0.484843 0.966997 0.811482
O O12 0.309925 0.250000 0.241721
O O13 0.178430 0.022866 0.363869
O O14 0.312486 0.750000 0.100469
O O15 0.500000 0.000000 0.000000
O O16 0.628298 0.250000 0.627960
O O17 0.397124 0.485875 0.771539
O O18 0.734725 0.484695 0.604677
O O19 0.828327 0.750000 0.082311
O O20 0.000000 0.000000 0.000000
O O21 0.749137 0.750000 0.631603
#
# Coordination Sequence:
#
# PCOD9156773 Si02
#       8
#     4   4   4   4   4   4   4   4
#     4  10  20  34  49  64  89 127 167 204 243 283
#     4  10  18  30  49  69  92 126 164 204 246 282
#     4   8  16  30  47  69  97 126 158 193 235 289
#     4   9  17  28  43  64  90 122 162 203 237 274
#     4  12  23  34  48  69  95 126 167 211 247 281
#     4   9  19  34  48  65  94 129 160 194 238 290
#     4   9  17  31  51  76 102 127 155 189 232 288
#     4   9  16  26  42  65  92 122 158 197 233 272
#
# _framework density 16.509672999999999
#
# number of rings (size 3 to 8) (size 9 to 14) (size 15 to 20)
#    0.000    2.500    1.250    2.625    0.000    4.000 
#    0.000    0.000    0.000    0.000    0.000    0.875 
#    0.000    0.000    0.000    0.000    0.000    0.000 
#
# Total GULP energy -178255.125101 kJ/mol
# GULP energy per Si atom -5570.472659 kJ/mol
# Density = 1.647210 g / cm^3
# Si number density = 16.509673 Si / 1000 Ang^3
#
#
#
# Elastic Constant Matrix: (Units=GPa)
#
#
# Indices 1 2 3 4 5 6 
#
# 1 100.6304 34.6577 57.2628 0.0000 12.5755 0.0000
# 2 34.6577 36.1565 35.1761 0.0000 11.6421 0.0000
# 3 57.2628 35.1761 93.2243 0.0000 26.2647 0.0000
# 4 0.0000 0.0000 0.0000 15.1785 0.0000 5.6544
# 5 12.5755 11.6421 26.2647 0.0000 29.0965 0.0000
# 6 0.0000 0.0000 0.0000 5.6544 0.0000 25.5721
#
#
#
# Elastic Compliance Matrix: (Units=1/GPa)
#
#
# Indices 1 2 3 4 5 6 
#
# 1 0.017527 -0.010275 -0.007929 0.000000 0.003694 0.000000
# 2 -0.010275 0.049989 -0.010952 0.000000 -0.005675 0.000000
# 3 -0.007929 -0.010952 0.023508 0.000000 -0.013411 0.000000
# 4 0.000000 0.000000 0.000000 0.071797 0.000000 -0.015875
# 5 0.003694 -0.005675 -0.013411 0.000000 0.047148 0.000000
# 6 0.000000 0.000000 0.000000 -0.015875 0.000000 0.042615
#
#
# Mechanical properties :
#
#
# Convention : Reuss Voigt Hill
#
# Bulk Modulus (GPa) = 30.57077 53.80051 42.18564
# Shear Modulus (GPa) = 15.53753 20.83038 18.18396
#
# Velocity S-wave (km/s) = 3.07109 3.55591 3.32235
# Velocity P-wave (km/s) = 5.57966 7.03685 6.35019
#
# Compressibility (1/GPa) = 0.03271098
#
# Stress axis : x y z
#
# Youngs Moduli (GPa) = 57.05576 20.00440 42.53827
#
# Poissons Ratio (x) = 0.20555 0.33730
# Poissons Ratio (y) = 0.58626 0.46587
# Poissons Ratio (z) = 0.45241 0.21909
#
# Static dielectric constant tensor:
#      x y z
#    x 1.576890 0.000000 0.017360 
#    y 0.000000 1.542820 0.000000 
#    z 0.017360 0.000000 1.579390 
# 
# From -- ./inp_files/40652.got.cif
#   From: 2010.05.17/outbox.cif.g08.bks.cpg/sg11_21_cif.got.tgz:40652.got - 2010.06.03 12:22:45.
