data_PCOD9156844
_publ_section_title
;
Structure prediction by ZEFSAII (Michael W. Deem and Ramdas Pophale) SiO2 
 PCOD9156844
Probable space group: P 21/M
;
_chemical_formula_sum "Si O2"
_cell_formula_units_Z 32
_cell_length_a 12.272309
_cell_length_b 8.102579
_cell_length_c 17.721823
_cell_angle_alpha 90.000000
_cell_angle_beta 133.169952
_cell_angle_gamma 90.000000
_cell_volume 1285.229120
_symmetry_space_group_name_H-M "P 21/M"
_symmetry_group_IT_number 11
_symmetry_cell_setting 'monoclinic'
loop_
_space_group_symop_operation_xyz
x,y,z
-x,1/2+y,-z
-x,-y,-z
x,1/2-y,z
loop_
_atom_site_type_symbol
_atom_site_label
_atom_site_fract_x
_atom_site_fract_y
_atom_site_fract_z
Si Si1 0.304897 0.446163 0.478957
Si Si2 0.355762 0.552490 0.341794
Si Si3 0.902688 0.950303 0.025649
Si Si4 0.020313 0.946286 0.408557
Si Si5 0.956487 0.939978 0.211855
Si Si6 0.706014 0.061488 0.311386
Si Si7 0.629372 0.563616 0.113864
Si Si8 0.383718 0.448173 0.192987
O O1 0.305526 0.250000 0.484167
O O2 0.267557 0.495542 0.374412
O O3 0.473402 0.511522 0.568405
O O4 0.196270 0.511347 0.493330
O O5 0.357353 0.750000 0.342485
O O6 0.309788 0.490708 0.238178
O O7 0.901829 0.750000 0.031216
O O8 0.731728 0.004518 0.926444
O O9 0.974926 0.014793 0.137801
O O10 0.000000 0.000000 0.000000
O O11 0.005624 0.750000 0.399783
O O12 0.993164 0.017688 0.310657
O O13 0.879797 0.002018 0.392409
O O14 0.015560 0.750000 0.240514
O O15 0.777368 0.928748 0.133860
O O16 0.713550 0.250000 0.339452
O O17 0.553655 0.981805 0.273288
O O18 0.661220 0.047786 0.201425
O O19 0.601038 0.750000 0.128548
O O20 0.500000 0.500000 0.000000
O O21 0.396423 0.250000 0.192075
#
# Coordination Sequence:
#
# PCOD9156844 Si02
#       8
#     4   4   4   4   4   4   4   4
#     4  10  21  39  62  89 119 148 188 241 294 352
#     4  10  22  39  62  89 116 151 193 240 294 347
#     4  10  21  37  53  76 110 150 192 236 283 338
#     4  10  20  35  59  89 118 152 192 240 292 344
#     4   8  17  33  50  71 105 143 181 224 275 328
#     4  10  20  36  56  81 113 153 194 238 293 349
#     4  10  18  30  50  74 101 140 188 240 288 336
#     4  10  22  39  59  82 117 158 195 238 293 350
#
# _framework density 24.898285000000001
#
# number of rings (size 3 to 8) (size 9 to 14) (size 15 to 20)
#    0.000    2.250    0.000    3.375    1.750    5.000 
#    0.000    5.000    0.000    0.000    0.000    0.000 
#    0.000    0.000    0.000    0.000    0.000    0.000 
#
# Total GULP energy -178684.967832 kJ/mol
# GULP energy per Si atom -5583.905245 kJ/mol
# Density = 2.484162 g / cm^3
# Si number density = 24.898285 Si / 1000 Ang^3
#
#
#
# Elastic Constant Matrix: (Units=GPa)
#
#
# Indices 1 2 3 4 5 6 
#
# 1 173.1005 5.3479 18.0939 0.0000 9.9040 0.0000
# 2 5.3479 41.5583 -3.3480 0.0000 7.7034 0.0000
# 3 18.0939 -3.3480 51.8955 0.0000 15.3081 0.0000
# 4 0.0000 0.0000 0.0000 19.3764 0.0000 0.6988
# 5 9.9040 7.7034 15.3081 0.0000 52.1347 0.0000
# 6 0.0000 0.0000 0.0000 0.6988 0.0000 34.5070
#
#
#
# Elastic Compliance Matrix: (Units=1/GPa)
#
#
# Indices 1 2 3 4 5 6 
#
# 1 0.006041 -0.000863 -0.002037 0.000000 -0.000422 0.000000
# 2 -0.000863 0.025277 0.003268 0.000000 -0.004530 0.000000
# 3 -0.002037 0.003268 0.022136 0.000000 -0.006596 0.000000
# 4 0.000000 0.000000 0.000000 0.051647 0.000000 -0.001046
# 5 -0.000422 -0.004530 -0.006596 0.000000 0.021867 0.000000
# 6 0.000000 0.000000 0.000000 -0.001046 0.000000 0.029001
#
#
# Mechanical properties :
#
#
# Convention : Reuss Voigt Hill
#
# Bulk Modulus (GPa) = 18.45413 34.08244 26.26829
# Shear Modulus (GPa) = 28.85219 37.63431 33.24325
#
# Velocity S-wave (km/s) = 3.40781 3.89205 3.65795
# Velocity P-wave (km/s) = 4.78666 5.82372 5.33047
#
# Compressibility (1/GPa) = 0.05418842
#
# Stress axis : x y z
#
# Youngs Moduli (GPa) = 165.54191 39.56206 45.17472
#
# Poissons Ratio (x) = 0.03415 0.09204
# Poissons Ratio (y) = 0.14291 -0.14764
# Poissons Ratio (z) = 0.33729 -0.12929
#
# Static dielectric constant tensor:
#      x y z
#    x 2.021850 0.000000 0.023670 
#    y 0.000000 1.885750 0.000000 
#    z 0.023670 0.000000 2.106730 
# 
# From -- ./inp_files/64432.got.cif
#   From: 2010.05.17/outbox.cif.g08.bks.cpg/sg11_33_cif.got.tgz:64432.got - 2010.06.03 12:22:45.
