data_PCOD9156908
_publ_section_title
;
Structure prediction by ZEFSAII (Michael W. Deem and Ramdas Pophale) SiO2 
 PCOD9156908
Probable space group: P 21/M
;
_chemical_formula_sum "Si O2"
_cell_formula_units_Z 30
_cell_length_a 9.305535
_cell_length_b 9.634081
_cell_length_c 17.582907
_cell_angle_alpha 90.000000
_cell_angle_beta 117.397822
_cell_angle_gamma 90.000000
_cell_volume 1399.502063
_symmetry_space_group_name_H-M "P 21/M"
_symmetry_group_IT_number 11
_symmetry_cell_setting 'monoclinic'
loop_
_space_group_symop_operation_xyz
x,y,z
-x,1/2+y,-z
-x,-y,-z
x,1/2-y,z
loop_
_atom_site_type_symbol
_atom_site_label
_atom_site_fract_x
_atom_site_fract_y
_atom_site_fract_z
Si Si1 0.213370 0.983180 0.529121
Si Si2 0.992092 0.750000 0.465699
Si Si3 0.750054 0.909066 0.947654
Si Si4 0.203587 0.901269 0.699532
Si Si5 0.507391 0.911220 0.208040
Si Si6 0.954750 0.091175 0.100796
Si Si7 0.557241 0.087565 0.624766
Si Si8 0.128176 0.089265 0.298404
O O1 0.396522 0.016618 0.551748
O O2 0.125141 0.127896 0.525662
O O3 0.108093 0.873278 0.457605
O O4 0.218114 0.904487 0.612311
O O5 0.702070 0.750000 0.951271
O O6 0.904373 0.904990 0.928360
O O7 0.613318 0.996122 0.870948
O O8 0.814164 0.990858 0.037106
O O9 0.263329 0.750000 0.741440
O O10 0.017775 0.911317 0.677515
O O11 0.313231 0.025420 0.756527
O O12 0.499412 0.750000 0.184698
O O13 0.464837 0.920743 0.287775
O O14 0.896485 0.250000 0.097492
O O15 0.041958 0.044173 0.198949
O O16 0.564229 0.250000 0.606515
O O17 0.719369 0.004387 0.646532
O O18 0.181597 0.250000 0.301608
#
# Coordination Sequence:
#
# PCOD9156908 Si02
#       8
#     4   2   4   4   4   4   4   4
#     4  10  20  37  61  90 110 147 176 229 261 320
#     4  10  20  36  64  88 114 138 184 218 272 314
#     4  10  18  30  52  77 107 140 185 237 281 324
#     4  10  21  37  56  82 114 146 183 222 275 324
#     4  10  20  33  54  80 109 143 186 239 276 320
#     4   9  18  32  49  75 107 144 183 227 282 325
#     4  10  20  34  54  84 114 139 186 227 269 315
#     4  10  21  36  56  79 112 150 184 225 273 333
#
# _framework density 21.436192999999999
#
# number of rings (size 3 to 8) (size 9 to 14) (size 15 to 20)
#    0.000    2.133    2.667    0.800    1.867    2.133 
#    0.000    0.667    0.000    4.800    0.000    0.000 
#    0.000    0.000    0.000    0.000    0.000    0.000 
#
# Total GULP energy -167102.667375 kJ/mol
# GULP energy per Si atom -5570.088912 kJ/mol
# Density = 2.138740 g / cm^3
# Si number density = 21.436193 Si / 1000 Ang^3
#
#
#
# Elastic Constant Matrix: (Units=GPa)
#
#
# Indices 1 2 3 4 5 6 
#
# 1 71.7357 36.3320 11.5374 0.0000 16.0023 0.0000
# 2 36.3320 162.4908 37.8882 0.0000 23.2118 0.0000
# 3 11.5374 37.8882 69.1056 0.0000 3.9448 0.0000
# 4 0.0000 0.0000 0.0000 331.1292 0.0000 82.0097
# 5 16.0023 23.2118 3.9448 0.0000 22.9559 0.0000
# 6 0.0000 0.0000 0.0000 82.0097 0.0000 41.5430
#
#
#
# Elastic Compliance Matrix: (Units=1/GPa)
#
#
# Indices 1 2 3 4 5 6 
#
# 1 0.017418 -0.002251 -0.001122 0.000000 -0.009673 0.000000
# 2 -0.002251 0.008473 -0.003908 0.000000 -0.006326 0.000000
# 3 -0.001122 -0.003908 0.016694 0.000000 0.001865 0.000000
# 4 0.000000 0.000000 0.000000 0.005909 0.000000 -0.011665
# 5 -0.009673 -0.006326 0.001865 0.000000 0.056381 0.000000
# 6 0.000000 0.000000 0.000000 -0.011665 0.000000 0.047099
#
#
# Mechanical properties :
#
#
# Convention : Reuss Voigt Hill
#
# Bulk Modulus (GPa) = 35.68507 52.76080 44.22293
# Shear Modulus (GPa) = 28.42898 93.63061 61.02980
#
# Velocity S-wave (km/s) = 3.64567 6.61616 5.34156
# Velocity P-wave (km/s) = 5.86553 9.11214 7.66276
#
# Compressibility (1/GPa) = 0.02802292
#
# Stress axis : x y z
#
# Youngs Moduli (GPa) = 57.41023 118.02853 59.90131
#
# Poissons Ratio (x) = 0.26573 0.06718
# Poissons Ratio (y) = 0.12925 0.23411
# Poissons Ratio (z) = 0.06439 0.46128
#
# Static dielectric constant tensor:
#      x y z
#    x 1.794940 0.000000 -0.030170 
#    y 0.000000 1.751000 0.000000 
#    z -0.030170 0.000000 1.843070 
# 
# From -- ./inp_files/25815.got.cif
#   From: 2010.05.17/outbox.cif.g08.bks.cpg/sg11_13_cif.got.tgz:25815.got - 2010.06.03 12:22:45.
