data_PCOD9156282
_publ_section_title
;
Structure prediction by ZEFSAII (Michael W. Deem and Ramdas Pophale) SiO2 
 PCOD9156282
Probable space group: P 21/M
;
_chemical_formula_sum "Si O2"
_cell_formula_units_Z 32
_cell_length_a 15.370687
_cell_length_b 8.655070
_cell_length_c 14.552170
_cell_angle_alpha 90.000000
_cell_angle_beta 89.680952
_cell_angle_gamma 90.000000
_cell_volume 1935.908782
_symmetry_space_group_name_H-M "P 21/M"
_symmetry_group_IT_number 11
_symmetry_cell_setting 'monoclinic'
loop_
_space_group_symop_operation_xyz
x,y,z
-x,1/2+y,-z
-x,-y,-z
x,1/2-y,z
loop_
_atom_site_type_symbol
_atom_site_label
_atom_site_fract_x
_atom_site_fract_y
_atom_site_fract_z
Si Si1 0.343790 0.562643 0.212075
Si Si2 0.678970 0.434395 0.178926
Si Si3 0.371626 0.071925 0.529160
Si Si4 0.207205 0.073081 0.671377
Si Si5 0.401522 0.562473 0.011888
Si Si6 0.249048 0.564756 0.383303
Si Si7 0.525400 0.562962 0.305787
Si Si8 0.904717 0.434448 0.483876
O O1 0.337723 0.750000 0.207469
O O2 0.358300 0.508988 0.107908
O O3 0.266348 0.507935 0.279469
O O4 0.431651 0.524835 0.267001
O O5 0.685889 0.250000 0.182104
O O6 0.761296 0.504931 0.231882
O O7 0.595245 0.488286 0.237494
O O8 0.657815 0.482418 0.074802
O O9 0.385718 0.250000 0.501157
O O10 0.292662 0.070462 0.604839
O O11 0.452136 0.013243 0.590308
O O12 0.332751 0.976130 0.445606
O O13 0.180340 0.250000 0.682408
O O14 0.134676 0.982639 0.614428
O O15 0.407493 0.750000 0.013407
O O16 0.500000 0.500000 0.000000
O O17 0.242882 0.750000 0.380285
O O18 0.164147 0.506771 0.438262
O O19 0.535574 0.750000 0.303843
O O20 0.907126 0.250000 0.489203
O O21 0.000000 0.500000 0.500000
#
# Coordination Sequence:
#
# PCOD9156282 Si02
#       8
#     4   4   4   4   4   4   4   4
#     4   9  17  30  45  61  86 122 161 196 233 274
#     4  10  18  27  42  67  94 120 157 203 239 268
#     4   8  15  26  40  60  86 117 152 186 222 266
#     4   9  17  30  48  69  94 125 154 185 231 281
#     4  10  19  30  46  65  89 123 164 206 241 272
#     4   9  18  31  46  64  88 120 154 187 224 274
#     4   9  16  27  43  59  82 122 161 191 230 274
#     4  10  19  32  52  77 101 122 148 185 227 281
#
# _framework density 16.529705
#
# number of rings (size 3 to 8) (size 9 to 14) (size 15 to 20)
#    0.000    2.750    1.250    1.875    0.000    4.500 
#    0.000    1.250    0.000    0.000    0.000    0.875 
#    0.000    0.000    0.000    0.000    0.000    0.000 
#
# Total GULP energy -178250.213004 kJ/mol
# GULP energy per Si atom -5570.319156 kJ/mol
# Density = 1.649208 g / cm^3
# Si number density = 16.529705 Si / 1000 Ang^3
#
#
#
# Elastic Constant Matrix: (Units=GPa)
#
#
# Indices 1 2 3 4 5 6 
#
# 1 67.9876 21.5829 64.4491 0.0000 7.6783 0.0000
# 2 21.5829 21.2842 23.8560 0.0000 5.0176 0.0000
# 3 64.4491 23.8560 148.2250 0.0000 -0.1026 0.0000
# 4 0.0000 0.0000 0.0000 18.3126 0.0000 6.6304
# 5 7.6783 5.0176 -0.1026 0.0000 19.2465 0.0000
# 6 0.0000 0.0000 0.0000 6.6304 0.0000 16.4620
#
#
#
# Elastic Compliance Matrix: (Units=1/GPa)
#
#
# Indices 1 2 3 4 5 6 
#
# 1 0.031617 -0.018016 -0.010853 0.000000 -0.007974 0.000000
# 2 -0.018016 0.072270 -0.003806 0.000000 -0.011674 0.000000
# 3 -0.010853 -0.003806 0.012082 0.000000 0.005386 0.000000
# 4 0.000000 0.000000 0.000000 0.063930 0.000000 -0.025749
# 5 -0.007974 -0.011674 0.005386 0.000000 0.058211 0.000000
# 6 0.000000 0.000000 0.000000 -0.025749 0.000000 0.071117
#
#
# Mechanical properties :
#
#
# Convention : Reuss Voigt Hill
#
# Bulk Modulus (GPa) = 19.75576 50.80810 35.28193
# Shear Modulus (GPa) = 12.77305 19.31147 16.04226
#
# Velocity S-wave (km/s) = 2.78282 3.42173 3.11868
# Velocity P-wave (km/s) = 4.72262 6.81287 5.86167
#
# Compressibility (1/GPa) = 0.05061814
#
# Stress axis : x y z
#
# Youngs Moduli (GPa) = 31.62902 13.83701 82.76952
#
# Poissons Ratio (x) = 0.24929 0.89830
# Poissons Ratio (y) = 0.56983 0.31503
# Poissons Ratio (z) = 0.34327 0.05266
#
# Static dielectric constant tensor:
#      x y z
#    x 1.554620 0.000000 -0.014630 
#    y 0.000000 1.563700 0.000000 
#    z -0.014630 0.000000 1.591260 
# 
# From -- ./inp_files/51367.got.cif
#   From: 2010.05.17/outbox.cif.g08.bks.cpg/sg11_26_cif.got.tgz:51367.got - 2010.06.03 12:22:45.
