data_PCOD9156245
_publ_section_title
;
Structure prediction by ZEFSAII (Michael W. Deem and Ramdas Pophale) SiO2 
 PCOD9156245
Probable space group: P 21/M
;
_chemical_formula_sum "Si O2"
_cell_formula_units_Z 32
_cell_length_a 14.081427
_cell_length_b 8.560432
_cell_length_c 27.619700
_cell_angle_alpha 90.000000
_cell_angle_beta 139.579341
_cell_angle_gamma 90.000000
_cell_volume 2158.741260
_symmetry_space_group_name_H-M "P 21/M"
_symmetry_group_IT_number 11
_symmetry_cell_setting 'monoclinic'
loop_
_space_group_symop_operation_xyz
x,y,z
-x,1/2+y,-z
-x,-y,-z
x,1/2-y,z
loop_
_atom_site_type_symbol
_atom_site_label
_atom_site_fract_x
_atom_site_fract_y
_atom_site_fract_z
Si Si1 0.985740 0.065727 0.915440
Si Si2 0.785069 0.938785 0.386660
Si Si3 0.627399 0.436893 0.616101
Si Si4 0.782874 0.563138 0.922449
Si Si5 0.309463 0.561114 0.467823
Si Si6 0.094023 0.938452 0.466531
Si Si7 0.257299 0.433895 0.239343
Si Si8 0.461037 0.936992 0.232736
O O1 0.980869 0.250000 0.903944
O O2 0.881451 0.025746 0.920808
O O3 0.907338 0.977895 0.841161
O O4 0.147236 0.023942 0.998180
O O5 0.784364 0.750000 0.388351
O O6 0.628258 0.988659 0.305323
O O7 0.926213 0.989153 0.409945
O O8 0.813914 0.001125 0.451825
O O9 0.633150 0.250000 0.622821
O O10 0.458528 0.490716 0.547467
O O11 0.696792 0.482987 0.591139
O O12 0.705178 0.512046 0.692283
O O13 0.800315 0.750000 0.922474
O O14 0.619862 0.513842 0.844659
O O15 0.321513 0.750000 0.474445
O O16 0.172687 0.512013 0.447643
O O17 0.095354 0.750000 0.468319
O O18 0.278287 0.250000 0.242366
O O19 0.368078 0.516458 0.244439
O O20 0.456418 0.750000 0.225913
#
# Coordination Sequence:
#
# PCOD9156245 Si02
#       8
#     4   4   4   4   4   4   4   4
#     4   9  16  26  39  55  77 105 135 165 197 233
#     4   9  18  29  41  60  82 105 134 166 199 234
#     4  10  19  30  43  60  82 105 133 168 203 240
#     4   9  16  25  38  56  78 105 135 164 195 234
#     4   9  18  31  46  61  78 105 136 167 203 239
#     4   9  17  30  45  59  78 104 135 168 200 236
#     4  11  20  28  40  58  81 109 139 168 198 234
#     4  10  18  27  40  58  82 110 137 166 199 234
#
# _framework density 14.823454999999999
#
# number of rings (size 3 to 8) (size 9 to 14) (size 15 to 20)
#    0.000    2.500    0.000    4.875    0.000    5.500 
#    0.000    0.000    0.000    0.000    0.000    0.000 
#    0.000    1.000    0.000    2.000    0.000    3.125 
#
# Total GULP energy -178249.758825 kJ/mol
# GULP energy per Si atom -5570.304963 kJ/mol
# Density = 1.478972 g / cm^3
# Si number density = 14.823455 Si / 1000 Ang^3
#
#
#
# Elastic Constant Matrix: (Units=GPa)
#
#
# Indices 1 2 3 4 5 6 
#
# 1 67.1439 8.2567 41.0242 0.0000 2.4577 0.0000
# 2 8.2567 18.5480 14.9190 0.0000 -1.0688 0.0000
# 3 41.0242 14.9190 131.0836 0.0000 4.4350 0.0000
# 4 0.0000 0.0000 0.0000 26.2338 0.0000 -2.0995
# 5 2.4577 -1.0688 4.4350 0.0000 18.8107 0.0000
# 6 0.0000 0.0000 0.0000 -2.0995 0.0000 8.7231
#
#
#
# Elastic Compliance Matrix: (Units=1/GPa)
#
#
# Indices 1 2 3 4 5 6 
#
# 1 0.018715 -0.004117 -0.005340 0.000000 -0.001420 0.000000
# 2 -0.004117 0.060724 -0.005804 0.000000 0.005357 0.000000
# 3 -0.005340 -0.005804 0.010028 0.000000 -0.001996 0.000000
# 4 0.000000 0.000000 0.000000 0.038867 0.000000 0.009355
# 5 -0.001420 0.005357 -0.001996 0.000000 0.054122 0.000000
# 6 0.000000 0.000000 0.000000 0.009355 0.000000 0.116889
#
#
# Mechanical properties :
#
#
# Convention : Reuss Voigt Hill
#
# Bulk Modulus (GPa) = 16.96531 38.35280 27.65905
# Shear Modulus (GPa) = 14.30550 20.92524 17.61537
#
# Velocity S-wave (km/s) = 3.10991 3.76124 3.45098
# Velocity P-wave (km/s) = 4.93611 6.69267 5.88035
#
# Compressibility (1/GPa) = 0.05894381
#
# Stress axis : x y z
#
# Youngs Moduli (GPa) = 53.43443 16.46798 99.71957
#
# Poissons Ratio (x) = 0.06780 0.53253
# Poissons Ratio (y) = 0.22000 0.57876
# Poissons Ratio (z) = 0.28536 0.09558
#
# Static dielectric constant tensor:
#      x y z
#    x 1.480350 0.000000 0.012750 
#    y 0.000000 1.504570 0.000000 
#    z 0.012750 0.000000 1.518950 
# 
# From -- ./inp_files/71515.got.cif
#   From: 2010.05.17/outbox.cif.g08.bks.cpg/sg11_36_cif.got.tgz:71515.got - 2010.06.03 12:22:45.
