data_PCOD9156063
_publ_section_title
;
Structure prediction by ZEFSAII (Michael W. Deem and Ramdas Pophale) SiO2 
 PCOD9156063
Probable space group: P 21/M
;
_chemical_formula_sum "Si O2"
_cell_formula_units_Z 24
_cell_length_a 9.842669
_cell_length_b 17.795603
_cell_length_c 8.444686
_cell_angle_alpha 90.000000
_cell_angle_beta 138.115240
_cell_angle_gamma 90.000000
_cell_volume 987.524549
_symmetry_space_group_name_H-M "P 21/M"
_symmetry_group_IT_number 11
_symmetry_cell_setting 'monoclinic'
loop_
_space_group_symop_operation_xyz
x,y,z
-x,1/2+y,-z
-x,-y,-z
x,1/2-y,z
loop_
_atom_site_type_symbol
_atom_site_label
_atom_site_fract_x
_atom_site_fract_y
_atom_site_fract_z
Si Si1 0.087113 0.448192 0.942497
Si Si2 0.460329 0.164152 0.997591
Si Si3 0.034110 0.935948 0.662424
Si Si4 0.512663 0.098757 0.379790
Si Si5 0.426221 0.423099 0.646264
Si Si6 0.036292 0.664891 0.395549
O O1 0.925180 0.394915 0.712232
O O2 0.167125 0.513386 0.894143
O O3 0.265426 0.398612 0.164289
O O4 0.000000 0.500000 0.000000
O O5 0.508560 0.250000 0.996803
O O6 0.494951 0.109315 0.877120
O O7 0.212434 0.160114 0.805630
O O8 0.553579 0.145819 0.253648
O O9 0.821066 0.912870 0.558598
O O10 0.109289 0.864520 0.629989
O O11 0.000000 0.000000 0.500000
O O12 0.544550 0.112915 0.596345
O O13 0.560591 0.012355 0.376101
O O14 0.087895 0.750000 0.403028
#
# Coordination Sequence:
#
# PCOD9156063 Si02
#       6
#     4   4   4   4   4   4
#     4  10  17  30  50  74  98 127 166 207 249 293
#     4   9  18  32  50  74 104 133 165 209 254 298
#     4   9  17  30  51  73  97 129 167 206 249 299
#     4  10  20  32  53  79 102 129 172 210 253 297
#     4  10  19  33  52  77 102 131 168 211 252 297
#     4   8  16  30  47  70  98 127 164 208 250 292
#
# _framework density 24.303194000000001
#
# number of rings (size 3 to 8) (size 9 to 14) (size 15 to 20)
#    0.000    2.667    1.667    1.500    0.000    0.667 
#    0.000    0.833    0.000   10.000    0.000    0.000 
#    0.000    0.000    0.000    0.000    0.000    0.000 
#
# Total GULP energy -133751.130319 kJ/mol
# GULP energy per Si atom -5572.963763 kJ/mol
# Density = 2.424788 g / cm^3
# Si number density = 24.303194 Si / 1000 Ang^3
#
#
#
# Elastic Constant Matrix: (Units=GPa)
#
#
# Indices 1 2 3 4 5 6 
#
# 1 125.5283 41.9690 24.6905 0.0000 -45.3280 0.0000
# 2 41.9690 122.2006 32.0323 0.0000 -35.4118 0.0000
# 3 24.6905 32.0323 83.0194 0.0000 -30.1054 0.0000
# 4 0.0000 0.0000 0.0000 31.5148 0.0000 3.4103
# 5 -45.3280 -35.4118 -30.1054 0.0000 42.2220 0.0000
# 6 0.0000 0.0000 0.0000 3.4103 0.0000 30.7351
#
#
#
# Elastic Compliance Matrix: (Units=1/GPa)
#
#
# Indices 1 2 3 4 5 6 
#
# 1 0.013215 -0.000690 0.001714 0.000000 0.014831 0.000000
# 2 -0.000690 0.010935 -0.001291 0.000000 0.007510 0.000000
# 3 0.001714 -0.001291 0.016601 0.000000 0.012595 0.000000
# 4 0.000000 0.000000 0.000000 0.032117 0.000000 -0.003564
# 5 0.014831 0.007510 0.012595 0.000000 0.054885 0.000000
# 6 0.000000 0.000000 0.000000 -0.003564 0.000000 0.032932
#
#
# Mechanical properties :
#
#
# Convention : Reuss Voigt Hill
#
# Bulk Modulus (GPa) = 24.86488 58.68132 41.77310
# Shear Modulus (GPa) = 28.63308 36.36481 32.49895
#
# Velocity S-wave (km/s) = 3.43616 3.87240 3.66078
# Velocity P-wave (km/s) = 5.09865 6.64770 5.92402
#
# Compressibility (1/GPa) = 0.04021737
#
# Stress axis : x y z
#
# Youngs Moduli (GPa) = 75.66979 91.45064 60.23845
#
# Poissons Ratio (x) = 0.06313 -0.10325
# Poissons Ratio (y) = 0.05224 0.07774
# Poissons Ratio (z) = -0.12971 0.11802
#
# Static dielectric constant tensor:
#      x y z
#    x 2.054650 0.000000 0.130340 
#    y 0.000000 1.804810 0.000000 
#    z 0.130340 0.000000 2.000470 
# 
# From -- ./inp_files/13272.got.cif
#   From: 2010.05.17/outbox.cif.g08.bks.cpg/sg11_7_cif.got.tgz:13272.got - 2010.06.03 12:22:45.
