data_PCOD9156574
_publ_section_title
;
Structure prediction by ZEFSAII (Michael W. Deem and Ramdas Pophale) SiO2 
 PCOD9156574
Probable space group: P 21/M
;
_chemical_formula_sum "Si O2"
_cell_formula_units_Z 32
_cell_length_a 21.129582
_cell_length_b 9.157433
_cell_length_c 22.084831
_cell_angle_alpha 90.000000
_cell_angle_beta 26.545668
_cell_angle_gamma 90.000000
_cell_volume 1909.764277
_symmetry_space_group_name_H-M "P 21/M"
_symmetry_group_IT_number 11
_symmetry_cell_setting 'monoclinic'
loop_
_space_group_symop_operation_xyz
x,y,z
-x,1/2+y,-z
-x,-y,-z
x,1/2-y,z
loop_
_atom_site_type_symbol
_atom_site_label
_atom_site_fract_x
_atom_site_fract_y
_atom_site_fract_z
Si Si1 0.506940 0.077180 0.688947
Si Si2 0.911825 0.576064 0.424731
Si Si3 0.606710 0.419007 0.323475
Si Si4 0.289403 0.419072 0.653633
Si Si5 0.412981 0.079229 0.126720
Si Si6 0.916916 0.580036 0.624964
Si Si7 0.205744 0.075969 0.599459
Si Si8 0.619190 0.425374 0.719599
O O1 0.499736 0.250000 0.686011
O O2 0.508693 0.046852 0.759229
O O3 0.397870 0.000415 0.736880
O O4 0.660256 0.017427 0.536935
O O5 0.907205 0.750000 0.440696
O O6 0.910458 0.554020 0.353206
O O7 0.767958 0.502254 0.573920
O O8 0.039727 0.501033 0.350531
O O9 0.637016 0.250000 0.288528
O O10 0.446878 0.430652 0.488555
O O11 0.707104 0.486977 0.288787
O O12 0.267962 0.250000 0.687942
O O13 0.184121 0.459872 0.688646
O O14 0.451867 0.250000 0.099491
O O15 0.248122 0.072486 0.249055
O O16 0.429357 0.995003 0.176065
O O17 0.500000 0.000000 0.000000
O O18 0.959178 0.750000 0.591871
O O19 0.000000 0.500000 0.500000
O O20 0.242681 0.250000 0.566244
O O21 0.639400 0.250000 0.706887
#
# Coordination Sequence:
#
# PCOD9156574 Si02
#       8
#     4   4   4   4   4   4   4   4
#     4   9  16  24  36  55  77 106 144 186 228 271
#     4  10  18  29  47  70  94 121 156 198 240 283
#     4   9  15  21  30  46  69 102 142 183 223 268
#     4   8  13  21  31  44  68 103 141 181 221 266
#     4  11  24  39  55  74  98 128 162 200 247 296
#     4  11  22  35  53  76  99 127 161 199 243 292
#     4   8  15  25  36  53  78 109 145 184 228 273
#     4  10  19  31  48  68  92 121 156 197 240 287
#
# _framework density 16.755994999999999
#
# number of rings (size 3 to 8) (size 9 to 14) (size 15 to 20)
#    0.000    2.500    1.250    3.000    0.000    6.500 
#    0.000    0.000    0.000    0.000    0.000    0.000 
#    0.000    0.000    0.000    1.125    0.000   14.000 
#
# Total GULP energy -178202.761265 kJ/mol
# GULP energy per Si atom -5568.836290 kJ/mol
# Density = 1.671786 g / cm^3
# Si number density = 16.755995 Si / 1000 Ang^3
#
#
#
# Elastic Constant Matrix: (Units=GPa)
#
#
# Indices 1 2 3 4 5 6 
#
# 1 171.2448 88.9733 19.4467 0.0000 31.4379 0.0000
# 2 88.9733 111.5864 23.9233 0.0000 17.5668 0.0000
# 3 19.4467 23.9233 21.8980 0.0000 8.6723 0.0000
# 4 0.0000 0.0000 0.0000 12.9121 0.0000 2.9826
# 5 31.4379 17.5668 8.6723 0.0000 12.7388 0.0000
# 6 0.0000 0.0000 0.0000 2.9826 0.0000 33.3372
#
#
#
# Elastic Compliance Matrix: (Units=1/GPa)
#
#
# Indices 1 2 3 4 5 6 
#
# 1 0.015349 -0.009217 0.008771 0.000000 -0.031142 0.000000
# 2 -0.009217 0.018287 -0.014807 0.000000 0.007608 0.000000
# 3 0.008771 -0.014807 0.074672 0.000000 -0.052063 0.000000
# 4 0.000000 0.000000 0.000000 0.079081 0.000000 -0.007075
# 5 -0.031142 0.007608 -0.052063 0.000000 0.180308 0.000000
# 6 0.000000 0.000000 0.000000 -0.007075 0.000000 0.030630
#
#
# Mechanical properties :
#
#
# Convention : Reuss Voigt Hill
#
# Bulk Modulus (GPa) = 12.85276 63.26844 38.06060
# Shear Modulus (GPa) = 10.99465 23.29002 17.14233
#
# Velocity S-wave (km/s) = 2.56435 3.73225 3.20200
# Velocity P-wave (km/s) = 4.05648 7.51090 6.03608
#
# Compressibility (1/GPa) = 0.07780428
#
# Stress axis : x y z
#
# Youngs Moduli (GPa) = 65.14876 54.68237 13.39195
#
# Poissons Ratio (x) = 0.50399 -0.11746
# Poissons Ratio (y) = 0.60046 0.19829
# Poissons Ratio (z) = -0.57144 0.80967
#
# Static dielectric constant tensor:
#      x y z
#    x 1.626710 0.000000 0.011450 
#    y 0.000000 1.560100 0.000000 
#    z 0.011450 0.000000 1.524140 
# 
# From -- ./inp_files/66412.got.cif
#   From: 2010.05.17/outbox.cif.g08.bks.cpg/sg11_34_cif.got.tgz:66412.got - 2010.06.03 12:22:45.
