data_PCOD9156379
_publ_section_title
;
Structure prediction by ZEFSAII (Michael W. Deem and Ramdas Pophale) SiO2 
 PCOD9156379
Probable space group: P 21/M
;
_chemical_formula_sum "Si O2"
_cell_formula_units_Z 28
_cell_length_a 18.180027
_cell_length_b 8.867957
_cell_length_c 16.687470
_cell_angle_alpha 90.000000
_cell_angle_beta 40.607615
_cell_angle_gamma 90.000000
_cell_volume 1751.081153
_symmetry_space_group_name_H-M "P 21/M"
_symmetry_group_IT_number 11
_symmetry_cell_setting 'monoclinic'
loop_
_space_group_symop_operation_xyz
x,y,z
-x,1/2+y,-z
-x,-y,-z
x,1/2-y,z
loop_
_atom_site_type_symbol
_atom_site_label
_atom_site_fract_x
_atom_site_fract_y
_atom_site_fract_z
Si Si1 0.209521 0.568143 0.565899
Si Si2 0.418344 0.569759 0.134051
Si Si3 0.173312 0.071799 0.318761
Si Si4 0.968192 0.571609 0.399691
Si Si5 0.676644 0.076517 0.369967
Si Si6 0.429987 0.429397 0.297465
Si Si7 0.445046 0.077813 0.666738
O O1 0.215873 0.750000 0.554543
O O2 0.095575 0.505761 0.621399
O O3 0.230511 0.527025 0.641722
O O4 0.313620 0.497163 0.429859
O O5 0.425143 0.750000 0.128985
O O6 0.290575 0.516258 0.222187
O O7 0.449404 0.503771 0.195465
O O8 0.500000 0.500000 0.000000
O O9 0.192162 0.250000 0.291217
O O10 0.113245 0.052548 0.455152
O O11 0.085407 0.006498 0.326935
O O12 0.982946 0.750000 0.374709
O O13 0.697308 0.250000 0.330029
O O14 0.559786 0.074362 0.518083
O O15 0.653243 0.979058 0.310775
O O16 0.419015 0.250000 0.299355
O O17 0.527206 0.474097 0.280366
O O18 0.427586 0.250000 0.706605
#
# Coordination Sequence:
#
# PCOD9156379 Si02
#       7
#     4   4   4   4   4   4   4
#     4  10  18  28  44  66  94 126 159 195 235 282
#     4  12  24  38  54  71  95 124 161 203 244 286
#     4  10  20  34  50  70  95 124 160 198 241 285
#     4  10  19  30  48  71  97 127 160 197 238 286
#     4   8  15  25  37  58  87 120 154 188 229 276
#     4  11  20  31  46  65  90 122 159 196 237 284
#     4   9  16  26  40  59  84 118 155 191 231 276
#
# _framework density 15.990119999999999
#
# number of rings (size 3 to 8) (size 9 to 14) (size 15 to 20)
#    0.000    2.000    1.429    5.143    0.000    5.143 
#    0.000    0.000    0.000    0.000    0.000    0.000 
#    0.000    1.143    0.000    4.286    0.000    6.857 
#
# Total GULP energy -156179.012761 kJ/mol
# GULP energy per Si atom -5577.821884 kJ/mol
# Density = 1.595373 g / cm^3
# Si number density = 15.990120 Si / 1000 Ang^3
#
#
#
# Elastic Constant Matrix: (Units=GPa)
#
#
# Indices 1 2 3 4 5 6 
#
# 1 144.6614 63.0677 23.4076 0.0000 12.7096 0.0000
# 2 63.0677 118.8953 31.9152 0.0000 3.8713 0.0000
# 3 23.4076 31.9152 37.1266 0.0000 5.6761 0.0000
# 4 0.0000 0.0000 0.0000 17.0904 0.0000 1.0296
# 5 12.7096 3.8713 5.6761 0.0000 7.9444 0.0000
# 6 0.0000 0.0000 0.0000 1.0296 0.0000 32.8418
#
#
#
# Elastic Compliance Matrix: (Units=1/GPa)
#
#
# Indices 1 2 3 4 5 6 
#
# 1 0.010343 -0.005012 -0.000063 0.000000 -0.014060 0.000000
# 2 -0.005012 0.013379 -0.009622 0.000000 0.008373 0.000000
# 3 -0.000063 -0.009622 0.038746 0.000000 -0.022893 0.000000
# 4 0.000000 0.000000 0.000000 0.058623 0.000000 -0.001838
# 5 -0.014060 0.008373 -0.022893 0.000000 0.160645 0.000000
# 6 0.000000 0.000000 0.000000 -0.001838 0.000000 0.030507
#
#
# Mechanical properties :
#
#
# Convention : Reuss Voigt Hill
#
# Bulk Modulus (GPa) = 30.23429 59.71826 44.97627
# Shear Modulus (GPa) = 14.17792 23.72817 18.95304
#
# Velocity S-wave (km/s) = 2.98093 3.85636 3.44655
# Velocity P-wave (km/s) = 5.54951 7.56682 6.63527
#
# Compressibility (1/GPa) = 0.03307503
#
# Stress axis : x y z
#
# Youngs Moduli (GPa) = 96.68250 74.74226 25.80918
#
# Poissons Ratio (x) = 0.37458 0.00164
# Poissons Ratio (y) = 0.48454 0.24832
# Poissons Ratio (z) = 0.00613 0.71914
#
# Static dielectric constant tensor:
#      x y z
#    x 1.560890 0.000000 0.005360 
#    y 0.000000 1.534240 0.000000 
#    z 0.005360 0.000000 1.499810 
# 
# From -- ./inp_files/53232.got.cif
#   From: 2010.05.17/outbox.cif.g08.bks.cpg/sg11_27_cif.got.tgz:53232.got - 2010.06.03 12:22:45.
