data_PCOD9156084
_publ_section_title
;
Structure prediction by ZEFSAII (Michael W. Deem and Ramdas Pophale) SiO2 
 PCOD9156084
Probable space group: P 21/M
;
_chemical_formula_sum "Si O2"
_cell_formula_units_Z 32
_cell_length_a 12.699188
_cell_length_b 19.343806
_cell_length_c 9.031201
_cell_angle_alpha 90.000000
_cell_angle_beta 137.896651
_cell_angle_gamma 90.000000
_cell_volume 1487.451214
_symmetry_space_group_name_H-M "P 21/M"
_symmetry_group_IT_number 11
_symmetry_cell_setting 'monoclinic'
loop_
_space_group_symop_operation_xyz
x,y,z
-x,1/2+y,-z
-x,-y,-z
x,1/2-y,z
loop_
_atom_site_type_symbol
_atom_site_label
_atom_site_fract_x
_atom_site_fract_y
_atom_site_fract_z
Si Si1 0.585724 0.608834 0.692447
Si Si2 0.042682 0.669204 0.095564
Si Si3 0.268058 0.331062 0.653930
Si Si4 0.136394 0.331954 0.815132
Si Si5 0.356659 0.673472 0.240076
Si Si6 0.658506 0.464906 0.352951
Si Si7 0.572798 0.407110 0.969498
Si Si8 0.190792 0.068075 0.307865
O O1 0.719255 0.638934 0.938067
O O2 0.512455 0.662364 0.499336
O O3 0.443668 0.580546 0.641436
O O4 0.676374 0.555494 0.679053
O O5 0.983488 0.750000 0.006671
O O6 0.017728 0.657954 0.245167
O O7 0.952351 0.605422 0.923605
O O8 0.214013 0.668119 0.205528
O O9 0.247042 0.250000 0.607790
O O10 0.446552 0.348880 0.886874
O O11 0.238827 0.372409 0.474065
O O12 0.153753 0.357916 0.665704
O O13 0.159414 0.250000 0.825843
O O14 0.355978 0.750000 0.172934
O O15 0.346515 0.619216 0.095960
O O16 0.537631 0.527726 0.187410
O O17 0.807382 0.499043 0.590820
O O18 0.682430 0.427071 0.221385
#
# Coordination Sequence:
#
# PCOD9156084 Si02
#       8
#     4   4   4   4   4   4   4   4
#     4  11  19  33  56  82 110 138 181 225 268 320
#     4   9  20  38  55  77 111 145 181 225 277 325
#     4  10  17  30  54  83 106 133 181 231 273 321
#     4   9  18  32  54  80 107 139 177 224 273 328
#     4  11  22  37  57  82 112 143 179 227 277 325
#     4  10  20  35  53  82 112 145 180 224 271 320
#     4  10  20  34  55  81 112 144 174 225 278 321
#     4  10  20  33  56  81 104 145 187 225 264 321
#
# _framework density 21.513310000000001
#
# number of rings (size 3 to 8) (size 9 to 14) (size 15 to 20)
#    0.000    2.000    3.750    1.500    0.000    1.000 
#    0.000    2.500    0.000    3.000    0.000    0.000 
#    0.000    0.000    0.000    0.000    0.000    0.000 
#
# Total GULP energy -178360.304762 kJ/mol
# GULP energy per Si atom -5573.759524 kJ/mol
# Density = 2.146434 g / cm^3
# Si number density = 21.513310 Si / 1000 Ang^3
#
#
#
# Elastic Constant Matrix: (Units=GPa)
#
#
# Indices 1 2 3 4 5 6 
#
# 1 87.9194 18.8626 12.5560 0.0000 -30.3015 0.0000
# 2 18.8626 37.7238 10.1997 0.0000 -9.7930 0.0000
# 3 12.5560 10.1997 40.4153 0.0000 -21.7532 0.0000
# 4 0.0000 0.0000 0.0000 18.1067 0.0000 -7.4358
# 5 -30.3015 -9.7930 -21.7532 0.0000 27.5131 0.0000
# 6 0.0000 0.0000 0.0000 -7.4358 0.0000 28.7628
#
#
#
# Elastic Compliance Matrix: (Units=1/GPa)
#
#
# Indices 1 2 3 4 5 6 
#
# 1 0.021547 -0.005887 0.011205 0.000000 0.030494 0.000000
# 2 -0.005887 0.031039 -0.006176 0.000000 -0.000319 0.000000
# 3 0.011205 -0.006176 0.049230 0.000000 0.049065 0.000000
# 4 0.000000 0.000000 0.000000 0.061788 0.000000 0.015974
# 5 0.030494 -0.000319 0.049065 0.000000 0.108610 0.000000
# 6 0.000000 0.000000 0.000000 0.015974 0.000000 0.038897
#
#
# Mechanical properties :
#
#
# Convention : Reuss Voigt Hill
#
# Bulk Modulus (GPa) = 9.99013 27.69948 18.84481
# Shear Modulus (GPa) = 14.44280 23.17253 18.80766
#
# Velocity S-wave (km/s) = 2.59384 3.28552 2.95995
# Velocity P-wave (km/s) = 3.69113 5.22459 4.52331
#
# Compressibility (1/GPa) = 0.10009879
#
# Stress axis : x y z
#
# Youngs Moduli (GPa) = 46.41093 32.21730 20.31302
#
# Poissons Ratio (x) = 0.18967 -0.22760
# Poissons Ratio (y) = 0.27323 0.12545
# Poissons Ratio (z) = -0.52002 0.19897
#
# Static dielectric constant tensor:
#      x y z
#    x 1.797730 0.000000 -0.001300 
#    y 0.000000 1.815230 0.000000 
#    z -0.001300 0.000000 1.806090 
# 
# From -- ./inp_files/19184.got.cif
#   From: 2010.05.17/outbox.cif.g08.bks.cpg/sg11_10_cif.got.tgz:19184.got - 2010.06.03 12:22:45.
