data_PCOD9156606
_publ_section_title
;
Structure prediction by ZEFSAII (Michael W. Deem and Ramdas Pophale) SiO2 
 PCOD9156606
Probable space group: P 21/M
;
_chemical_formula_sum "Si O2"
_cell_formula_units_Z 32
_cell_length_a 12.673183
_cell_length_b 7.548333
_cell_length_c 31.822702
_cell_angle_alpha 90.000000
_cell_angle_beta 152.917015
_cell_angle_gamma 90.000000
_cell_volume 1385.966970
_symmetry_space_group_name_H-M "P 21/M"
_symmetry_group_IT_number 11
_symmetry_cell_setting 'monoclinic'
loop_
_space_group_symop_operation_xyz
x,y,z
-x,1/2+y,-z
-x,-y,-z
x,1/2-y,z
loop_
_atom_site_type_symbol
_atom_site_label
_atom_site_fract_x
_atom_site_fract_y
_atom_site_fract_z
Si Si1 0.570021 0.549262 0.431093
Si Si2 0.773217 0.042559 0.838069
Si Si3 0.511224 0.536576 0.824266
Si Si4 0.395448 0.535786 0.875086
Si Si5 0.932748 0.467357 0.387045
Si Si6 0.063037 0.540917 0.246205
Si Si7 0.334861 0.952308 0.628292
Si Si8 0.815423 0.965562 0.074088
O O1 0.558413 0.750000 0.443694
O O2 0.810182 0.470018 0.533343
O O3 0.316419 0.465330 0.346398
O O4 0.614548 0.553387 0.396565
O O5 0.749142 0.250000 0.820236
O O6 0.018658 0.987967 0.906308
O O7 0.722435 0.016757 0.869117
O O8 0.567866 0.951898 0.739145
O O9 0.510144 0.750000 0.824372
O O10 0.502315 0.475307 0.868879
O O11 0.273615 0.477830 0.716941
O O12 0.398661 0.750000 0.876422
O O13 0.131140 0.479931 0.787341
O O14 0.558303 0.472075 0.971075
O O15 0.935096 0.250000 0.388492
O O16 0.858059 0.522419 0.407711
O O17 0.102054 0.750000 0.252173
O O18 0.942126 0.468144 0.160957
O O19 0.282230 0.750000 0.598364
O O20 0.805051 0.750000 0.073379
#
# Coordination Sequence:
#
# PCOD9156606 Si02
#       8
#     4   4   4   4   4   4   4   4
#     4  10  18  31  51  73 100 137 170 206 255 303
#     4  10  18  32  54  78 106 138 170 205 253 309
#     4   9  19  36  53  75 106 136 171 213 253 299
#     4  10  21  37  56  73  99 139 175 213 261 302
#     4   8  16  30  49  72 100 135 171 202 247 304
#     4  10  20  35  53  75 104 131 171 219 255 301
#     4  10  18  29  47  76 110 136 165 206 251 305
#     4   9  18  34  54  78 104 132 168 211 258 309
#
# _framework density 23.088573
#
# number of rings (size 3 to 8) (size 9 to 14) (size 15 to 20)
#    0.000    2.500    1.250    2.250    0.000    1.500 
#    0.000    4.375    0.000    0.000    0.000    0.000 
#    0.000    0.000    0.000    0.000    0.000    0.000 
#
# Total GULP energy -178683.026991 kJ/mol
# GULP energy per Si atom -5583.844593 kJ/mol
# Density = 2.303602 g / cm^3
# Si number density = 23.088573 Si / 1000 Ang^3
#
#
#
# Elastic Constant Matrix: (Units=GPa)
#
#
# Indices 1 2 3 4 5 6 
#
# 1 49.4724 -6.0739 -8.6658 0.0000 5.8459 0.0000
# 2 -6.0739 64.4938 3.0757 0.0000 0.3487 0.0000
# 3 -8.6658 3.0757 42.6227 0.0000 19.0004 0.0000
# 4 0.0000 0.0000 0.0000 0.8928 0.0000 -2.5172
# 5 5.8459 0.3487 19.0004 0.0000 37.1346 0.0000
# 6 0.0000 0.0000 0.0000 -2.5172 0.0000 15.8695
#
#
#
# Elastic Compliance Matrix: (Units=1/GPa)
#
#
# Indices 1 2 3 4 5 6 
#
# 1 0.022719 0.001805 0.007890 0.000000 -0.007631 0.000000
# 2 0.001805 0.015711 -0.000744 0.000000 -0.000051 0.000000
# 3 0.007890 -0.000744 0.033255 0.000000 -0.018251 0.000000
# 4 0.000000 0.000000 0.000000 2.026067 0.000000 0.321369
# 5 -0.007631 -0.000051 -0.018251 0.000000 0.037469 0.000000
# 6 0.000000 0.000000 0.000000 0.321369 0.000000 0.113989
#
#
# Mechanical properties :
#
#
# Convention : Reuss Voigt Hill
#
# Bulk Modulus (GPa) = 11.16233 14.80674 12.98453
# Shear Modulus (GPa) = 2.21124 21.99624 12.10374
#
# Velocity S-wave (km/s) = 0.97969 3.08992 2.29209
# Velocity P-wave (km/s) = 2.47483 4.37688 3.55541
#
# Compressibility (1/GPa) = 0.08958705
#
# Stress axis : x y z
#
# Youngs Moduli (GPa) = 44.01666 63.64931 30.07021
#
# Poissons Ratio (x) = -0.11486 -0.23727
# Poissons Ratio (y) = -0.07943 0.02238
# Poissons Ratio (z) = -0.34731 0.04736
#
# Static dielectric constant tensor:
#      x y z
#    x 1.850560 0.000000 0.014390 
#    y 0.000000 1.879100 0.000000 
#    z 0.014390 0.000000 1.885690 
# 
# From -- ./inp_files/73117.got.cif
#   From: 2010.05.17/outbox.cif.g08.bks.cpg/sg11_37_cif.got.tgz:73117.got - 2010.06.03 12:22:45.
