data_PCOD9156967
_publ_section_title
;
Structure prediction by ZEFSAII (Michael W. Deem and Ramdas Pophale) SiO2 
 PCOD9156967
Probable space group: P 21/M
;
_chemical_formula_sum "Si O2"
_cell_formula_units_Z 32
_cell_length_a 24.531518
_cell_length_b 8.548250
_cell_length_c 18.213662
_cell_angle_alpha 90.000000
_cell_angle_beta 30.223285
_cell_angle_gamma 90.000000
_cell_volume 1922.592433
_symmetry_space_group_name_H-M "P 21/M"
_symmetry_group_IT_number 11
_symmetry_cell_setting 'monoclinic'
loop_
_space_group_symop_operation_xyz
x,y,z
-x,1/2+y,-z
-x,-y,-z
x,1/2-y,z
loop_
_atom_site_type_symbol
_atom_site_label
_atom_site_fract_x
_atom_site_fract_y
_atom_site_fract_z
Si Si1 0.180226 0.562443 0.657206
Si Si2 0.900019 0.936746 0.779379
Si Si3 0.869263 0.936235 0.538080
Si Si4 0.066223 0.439856 0.095904
Si Si5 0.314782 0.436629 0.367721
Si Si6 0.762771 0.065103 0.808088
Si Si7 0.472594 0.435697 0.950982
Si Si8 0.879053 0.938100 0.124257
O O1 0.184627 0.750000 0.647940
O O2 0.265906 0.488353 0.502250
O O3 0.192279 0.508944 0.727551
O O4 0.059053 0.511621 0.771744
O O5 0.884125 0.750000 0.795550
O O6 0.893848 0.992200 0.871127
O O7 0.815531 0.017400 0.823666
O O8 0.020661 0.976618 0.610956
O O9 0.887605 0.750000 0.512456
O O10 0.774594 0.978009 0.590425
O O11 0.828798 0.981346 0.665899
O O12 0.064128 0.250000 0.099583
O O13 0.136874 0.484725 0.942392
O O14 0.330087 0.250000 0.347390
O O15 0.426606 0.519809 0.217626
O O16 0.770670 0.250000 0.787779
O O17 0.638773 0.011641 0.946400
O O18 0.458738 0.250000 0.971289
O O19 0.500000 0.500000 0.000000
O O20 0.877247 0.750000 0.131326
O O21 0.000000 0.000000 0.000000
#
# Coordination Sequence:
#
# PCOD9156967 Si02
#       8
#     4   4   4   4   4   4   4   4
#     4  10  18  31  49  75 107 141 177 216 263 315
#     4  11  21  36  55  77 108 144 182 222 266 317
#     4  11  22  36  54  78 107 140 180 220 267 320
#     4   8  16  29  48  72 103 140 175 211 258 311
#     4  11  22  35  55  81 108 140 178 221 266 315
#     4  12  25  40  56  76 104 140 182 226 269 315
#     4  12  24  40  60  80 103 136 177 223 271 319
#     4   9  16  28  45  71 103 139 176 213 260 316
#
# _framework density 16.644193000000001
#
# number of rings (size 3 to 8) (size 9 to 14) (size 15 to 20)
#    0.000    1.500    2.500    5.250    0.000    1.000 
#    0.000    1.875    0.000    0.000    0.000    0.875 
#    0.000    0.000    0.000    0.000    0.000    0.000 
#
# Total GULP energy -178676.784250 kJ/mol
# GULP energy per Si atom -5583.649508 kJ/mol
# Density = 1.660631 g / cm^3
# Si number density = 16.644193 Si / 1000 Ang^3
#
#
#
# Elastic Constant Matrix: (Units=GPa)
#
#
# Indices 1 2 3 4 5 6 
#
# 1 90.5454 -3.1811 44.6561 0.0000 14.9553 0.0000
# 2 -3.1811 26.3553 -9.4429 0.0000 -2.3733 0.0000
# 3 44.6561 -9.4429 48.5680 0.0000 23.2700 0.0000
# 4 0.0000 0.0000 0.0000 26.0095 0.0000 1.1731
# 5 14.9553 -2.3733 23.2700 0.0000 28.8391 0.0000
# 6 0.0000 0.0000 0.0000 1.1731 0.0000 21.7262
#
#
#
# Elastic Compliance Matrix: (Units=1/GPa)
#
#
# Indices 1 2 3 4 5 6 
#
# 1 0.021972 -0.005692 -0.025473 0.000000 0.008691 0.000000
# 2 -0.005692 0.042699 0.017016 0.000000 -0.007264 0.000000
# 3 -0.025473 0.017016 0.065731 0.000000 -0.038427 0.000000
# 4 0.000000 0.000000 0.000000 0.038541 0.000000 -0.002081
# 5 0.008691 -0.007264 -0.038427 0.000000 0.060577 0.000000
# 6 0.000000 0.000000 0.000000 -0.002081 0.000000 0.046140
#
#
# Mechanical properties :
#
#
# Convention : Reuss Voigt Hill
#
# Bulk Modulus (GPa) = 9.79407 25.50365 17.64886
# Shear Modulus (GPa) = 14.79328 24.21072 19.50200
#
# Velocity S-wave (km/s) = 2.98450 3.81807 3.42672
# Velocity P-wave (km/s) = 4.21586 5.89855 5.12672
#
# Compressibility (1/GPa) = 0.10210258
#
# Stress axis : x y z
#
# Youngs Moduli (GPa) = 45.51337 23.42000 15.21362
#
# Poissons Ratio (x) = 0.13331 0.38753
# Poissons Ratio (y) = 0.25907 -0.25887
# Poissons Ratio (z) = 1.15935 -0.39851
#
# Static dielectric constant tensor:
#      x y z
#    x 1.566110 0.000000 0.033710 
#    y 0.000000 1.562620 0.000000 
#    z 0.033710 0.000000 1.481640 
# 
# From -- ./inp_files/61745.got.cif
#   From: 2010.05.17/outbox.cif.g08.bks.cpg/sg11_31_cif.got.tgz:61745.got - 2010.06.03 12:22:45.
