data_PCOD9156297
_publ_section_title
;
Structure prediction by ZEFSAII (Michael W. Deem and Ramdas Pophale) SiO2 
 PCOD9156297
Probable space group: P 21/M
;
_chemical_formula_sum "Si O2"
_cell_formula_units_Z 32
_cell_length_a 24.054831
_cell_length_b 8.913765
_cell_length_c 30.206095
_cell_angle_alpha 90.000000
_cell_angle_beta 16.541432
_cell_angle_gamma 90.000000
_cell_volume 1843.990527
_symmetry_space_group_name_H-M "P 21/M"
_symmetry_group_IT_number 11
_symmetry_cell_setting 'monoclinic'
loop_
_space_group_symop_operation_xyz
x,y,z
-x,1/2+y,-z
-x,-y,-z
x,1/2-y,z
loop_
_atom_site_type_symbol
_atom_site_label
_atom_site_fract_x
_atom_site_fract_y
_atom_site_fract_z
Si Si1 0.082168 0.570167 0.578439
Si Si2 0.107735 0.429767 0.875036
Si Si3 0.138171 0.572140 0.639604
Si Si4 0.521320 0.430586 0.769045
Si Si5 0.308063 0.430792 0.020068
Si Si6 0.531430 0.071425 0.362866
Si Si7 0.729717 0.429523 0.116820
Si Si8 0.332494 0.928895 0.097735
O O1 0.050612 0.750000 0.598857
O O2 0.144748 0.541313 0.581675
O O3 0.260186 0.523156 0.411239
O O4 0.880321 0.485986 0.724170
O O5 0.113364 0.250000 0.875005
O O6 0.324754 0.495544 0.711289
O O7 0.000000 0.500000 0.000000
O O8 0.958518 0.467339 0.949244
O O9 0.169148 0.750000 0.622046
O O10 0.309571 0.483976 0.532965
O O11 0.916140 0.535051 0.822448
O O12 0.515917 0.250000 0.770995
O O13 0.372604 0.492479 0.846059
O O14 0.452019 0.474760 0.870739
O O15 0.316736 0.250000 0.020438
O O16 0.352030 0.511445 0.032557
O O17 0.544032 0.250000 0.357414
O O18 0.616801 0.030026 0.248763
O O19 0.714178 0.250000 0.123987
O O20 0.342062 0.750000 0.091618
O O21 0.500000 0.000000 0.000000
#
# Coordination Sequence:
#
# PCOD9156297 Si02
#       8
#     4   4   4   4   4   4   4   4
#     4   9  18  33  54  82 109 137 174 212 254 305
#     4   9  17  28  41  63  95 131 169 216 267 312
#     4   9  16  29  49  72 101 134 169 214 261 307
#     4  10  19  33  55  79 107 141 172 210 259 310
#     4   9  20  37  55  80 110 138 173 212 254 307
#     4  10  18  27  43  69  98 130 172 221 264 309
#     4   9  18  29  43  68 102 134 167 214 264 312
#     4  11  22  38  61  84 108 141 174 210 252 297
#
# _framework density 17.353667999999999
#
# number of rings (size 3 to 8) (size 9 to 14) (size 15 to 20)
#    0.000    2.500    1.250    3.375    0.000    5.500 
#    0.000    0.625    0.000    0.750    0.000    0.000 
#    0.000    0.000    0.000    0.000    0.000    0.000 
#
# Total GULP energy -178420.010584 kJ/mol
# GULP energy per Si atom -5575.625331 kJ/mol
# Density = 1.731417 g / cm^3
# Si number density = 17.353668 Si / 1000 Ang^3
#
#
#
# Elastic Constant Matrix: (Units=GPa)
#
#
# Indices 1 2 3 4 5 6 
#
# 1 80.3938 41.1034 74.1499 0.0000 -18.1154 0.0000
# 2 41.1034 51.0973 52.2031 0.0000 -14.0888 0.0000
# 3 74.1499 52.2031 132.3386 0.0000 -11.5662 0.0000
# 4 0.0000 0.0000 0.0000 25.2515 0.0000 -9.2857
# 5 -18.1154 -14.0888 -11.5662 0.0000 33.8069 0.0000
# 6 0.0000 0.0000 0.0000 -9.2857 0.0000 25.0325
#
#
#
# Elastic Compliance Matrix: (Units=1/GPa)
#
#
# Indices 1 2 3 4 5 6 
#
# 1 0.031123 -0.009508 -0.012964 0.000000 0.008279 0.000000
# 2 -0.009508 0.038957 -0.009345 0.000000 0.007943 0.000000
# 3 -0.012964 -0.009345 0.018100 0.000000 -0.004649 0.000000
# 4 0.000000 0.000000 0.000000 0.045857 0.000000 0.017010
# 5 0.008279 0.007943 -0.004649 0.000000 0.035736 0.000000
# 6 0.000000 0.000000 0.000000 0.017010 0.000000 0.046258
#
#
# Mechanical properties :
#
#
# Convention : Reuss Voigt Hill
#
# Bulk Modulus (GPa) = 40.74226 66.52693 53.63460
# Shear Modulus (GPa) = 17.37032 23.24306 20.30669
#
# Velocity S-wave (km/s) = 3.16723 3.66372 3.42448
# Velocity P-wave (km/s) = 6.07484 7.50442 6.82715
#
# Compressibility (1/GPa) = 0.02454454
#
# Stress axis : x y z
#
# Youngs Moduli (GPa) = 32.13073 25.66947 55.24784
#
# Poissons Ratio (x) = 0.24407 0.71623
# Poissons Ratio (y) = 0.30551 0.51631
# Poissons Ratio (z) = 0.41654 0.23989
#
# Static dielectric constant tensor:
#      x y z
#    x 1.566820 0.000000 -0.001610 
#    y 0.000000 1.571290 0.000000 
#    z -0.001610 0.000000 1.611770 
# 
# From -- ./inp_files/67033.got.cif
#   From: 2010.05.17/outbox.cif.g08.bks.cpg/sg11_34_cif.got.tgz:67033.got - 2010.06.03 12:22:45.
