data_PCOD9156968
_publ_section_title
;
Structure prediction by ZEFSAII (Michael W. Deem and Ramdas Pophale) SiO2 
 PCOD9156968
Probable space group: P 21/M
;
_chemical_formula_sum "Si O2"
_cell_formula_units_Z 20
_cell_length_a 9.626193
_cell_length_b 8.080640
_cell_length_c 17.786911
_cell_angle_alpha 90.000000
_cell_angle_beta 134.872461
_cell_angle_gamma 90.000000
_cell_volume 980.506412
_symmetry_space_group_name_H-M "P 21/M"
_symmetry_group_IT_number 11
_symmetry_cell_setting 'monoclinic'
loop_
_space_group_symop_operation_xyz
x,y,z
-x,1/2+y,-z
-x,-y,-z
x,1/2-y,z
loop_
_atom_site_type_symbol
_atom_site_label
_atom_site_fract_x
_atom_site_fract_y
_atom_site_fract_z
Si Si1 0.995948 0.547462 0.166725
Si Si2 0.191147 0.558206 0.616676
Si Si3 0.307339 0.056984 0.822919
Si Si4 0.287100 0.443397 0.070229
Si Si5 0.595794 0.057932 0.722991
O O1 0.999409 0.750000 0.167634
O O2 0.855021 0.495429 0.180535
O O3 0.221442 0.492786 0.255796
O O4 0.891778 0.496811 0.049111
O O5 0.174307 0.750000 0.630176
O O6 0.224317 0.459996 0.706742
O O7 0.388610 0.533313 0.643218
O O8 0.000000 0.500000 0.500000
O O9 0.346943 0.250000 0.853901
O O10 0.513359 0.961774 0.902120
O O11 0.261360 0.250000 0.079352
O O12 0.326183 0.542595 0.161266
O O13 0.560671 0.250000 0.692077
#
# Coordination Sequence:
#
# PCOD9156968 Si02
#       5
#     4   4   4   4   4
#     4   9  19  32  50  76 110 142 173 210 253 297
#     4  11  22  39  59  79  98 127 168 213 259 312
#     4  10  19  34  53  77 105 138 174 213 254 300
#     4  10  18  31  49  75 108 145 180 211 244 295
#     4  10  19  34  53  77 105 138 174 213 254 300
#
# _framework density 20.397622999999999
#
# number of rings (size 3 to 8) (size 9 to 14) (size 15 to 20)
#    0.000    2.000    0.000    7.200    0.000    0.000 
#    0.000   11.000    0.000    0.000    0.000    0.000 
#    0.000    0.000    0.000    0.000    0.000    0.000 
#
# Total GULP energy -111699.062751 kJ/mol
# GULP energy per Si atom -5584.953138 kJ/mol
# Density = 2.035120 g / cm^3
# Si number density = 20.397623 Si / 1000 Ang^3
#
#
#
# Elastic Constant Matrix: (Units=GPa)
#
#
# Indices 1 2 3 4 5 6 
#
# 1 90.2261 -10.0658 13.3835 0.0000 27.4461 0.0000
# 2 -10.0658 40.6091 -6.2918 0.0000 1.1150 0.0000
# 3 13.3835 -6.2918 71.5933 0.0000 31.4649 0.0000
# 4 0.0000 0.0000 0.0000 21.6942 0.0000 5.0332
# 5 27.4461 1.1150 31.4649 0.0000 26.2083 0.0000
# 6 0.0000 0.0000 0.0000 5.0332 0.0000 21.7885
#
#
#
# Elastic Compliance Matrix: (Units=1/GPa)
#
#
# Indices 1 2 3 4 5 6 
#
# 1 0.022802 0.009187 0.015266 0.000000 -0.042598 0.000000
# 2 0.009187 0.029448 0.011960 0.000000 -0.025233 0.000000
# 3 0.015266 0.011960 0.041103 0.000000 -0.065843 0.000000
# 4 0.000000 0.000000 0.000000 0.048706 0.000000 -0.011251
# 5 -0.042598 -0.025233 -0.065843 0.000000 0.162889 0.000000
# 6 0.000000 0.000000 0.000000 -0.011251 0.000000 0.048495
#
#
# Mechanical properties :
#
#
# Convention : Reuss Voigt Hill
#
# Bulk Modulus (GPa) = 6.01759 21.83114 13.92436
# Shear Modulus (GPa) = 14.88062 27.63170 21.25616
#
# Velocity S-wave (km/s) = 2.70391 3.68455 3.23164
# Velocity P-wave (km/s) = 3.56436 5.36910 4.55697
#
# Compressibility (1/GPa) = 0.16617947
#
# Stress axis : x y z
#
# Youngs Moduli (GPa) = 43.85648 33.95811 24.32930
#
# Poissons Ratio (x) = -0.31197 -0.37142
# Poissons Ratio (y) = -0.40290 -0.29099
# Poissons Ratio (z) = -0.66953 -0.40615
#
# Static dielectric constant tensor:
#      x y z
#    x 1.779970 0.000000 0.011500 
#    y 0.000000 1.674470 0.000000 
#    z 0.011500 0.000000 1.705730 
# 
# From -- ./inp_files/20259.got.cif
#   From: 2010.05.17/outbox.cif.g08.bks.cpg/sg11_11_cif.got.tgz:20259.got - 2010.06.03 12:22:45.
