data_PCOD9156079
_publ_section_title
;
Structure prediction by ZEFSAII (Michael W. Deem and Ramdas Pophale) SiO2 
 PCOD9156079
Probable space group: P 21/M
;
_chemical_formula_sum "Si O2"
_cell_formula_units_Z 28
_cell_length_a 11.410529
_cell_length_b 20.612321
_cell_length_c 12.278237
_cell_angle_alpha 90.000000
_cell_angle_beta 36.234510
_cell_angle_gamma 90.000000
_cell_volume 1706.960527
_symmetry_space_group_name_H-M "P 21/M"
_symmetry_group_IT_number 11
_symmetry_cell_setting 'monoclinic'
loop_
_space_group_symop_operation_xyz
x,y,z
-x,1/2+y,-z
-x,-y,-z
x,1/2-y,z
loop_
_atom_site_type_symbol
_atom_site_label
_atom_site_fract_x
_atom_site_fract_y
_atom_site_fract_z
Si Si1 0.882779 0.521162 0.940497
Si Si2 0.400042 0.564429 0.978196
Si Si3 0.766930 0.481555 0.679174
Si Si4 0.327884 0.824609 0.856755
Si Si5 0.307067 0.962285 0.511178
Si Si6 0.951059 0.606911 0.078579
Si Si7 0.439973 0.400094 0.496034
O O1 0.083322 0.530135 0.722194
O O2 0.920731 0.457119 0.985747
O O3 0.703805 0.498534 0.999930
O O4 0.856790 0.584267 0.034931
O O5 0.631729 0.545770 0.802475
O O6 0.354599 0.627600 0.940208
O O7 0.297831 0.565482 0.173316
O O8 0.706088 0.452586 0.607502
O O9 0.000000 0.500000 0.500000
O O10 0.357537 0.750000 0.862732
O O11 0.477559 0.849073 0.651208
O O12 0.109371 0.836334 0.968869
O O13 0.416009 0.911332 0.508435
O O14 0.420380 0.030385 0.449622
O O15 0.775876 0.615899 0.295578
#
# Coordination Sequence:
#
# PCOD9156079 Si02
#       7
#     4   4   4   4   4   4   4
#     4   9  15  29  49  77 110 132 166 218 273 322
#     4  10  21  33  50  78 109 145 177 218 276 314
#     4  11  20  32  51  80 111 135 174 228 273 325
#     4  11  22  36  52  76 113 147 183 216 255 332
#     4  10  17  30  53  80 109 137 167 225 279 322
#     4   9  18  29  49  77 105 138 172 212 266 318
#     4  10  19  32  53  77 109 140 174 214 275 323
#
# _framework density 16.403426
#
# number of rings (size 3 to 8) (size 9 to 14) (size 15 to 20)
#    0.000    2.000    4.286    0.857    4.000    0.571 
#    0.000    0.000    0.000    0.857    0.000   12.000 
#    0.000    0.000    0.000    0.000    0.000    0.000 
#
# Total GULP energy -155986.340898 kJ/mol
# GULP energy per Si atom -5570.940746 kJ/mol
# Density = 1.636609 g / cm^3
# Si number density = 16.403426 Si / 1000 Ang^3
#
#
#
# Elastic Constant Matrix: (Units=GPa)
#
#
# Indices 1 2 3 4 5 6 
#
# 1 85.1142 28.5528 43.7308 0.0000 12.6769 0.0000
# 2 28.5528 72.1117 36.7440 0.0000 7.8375 0.0000
# 3 43.7308 36.7440 85.2565 0.0000 7.7059 0.0000
# 4 0.0000 0.0000 0.0000 13.5400 0.0000 1.2982
# 5 12.6769 7.8375 7.7059 0.0000 38.3784 0.0000
# 6 0.0000 0.0000 0.0000 1.2982 0.0000 14.9096
#
#
#
# Elastic Compliance Matrix: (Units=1/GPa)
#
#
# Indices 1 2 3 4 5 6 
#
# 1 0.016858 -0.002619 -0.007194 0.000000 -0.003589 0.000000
# 2 -0.002619 0.018349 -0.006421 0.000000 -0.001593 0.000000
# 3 -0.007194 -0.006421 0.018183 0.000000 0.000036 0.000000
# 4 0.000000 0.000000 0.000000 0.074477 0.000000 -0.006485
# 5 -0.003589 -0.001593 0.000036 0.000000 0.027560 0.000000
# 6 0.000000 0.000000 0.000000 -0.006485 0.000000 0.067636
#
#
# Mechanical properties :
#
#
# Convention : Reuss Voigt Hill
#
# Bulk Modulus (GPa) = 47.79452 51.17084 49.48268
# Shear Modulus (GPa) = 19.04725 22.26259 20.65492
#
# Velocity S-wave (km/s) = 3.41130 3.68800 3.55235
# Velocity P-wave (km/s) = 6.68701 7.02838 6.85982
#
# Compressibility (1/GPa) = 0.02092290
#
# Stress axis : x y z
#
# Youngs Moduli (GPa) = 59.31776 54.49822 54.99598
#
# Poissons Ratio (x) = 0.14275 0.39563
# Poissons Ratio (y) = 0.15538 0.35311
# Poissons Ratio (z) = 0.42672 0.34991
#
# Static dielectric constant tensor:
#      x y z
#    x 1.616810 0.000000 0.002230 
#    y 0.000000 1.527440 0.000000 
#    z 0.002230 0.000000 1.586480 
# 
# From -- ./inp_files/36252.got.cif
#   From: 2010.05.17/outbox.cif.g08.bks.cpg/sg11_19_cif.got.tgz:36252.got - 2010.06.03 12:22:45.
