data_PCOD9156163
_publ_section_title
;
Structure prediction by ZEFSAII (Michael W. Deem and Ramdas Pophale) SiO2 
 PCOD9156163
Probable space group: P 21/M
;
_chemical_formula_sum "Si O2"
_cell_formula_units_Z 32
_cell_length_a 13.417593
_cell_length_b 14.662098
_cell_length_c 19.972555
_cell_angle_alpha 90.000000
_cell_angle_beta 23.349662
_cell_angle_gamma 90.000000
_cell_volume 1557.305550
_symmetry_space_group_name_H-M "P 21/M"
_symmetry_group_IT_number 11
_symmetry_cell_setting 'monoclinic'
loop_
_space_group_symop_operation_xyz
x,y,z
-x,1/2+y,-z
-x,-y,-z
x,1/2-y,z
loop_
_atom_site_type_symbol
_atom_site_label
_atom_site_fract_x
_atom_site_fract_y
_atom_site_fract_z
Si Si1 0.203008 0.852443 0.872687
Si Si2 0.834645 0.994028 0.759323
Si Si3 0.599236 0.013509 0.620670
Si Si4 0.032935 0.883690 0.128848
Si Si5 0.050107 0.087751 0.165449
Si Si6 0.519497 0.097409 0.525513
Si Si7 0.323849 0.351694 0.879644
Si Si8 0.568918 0.353936 0.001799
O O1 0.289890 0.750000 0.803189
O O2 0.945191 0.868772 0.990990
O O3 0.416544 0.926662 0.726849
O O4 0.126438 0.857484 0.997953
O O5 0.883458 0.945559 0.801328
O O6 0.106417 0.010195 0.559883
O O7 0.691833 0.087993 0.864998
O O8 0.655576 0.920216 0.834235
O O9 0.552054 0.075675 0.584007
O O10 0.513689 0.072216 0.736989
O O11 0.221291 0.851165 0.069758
O O12 0.746218 0.854089 0.319367
O O13 0.027147 0.993595 0.137934
O O14 0.261559 0.142704 0.996428
O O15 0.779975 0.136984 0.336704
O O16 0.500000 0.000000 0.500000
O O17 0.407664 0.250000 0.809234
O O18 0.492791 0.250000 0.032724
#
# Coordination Sequence:
#
# PCOD9156163 Si02
#       8
#     4   4   4   4   4   4   4   4
#     4  11  21  32  53  86 122 157 190 228 285 345
#     4   9  22  40  63  88 108 150 199 235 293 342
#     4  11  20  38  59  82 121 153 188 241 283 338
#     4  10  17  33  57  83 114 150 187 229 291 339
#     4   9  18  35  57  84 115 147 189 238 281 339
#     4   9  17  30  57  86 112 151 186 226 287 341
#     4  11  22  34  54  87 122 160 194 225 284 347
#     4  10  21  39  62  85 114 147 192 245 288 339
#
# _framework density 20.548311999999999
#
# number of rings (size 3 to 8) (size 9 to 14) (size 15 to 20)
#    0.000    2.000    2.500    3.000    0.000    1.500 
#    0.000    5.000    0.000    0.750    0.000    0.000 
#    0.000    0.000    0.000    0.000    0.000    0.000 
#
# Total GULP energy -178616.486571 kJ/mol
# GULP energy per Si atom -5581.765205 kJ/mol
# Density = 2.050154 g / cm^3
# Si number density = 20.548312 Si / 1000 Ang^3
#
#
#
# Elastic Constant Matrix: (Units=GPa)
#
#
# Indices 1 2 3 4 5 6 
#
# 1 30.7842 2.8514 9.8475 0.0000 2.8032 0.0000
# 2 2.8514 95.9636 24.0095 0.0000 -1.9683 0.0000
# 3 9.8475 24.0095 94.6782 0.0000 4.2972 0.0000
# 4 0.0000 0.0000 0.0000 -4.5947 0.0000 -1.7252
# 5 2.8032 -1.9683 4.2972 0.0000 24.4428 0.0000
# 6 0.0000 0.0000 0.0000 -1.7252 0.0000 4.6648
#
#
#
# Elastic Compliance Matrix: (Units=1/GPa)
#
#
# Indices 1 2 3 4 5 6 
#
# 1 0.033868 -0.000247 -0.003309 0.000000 -0.003322 0.000000
# 2 -0.000247 0.011176 -0.002874 0.000000 0.001433 0.000000
# 3 -0.003309 -0.002874 0.011722 0.000000 -0.001913 0.000000
# 4 0.000000 0.000000 0.000000 -0.191104 0.000000 -0.070678
# 5 -0.003322 0.001433 -0.001913 0.000000 0.041745 0.000000
# 6 0.000000 0.000000 0.000000 -0.070678 0.000000 0.188231
#
#
# Mechanical properties :
#
#
# Convention : Reuss Voigt Hill
#
# Bulk Modulus (GPa) = 22.77524 32.76031 27.76778
# Shear Modulus (GPa) = 40.60665 17.21708 28.91187
#
# Velocity S-wave (km/s) = 4.45022 2.89776 3.75509
# Velocity P-wave (km/s) = 6.12485 5.21284 5.68715
#
# Compressibility (1/GPa) = 0.04390732
#
# Stress axis : x y z
#
# Youngs Moduli (GPa) = 29.52628 89.47499 85.31087
#
# Poissons Ratio (x) = 0.02206 0.28232
# Poissons Ratio (y) = 0.00728 0.24515
# Poissons Ratio (z) = 0.09771 0.25712
#
# Static dielectric constant tensor:
#      x y z
#    x 1.758020 0.000000 -0.007490 
#    y 0.000000 1.810260 0.000000 
#    z -0.007490 0.000000 1.748350 
# 
# From -- ./inp_files/65752.got.cif
#   From: 2010.05.17/outbox.cif.g08.bks.cpg/sg11_33_cif.got.tgz:65752.got - 2010.06.03 12:22:45.
