data_PCOD9156177
_publ_section_title
;
Structure prediction by ZEFSAII (Michael W. Deem and Ramdas Pophale) SiO2 
 PCOD9156177
Probable space group: P 21/M
;
_chemical_formula_sum "Si O2"
_cell_formula_units_Z 24
_cell_length_a 11.094334
_cell_length_b 15.990476
_cell_length_c 9.359624
_cell_angle_alpha 90.000000
_cell_angle_beta 123.982185
_cell_angle_gamma 90.000000
_cell_volume 1376.848945
_symmetry_space_group_name_H-M "P 21/M"
_symmetry_group_IT_number 11
_symmetry_cell_setting 'monoclinic'
loop_
_space_group_symop_operation_xyz
x,y,z
-x,1/2+y,-z
-x,-y,-z
x,1/2-y,z
loop_
_atom_site_type_symbol
_atom_site_label
_atom_site_fract_x
_atom_site_fract_y
_atom_site_fract_z
Si Si1 0.902945 0.916078 0.444197
Si Si2 0.290993 0.514441 0.478142
Si Si3 0.295079 0.153682 0.935287
Si Si4 0.805676 0.344887 0.387722
Si Si5 0.421904 0.587512 0.990011
Si Si6 0.369069 0.014041 0.213872
O O1 0.821505 0.890944 0.245020
O O2 0.027497 0.848081 0.552961
O O3 0.783499 0.938337 0.484239
O O4 0.000000 0.000000 0.500000
O O5 0.214618 0.599211 0.483518
O O6 0.460120 0.522650 0.634220
O O7 0.284761 0.498992 0.305531
O O8 0.257484 0.250000 0.941925
O O9 0.447076 0.151618 0.947348
O O10 0.318919 0.095288 0.090313
O O11 0.758103 0.250000 0.377914
O O12 0.705232 0.389164 0.202701
O O13 0.360377 0.567071 0.105097
O O14 0.500000 0.500000 0.000000
#
# Coordination Sequence:
#
# PCOD9156177 Si02
#       6
#     4   4   4   4   4   4
#     4  10  20  37  58  80 107 150 191 225 267 342
#     4  10  19  35  58  81 111 147 186 224 283 341
#     4  11  20  34  56  84 114 145 191 240 276 318
#     4  11  21  36  57  82 114 148 188 238 283 322
#     4  10  17  34  56  79 107 144 191 228 268 343
#     4  10  19  34  58  83 111 145 184 231 277 344
#
# _framework density 17.431106
#
# number of rings (size 3 to 8) (size 9 to 14) (size 15 to 20)
#    0.000    1.667    5.000    4.000    0.000    0.000 
#    0.000   10.833    0.000    0.000    0.000    0.000 
#    0.000    0.000    0.000    0.000    0.000    0.000 
#
# Total GULP energy -133670.988654 kJ/mol
# GULP energy per Si atom -5569.624527 kJ/mol
# Density = 1.739143 g / cm^3
# Si number density = 17.431106 Si / 1000 Ang^3
#
#
#
# Elastic Constant Matrix: (Units=GPa)
#
#
# Indices 1 2 3 4 5 6 
#
# 1 77.4482 40.0342 58.8632 0.0000 -11.8243 0.0000
# 2 40.0342 107.6543 53.7872 0.0000 -15.3328 0.0000
# 3 58.8632 53.7872 125.3992 0.0000 -9.4327 0.0000
# 4 0.0000 0.0000 0.0000 9.7397 0.0000 2.0029
# 5 -11.8243 -15.3328 -9.4327 0.0000 37.4901 0.0000
# 6 0.0000 0.0000 0.0000 2.0029 0.0000 17.1845
#
#
#
# Elastic Compliance Matrix: (Units=1/GPa)
#
#
# Indices 1 2 3 4 5 6 
#
# 1 0.021552 -0.003325 -0.008441 0.000000 0.003314 0.000000
# 2 -0.003325 0.012841 -0.003701 0.000000 0.003272 0.000000
# 3 -0.008441 -0.003701 0.013465 0.000000 -0.000788 0.000000
# 4 0.000000 0.000000 0.000000 0.105194 0.000000 -0.012261
# 5 0.003314 0.003272 -0.000788 0.000000 0.028859 0.000000
# 6 0.000000 0.000000 0.000000 -0.012261 0.000000 0.059621
#
#
# Mechanical properties :
#
#
# Convention : Reuss Voigt Hill
#
# Bulk Modulus (GPa) = 59.08992 68.43012 63.76002
# Shear Modulus (GPa) = 17.97870 23.40401 20.69135
#
# Velocity S-wave (km/s) = 3.21505 3.66820 3.44908
# Velocity P-wave (km/s) = 6.91048 7.56860 7.24701
#
# Compressibility (1/GPa) = 0.01692336
#
# Stress axis : x y z
#
# Youngs Moduli (GPa) = 46.39879 77.87845 74.26725
#
# Poissons Ratio (x) = 0.25898 0.62690
# Poissons Ratio (y) = 0.15429 0.27483
# Poissons Ratio (z) = 0.39166 0.28820
#
# Static dielectric constant tensor:
#      x y z
#    x 1.637390 0.000000 0.010830 
#    y 0.000000 1.631240 0.000000 
#    z 0.010830 0.000000 1.606550 
# 
# From -- ./inp_files/18710.got.cif
#   From: 2010.05.17/outbox.cif.g08.bks.cpg/sg11_10_cif.got.tgz:18710.got - 2010.06.03 12:22:45.
