data_PCOD9156807
_publ_section_title
;
Structure prediction by ZEFSAII (Michael W. Deem and Ramdas Pophale) SiO2 
 PCOD9156807
Probable space group: P 21/M
;
_chemical_formula_sum "Si O2"
_cell_formula_units_Z 32
_cell_length_a 20.036212
_cell_length_b 8.149552
_cell_length_c 26.091549
_cell_angle_alpha 90.000000
_cell_angle_beta 160.538421
_cell_angle_gamma 90.000000
_cell_volume 1419.453593
_symmetry_space_group_name_H-M "P 21/M"
_symmetry_group_IT_number 11
_symmetry_cell_setting 'monoclinic'
loop_
_space_group_symop_operation_xyz
x,y,z
-x,1/2+y,-z
-x,-y,-z
x,1/2-y,z
loop_
_atom_site_type_symbol
_atom_site_label
_atom_site_fract_x
_atom_site_fract_y
_atom_site_fract_z
Si Si1 0.340170 0.941030 0.102274
Si Si2 0.944570 0.063844 0.379978
Si Si3 0.896022 0.948315 0.770025
Si Si4 0.363434 0.945369 0.515149
Si Si5 0.815583 0.947911 0.829834
Si Si6 0.701043 0.560839 0.117774
Si Si7 0.548035 0.562784 0.146635
Si Si8 0.694554 0.550453 0.417254
O O1 0.299138 0.750000 0.085867
O O2 0.494774 0.942348 0.167212
O O3 0.469544 0.012434 0.242358
O O4 0.125886 0.008577 0.930831
O O5 0.971282 0.250000 0.417201
O O6 0.157019 0.984698 0.520011
O O7 0.857218 0.056045 0.258604
O O8 0.772254 0.988149 0.291443
O O9 0.889212 0.750000 0.761588
O O10 0.842540 0.995817 0.789602
O O11 0.751095 0.009056 0.620076
O O12 0.370951 0.750000 0.522806
O O13 0.592803 0.009559 0.682850
O O14 0.253661 0.005334 0.487197
O O15 0.813545 0.750000 0.829799
O O16 0.000000 0.000000 0.000000
O O17 0.751153 0.750000 0.164986
O O18 0.500000 0.500000 0.000000
O O19 0.629533 0.540665 0.008316
O O20 0.522268 0.750000 0.110243
O O21 0.697958 0.750000 0.415430
#
# Coordination Sequence:
#
# PCOD9156807 Si02
#       8
#     4   4   4   4   4   4   4   4
#     4   9  20  38  60  85 113 151 204 252 293 354
#     4  10  20  34  54  80 110 148 198 247 298 361
#     4  10  21  40  65  91 120 162 207 243 288 355
#     4  11  24  40  60  94 130 157 195 251 303 346
#     4  10  22  40  66  97 130 164 201 242 290 352
#     4  10  18  30  49  74 105 140 182 233 291 350
#     4  10  19  33  54  80 112 148 192 249 305 355
#     4  10  22  41  62  83 114 160 206 247 297 365
#
# _framework density 22.543886000000001
#
# number of rings (size 3 to 8) (size 9 to 14) (size 15 to 20)
#    0.000    2.000    0.000    4.875    1.750    4.000 
#    0.000    2.500    0.000    0.000    0.000    0.000 
#    0.000    0.000    0.000    0.000    0.000    0.000 
#
# Total GULP energy -178351.515027 kJ/mol
# GULP energy per Si atom -5573.484845 kJ/mol
# Density = 2.249258 g / cm^3
# Si number density = 22.543886 Si / 1000 Ang^3
#
#
#
# Elastic Constant Matrix: (Units=GPa)
#
#
# Indices 1 2 3 4 5 6 
#
# 1 87.4074 10.0267 22.1061 0.0000 16.0535 0.0000
# 2 10.0267 36.7779 -8.2898 0.0000 5.3293 0.0000
# 3 22.1061 -8.2898 99.2036 0.0000 11.6619 0.0000
# 4 0.0000 0.0000 0.0000 19.0172 0.0000 0.6256
# 5 16.0535 5.3293 11.6619 0.0000 36.5687 0.0000
# 6 0.0000 0.0000 0.0000 0.6256 0.0000 13.8607
#
#
#
# Elastic Compliance Matrix: (Units=1/GPa)
#
#
# Indices 1 2 3 4 5 6 
#
# 1 0.013373 -0.003621 -0.002758 0.000000 -0.004464 0.000000
# 2 -0.003621 0.029588 0.003740 0.000000 -0.003915 0.000000
# 3 -0.002758 0.003740 0.011355 0.000000 -0.002955 0.000000
# 4 0.000000 0.000000 0.000000 0.052662 0.000000 -0.002377
# 5 -0.004464 -0.003915 -0.002955 0.000000 0.030818 0.000000
# 6 0.000000 0.000000 0.000000 -0.002377 0.000000 0.072253
#
#
# Mechanical properties :
#
#
# Convention : Reuss Voigt Hill
#
# Bulk Modulus (GPa) = 20.39261 30.11942 25.25601
# Shear Modulus (GPa) = 21.58207 27.19238 24.38723
#
# Velocity S-wave (km/s) = 3.09744 3.47680 3.29259
# Velocity P-wave (km/s) = 4.67521 5.43203 5.06776
#
# Compressibility (1/GPa) = 0.04903737
#
# Stress axis : x y z
#
# Youngs Moduli (GPa) = 74.77573 33.79796 88.06889
#
# Poissons Ratio (x) = 0.12237 0.24288
# Poissons Ratio (y) = 0.27074 -0.32933
# Poissons Ratio (z) = 0.20622 -0.12639
#
# Static dielectric constant tensor:
#      x y z
#    x 1.927820 0.000000 -0.010010 
#    y 0.000000 1.815160 0.000000 
#    z -0.010010 0.000000 2.030890 
# 
# From -- ./inp_files/72213.got.cif
#   From: 2010.05.17/outbox.cif.g08.bks.cpg/sg11_37_cif.got.tgz:72213.got - 2010.06.03 12:22:45.
