data_PCOD9156732
_publ_section_title
;
Structure prediction by ZEFSAII (Michael W. Deem and Ramdas Pophale) SiO2 
 PCOD9156732
Probable space group: P 21/M
;
_chemical_formula_sum "Si O2"
_cell_formula_units_Z 28
_cell_length_a 16.049075
_cell_length_b 13.878290
_cell_length_c 15.436847
_cell_angle_alpha 90.000000
_cell_angle_beta 25.479991
_cell_angle_gamma 90.000000
_cell_volume 1479.145165
_symmetry_space_group_name_H-M "P 21/M"
_symmetry_group_IT_number 11
_symmetry_cell_setting 'monoclinic'
loop_
_space_group_symop_operation_xyz
x,y,z
-x,1/2+y,-z
-x,-y,-z
x,1/2-y,z
loop_
_atom_site_type_symbol
_atom_site_label
_atom_site_fract_x
_atom_site_fract_y
_atom_site_fract_z
Si Si1 0.662702 0.552389 0.461111
Si Si2 0.703963 0.022124 0.852703
Si Si3 0.059661 0.135472 0.441438
Si Si4 0.215623 0.139510 0.480580
Si Si5 0.066853 0.863611 0.026228
Si Si6 0.629472 0.360010 0.400655
Si Si7 0.236486 0.860683 0.040444
O O1 0.669016 0.578779 0.556670
O O2 0.609432 0.441967 0.491522
O O3 0.526704 0.617848 0.527982
O O4 0.877937 0.574646 0.222154
O O5 0.667235 0.069638 0.980678
O O6 0.845725 0.095231 0.665891
O O7 0.838077 0.926145 0.729596
O O8 0.500000 0.000000 0.000000
O O9 0.054183 0.250000 0.433756
O O10 0.195382 0.114377 0.398588
O O11 0.279794 0.250000 0.427721
O O12 0.991184 0.137102 0.720631
O O13 0.019266 0.750000 0.084730
O O14 0.164272 0.872510 0.841522
O O15 0.228165 0.887992 0.947723
O O16 0.610389 0.250000 0.448151
O O17 0.300414 0.750000 0.991212
#
# Coordination Sequence:
#
# PCOD9156732 Si02
#       7
#     4   4   4   4   4   4   4
#     4  10  18  30  48  68  95 126 152 192 237 273
#     4  10  19  30  48  75 101 125 154 195 246 295
#     4   9  19  34  50  71  98 127 162 202 241 286
#     4   8  14  28  50  70  89 118 156 195 235 277
#     4   9  17  31  51  72  93 118 152 194 237 278
#     4  10  20  30  44  71  98 122 157 193 230 281
#     4   8  15  29  49  72  96 120 151 195 238 278
#
# _framework density 18.929853000000001
#
# number of rings (size 3 to 8) (size 9 to 14) (size 15 to 20)
#    0.000    2.857    0.000    3.857    0.000    2.286 
#    0.000    2.857    0.000   14.571    0.000    4.000 
#    0.000    0.000    0.000    0.000    0.000    0.000 
#
# Total GULP energy -156071.441056 kJ/mol
# GULP energy per Si atom -5573.980038 kJ/mol
# Density = 1.888677 g / cm^3
# Si number density = 18.929853 Si / 1000 Ang^3
#
#
#
# Elastic Constant Matrix: (Units=GPa)
#
#
# Indices 1 2 3 4 5 6 
#
# 1 69.4130 34.2171 14.8314 0.0000 -9.0112 0.0000
# 2 34.2171 89.2319 11.4825 0.0000 -8.0852 0.0000
# 3 14.8314 11.4825 50.3984 0.0000 -18.8850 0.0000
# 4 0.0000 0.0000 0.0000 -8.2061 0.0000 0.6180
# 5 -9.0112 -8.0852 -18.8850 0.0000 26.0296 0.0000
# 6 0.0000 0.0000 0.0000 0.6180 0.0000 26.5960
#
#
#
# Elastic Compliance Matrix: (Units=1/GPa)
#
#
# Indices 1 2 3 4 5 6 
#
# 1 0.018576 -0.006523 -0.003200 0.000000 0.002083 0.000000
# 2 -0.006523 0.013937 -0.000659 0.000000 0.001593 0.000000
# 3 -0.003200 -0.000659 0.028074 0.000000 0.019056 0.000000
# 4 0.000000 0.000000 0.000000 -0.121648 0.000000 0.002827
# 5 0.002083 0.001593 0.019056 0.000000 0.053459 0.000000
# 6 0.000000 0.000000 0.000000 0.002827 0.000000 0.037534
#
#
# Mechanical properties :
#
#
# Convention : Reuss Voigt Hill
#
# Bulk Modulus (GPa) = 25.11035 36.67838 30.89436
# Shear Modulus (GPa) = 78.16161 18.78474 48.47318
#
# Velocity S-wave (km/s) = 6.43271 3.15355 5.06580
# Velocity P-wave (km/s) = 8.27446 5.71645 7.11142
#
# Compressibility (1/GPa) = 0.03982421
#
# Stress axis : x y z
#
# Youngs Moduli (GPa) = 53.83272 71.75095 35.61987
#
# Poissons Ratio (x) = 0.46801 0.11398
# Poissons Ratio (y) = 0.35114 0.02347
# Poissons Ratio (z) = 0.17226 0.04728
#
# Static dielectric constant tensor:
#      x y z
#    x 1.690030 0.000000 0.005490 
#    y 0.000000 1.698320 0.000000 
#    z 0.005490 0.000000 1.711500 
# 
# From -- ./inp_files/52452.got.cif
#   From: 2010.05.17/outbox.cif.g08.bks.cpg/sg11_27_cif.got.tgz:52452.got - 2010.06.03 12:22:45.
