data_PCOD9156259
_publ_section_title
;
Structure prediction by ZEFSAII (Michael W. Deem and Ramdas Pophale) SiO2 
 PCOD9156259
Probable space group: P 21/M
;
_chemical_formula_sum "Si O2"
_cell_formula_units_Z 32
_cell_length_a 15.088586
_cell_length_b 7.373334
_cell_length_c 29.155335
_cell_angle_alpha 90.000000
_cell_angle_beta 151.694379
_cell_angle_gamma 90.000000
_cell_volume 1538.043998
_symmetry_space_group_name_H-M "P 21/M"
_symmetry_group_IT_number 11
_symmetry_cell_setting 'monoclinic'
loop_
_space_group_symop_operation_xyz
x,y,z
-x,1/2+y,-z
-x,-y,-z
x,1/2-y,z
loop_
_atom_site_type_symbol
_atom_site_label
_atom_site_fract_x
_atom_site_fract_y
_atom_site_fract_z
Si Si1 0.752934 0.470140 0.423395
Si Si2 0.304197 0.970815 0.801519
Si Si3 0.217085 0.034545 0.108791
Si Si4 0.171310 0.540927 0.642840
Si Si5 0.646365 0.972204 0.730070
Si Si6 0.279585 0.967402 0.890654
Si Si7 0.993171 0.541811 0.836051
Si Si8 0.705891 0.531117 0.954558
O O1 0.760586 0.250000 0.425578
O O2 0.741956 0.533325 0.365115
O O3 0.571036 0.523565 0.369308
O O4 0.949051 0.534260 0.533119
O O5 0.291169 0.750000 0.795708
O O6 0.217684 0.035880 0.714040
O O7 0.229061 0.032540 0.816383
O O8 0.522877 0.019451 0.899293
O O9 0.249193 0.250000 0.125367
O O10 0.279506 0.964695 0.186370
O O11 0.317455 0.968398 0.108393
O O12 0.000000 0.000000 0.000000
O O13 0.236184 0.750000 0.674158
O O14 0.653316 0.750000 0.732545
O O15 0.790624 0.036229 0.756876
O O16 0.262629 0.750000 0.883638
O O17 0.135461 0.039092 0.863365
O O18 0.500000 0.000000 0.000000
O O19 0.960437 0.750000 0.807437
O O20 0.110521 0.540334 0.936949
O O21 0.720542 0.750000 0.960956
#
# Coordination Sequence:
#
# PCOD9156259 Si02
#       8
#     4   4   4   4   4   4   4   4
#     4   9  17  31  51  71  92 120 153 190 234 283
#     4   9  17  30  48  68  92 122 155 191 234 283
#     4  10  18  27  41  62  89 122 155 184 218 266
#     4   9  17  31  51  72  92 117 152 195 237 278
#     4   9  17  30  46  64  92 127 156 184 227 281
#     4  10  19  31  48  69  93 124 161 196 232 274
#     4  10  19  30  45  66  92 123 157 190 225 268
#     4  10  18  28  44  65  90 123 158 187 223 274
#
# _framework density 20.805647
#
# number of rings (size 3 to 8) (size 9 to 14) (size 15 to 20)
#    0.000    2.500    2.500    0.750    0.000    3.000 
#    0.000    2.500    0.000    3.750    0.000    0.000 
#    0.000    0.000    0.000    0.000    0.000    0.000 
#
# Total GULP energy -178516.788168 kJ/mol
# GULP energy per Si atom -5578.649630 kJ/mol
# Density = 2.075829 g / cm^3
# Si number density = 20.805647 Si / 1000 Ang^3
#
#
#
# Elastic Constant Matrix: (Units=GPa)
#
#
# Indices 1 2 3 4 5 6 
#
# 1 161.9488 6.2955 43.7161 0.0000 21.9257 0.0000
# 2 6.2955 75.8087 -6.4865 0.0000 -0.2565 0.0000
# 3 43.7161 -6.4865 63.3233 0.0000 8.8598 0.0000
# 4 0.0000 0.0000 0.0000 14.4869 0.0000 2.5039
# 5 21.9257 -0.2565 8.8598 0.0000 34.9882 0.0000
# 6 0.0000 0.0000 0.0000 2.5039 0.0000 2.6052
#
#
#
# Elastic Compliance Matrix: (Units=1/GPa)
#
#
# Indices 1 2 3 4 5 6 
#
# 1 0.008136 -0.001134 -0.005203 0.000000 -0.003790 0.000000
# 2 -0.001134 0.013468 0.002124 0.000000 0.000271 0.000000
# 3 -0.005203 0.002124 0.019846 0.000000 -0.001749 0.000000
# 4 0.000000 0.000000 0.000000 0.082779 0.000000 -0.079562
# 5 -0.003790 0.000271 -0.001749 0.000000 0.031401 0.000000
# 6 0.000000 0.000000 0.000000 -0.079562 0.000000 0.460324
#
#
# Mechanical properties :
#
#
# Convention : Reuss Voigt Hill
#
# Bulk Modulus (GPa) = 30.27937 43.12569 36.70253
# Shear Modulus (GPa) = 7.86920 27.58643 17.72781
#
# Velocity S-wave (km/s) = 1.94691 3.64526 2.92219
# Velocity P-wave (km/s) = 4.43159 6.20404 5.39115
#
# Compressibility (1/GPa) = 0.03302579
#
# Stress axis : x y z
#
# Youngs Moduli (GPa) = 122.90442 74.25053 50.38727
#
# Poissons Ratio (x) = 0.08418 0.26216
# Poissons Ratio (y) = 0.13934 -0.10704
# Poissons Ratio (z) = 0.63947 -0.15773
#
# Static dielectric constant tensor:
#      x y z
#    x 1.793740 0.000000 0.010800 
#    y 0.000000 1.809700 0.000000 
#    z 0.010800 0.000000 1.711410 
# 
# From -- ./inp_files/49842.got.cif
#   From: 2010.05.17/outbox.cif.g08.bks.cpg/sg11_25_cif.got.tgz:49842.got - 2010.06.03 12:22:45.
