data_PCOD9156762
_publ_section_title
;
Structure prediction by ZEFSAII (Michael W. Deem and Ramdas Pophale) SiO2 
 PCOD9156762
Probable space group: P 21/M
;
_chemical_formula_sum "Si O2"
_cell_formula_units_Z 32
_cell_length_a 20.497064
_cell_length_b 8.092095
_cell_length_c 25.376237
_cell_angle_alpha 90.000000
_cell_angle_beta 156.249113
_cell_angle_gamma 90.000000
_cell_volume 1695.224073
_symmetry_space_group_name_H-M "P 21/M"
_symmetry_group_IT_number 11
_symmetry_cell_setting 'monoclinic'
loop_
_space_group_symop_operation_xyz
x,y,z
-x,1/2+y,-z
-x,-y,-z
x,1/2-y,z
loop_
_atom_site_type_symbol
_atom_site_label
_atom_site_fract_x
_atom_site_fract_y
_atom_site_fract_z
Si Si1 0.701569 0.050710 0.497563
Si Si2 0.185483 0.553602 0.132681
Si Si3 0.472921 0.553603 0.420120
Si Si4 0.382767 0.050223 0.960910
Si Si5 0.984089 0.952331 0.327825
Si Si6 0.116292 0.550883 0.538777
Si Si7 0.589551 0.550710 0.793559
Si Si8 0.515256 0.452332 0.171522
O O1 0.702146 0.250000 0.497816
O O2 0.574929 0.997272 0.358308
O O3 0.881766 0.994955 0.615738
O O4 0.624504 0.994585 0.495354
O O5 0.188280 0.750000 0.138928
O O6 0.310866 0.486844 0.270288
O O7 0.262944 0.505413 0.133793
O O8 0.000000 0.500000 0.000000
O O9 0.500000 0.500000 0.500000
O O10 0.459772 0.750000 0.410421
O O11 0.379981 0.250000 0.959980
O O12 0.198806 0.991690 0.816553
O O13 0.447884 0.991691 0.065644
O O14 0.500000 0.000000 0.000000
O O15 0.982358 0.750000 0.326213
O O16 0.047003 0.006349 0.431595
O O17 0.121826 0.750000 0.540623
O O18 0.299256 0.493652 0.683860
O O19 0.000000 0.500000 0.500000
O O20 0.589154 0.750000 0.793487
O O21 0.583688 0.494954 0.849716
O O22 0.513880 0.250000 0.170028
#
# Coordination Sequence:
#
# PCOD9156762 Si02
#       8
#     4   4   4   4   4   4   4   4
#     4   9  16  31  55  77 100 135 174 215 262 310
#     4  10  21  37  57  83 113 145 180 218 263 318
#     4  10  21  37  57  83 113 145 180 218 263 318
#     4  10  20  34  50  70  99 134 169 210 259 310
#     4   9  17  31  51  72  97 131 171 209 252 309
#     4  10  18  30  48  72  97 126 167 210 251 300
#     4   9  16  31  55  77 100 135 174 215 262 310
#     4   9  17  31  51  72  97 131 171 209 252 309
#
# _framework density 18.876560000000001
#
# number of rings (size 3 to 8) (size 9 to 14) (size 15 to 20)
#    0.000    2.500    1.250    1.500    0.000    1.500 
#    2.250    2.500    0.000    0.000    0.000    0.000 
#    0.000    0.000    0.000    0.000    0.000    0.000 
#
# Total GULP energy -178499.704210 kJ/mol
# GULP energy per Si atom -5578.115757 kJ/mol
# Density = 1.883360 g / cm^3
# Si number density = 18.876560 Si / 1000 Ang^3
#
#
#
# Elastic Constant Matrix: (Units=GPa)
#
#
# Indices 1 2 3 4 5 6 
#
# 1 208.6551 17.1031 124.9519 0.0000 1.8299 0.0000
# 2 17.1031 10.0024 16.5964 0.0000 0.2064 0.0000
# 3 124.9519 16.5964 175.4608 0.0000 11.6533 0.0000
# 4 0.0000 0.0000 0.0000 12.4843 0.0000 6.7365
# 5 1.8299 0.2064 11.6533 0.0000 35.6224 0.0000
# 6 0.0000 0.0000 0.0000 6.7365 0.0000 29.0835
#
#
#
# Elastic Compliance Matrix: (Units=1/GPa)
#
#
# Indices 1 2 3 4 5 6 
#
# 1 0.008669 -0.005276 -0.005772 0.000000 0.001474 0.000000
# 2 -0.005276 0.122122 -0.007938 0.000000 0.002160 0.000000
# 3 -0.005772 -0.007938 0.010772 0.000000 -0.003181 0.000000
# 4 0.000000 0.000000 0.000000 0.091542 0.000000 -0.021203
# 5 0.001474 0.002160 -0.003181 0.000000 0.029025 0.000000
# 6 0.000000 0.000000 0.000000 -0.021203 0.000000 0.039295
#
#
# Mechanical properties :
#
#
# Convention : Reuss Voigt Hill
#
# Bulk Modulus (GPa) = 9.65326 79.04682 44.35004
# Shear Modulus (GPa) = 13.37161 31.13583 22.25372
#
# Velocity S-wave (km/s) = 2.66441 4.06574 3.43725
# Velocity P-wave (km/s) = 3.81974 8.00043 6.26886
#
# Compressibility (1/GPa) = 0.10359193
#
# Stress axis : x y z
#
# Youngs Moduli (GPa) = 115.35688 8.18850 92.83352
#
# Poissons Ratio (x) = 0.04320 0.53585
# Poissons Ratio (y) = 0.60858 0.73689
# Poissons Ratio (z) = 0.66586 0.06500
#
# Static dielectric constant tensor:
#      x y z
#    x 1.639000 0.000000 -0.015960 
#    y 0.000000 1.673500 0.000000 
#    z -0.015960 0.000000 1.678400 
# 
# From -- ./inp_files/72152.got.cif
#   From: 2010.05.17/outbox.cif.g08.bks.cpg/sg11_37_cif.got.tgz:72152.got - 2010.06.03 12:22:45.
