data_PCOD9156055
_publ_section_title
;
Structure prediction by ZEFSAII (Michael W. Deem and Ramdas Pophale) SiO2 
 PCOD9156055
Probable space group: P 21/M
;
_chemical_formula_sum "Si O2"
_cell_formula_units_Z 32
_cell_length_a 14.171206
_cell_length_b 11.781300
_cell_length_c 7.991509
_cell_angle_alpha 90.000000
_cell_angle_beta 99.797063
_cell_angle_gamma 90.000000
_cell_volume 1314.766721
_symmetry_space_group_name_H-M "P 21/M"
_symmetry_group_IT_number 11
_symmetry_cell_setting 'monoclinic'
loop_
_space_group_symop_operation_xyz
x,y,z
-x,1/2+y,-z
-x,-y,-z
x,1/2-y,z
loop_
_atom_site_type_symbol
_atom_site_label
_atom_site_fract_x
_atom_site_fract_y
_atom_site_fract_z
Si Si1 0.254303 0.049718 0.440102
Si Si2 0.402904 0.375784 0.755502
Si Si3 0.801857 0.374646 0.111972
Si Si4 0.095451 0.883685 0.547748
Si Si5 0.589869 0.372266 0.578262
Si Si6 0.851098 0.944205 0.897869
Si Si7 0.596942 0.375400 0.188771
Si Si8 0.997033 0.876988 0.203186
O O1 0.308626 0.110705 0.608925
O O2 0.200375 0.114696 0.273610
O O3 0.174831 0.963784 0.488893
O O4 0.337638 0.974815 0.379486
O O5 0.396481 0.250000 0.832908
O O6 0.495377 0.376614 0.661250
O O7 0.416800 0.491538 0.867117
O O8 0.813701 0.250000 0.041884
O O9 0.896273 0.404078 0.250330
O O10 0.711869 0.369302 0.208189
O O11 0.780807 0.469534 0.971300
O O12 0.122088 0.750000 0.545475
O O13 0.999248 0.893867 0.406372
O O14 0.637458 0.250000 0.627232
O O15 0.565260 0.373801 0.372841
O O16 0.901424 0.877853 0.063659
O O17 0.931392 0.029791 0.848973
O O18 0.565981 0.250000 0.106603
O O19 0.037212 0.750000 0.193143
#
# Coordination Sequence:
#
# PCOD9156055 Si02
#       8
#     4   4   4   4   4   4   4   4
#     4  10  17  30  49  73 102 134 171 211 258 312
#     4  10  19  30  50  80 107 134 175 222 262 307
#     4  10  18  30  50  78 103 128 170 222 263 301
#     4   9  16  29  53  74  93 127 171 218 259 300
#     4   9  16  28  50  77 101 129 171 219 261 304
#     4  10  21  32  50  76 101 133 168 213 260 313
#     4   9  16  29  49  73 103 135 169 214 261 302
#     4   9  19  36  51  68  97 134 172 212 260 312
#
# _framework density 24.338918
#
# number of rings (size 3 to 8) (size 9 to 14) (size 15 to 20)
#    0.000    2.500    2.500    2.250    0.000    2.500 
#    0.000    0.625    0.000    3.000    0.000    3.500 
#    0.000    0.000    0.000    0.000    0.000    0.125 
#
# Total GULP energy -178193.533686 kJ/mol
# GULP energy per Si atom -5568.547928 kJ/mol
# Density = 2.428352 g / cm^3
# Si number density = 24.338918 Si / 1000 Ang^3
#
#
#
# Elastic Constant Matrix: (Units=GPa)
#
#
# Indices 1 2 3 4 5 6 
#
# 1 47.3417 18.1422 17.1522 0.0000 16.4243 0.0000
# 2 18.1422 158.9868 23.1267 0.0000 13.9349 0.0000
# 3 17.1522 23.1267 77.9277 0.0000 40.6857 0.0000
# 4 0.0000 0.0000 0.0000 -45.4410 0.0000 0.3747
# 5 16.4243 13.9349 40.6857 0.0000 45.9866 0.0000
# 6 0.0000 0.0000 0.0000 0.3747 0.0000 16.4889
#
#
#
# Elastic Compliance Matrix: (Units=1/GPa)
#
#
# Indices 1 2 3 4 5 6 
#
# 1 0.024823 -0.002040 -0.001026 0.000000 -0.007339 0.000000
# 2 -0.002040 0.006747 -0.001610 0.000000 0.000108 0.000000
# 3 -0.001026 -0.001610 0.024327 0.000000 -0.020668 0.000000
# 4 0.000000 0.000000 0.000000 -0.022002 0.000000 0.000500
# 5 -0.007339 0.000108 -0.020668 0.000000 0.042620 0.000000
# 6 0.000000 0.000000 0.000000 0.000500 0.000000 0.060635
#
#
# Mechanical properties :
#
#
# Convention : Reuss Voigt Hill
#
# Bulk Modulus (GPa) = 21.48479 44.56649 33.02564
# Shear Modulus (GPa) = 30.86087 18.46258 24.66173
#
# Velocity S-wave (km/s) = 3.56471 2.75719 3.18663
# Velocity P-wave (km/s) = 5.07833 5.33729 5.20942
#
# Compressibility (1/GPa) = 0.04654456
#
# Stress axis : x y z
#
# Youngs Moduli (GPa) = 40.28536 148.20714 41.10670
#
# Poissons Ratio (x) = 0.30234 0.04219
# Poissons Ratio (y) = 0.08218 0.06618
# Poissons Ratio (z) = 0.04134 0.23862
#
# Static dielectric constant tensor:
#      x y z
#    x 1.907980 0.000000 0.031010 
#    y 0.000000 2.044340 0.000000 
#    z 0.031010 0.000000 1.989360 
# 
# From -- ./inp_files/21546.got.cif
#   From: 2010.05.17/outbox.cif.g08.bks.cpg/sg11_11_cif.got.tgz:21546.got - 2010.06.03 12:22:45.
