data_PCOD9156427
_publ_section_title
;
Structure prediction by ZEFSAII (Michael W. Deem and Ramdas Pophale) SiO2 
 PCOD9156427
Probable space group: P 21/M
;
_chemical_formula_sum "Si O2"
_cell_formula_units_Z 16
_cell_length_a 18.993978
_cell_length_b 5.462501
_cell_length_c 10.967308
_cell_angle_alpha 90.000000
_cell_angle_beta 44.139235
_cell_angle_gamma 90.000000
_cell_volume 792.444767
_symmetry_space_group_name_H-M "P 21/M"
_symmetry_group_IT_number 11
_symmetry_cell_setting 'monoclinic'
loop_
_space_group_symop_operation_xyz
x,y,z
-x,1/2+y,-z
-x,-y,-z
x,1/2-y,z
loop_
_atom_site_type_symbol
_atom_site_label
_atom_site_fract_x
_atom_site_fract_y
_atom_site_fract_z
Si Si1 0.705272 0.750000 0.845721
Si Si2 0.084619 0.250000 0.516945
Si Si3 0.424432 0.250000 0.223555
Si Si4 0.684091 0.250000 0.614461
Si Si5 0.335576 0.750000 0.070783
Si Si6 0.022304 0.250000 0.310342
Si Si7 0.133575 0.750000 0.796269
Si Si8 0.107285 0.250000 0.962894
O O1 0.794892 0.750000 0.635027
O O2 0.604278 0.750000 0.886408
O O3 0.708442 0.504543 0.919795
O O4 0.039966 0.497561 0.628502
O O5 0.056792 0.250000 0.407928
O O6 0.377090 0.499484 0.335439
O O7 0.544290 0.250000 0.088897
O O8 0.695536 0.250000 0.747133
O O9 0.788721 0.250000 0.412324
O O10 0.112640 0.250000 0.102027
O O11 0.014941 0.750000 0.907672
O O12 0.149035 0.498759 0.852287
#
# Coordination Sequence:
#
# PCOD9156427 Si02
#       8
#     2   2   2   2   2   2   2   2
#     4  10  18  28  46  67  97 127 158 192 222 310
#     4  10  21  33  51  78  92 128 180 196 245 310
#     4  10  19  29  46  71 104 129 152 193 253 298
#     4  10  18  29  46  66  96 131 159 197 221 305
#     4  10  19  31  44  73 102 131 150 195 253 298
#     4  10  21  36  51  68 103 129 162 222 250 272
#     4  10  21  33  47  74  92 130 183 191 242 293
#     4  10  21  35  49  65 102 131 160 224 238 274
#
# _framework density 20.190681000000001
#
# number of rings (size 3 to 8) (size 9 to 14) (size 15 to 20)
#    0.000    2.000    0.000    6.000    7.000    0.000 
#    0.000    0.000    0.000    0.000    0.000    0.000 
#    0.000   34.000    0.000    0.000    0.000    0.000 
#
# Total GULP energy -89331.562640 kJ/mol
# GULP energy per Si atom -5583.222665 kJ/mol
# Density = 2.014473 g / cm^3
# Si number density = 20.190681 Si / 1000 Ang^3
#
#
#
# Elastic Constant Matrix: (Units=GPa)
#
#
# Indices 1 2 3 4 5 6 
#
# 1 16.9540 24.9612 15.6453 0.0000 0.0520 0.0000
# 2 24.9612 225.7557 64.9040 0.0000 0.2230 0.0000
# 3 15.6453 64.9040 96.1832 0.0000 -8.1638 0.0000
# 4 0.0000 0.0000 0.0000 40.4941 0.0000 -6.2707
# 5 0.0520 0.2230 -8.1638 0.0000 15.6557 0.0000
# 6 0.0000 0.0000 0.0000 -6.2707 0.0000 10.0088
#
#
#
# Elastic Compliance Matrix: (Units=1/GPa)
#
#
# Indices 1 2 3 4 5 6 
#
# 1 0.075695 -0.005843 -0.008773 0.000000 -0.004743 0.000000
# 2 -0.005843 0.006014 -0.003258 0.000000 -0.001765 0.000000
# 3 -0.008773 -0.003258 0.014678 0.000000 0.007730 0.000000
# 4 0.000000 0.000000 0.000000 0.027348 0.000000 0.017134
# 5 -0.004743 -0.001765 0.007730 0.000000 0.067946 0.000000
# 6 0.000000 0.000000 0.000000 0.017134 0.000000 0.110647
#
#
# Mechanical properties :
#
#
# Convention : Reuss Voigt Hill
#
# Bulk Modulus (GPa) = 16.49037 61.10154 38.79595
# Shear Modulus (GPa) = 13.95526 28.79054 21.37290
#
# Velocity S-wave (km/s) = 2.63187 3.78025 3.25707
# Velocity P-wave (km/s) = 4.17381 7.02721 5.77937
#
# Compressibility (1/GPa) = 0.06064147
#
# Stress axis : x y z
#
# Youngs Moduli (GPa) = 13.21086 166.28291 68.12887
#
# Poissons Ratio (x) = 0.97152 0.59767
# Poissons Ratio (y) = 0.07719 0.22193
# Poissons Ratio (z) = 0.11590 0.54168
#
# Static dielectric constant tensor:
#      x y z
#    x 1.733040 0.000000 -0.011970 
#    y 0.000000 1.825980 0.000000 
#    z -0.011970 0.000000 1.696380 
# 
# From -- ./inp_files/19961.got.cif
#   From: 2010.05.17/outbox.cif.g08.bks.cpg/sg11_10_cif.got.tgz:19961.got - 2010.06.03 12:22:45.
