data_PCOD9156929
_publ_section_title
;
Structure prediction by ZEFSAII (Michael W. Deem and Ramdas Pophale) SiO2 
 PCOD9156929
Probable space group: P 21/M
;
_chemical_formula_sum "Si O2"
_cell_formula_units_Z 24
_cell_length_a 9.104756
_cell_length_b 17.931532
_cell_length_c 15.190716
_cell_angle_alpha 90.000000
_cell_angle_beta 34.656738
_cell_angle_gamma 90.000000
_cell_volume 1410.313149
_symmetry_space_group_name_H-M "P 21/M"
_symmetry_group_IT_number 11
_symmetry_cell_setting 'monoclinic'
loop_
_space_group_symop_operation_xyz
x,y,z
-x,1/2+y,-z
-x,-y,-z
x,1/2-y,z
loop_
_atom_site_type_symbol
_atom_site_label
_atom_site_fract_x
_atom_site_fract_y
_atom_site_fract_z
Si Si1 0.425752 0.076933 0.584123
Si Si2 0.090094 0.160739 0.609588
Si Si3 0.717627 0.966884 0.146984
Si Si4 0.440033 0.666008 0.212417
Si Si5 0.126286 0.835288 0.554291
Si Si6 0.217066 0.064581 0.378488
O O1 0.215870 0.123084 0.632480
O O2 0.326907 0.057465 0.730151
O O3 0.681836 0.126985 0.471138
O O4 0.500000 0.000000 0.500000
O O5 0.132796 0.250000 0.585277
O O6 0.215034 0.118640 0.464247
O O7 0.781890 0.148740 0.749650
O O8 0.659794 0.895245 0.114386
O O9 0.491854 0.025480 0.234862
O O10 0.000000 0.000000 0.000000
O O11 0.536126 0.750000 0.151953
O O12 0.282019 0.664918 0.383640
O O13 0.064121 0.750000 0.606123
O O14 0.879776 0.886603 0.655961
O O15 0.000000 0.000000 0.500000
#
# Coordination Sequence:
#
# PCOD9156929 Si02
#       6
#     4   4   4   4   4   4
#     4  11  19  32  54  82 110 135 177 228 268 311
#     4  10  18  30  55  84 105 136 185 233 267 307
#     4  11  22  35  54  82 110 142 181 220 273 321
#     4   8  16  32  53  74 102 143 184 217 259 322
#     4   9  17  29  51  78 103 136 179 223 261 308
#     4  11  16  33  55  78 103 138 186 221 258 316
#
# _framework density 17.017498
#
# number of rings (size 3 to 8) (size 9 to 14) (size 15 to 20)
#    0.000    2.000    6.667    2.000    0.000    0.667 
#    0.000    2.500    0.000    0.000    0.000    0.000 
#    0.000    0.000    0.000    0.000    0.000    0.000 
#
# Total GULP energy -133766.524773 kJ/mol
# GULP energy per Si atom -5573.605199 kJ/mol
# Density = 1.697877 g / cm^3
# Si number density = 17.017498 Si / 1000 Ang^3
#
#
#
# Elastic Constant Matrix: (Units=GPa)
#
#
# Indices 1 2 3 4 5 6 
#
# 1 119.3515 76.4076 32.8238 0.0000 -36.7678 0.0000
# 2 76.4076 156.5456 56.2515 0.0000 -38.2335 0.0000
# 3 32.8238 56.2515 70.2418 0.0000 -36.6930 0.0000
# 4 0.0000 0.0000 0.0000 18.0652 0.0000 -10.8941
# 5 -36.7678 -38.2335 -36.6930 0.0000 29.2000 0.0000
# 6 0.0000 0.0000 0.0000 -10.8941 0.0000 36.8001
#
#
#
# Elastic Compliance Matrix: (Units=1/GPa)
#
#
# Indices 1 2 3 4 5 6 
#
# 1 0.018099 -0.005728 0.011981 0.000000 0.030346 0.000000
# 2 -0.005728 0.011456 -0.007071 0.000000 -0.001097 0.000000
# 3 0.011981 -0.007071 0.050484 0.000000 0.069267 0.000000
# 4 0.000000 0.000000 0.000000 0.067385 0.000000 0.019948
# 5 0.030346 -0.001097 0.069267 0.000000 0.158062 0.000000
# 6 0.000000 0.000000 0.000000 0.019948 0.000000 0.033079
#
#
# Mechanical properties :
#
#
# Convention : Reuss Voigt Hill
#
# Bulk Modulus (GPa) = 12.75436 75.23385 43.99411
# Shear Modulus (GPa) = 13.64873 28.85679 21.25276
#
# Velocity S-wave (km/s) = 2.83511 4.12237 3.53778
# Velocity P-wave (km/s) = 4.26945 8.18317 6.52658
#
# Compressibility (1/GPa) = 0.07840454
#
# Stress axis : x y z
#
# Youngs Moduli (GPa) = 55.25259 87.28745 19.80820
#
# Poissons Ratio (x) = 0.49994 -0.23733
# Poissons Ratio (y) = 0.31646 0.14007
# Poissons Ratio (z) = -0.66201 0.61723
#
# Static dielectric constant tensor:
#      x y z
#    x 1.592020 0.000000 -0.006980 
#    y 0.000000 1.598620 0.000000 
#    z -0.006980 0.000000 1.558970 
# 
# From -- ./inp_files/18203.got.cif
#   From: 2010.05.17/outbox.cif.g08.bks.cpg/sg11_10_cif.got.tgz:18203.got - 2010.06.03 12:22:45.
