data_PCOD9156062
_publ_section_title
;
Structure prediction by ZEFSAII (Michael W. Deem and Ramdas Pophale) SiO2 
 PCOD9156062
Probable space group: P 21/M
;
_chemical_formula_sum "Si O2"
_cell_formula_units_Z 32
_cell_length_a 11.969950
_cell_length_b 18.199544
_cell_length_c 18.412113
_cell_angle_alpha 90.000000
_cell_angle_beta 149.825560
_cell_angle_gamma 90.000000
_cell_volume 2016.084029
_symmetry_space_group_name_H-M "P 21/M"
_symmetry_group_IT_number 11
_symmetry_cell_setting 'monoclinic'
loop_
_space_group_symop_operation_xyz
x,y,z
-x,1/2+y,-z
-x,-y,-z
x,1/2-y,z
loop_
_atom_site_type_symbol
_atom_site_label
_atom_site_fract_x
_atom_site_fract_y
_atom_site_fract_z
Si Si1 0.061936 0.163605 0.151250
Si Si2 0.593348 0.430065 0.638411
Si Si3 0.229551 0.941473 0.412106
Si Si4 0.829442 0.836953 0.621816
Si Si5 0.443088 0.835751 0.635303
Si Si6 0.205797 0.551472 0.093604
Si Si7 0.996056 0.040687 0.383132
Si Si8 0.355125 0.531525 0.692835
O O1 0.007723 0.250000 0.116698
O O2 0.084852 0.143646 0.249153
O O3 0.302849 0.153657 0.248565
O O4 0.886230 0.114316 0.010359
O O5 0.773641 0.437339 0.676108
O O6 0.438523 0.503559 0.548258
O O7 0.424770 0.364677 0.524405
O O8 0.695509 0.420254 0.774586
O O9 0.289590 0.864707 0.483092
O O10 0.022003 0.979116 0.334952
O O11 0.846357 0.750000 0.621587
O O12 0.953035 0.883141 0.628877
O O13 0.409381 0.750000 0.632331
O O14 0.386921 0.890683 0.669652
O O15 0.405688 0.506389 0.169226
O O16 0.000000 0.500000 0.000000
O O17 0.770732 0.040188 0.301847
O O18 0.191934 0.018612 0.550446
#
# Coordination Sequence:
#
# PCOD9156062 Si02
#       8
#     4   4   4   4   4   4   4   4
#     4  10  21  34  51  78 111 137 169 219 275 323
#     4  10  18  30  53  77 103 135 173 224 254 303
#     4   9  16  30  51  76  99 128 171 218 262 291
#     4  10  19  34  56  81 104 139 182 221 265 312
#     4  10  17  30  50  74 104 134 166 212 266 312
#     4  12  21  33  53  80 109 141 174 214 273 326
#     4   9  19  33  55  73 107 136 176 225 256 301
#     4  10  19  35  50  80 105 139 178 219 260 310
#
# _framework density 15.872354
#
# number of rings (size 3 to 8) (size 9 to 14) (size 15 to 20)
#    0.000    2.000    6.250    0.000    3.500    1.000 
#    0.000    0.625    0.000    0.750    0.000    0.000 
#    0.000    0.000    0.000    0.000    0.000    0.000 
#
# Total GULP energy -178342.536266 kJ/mol
# GULP energy per Si atom -5573.204258 kJ/mol
# Density = 1.583623 g / cm^3
# Si number density = 15.872354 Si / 1000 Ang^3
#
#
#
# Elastic Constant Matrix: (Units=GPa)
#
#
# Indices 1 2 3 4 5 6 
#
# 1 152.7612 58.2548 40.9030 0.0000 1.5565 0.0000
# 2 58.2548 99.4384 49.4355 0.0000 -6.5627 0.0000
# 3 40.9030 49.4355 59.9581 0.0000 -9.3687 0.0000
# 4 0.0000 0.0000 0.0000 23.8012 0.0000 -3.8751
# 5 1.5565 -6.5627 -9.3687 0.0000 25.8281 0.0000
# 6 0.0000 0.0000 0.0000 -3.8751 0.0000 17.0381
#
#
#
# Elastic Compliance Matrix: (Units=1/GPa)
#
#
# Indices 1 2 3 4 5 6 
#
# 1 0.008904 -0.003668 -0.003476 0.000000 -0.002729 0.000000
# 2 -0.003668 0.018569 -0.012759 0.000000 0.000311 0.000000
# 3 -0.003476 -0.012759 0.030844 0.000000 0.008156 0.000000
# 4 0.000000 0.000000 0.000000 0.043630 0.000000 0.009923
# 5 -0.002729 0.000311 0.008156 0.000000 0.041919 0.000000
# 6 0.000000 0.000000 0.000000 0.009923 0.000000 0.060949
#
#
# Mechanical properties :
#
#
# Convention : Reuss Voigt Hill
#
# Bulk Modulus (GPa) = 54.02546 67.70491 60.86519
# Shear Modulus (GPa) = 19.93680 24.23776 22.08728
#
# Velocity S-wave (km/s) = 3.54795 3.91198 3.73440
# Velocity P-wave (km/s) = 7.13410 7.94690 7.55144
#
# Compressibility (1/GPa) = 0.01850979
#
# Stress axis : x y z
#
# Youngs Moduli (GPa) = 112.31513 53.85279 32.42108
#
# Poissons Ratio (x) = 0.19753 0.11270
# Poissons Ratio (y) = 0.41197 0.41367
# Poissons Ratio (z) = 0.39042 0.68713
#
# Static dielectric constant tensor:
#      x y z
#    x 1.548100 0.000000 -0.007390 
#    y 0.000000 1.536480 0.000000 
#    z -0.007390 0.000000 1.521420 
# 
# From -- ./inp_files/59647.got.cif
#   From: 2010.05.17/outbox.cif.g08.bks.cpg/sg11_30_cif.got.tgz:59647.got - 2010.06.03 12:22:45.
