data_PCOD9156932
_publ_section_title
;
Structure prediction by ZEFSAII (Michael W. Deem and Ramdas Pophale) SiO2 
 PCOD9156932
Probable space group: P 21/M
;
_chemical_formula_sum "Si O2"
_cell_formula_units_Z 24
_cell_length_a 10.407702
_cell_length_b 19.373343
_cell_length_c 10.407710
_cell_angle_alpha 90.000000
_cell_angle_beta 42.824302
_cell_angle_gamma 90.000000
_cell_volume 1426.479003
_symmetry_space_group_name_H-M "P 21/M"
_symmetry_group_IT_number 11
_symmetry_cell_setting 'monoclinic'
loop_
_space_group_symop_operation_xyz
x,y,z
-x,1/2+y,-z
-x,-y,-z
x,1/2-y,z
loop_
_atom_site_type_symbol
_atom_site_label
_atom_site_fract_x
_atom_site_fract_y
_atom_site_fract_z
Si Si1 0.620273 0.966676 0.528613
Si Si2 0.028613 0.533324 0.120273
Si Si3 0.360008 0.329200 0.860006
Si Si4 0.949064 0.329303 0.038036
Si Si5 0.577226 0.527434 0.077226
Si Si6 0.461962 0.670697 0.550937
O O1 0.572749 0.885464 0.553125
O O2 0.839353 0.978815 0.339353
O O3 0.500000 0.000000 0.500000
O O4 0.549359 0.998689 0.712792
O O5 0.053125 0.614536 0.072749
O O6 0.212792 0.501310 0.049359
O O7 0.000000 0.500000 0.000000
O O8 0.385190 0.250000 0.885188
O O9 0.415806 0.389586 0.915805
O O10 0.478296 0.338750 0.641086
O O11 0.141088 0.338750 0.978293
O O12 0.949195 0.250000 0.991945
O O13 0.760987 0.339708 0.260986
O O14 0.500000 0.500000 0.000000
O O15 0.508053 0.750000 0.550805
#
# Coordination Sequence:
#
# PCOD9156932 Si02
#       6
#     4   4   4   4   4   4
#     4  12  20  35  61  86 114 153 198 246 290 346
#     4  12  20  35  61  86 114 153 198 246 290 346
#     4  10  20  36  58  84 114 150 194 242 294 353
#     4  10  18  30  55  91 116 142 193 251 295 337
#     4  12  26  40  56  88 126 158 198 242 301 353
#     4  10  18  30  55  91 116 142 193 251 295 337
#
# _framework density 16.824643999999999
#
# number of rings (size 3 to 8) (size 9 to 14) (size 15 to 20)
#    0.000    1.000    8.333    0.000    0.000    0.667 
#    0.000    1.667    0.000    0.000    0.000    0.000 
#    0.000    0.000    0.000    0.000    0.000    0.000 
#
# Total GULP energy -133986.388870 kJ/mol
# GULP energy per Si atom -5582.766203 kJ/mol
# Density = 1.678635 g / cm^3
# Si number density = 16.824644 Si / 1000 Ang^3
#
#
#
# Elastic Constant Matrix: (Units=GPa)
#
#
# Indices 1 2 3 4 5 6 
#
# 1 95.5919 52.6819 62.8633 0.0000 -0.1151 0.0000
# 2 52.6819 137.2672 43.5206 0.0000 5.4594 0.0000
# 3 62.8633 43.5206 133.6029 0.0000 -22.5339 0.0000
# 4 0.0000 0.0000 0.0000 24.8028 0.0000 -1.3317
# 5 -0.1151 5.4594 -22.5339 0.0000 29.8200 0.0000
# 6 0.0000 0.0000 0.0000 -1.3317 0.0000 22.5678
#
#
#
# Elastic Compliance Matrix: (Units=1/GPa)
#
#
# Indices 1 2 3 4 5 6 
#
# 1 0.018010 -0.004171 -0.007994 0.000000 -0.005208 0.000000
# 2 -0.004171 0.009528 -0.001648 0.000000 -0.003006 0.000000
# 3 -0.007994 -0.001648 0.013557 0.000000 0.010515 0.000000
# 4 0.000000 0.000000 0.000000 0.040446 0.000000 0.002387
# 5 -0.005208 -0.003006 0.010515 0.000000 0.042011 0.000000
# 6 0.000000 0.000000 0.000000 0.002387 0.000000 0.044452
#
#
# Mechanical properties :
#
#
# Convention : Reuss Voigt Hill
#
# Bulk Modulus (GPa) = 74.24460 76.06594 75.15527
# Shear Modulus (GPa) = 24.98506 29.26453 27.12479
#
# Velocity S-wave (km/s) = 3.85779 4.17512 4.01958
# Velocity P-wave (km/s) = 8.00423 8.27957 8.14306
#
# Compressibility (1/GPa) = 0.01346899
#
# Stress axis : x y z
#
# Youngs Moduli (GPa) = 55.52331 104.95559 73.76386
#
# Poissons Ratio (x) = 0.43772 0.58968
# Poissons Ratio (y) = 0.23156 0.12159
# Poissons Ratio (z) = 0.44386 0.17300
#
# Static dielectric constant tensor:
#      x y z
#    x 1.518250 0.000000 -0.028000 
#    y 0.000000 1.625470 0.000000 
#    z -0.028000 0.000000 1.565240 
# 
# From -- ./inp_files/14236.got.cif
#   From: 2010.05.17/outbox.cif.g08.bks.cpg/sg11_8_cif.got.tgz:14236.got - 2010.06.03 12:22:45.
