data_PCOD9156380
_publ_section_title
;
Structure prediction by ZEFSAII (Michael W. Deem and Ramdas Pophale) SiO2 
 PCOD9156380
Probable space group: P 21/M
;
_chemical_formula_sum "Si O2"
_cell_formula_units_Z 24
_cell_length_a 14.394310
_cell_length_b 8.724714
_cell_length_c 27.210576
_cell_angle_alpha 90.000000
_cell_angle_beta 154.393622
_cell_angle_gamma 90.000000
_cell_volume 1476.898389
_symmetry_space_group_name_H-M "P 21/M"
_symmetry_group_IT_number 11
_symmetry_cell_setting 'monoclinic'
loop_
_space_group_symop_operation_xyz
x,y,z
-x,1/2+y,-z
-x,-y,-z
x,1/2-y,z
loop_
_atom_site_type_symbol
_atom_site_label
_atom_site_fract_x
_atom_site_fract_y
_atom_site_fract_z
Si Si1 0.011609 0.067699 0.425660
Si Si2 0.663493 0.932896 0.334585
Si Si3 0.832958 0.932320 0.246111
Si Si4 0.639255 0.933440 0.956326
Si Si5 0.737734 0.433202 0.101713
Si Si6 0.225943 0.433152 0.090629
O O1 0.993361 0.250000 0.409700
O O2 0.222500 0.034840 0.558850
O O3 0.812338 0.011875 0.364248
O O4 0.996042 0.984098 0.366230
O O5 0.669148 0.750000 0.329445
O O6 0.423969 0.994670 0.214994
O O7 0.821962 0.750000 0.236657
O O8 0.599062 0.995167 0.151896
O O9 0.876775 0.005549 0.213602
O O10 0.621441 0.750000 0.953743
O O11 0.730720 0.967902 0.946226
O O12 0.782152 0.002103 0.068678
O O13 0.731668 0.250000 0.098564
O O14 0.500000 0.500000 0.000000
O O15 0.228440 0.250000 0.097429
O O16 0.000000 0.500000 0.000000
#
# Coordination Sequence:
#
# PCOD9156380 Si02
#       6
#     4   4   4   4   4   4
#     4  10  19  31  48  72 101 132 163 201 247 297
#     4  10  20  33  50  71  98 130 167 205 247 296
#     4  11  19  28  46  71  99 132 163 198 242 298
#     4  10  19  32  47  67  96 129 163 205 247 291
#     4  10  18  28  44  66  95 128 160 199 242 296
#     4  11  23  36  53  72  99 133 171 211 247 290
#
# _framework density 16.250271999999999
#
# number of rings (size 3 to 8) (size 9 to 14) (size 15 to 20)
#    0.000    1.667    1.667    7.000    0.000    4.000 
#    0.000    0.000    0.000    0.000    0.000    1.167 
#    0.000    0.000    0.000    0.000    0.000    0.000 
#
# Total GULP energy -133936.260663 kJ/mol
# GULP energy per Si atom -5580.677528 kJ/mol
# Density = 1.621329 g / cm^3
# Si number density = 16.250272 Si / 1000 Ang^3
#
#
#
# Elastic Constant Matrix: (Units=GPa)
#
#
# Indices 1 2 3 4 5 6 
#
# 1 64.9115 48.6843 53.8083 0.0000 -20.1138 0.0000
# 2 48.6843 107.7144 49.5745 0.0000 -18.2712 0.0000
# 3 53.8083 49.5745 105.5361 0.0000 -17.2921 0.0000
# 4 0.0000 0.0000 0.0000 26.6954 0.0000 -7.0655
# 5 -20.1138 -18.2712 -17.2921 0.0000 31.6449 0.0000
# 6 0.0000 0.0000 0.0000 -7.0655 0.0000 25.0809
#
#
#
# Elastic Compliance Matrix: (Units=1/GPa)
#
#
# Indices 1 2 3 4 5 6 
#
# 1 0.035238 -0.008468 -0.012213 0.000000 0.010834 0.000000
# 2 -0.008468 0.014403 -0.002161 0.000000 0.001753 0.000000
# 3 -0.012213 -0.002161 0.016740 0.000000 0.000137 0.000000
# 4 0.000000 0.000000 0.000000 0.040478 0.000000 0.011403
# 5 0.010834 0.001753 0.000137 0.000000 0.039574 0.000000
# 6 0.000000 0.000000 0.000000 0.011403 0.000000 0.043083
#
#
# Mechanical properties :
#
#
# Convention : Reuss Voigt Hill
#
# Bulk Modulus (GPa) = 48.31741 64.69959 56.50850
# Shear Modulus (GPa) = 20.65267 25.09059 22.87163
#
# Velocity S-wave (km/s) = 3.56885 3.93365 3.75568
# Velocity P-wave (km/s) = 6.83960 7.78026 7.32504
#
# Compressibility (1/GPa) = 0.02069647
#
# Stress axis : x y z
#
# Youngs Moduli (GPa) = 28.37839 69.42985 59.73687
#
# Poissons Ratio (x) = 0.58792 0.72959
# Poissons Ratio (y) = 0.24030 0.12910
# Poissons Ratio (z) = 0.34660 0.15004
#
# Static dielectric constant tensor:
#      x y z
#    x 1.549870 0.000000 -0.050650 
#    y 0.000000 1.541830 0.000000 
#    z -0.050650 0.000000 1.555560 
# 
# From -- ./inp_files/42263.got.cif
#   From: 2010.05.17/outbox.cif.g08.bks.cpg/sg11_22_cif.got.tgz:42263.got - 2010.06.03 12:22:45.
