data_PCOD9156619
_publ_section_title
;
Structure prediction by ZEFSAII (Michael W. Deem and Ramdas Pophale) SiO2 
 PCOD9156619
Probable space group: P 21/M
;
_chemical_formula_sum "Si O2"
_cell_formula_units_Z 32
_cell_length_a 18.312157
_cell_length_b 8.638196
_cell_length_c 24.549240
_cell_angle_alpha 90.000000
_cell_angle_beta 29.875721
_cell_angle_gamma 90.000000
_cell_volume 1934.349263
_symmetry_space_group_name_H-M "P 21/M"
_symmetry_group_IT_number 11
_symmetry_cell_setting 'monoclinic'
loop_
_space_group_symop_operation_xyz
x,y,z
-x,1/2+y,-z
-x,-y,-z
x,1/2-y,z
loop_
_atom_site_type_symbol
_atom_site_label
_atom_site_fract_x
_atom_site_fract_y
_atom_site_fract_z
Si Si1 0.329896 0.436950 0.335781
Si Si2 0.914778 0.435729 0.422826
Si Si3 0.218897 0.433986 0.596927
Si Si4 0.122310 0.436224 0.379597
Si Si5 0.950700 0.935373 0.973359
Si Si6 0.208295 0.564813 0.722903
Si Si7 0.540960 0.565587 0.365604
Si Si8 0.638176 0.064342 0.186679
O O1 0.316012 0.250000 0.350523
O O2 0.219931 0.513078 0.450745
O O3 0.273737 0.480488 0.311445
O O4 0.496138 0.477797 0.242641
O O5 0.911723 0.250000 0.419395
O O6 0.888667 0.512081 0.381563
O O7 0.064119 0.484431 0.357850
O O8 0.217708 0.250000 0.602489
O O9 0.183009 0.510461 0.677915
O O10 0.381860 0.489610 0.474910
O O11 0.116373 0.250000 0.383521
O O12 0.000000 0.500000 0.500000
O O13 0.943332 0.750000 0.981314
O O14 0.072009 0.977209 0.849968
O O15 0.790505 0.002512 0.064886
O O16 0.000000 0.000000 0.000000
O O17 0.227695 0.750000 0.712159
O O18 0.353135 0.486036 0.653996
O O19 0.525909 0.750000 0.374359
O O20 0.612714 0.506746 0.263015
O O21 0.644622 0.250000 0.187725
#
# Coordination Sequence:
#
# PCOD9156619 Si02
#       8
#     4   4   4   4   4   4   4   4
#     4   9  17  30  48  72 105 139 171 209 252 304
#     4  10  18  29  48  73 103 138 173 210 252 305
#     4  12  24  37  53  75 106 140 175 214 260 312
#     4   8  15  27  44  69 100 135 171 205 248 300
#     4  11  23  38  58  77 101 133 173 220 265 310
#     4  11  24  41  57  75 100 134 177 219 261 307
#     4  12  23  36  55  77 105 138 175 214 257 307
#     4  11  21  33  53  79 108 140 175 212 257 307
#
# _framework density 16.543030999999999
#
# number of rings (size 3 to 8) (size 9 to 14) (size 15 to 20)
#    0.000    1.500    2.500    4.125    0.000    2.500 
#    0.000    0.000    0.000    0.000    0.000    0.875 
#    0.000    0.000    0.000    0.000    0.000    0.000 
#
# Total GULP energy -178619.302141 kJ/mol
# GULP energy per Si atom -5581.853192 kJ/mol
# Density = 1.650538 g / cm^3
# Si number density = 16.543031 Si / 1000 Ang^3
#
#
#
# Elastic Constant Matrix: (Units=GPa)
#
#
# Indices 1 2 3 4 5 6 
#
# 1 109.7711 -3.2955 12.1986 0.0000 -10.0067 0.0000
# 2 -3.2955 24.9241 0.9902 0.0000 -2.6747 0.0000
# 3 12.1986 0.9902 25.7598 0.0000 1.6419 0.0000
# 4 0.0000 0.0000 0.0000 22.7550 0.0000 0.3261
# 5 -10.0067 -2.6747 1.6419 0.0000 21.3112 0.0000
# 6 0.0000 0.0000 0.0000 0.3261 0.0000 22.4233
#
#
#
# Elastic Compliance Matrix: (Units=1/GPa)
#
#
# Indices 1 2 3 4 5 6 
#
# 1 0.010264 0.002157 -0.005294 0.000000 0.005498 0.000000
# 2 0.002157 0.041216 -0.003015 0.000000 0.006418 0.000000
# 3 -0.005294 -0.003015 0.041831 0.000000 -0.006087 0.000000
# 4 0.000000 0.000000 0.000000 0.043956 0.000000 -0.000639
# 5 0.005498 0.006418 -0.006087 0.000000 0.050780 0.000000
# 6 0.000000 0.000000 0.000000 -0.000639 0.000000 0.044606
#
#
# Mechanical properties :
#
#
# Convention : Reuss Voigt Hill
#
# Bulk Modulus (GPa) = 12.34452 20.02685 16.18569
# Shear Modulus (GPa) = 18.38523 23.33535 20.86029
#
# Velocity S-wave (km/s) = 3.33732 3.75985 3.55487
# Velocity P-wave (km/s) = 4.72531 5.56604 5.16282
#
# Compressibility (1/GPa) = 0.08100758
#
# Stress axis : x y z
#
# Youngs Moduli (GPa) = 97.42634 24.26268 23.90572
#
# Poissons Ratio (x) = -0.05235 0.12656
# Poissons Ratio (y) = -0.21020 0.07208
# Poissons Ratio (z) = 0.51577 0.07315
#
# Static dielectric constant tensor:
#      x y z
#    x 1.590840 0.000000 -0.016560 
#    y 0.000000 1.553320 0.000000 
#    z -0.016560 0.000000 1.525730 
# 
# From -- ./inp_files/42458.got.cif
#   From: 2010.05.17/outbox.cif.g08.bks.cpg/sg11_22_cif.got.tgz:42458.got - 2010.06.03 12:22:45.
