data_PCOD9156019
_publ_section_title
;
Structure prediction by ZEFSAII (Michael W. Deem and Ramdas Pophale) SiO2 
 PCOD9156019
Probable space group: P 21/M
;
_chemical_formula_sum "Si O2"
_cell_formula_units_Z 32
_cell_length_a 9.158321
_cell_length_b 16.682565
_cell_length_c 11.244477
_cell_angle_alpha 90.000000
_cell_angle_beta 125.061946
_cell_angle_gamma 90.000000
_cell_volume 1406.220133
_symmetry_space_group_name_H-M "P 21/M"
_symmetry_group_IT_number 11
_symmetry_cell_setting 'monoclinic'
loop_
_space_group_symop_operation_xyz
x,y,z
-x,1/2+y,-z
-x,-y,-z
x,1/2-y,z
loop_
_atom_site_type_symbol
_atom_site_label
_atom_site_fract_x
_atom_site_fract_y
_atom_site_fract_z
Si Si1 0.525872 0.158598 0.592274
Si Si2 0.819232 0.431331 0.848041
Si Si3 0.197621 0.506893 0.648182
Si Si4 0.216532 0.661844 0.514531
Si Si5 0.811289 0.655242 0.997867
Si Si6 0.764940 0.655058 0.717438
Si Si7 0.791406 0.842962 0.259660
Si Si8 0.937081 0.450733 0.160184
O O1 0.495070 0.250000 0.619993
O O2 0.629178 0.104925 0.733966
O O3 0.668168 0.162770 0.550599
O O4 0.351809 0.123542 0.446497
O O5 0.887198 0.493930 0.780140
O O6 0.979319 0.366459 0.915552
O O7 0.831589 0.463943 0.988313
O O8 0.275239 0.584051 0.616943
O O9 0.274979 0.416267 0.688839
O O10 0.000000 0.500000 0.500000
O O11 0.168455 0.530658 0.771841
O O12 0.242088 0.750000 0.585496
O O13 0.006970 0.656792 0.380633
O O14 0.793344 0.750000 0.986656
O O15 0.752512 0.633387 0.103709
O O16 0.723254 0.625947 0.832821
O O17 0.731711 0.750000 0.700967
O O18 0.972074 0.636080 0.791569
O O19 0.734885 0.750000 0.253185
#
# Coordination Sequence:
#
# PCOD9156019 Si02
#       8
#     4   4   4   4   4   4   4   4
#     4  10  18  33  53  76 101 134 177 213 253 309
#     4  10  17  29  48  75 100 126 163 211 262 308
#     4  10  18  31  49  75 107 135 171 220 263 301
#     4   9  17  28  48  75 100 133 176 216 254 306
#     4   9  14  26  47  72  98 125 162 212 260 304
#     4   9  20  32  47  74 107 135 164 210 266 317
#     4   9  15  26  48  73  94 126 173 217 257 303
#     4  10  20  31  48  76 104 131 161 209 265 317
#
# _framework density 22.756039999999999
#
# number of rings (size 3 to 8) (size 9 to 14) (size 15 to 20)
#    0.000    2.500    2.500    1.125    0.000    1.500 
#    0.000    0.000    0.000    0.750    6.500    0.000 
#    0.000    1.000    0.000    0.000    0.000    0.000 
#
# Total GULP energy -178384.504865 kJ/mol
# GULP energy per Si atom -5574.515777 kJ/mol
# Density = 2.270425 g / cm^3
# Si number density = 22.756040 Si / 1000 Ang^3
#
#
#
# Elastic Constant Matrix: (Units=GPa)
#
#
# Indices 1 2 3 4 5 6 
#
# 1 48.0963 7.5986 17.1987 0.0000 -10.2597 0.0000
# 2 7.5986 79.9965 37.3628 0.0000 -4.4880 0.0000
# 3 17.1987 37.3628 100.6139 0.0000 -3.5220 0.0000
# 4 0.0000 0.0000 0.0000 29.3272 0.0000 -3.2333
# 5 -10.2597 -4.4880 -3.5220 0.0000 20.0363 0.0000
# 6 0.0000 0.0000 0.0000 -3.2333 0.0000 -0.1837
#
#
#
# Elastic Compliance Matrix: (Units=1/GPa)
#
#
# Indices 1 2 3 4 5 6 
#
# 1 0.024709 0.000124 -0.003850 0.000000 0.012004 0.000000
# 2 0.000124 0.015241 -0.005594 0.000000 0.002494 0.000000
# 3 -0.003850 -0.005594 0.012639 0.000000 -0.001003 0.000000
# 4 0.000000 0.000000 0.000000 0.011595 0.000000 -0.204116
# 5 0.012004 0.002494 -0.001003 0.000000 0.056438 0.000000
# 6 0.000000 0.000000 0.000000 -0.204116 0.000000 -1.851412
#
#
# Mechanical properties :
#
#
# Convention : Reuss Voigt Hill
#
# Bulk Modulus (GPa) = 29.45384 39.22522 34.33953
# Shear Modulus (GPa) = -2.93973 20.93909 8.99968
#
# Velocity S-wave (km/s) = -1.13783 3.03670 1.99084
# Velocity P-wave (km/s) = 3.35339 5.43784 4.51748
#
# Compressibility (1/GPa) = 0.03395143
#
# Stress axis : x y z
#
# Youngs Moduli (GPa) = 40.47086 65.61133 79.11900
#
# Poissons Ratio (x) = -0.00816 0.30459
# Poissons Ratio (y) = -0.00504 0.44257
# Poissons Ratio (z) = 0.15580 0.36701
#
# Static dielectric constant tensor:
#      x y z
#    x 1.820600 0.000000 -0.020780 
#    y 0.000000 1.978610 0.000000 
#    z -0.020780 0.000000 1.876820 
# 
# From -- ./inp_files/36069.got.cif
#   From: 2010.05.17/outbox.cif.g08.bks.cpg/sg11_19_cif.got.tgz:36069.got - 2010.06.03 12:22:45.
