data_PCOD9156402
_publ_section_title
;
Structure prediction by ZEFSAII (Michael W. Deem and Ramdas Pophale) SiO2 
 PCOD9156402
Probable space group: P 21/M
;
_chemical_formula_sum "Si O2"
_cell_formula_units_Z 32
_cell_length_a 15.270514
_cell_length_b 9.057978
_cell_length_c 21.340878
_cell_angle_alpha 90.000000
_cell_angle_beta 138.053799
_cell_angle_gamma 90.000000
_cell_volume 1973.125782
_symmetry_space_group_name_H-M "P 21/M"
_symmetry_group_IT_number 11
_symmetry_cell_setting 'monoclinic'
loop_
_space_group_symop_operation_xyz
x,y,z
-x,1/2+y,-z
-x,-y,-z
x,1/2-y,z
loop_
_atom_site_type_symbol
_atom_site_label
_atom_site_fract_x
_atom_site_fract_y
_atom_site_fract_z
Si Si1 0.322940 0.575554 0.456670
Si Si2 0.377536 0.073283 0.220058
Si Si3 0.042814 0.073171 0.325872
Si Si4 0.371328 0.426615 0.610431
Si Si5 0.929528 0.574518 0.520526
Si Si6 0.022759 0.579581 0.842292
Si Si7 0.706561 0.920898 0.683519
Si Si8 0.107974 0.073634 0.011707
O O1 0.338652 0.750000 0.469700
O O2 0.390546 0.496822 0.551585
O O3 0.354728 0.517984 0.404156
O O4 0.171737 0.524796 0.384539
O O5 0.397704 0.250000 0.226184
O O6 0.331455 0.039494 0.266439
O O7 0.254887 0.032021 0.111324
O O8 0.514399 0.989626 0.284780
O O9 0.078114 0.250000 0.341350
O O10 0.950706 0.045298 0.216943
O O11 0.001768 0.044135 0.375478
O O12 0.377589 0.250000 0.609319
O O13 0.224107 0.467980 0.554065
O O14 0.932179 0.750000 0.512915
O O15 0.000000 0.500000 0.500000
O O16 0.059405 0.750000 0.874108
O O17 0.864660 0.570132 0.764282
O O18 0.082835 0.477310 0.927374
O O19 0.670341 0.750000 0.652720
O O20 0.095746 0.250000 0.011577
O O21 0.000000 0.000000 0.000000
#
# Coordination Sequence:
#
# PCOD9156402 Si02
#       8
#     4   4   4   4   4   4   4   4
#     4  10  18  28  45  68  92 123 164 202 237 281
#     4  10  21  35  48  65  92 128 168 208 246 284
#     4   8  16  31  48  69 101 132 158 193 240 289
#     4  10  21  36  50  68  96 128 159 195 241 292
#     4   9  18  33  54  79 103 127 153 187 235 294
#     4   9  16  30  49  68  94 130 166 206 248 283
#     4   9  17  31  46  62  91 129 165 203 245 284
#     4  11  21  33  48  69  96 128 170 215 253 287
#
# _framework density 16.217922000000002
#
# number of rings (size 3 to 8) (size 9 to 14) (size 15 to 20)
#    0.000    2.500    1.250    3.375    0.000    6.500 
#    0.000    0.000    0.000    0.000    0.000    0.875 
#    0.000    0.000    0.000    0.000    0.000    0.000 
#
# Total GULP energy -178342.471613 kJ/mol
# GULP energy per Si atom -5573.202238 kJ/mol
# Density = 1.618101 g / cm^3
# Si number density = 16.217922 Si / 1000 Ang^3
#
#
#
# Elastic Constant Matrix: (Units=GPa)
#
#
# Indices 1 2 3 4 5 6 
#
# 1 78.5323 29.5125 45.7840 0.0000 -18.0160 0.0000
# 2 29.5125 48.5969 52.3150 0.0000 -5.6421 0.0000
# 3 45.7840 52.3150 118.6242 0.0000 -12.1158 0.0000
# 4 0.0000 0.0000 0.0000 27.4385 0.0000 -5.6236
# 5 -18.0160 -5.6421 -12.1158 0.0000 16.8618 0.0000
# 6 0.0000 0.0000 0.0000 -5.6236 0.0000 23.3928
#
#
#
# Elastic Compliance Matrix: (Units=1/GPa)
#
#
# Indices 1 2 3 4 5 6 
#
# 1 0.021621 -0.007681 -0.003087 0.000000 0.018313 0.000000
# 2 -0.007681 0.041914 -0.016108 0.000000 -0.005756 0.000000
# 3 -0.003087 -0.016108 0.017092 0.000000 0.003593 0.000000
# 4 0.000000 0.000000 0.000000 0.038334 0.000000 0.009215
# 5 0.018313 -0.005756 0.003593 0.000000 0.079528 0.000000
# 6 0.000000 0.000000 0.000000 0.009215 0.000000 0.044964
#
#
# Mechanical properties :
#
#
# Convention : Reuss Voigt Hill
#
# Bulk Modulus (GPa) = 37.20874 55.66407 46.43640
# Shear Modulus (GPa) = 16.33112 21.41474 18.87293
#
# Velocity S-wave (km/s) = 3.17674 3.63772 3.41502
# Velocity P-wave (km/s) = 6.03724 7.21395 6.65167
#
# Compressibility (1/GPa) = 0.02687541
#
# Stress axis : x y z
#
# Youngs Moduli (GPa) = 46.25142 23.85812 58.50549
#
# Poissons Ratio (x) = 0.18325 0.18061
# Poissons Ratio (y) = 0.35525 0.94242
# Poissons Ratio (z) = 0.14278 0.38431
#
# Static dielectric constant tensor:
#      x y z
#    x 1.550460 0.000000 -0.002010 
#    y 0.000000 1.543920 0.000000 
#    z -0.002010 0.000000 1.573480 
# 
# From -- ./inp_files/51189.got.cif
#   From: 2010.05.17/outbox.cif.g08.bks.cpg/sg11_26_cif.got.tgz:51189.got - 2010.06.03 12:22:45.
