data_PCOD9156260
_publ_section_title
;
Structure prediction by ZEFSAII (Michael W. Deem and Ramdas Pophale) SiO2 
 PCOD9156260
Probable space group: P 21/M
;
_chemical_formula_sum "Si O2"
_cell_formula_units_Z 32
_cell_length_a 16.714088
_cell_length_b 8.919355
_cell_length_c 21.464089
_cell_angle_alpha 90.000000
_cell_angle_beta 137.794463
_cell_angle_gamma 90.000000
_cell_volume 2149.629119
_symmetry_space_group_name_H-M "P 21/M"
_symmetry_group_IT_number 11
_symmetry_cell_setting 'monoclinic'
loop_
_space_group_symop_operation_xyz
x,y,z
-x,1/2+y,-z
-x,-y,-z
x,1/2-y,z
loop_
_atom_site_type_symbol
_atom_site_label
_atom_site_fract_x
_atom_site_fract_y
_atom_site_fract_z
Si Si1 0.513477 0.069593 0.662754
Si Si2 0.234816 0.570907 0.997349
Si Si3 0.387184 0.070312 0.469945
Si Si4 0.588559 0.077518 0.137496
Si Si5 0.740991 0.568678 0.723013
Si Si6 0.470472 0.069219 0.193377
Si Si7 0.007611 0.069377 0.072723
Si Si8 0.680281 0.578797 0.074115
O O1 0.519946 0.250000 0.671872
O O2 0.406297 0.027937 0.553004
O O3 0.635560 0.008845 0.701625
O O4 0.500394 0.995986 0.722494
O O5 0.249280 0.750000 0.009768
O O6 0.342536 0.493263 0.097130
O O7 0.108903 0.527748 0.954788
O O8 0.245955 0.519702 0.932107
O O9 0.397380 0.250000 0.474280
O O10 0.278133 0.030984 0.361345
O O11 0.500000 0.000000 0.500000
O O12 0.628783 0.250000 0.161068
O O13 0.565953 0.024809 0.194995
O O14 0.670178 0.982959 0.138209
O O15 0.455188 0.076149 0.030998
O O16 0.728798 0.750000 0.722645
O O17 0.869503 0.524300 0.823011
O O18 0.465108 0.250000 0.191235
O O19 0.008354 0.250000 0.067937
O O20 0.000000 0.000000 0.000000
O O21 0.721192 0.750000 0.096381
#
# Coordination Sequence:
#
# PCOD9156260 Si02
#       8
#     4   4   4   4   4   4   4   4
#     4  10  18  27  41  63  85 105 132 167 208 248
#     4  10  19  30  42  58  81 109 141 175 205 234
#     4   8  15  27  43  60  78 101 131 167 205 245
#     4   8  15  26  39  56  78 104 134 165 196 234
#     4   9  17  31  46  58  77 108 142 173 204 240
#     4  10  19  29  41  59  83 112 140 164 198 244
#     4  10  21  32  43  59  80 109 143 175 205 235
#     4   9  16  26  41  59  78 104 136 166 200 241
#
# _framework density 14.886289
#
# number of rings (size 3 to 8) (size 9 to 14) (size 15 to 20)
#    0.000    2.750    0.000    3.000    0.000    7.500 
#    0.000    0.000    0.000    0.000    0.000    0.000 
#    0.000    1.000    0.000    2.000    0.000    2.875 
#
# Total GULP energy -178140.821618 kJ/mol
# GULP energy per Si atom -5566.900676 kJ/mol
# Density = 1.485241 g / cm^3
# Si number density = 14.886289 Si / 1000 Ang^3
#
#
#
# Elastic Constant Matrix: (Units=GPa)
#
#
# Indices 1 2 3 4 5 6 
#
# 1 106.5980 36.1774 55.8986 0.0000 -28.0207 0.0000
# 2 36.1774 36.0189 26.4073 0.0000 -10.1808 0.0000
# 3 55.8986 26.4073 99.7388 0.0000 -23.8588 0.0000
# 4 0.0000 0.0000 0.0000 14.2203 0.0000 -4.8520
# 5 -28.0207 -10.1808 -23.8588 0.0000 23.9766 0.0000
# 6 0.0000 0.0000 0.0000 -4.8520 0.0000 23.7309
#
#
#
# Elastic Compliance Matrix: (Units=1/GPa)
#
#
# Indices 1 2 3 4 5 6 
#
# 1 0.019350 -0.012538 -0.004448 0.000000 0.012864 0.000000
# 2 -0.012538 0.043573 -0.004710 0.000000 -0.000838 0.000000
# 3 -0.004448 -0.004710 0.015807 0.000000 0.008531 0.000000
# 4 0.000000 0.000000 0.000000 0.075596 0.000000 0.015456
# 5 0.012864 -0.000838 0.008531 0.000000 0.064874 0.000000
# 6 0.000000 0.000000 0.000000 0.015456 0.000000 0.045299
#
#
# Mechanical properties :
#
#
# Convention : Reuss Voigt Hill
#
# Bulk Modulus (GPa) = 28.29858 53.25804 40.77831
# Shear Modulus (GPa) = 15.64108 20.64370 18.14239
#
# Velocity S-wave (km/s) = 3.24497 3.72796 3.49482
# Velocity P-wave (km/s) = 5.75247 7.37459 6.61345
#
# Compressibility (1/GPa) = 0.03533747
#
# Stress axis : x y z
#
# Youngs Moduli (GPa) = 51.67896 22.95003 63.26394
#
# Poissons Ratio (x) = 0.28776 0.28139
# Poissons Ratio (y) = 0.64797 0.29797
# Poissons Ratio (z) = 0.22986 0.10809
#
# Static dielectric constant tensor:
#      x y z
#    x 1.488670 0.000000 -0.026470 
#    y 0.000000 1.502240 0.000000 
#    z -0.026470 0.000000 1.500750 
# 
# From -- ./inp_files/65243.got.cif
#   From: 2010.05.17/outbox.cif.g08.bks.cpg/sg11_33_cif.got.tgz:65243.got - 2010.06.03 12:22:45.
