data_PCOD9156758
_publ_section_title
;
Structure prediction by ZEFSAII (Michael W. Deem and Ramdas Pophale) SiO2 
 PCOD9156758
Probable space group: P 21/M
;
_chemical_formula_sum "Si O2"
_cell_formula_units_Z 24
_cell_length_a 15.502667
_cell_length_b 9.184407
_cell_length_c 17.001503
_cell_angle_alpha 90.000000
_cell_angle_beta 143.432077
_cell_angle_gamma 90.000000
_cell_volume 1442.206232
_symmetry_space_group_name_H-M "P 21/M"
_symmetry_group_IT_number 11
_symmetry_cell_setting 'monoclinic'
loop_
_space_group_symop_operation_xyz
x,y,z
-x,1/2+y,-z
-x,-y,-z
x,1/2-y,z
loop_
_atom_site_type_symbol
_atom_site_label
_atom_site_fract_x
_atom_site_fract_y
_atom_site_fract_z
Si Si1 0.592217 0.924041 0.134597
Si Si2 0.140515 0.077422 0.405852
Si Si3 0.066178 0.075676 0.625627
Si Si4 0.276750 0.582064 0.362879
Si Si5 0.409332 0.082560 0.319906
Si Si6 0.451150 0.077230 0.718433
O O1 0.572451 0.750000 0.116011
O O2 0.762564 0.952990 0.248087
O O3 0.547170 0.970141 0.189781
O O4 0.500000 0.000000 0.000000
O O5 0.112428 0.250000 0.380680
O O6 0.288014 0.057760 0.565168
O O7 0.174042 0.009457 0.345289
O O8 0.014319 0.993177 0.358610
O O9 0.043654 0.250000 0.605635
O O10 0.000000 0.000000 0.500000
O O11 0.231368 0.750000 0.322922
O O12 0.434654 0.581299 0.521148
O O13 0.302123 0.507445 0.297327
O O14 0.364158 0.250000 0.279366
O O15 0.441054 0.008691 0.259604
O O16 0.481450 0.250000 0.735933
#
# Coordination Sequence:
#
# PCOD9156758 Si02
#       6
#     4   4   4   4   4   4
#     4  10  22  38  53  74 103 136 174 216 258 303
#     4  10  18  30  48  72 101 132 167 210 255 301
#     4  11  21  35  53  76 103 134 173 214 258 308
#     4   9  16  26  40  64  97 132 164 201 251 301
#     4   9  16  25  40  65  94 128 167 204 247 300
#     4   9  17  31  47  67  98 132 166 208 254 300
#
# _framework density 16.641171
#
# number of rings (size 3 to 8) (size 9 to 14) (size 15 to 20)
#    0.000    2.333    1.667    2.000    0.000    6.667 
#    0.000    0.000    0.000    0.000    0.000    1.167 
#    0.000    0.000    0.000    0.000    0.000    0.000 
#
# Total GULP energy -133852.381007 kJ/mol
# GULP energy per Si atom -5577.182542 kJ/mol
# Density = 1.660329 g / cm^3
# Si number density = 16.641171 Si / 1000 Ang^3
#
#
#
# Elastic Constant Matrix: (Units=GPa)
#
#
# Indices 1 2 3 4 5 6 
#
# 1 175.0970 90.3581 57.6312 0.0000 -31.0944 0.0000
# 2 90.3581 108.0699 51.6206 0.0000 -12.9409 0.0000
# 3 57.6312 51.6206 60.3546 0.0000 -12.6002 0.0000
# 4 0.0000 0.0000 0.0000 20.4860 0.0000 -4.6533
# 5 -31.0944 -12.9409 -12.6002 0.0000 17.4100 0.0000
# 6 0.0000 0.0000 0.0000 -4.6533 0.0000 36.0251
#
#
#
# Elastic Compliance Matrix: (Units=1/GPa)
#
#
# Indices 1 2 3 4 5 6 
#
# 1 0.013804 -0.008307 -0.002613 0.000000 0.016588 0.000000
# 2 -0.008307 0.020722 -0.011394 0.000000 -0.007680 0.000000
# 3 -0.002613 -0.011394 0.030706 0.000000 0.009087 0.000000
# 4 0.000000 0.000000 0.000000 0.050289 0.000000 0.006496
# 5 0.016588 -0.007680 0.009087 0.000000 0.087932 0.000000
# 6 0.000000 0.000000 0.000000 0.006496 0.000000 0.028597
#
#
# Mechanical properties :
#
#
# Convention : Reuss Voigt Hill
#
# Bulk Modulus (GPa) = 48.53595 82.52683 65.53139
# Shear Modulus (GPa) = 17.63379 24.37833 21.00606
#
# Velocity S-wave (km/s) = 3.25876 3.83161 3.55673
# Velocity P-wave (km/s) = 6.58702 8.32313 7.50544
#
# Compressibility (1/GPa) = 0.02060328
#
# Stress axis : x y z
#
# Youngs Moduli (GPa) = 72.44495 48.25869 32.56659
#
# Poissons Ratio (x) = 0.40088 0.08509
# Poissons Ratio (y) = 0.60179 0.37107
# Poissons Ratio (z) = 0.18929 0.54988
#
# Static dielectric constant tensor:
#      x y z
#    x 1.558090 0.000000 -0.007620 
#    y 0.000000 1.556550 0.000000 
#    z -0.007620 0.000000 1.530000 
# 
# From -- ./inp_files/20355.got.cif
#   From: 2010.05.17/outbox.cif.g08.bks.cpg/sg11_11_cif.got.tgz:20355.got - 2010.06.03 12:22:45.
