data_PCOD9156202
_publ_section_title
;
Structure prediction by ZEFSAII (Michael W. Deem and Ramdas Pophale) SiO2 
 PCOD9156202
Probable space group: P 21/M
;
_chemical_formula_sum "Si O2"
_cell_formula_units_Z 32
_cell_length_a 24.729115
_cell_length_b 7.620710
_cell_length_c 17.114461
_cell_angle_alpha 90.000000
_cell_angle_beta 150.512994
_cell_angle_gamma 90.000000
_cell_volume 1587.566506
_symmetry_space_group_name_H-M "P 21/M"
_symmetry_group_IT_number 11
_symmetry_cell_setting 'monoclinic'
loop_
_space_group_symop_operation_xyz
x,y,z
-x,1/2+y,-z
-x,-y,-z
x,1/2-y,z
loop_
_atom_site_type_symbol
_atom_site_label
_atom_site_fract_x
_atom_site_fract_y
_atom_site_fract_z
Si Si1 0.470980 0.053677 0.224094
Si Si2 0.236436 0.465195 0.976804
Si Si3 0.982043 0.540116 0.387411
Si Si4 0.110691 0.035661 0.971309
Si Si5 0.553133 0.949074 0.486501
Si Si6 0.892344 0.035621 0.601509
Si Si7 0.197019 0.451944 0.238068
Si Si8 0.704422 0.042562 0.472156
O O1 0.456140 0.250000 0.171929
O O2 0.580573 0.968170 0.324337
O O3 0.510018 0.066976 0.362840
O O4 0.350461 0.971622 0.082371
O O5 0.241968 0.250000 0.985390
O O6 0.134196 0.520234 0.794249
O O7 0.204584 0.517525 0.025989
O O8 0.979951 0.750000 0.377285
O O9 0.000000 0.500000 0.500000
O O10 0.076296 0.477105 0.446176
O O11 0.115589 0.250000 0.981324
O O12 0.120801 0.971234 0.073516
O O13 0.995183 0.988032 0.786342
O O14 0.523333 0.750000 0.428256
O O15 0.684021 0.957248 0.654268
O O16 0.500000 0.000000 0.500000
O O17 0.887941 0.250000 0.596564
O O18 0.779685 0.971127 0.497536
O O19 0.164723 0.250000 0.210807
O O20 0.224741 0.526405 0.358384
O O21 0.688822 0.250000 0.441010
#
# Coordination Sequence:
#
# PCOD9156202 Si02
#       8
#     4   4   4   4   4   4   4   4
#     4   9  16  27  43  61  82 110 145 180 210 248
#     4   8  14  26  45  66  85 110 143 175 210 255
#     4   9  17  31  52  73  90 108 134 170 212 259
#     4   8  13  23  40  59  80 110 148 182 210 247
#     4  10  18  26  37  55  81 113 150 189 225 257
#     4   8  15  28  45  64  85 111 141 172 210 255
#     4   9  17  27  39  57  82 114 150 184 215 246
#     4   9  17  28  42  61  85 114 147 179 209 244
#
# _framework density 20.156637
#
# number of rings (size 3 to 8) (size 9 to 14) (size 15 to 20)
#    0.000    3.250    0.000    2.625    0.000    3.000 
#    0.000    1.250    0.000    3.750    0.000    0.000 
#    0.000    0.000    0.000    0.000    0.000    0.000 
#
# Total GULP energy -178169.639932 kJ/mol
# GULP energy per Si atom -5567.801248 kJ/mol
# Density = 2.011076 g / cm^3
# Si number density = 20.156637 Si / 1000 Ang^3
#
#
#
# Elastic Constant Matrix: (Units=GPa)
#
#
# Indices 1 2 3 4 5 6 
#
# 1 143.3223 -1.0414 44.7389 0.0000 27.4741 0.0000
# 2 -1.0414 43.0051 -2.6958 0.0000 5.0827 0.0000
# 3 44.7389 -2.6958 45.8571 0.0000 8.6238 0.0000
# 4 0.0000 0.0000 0.0000 10.1639 0.0000 -9.1779
# 5 27.4741 5.0827 8.6238 0.0000 26.6395 0.0000
# 6 0.0000 0.0000 0.0000 -9.1779 0.0000 -11.5694
#
#
#
# Elastic Compliance Matrix: (Units=1/GPa)
#
#
# Indices 1 2 3 4 5 6 
#
# 1 0.011767 0.000755 -0.009718 0.000000 -0.009134 0.000000
# 2 0.000755 0.024088 0.001800 0.000000 -0.005957 0.000000
# 3 -0.009718 0.001800 0.031491 0.000000 -0.000515 0.000000
# 4 0.000000 0.000000 0.000000 0.057324 0.000000 -0.045475
# 5 -0.009134 -0.005957 -0.000515 0.000000 0.048262 0.000000
# 6 0.000000 0.000000 0.000000 -0.045475 0.000000 -0.050360
#
#
# Mechanical properties :
#
#
# Convention : Reuss Voigt Hill
#
# Bulk Modulus (GPa) = 18.86098 34.90976 26.88537
# Shear Modulus (GPa) = 32.34737 17.79232 25.06984
#
# Velocity S-wave (km/s) = 4.01034 2.97425 3.53051
# Velocity P-wave (km/s) = 5.55169 5.39924 5.47600
#
# Compressibility (1/GPa) = 0.05301951
#
# Stress axis : x y z
#
# Youngs Moduli (GPa) = 84.98111 41.51404 31.75536
#
# Poissons Ratio (x) = -0.03136 0.30861
# Poissons Ratio (y) = -0.06419 -0.05714
# Poissons Ratio (z) = 0.82587 -0.07471
#
# Static dielectric constant tensor:
#      x y z
#    x 1.745920 0.000000 0.043270 
#    y 0.000000 1.767070 0.000000 
#    z 0.043270 0.000000 1.723220 
# 
# From -- ./inp_files/43806.got.cif
#   From: 2010.05.17/outbox.cif.g08.bks.cpg/sg11_22_cif.got.tgz:43806.got - 2010.06.03 12:22:45.
