data_PCOD9156183
_publ_section_title
;
Structure prediction by ZEFSAII (Michael W. Deem and Ramdas Pophale) SiO2 
 PCOD9156183
Probable space group: P 21/M
;
_chemical_formula_sum "Si O2"
_cell_formula_units_Z 32
_cell_length_a 11.658822
_cell_length_b 14.088436
_cell_length_c 18.065306
_cell_angle_alpha 90.000000
_cell_angle_beta 29.671413
_cell_angle_gamma 90.000000
_cell_volume 1468.892786
_symmetry_space_group_name_H-M "P 21/M"
_symmetry_group_IT_number 11
_symmetry_cell_setting 'monoclinic'
loop_
_space_group_symop_operation_xyz
x,y,z
-x,1/2+y,-z
-x,-y,-z
x,1/2-y,z
loop_
_atom_site_type_symbol
_atom_site_label
_atom_site_fract_x
_atom_site_fract_y
_atom_site_fract_z
Si Si1 0.329870 0.099218 0.183909
Si Si2 0.089276 0.357047 0.629086
Si Si3 0.915209 0.949174 0.208192
Si Si4 0.324136 0.856425 0.885837
Si Si5 0.639015 0.950140 0.221288
Si Si6 0.869874 0.027928 0.497712
Si Si7 0.872390 0.645427 0.957681
Si Si8 0.452814 0.880725 0.090564
O O1 0.444669 0.140701 0.193103
O O2 0.430544 0.992900 0.118892
O O3 0.417522 0.143612 0.058631
O O4 0.055045 0.088760 0.347131
O O5 0.183844 0.250000 0.574446
O O6 0.123050 0.408284 0.689079
O O7 0.182527 0.430113 0.516091
O O8 0.812957 0.350572 0.767757
O O9 0.701131 0.940267 0.272148
O O10 0.121463 0.886809 0.056430
O O11 0.996965 0.059340 0.157620
O O12 0.291037 0.750000 0.875987
O O13 0.332475 0.941008 0.821948
O O14 0.818498 0.889965 0.071084
O O15 0.374859 0.922430 0.352638
O O16 0.000000 0.000000 0.500000
O O17 0.980718 0.750000 0.893880
O O18 0.619627 0.652286 0.061732
#
# Coordination Sequence:
#
# PCOD9156183 Si02
#       8
#     4   4   4   4   4   4   4   4
#     4  10  18  34  60  89 120 156 191 253 318 368
#     4  11  23  39  66  98 124 166 216 257 310 381
#     4  11  23  40  62  90 129 164 210 269 317 363
#     4  11  20  36  63  93 123 159 207 264 317 371
#     4  11  24  41  59  88 129 175 210 253 312 377
#     4  11  22  41  64  86 127 167 203 257 314 377
#     4  11  21  37  62  92 124 165 212 262 321 374
#     4  10  17  34  61  90 126 147 196 263 318 364
#
# _framework density 21.785115000000001
#
# number of rings (size 3 to 8) (size 9 to 14) (size 15 to 20)
#    0.000    1.250    5.000    4.500    0.000    4.000 
#    0.000    0.625    0.000    1.500    0.000    0.000 
#    0.000    0.000    0.000    0.000    0.000    0.000 
#
# Total GULP energy -178818.693822 kJ/mol
# GULP energy per Si atom -5588.084182 kJ/mol
# Density = 2.173553 g / cm^3
# Si number density = 21.785115 Si / 1000 Ang^3
#
#
#
# Elastic Constant Matrix: (Units=GPa)
#
#
# Indices 1 2 3 4 5 6 
#
# 1 115.6107 4.8983 -4.6654 0.0000 4.5743 0.0000
# 2 4.8983 98.4134 -13.2808 0.0000 2.4703 0.0000
# 3 -4.6654 -13.2808 51.2330 0.0000 -3.0995 0.0000
# 4 0.0000 0.0000 0.0000 -2.9765 0.0000 -6.5219
# 5 4.5743 2.4703 -3.0995 0.0000 31.0839 0.0000
# 6 0.0000 0.0000 0.0000 -6.5219 0.0000 -10.6412
#
#
#
# Elastic Compliance Matrix: (Units=1/GPa)
#
#
# Indices 1 2 3 4 5 6 
#
# 1 0.008736 -0.000318 0.000641 0.000000 -0.001196 0.000000
# 2 -0.000318 0.010551 0.002674 0.000000 -0.000525 0.000000
# 3 0.000641 0.002674 0.020375 0.000000 0.001725 0.000000
# 4 0.000000 0.000000 0.000000 0.979716 0.000000 -0.600459
# 5 -0.001196 -0.000525 0.001725 0.000000 0.032561 0.000000
# 6 0.000000 0.000000 0.000000 -0.600459 0.000000 0.274042
#
#
# Mechanical properties :
#
#
# Convention : Reuss Voigt Hill
#
# Bulk Modulus (GPa) = 21.90319 26.57349 24.23834
# Shear Modulus (GPa) = 3.74474 22.04690 12.89582
#
# Velocity S-wave (km/s) = 1.31251 3.18467 2.43565
# Velocity P-wave (km/s) = 3.51752 5.07418 4.36579
#
# Compressibility (1/GPa) = 0.04565546
#
# Stress axis : x y z
#
# Youngs Moduli (GPa) = 114.46366 94.77650 49.08069
#
# Poissons Ratio (x) = 0.03017 -0.03144
# Poissons Ratio (y) = 0.03644 -0.13126
# Poissons Ratio (z) = -0.07333 -0.25347
#
# Static dielectric constant tensor:
#      x y z
#    x 1.808270 0.000000 -0.005790 
#    y 0.000000 1.955280 0.000000 
#    z -0.005790 0.000000 1.785720 
# 
# From -- ./inp_files/59431.got.cif
#   From: 2010.05.17/outbox.cif.g08.bks.cpg/sg11_30_cif.got.tgz:59431.got - 2010.06.03 12:22:45.
