data_PCOD9156889
_publ_section_title
;
Structure prediction by ZEFSAII (Michael W. Deem and Ramdas Pophale) SiO2 
 PCOD9156889
Probable space group: P 21/M
;
_chemical_formula_sum "Si O2"
_cell_formula_units_Z 32
_cell_length_a 28.977195
_cell_length_b 7.694582
_cell_length_c 10.831998
_cell_angle_alpha 90.000000
_cell_angle_beta 29.293321
_cell_angle_gamma 90.000000
_cell_volume 1181.702386
_symmetry_space_group_name_H-M "P 21/M"
_symmetry_group_IT_number 11
_symmetry_cell_setting 'monoclinic'
loop_
_space_group_symop_operation_xyz
x,y,z
-x,1/2+y,-z
-x,-y,-z
x,1/2-y,z
loop_
_atom_site_type_symbol
_atom_site_label
_atom_site_fract_x
_atom_site_fract_y
_atom_site_fract_z
Si Si1 0.975078 0.954930 0.227999
Si Si2 0.800216 0.451601 0.499564
Si Si3 0.881415 0.953268 0.695064
Si Si4 0.300957 0.540356 0.004669
Si Si5 0.617392 0.948991 0.817201
Si Si6 0.856069 0.539984 0.017817
Si Si7 0.483258 0.949915 0.700797
Si Si8 0.357482 0.036372 0.509628
O O1 0.958188 0.750000 0.261103
O O2 0.929462 0.032943 0.461760
O O3 0.911782 0.028673 0.265014
O O4 0.084923 0.982883 0.001226
O O5 0.782024 0.250000 0.519625
O O6 0.732190 0.549633 0.563610
O O7 0.754317 0.504250 0.739135
O O8 0.904786 0.750000 0.640755
O O9 0.903207 0.024978 0.779495
O O10 0.768026 0.966354 0.938014
O O11 0.302615 0.750000 0.991048
O O12 0.407980 0.475570 0.778388
O O13 0.587378 0.750000 0.899618
O O14 0.596466 0.014627 0.728791
O O15 0.573965 0.048874 0.034450
O O16 0.855605 0.750000 0.017855
O O17 0.749481 0.477579 0.253378
O O18 0.497650 0.750000 0.633927
O O19 0.582246 0.029580 0.514445
O O20 0.358429 0.250000 0.511680
#
# Coordination Sequence:
#
# PCOD9156889 Si02
#       8
#     4   4   4   4   4   4   4   4
#     4  10  19  32  51  77 102 125 158 206 251 288
#     4   9  17  31  51  75 100 129 161 197 241 296
#     4   9  18  31  50  73  98 127 161 200 244 289
#     4   8  15  27  47  72  97 123 156 197 241 286
#     4  10  18  30  51  78 101 125 159 205 249 286
#     4  10  20  35  51  69  96 134 170 200 239 294
#     4   9  17  32  52  74  98 130 166 200 241 293
#     4   9  19  34  51  70  98 133 169 203 240 288
#
# _framework density 27.079578000000001
#
# number of rings (size 3 to 8) (size 9 to 14) (size 15 to 20)
#    0.000    2.750    0.000    2.625    0.000    4.000 
#    0.000    3.750    0.000    0.000    0.000    0.000 
#    0.000    0.000    0.000    0.000    0.000    0.000 
#
# Total GULP energy -178968.571283 kJ/mol
# GULP energy per Si atom -5592.767853 kJ/mol
# Density = 2.701794 g / cm^3
# Si number density = 27.079578 Si / 1000 Ang^3
#
#
#
# Elastic Constant Matrix: (Units=GPa)
#
#
# Indices 1 2 3 4 5 6 
#
# 1 210.5468 12.3745 28.1558 0.0000 -23.8257 0.0000
# 2 12.3745 76.1791 5.2322 0.0000 -0.9141 0.0000
# 3 28.1558 5.2322 99.1583 0.0000 -30.6791 0.0000
# 4 0.0000 0.0000 0.0000 24.6483 0.0000 -12.6036
# 5 -23.8257 -0.9141 -30.6791 0.0000 57.9171 0.0000
# 6 0.0000 0.0000 0.0000 -12.6036 0.0000 22.0925
#
#
#
# Elastic Compliance Matrix: (Units=1/GPa)
#
#
# Indices 1 2 3 4 5 6 
#
# 1 0.005097 -0.000746 -0.000912 0.000000 0.001602 0.000000
# 2 -0.000746 0.013286 -0.000621 0.000000 -0.000426 0.000000
# 3 -0.000912 -0.000621 0.012268 0.000000 0.006113 0.000000
# 4 0.000000 0.000000 0.000000 0.057280 0.000000 0.032678
# 5 0.001602 -0.000426 0.006113 0.000000 0.021157 0.000000
# 6 0.000000 0.000000 0.000000 0.032678 0.000000 0.063907
#
#
# Mechanical properties :
#
#
# Convention : Reuss Voigt Hill
#
# Bulk Modulus (GPa) = 38.32626 53.04545 45.68585
# Shear Modulus (GPa) = 26.84565 43.60636 35.22600
#
# Velocity S-wave (km/s) = 3.15200 4.01721 3.61062
# Velocity P-wave (km/s) = 5.23744 6.41472 5.85574
#
# Compressibility (1/GPa) = 0.02609177
#
# Stress axis : x y z
#
# Youngs Moduli (GPa) = 196.20850 75.26899 81.51178
#
# Poissons Ratio (x) = 0.05615 0.07436
# Poissons Ratio (y) = 0.14637 0.05062
# Poissons Ratio (z) = 0.17900 0.04675
#
# Static dielectric constant tensor:
#      x y z
#    x 2.113940 0.000000 -0.013490 
#    y 0.000000 1.886950 0.000000 
#    z -0.013490 0.000000 2.310170 
# 
# From -- ./inp_files/45211.got.cif
#   From: 2010.05.17/outbox.cif.g08.bks.cpg/sg11_23_cif.got.tgz:45211.got - 2010.06.03 12:22:45.
