data_PCOD9156126
_publ_section_title
;
Structure prediction by ZEFSAII (Michael W. Deem and Ramdas Pophale) SiO2 
 PCOD9156126
Probable space group: P 21/M
;
_chemical_formula_sum "Si O2"
_cell_formula_units_Z 32
_cell_length_a 8.759597
_cell_length_b 19.115070
_cell_length_c 12.970336
_cell_angle_alpha 90.000000
_cell_angle_beta 119.590299
_cell_angle_gamma 90.000000
_cell_volume 1888.513368
_symmetry_space_group_name_H-M "P 21/M"
_symmetry_group_IT_number 11
_symmetry_cell_setting 'monoclinic'
loop_
_space_group_symop_operation_xyz
x,y,z
-x,1/2+y,-z
-x,-y,-z
x,1/2-y,z
loop_
_atom_site_type_symbol
_atom_site_label
_atom_site_fract_x
_atom_site_fract_y
_atom_site_fract_z
Si Si1 0.580225 0.540202 0.430224
Si Si2 0.075188 0.330701 0.901733
Si Si3 0.787403 0.447798 0.773196
Si Si4 0.001552 0.331377 0.111073
Si Si5 0.306300 0.427145 0.861824
Si Si6 0.842829 0.488227 0.367569
Si Si7 0.887812 0.917823 0.668232
Si Si8 0.717594 0.049800 0.980156
O O1 0.500000 0.500000 0.500000
O O2 0.411183 0.574745 0.321353
O O3 0.669257 0.485384 0.380010
O O4 0.736623 0.587012 0.530459
O O5 0.032519 0.250000 0.868347
O O6 0.241866 0.356224 0.892506
O O7 0.918993 0.382735 0.815958
O O8 0.098284 0.339215 0.032874
O O9 0.849923 0.509442 0.717653
O O10 0.779916 0.475058 0.888188
O O11 0.952935 0.250000 0.105114
O O12 0.110580 0.357801 0.245885
O O13 0.835667 0.383623 0.048865
O O14 0.200398 0.447708 0.723578
O O15 0.512862 0.429974 0.908738
O O16 0.264432 0.488115 0.931118
O O17 0.000000 0.500000 0.500000
O O18 0.921659 0.426681 0.322772
#
# Coordination Sequence:
#
# PCOD9156126 Si02
#       8
#     4   4   4   4   4   4   4   4
#     4   9  19  31  51  81 103 132 163 217 263 303
#     4  10  21  34  51  73 104 142 169 204 255 304
#     4  10  17  32  52  76 105 128 171 211 257 306
#     4  10  20  35  51  73 105 140 172 205 250 304
#     4  11  19  33  52  79 103 131 170 218 254 308
#     4  10  18  31  52  80 104 128 169 215 261 299
#     4  10  18  32  54  77 101 137 171 213 255 301
#     4  10  20  30  52  79 102 129 168 214 261 303
#
# _framework density 16.944544
#
# number of rings (size 3 to 8) (size 9 to 14) (size 15 to 20)
#    0.000    2.000    3.750    0.750    0.000    2.500 
#    0.000    0.625    0.000    3.000    0.000    0.000 
#    0.000    0.000    0.000    0.000    0.000    0.000 
#
# Total GULP energy -178190.885533 kJ/mol
# GULP energy per Si atom -5568.465173 kJ/mol
# Density = 1.690598 g / cm^3
# Si number density = 16.944544 Si / 1000 Ang^3
#
#
#
# Elastic Constant Matrix: (Units=GPa)
#
#
# Indices 1 2 3 4 5 6 
#
# 1 75.0095 10.6369 14.2400 0.0000 -10.5084 0.0000
# 2 10.6369 53.1364 15.2919 0.0000 -6.6548 0.0000
# 3 14.2400 15.2919 80.8626 0.0000 -2.1461 0.0000
# 4 0.0000 0.0000 0.0000 16.8079 0.0000 -5.7704
# 5 -10.5084 -6.6548 -2.1461 0.0000 28.6994 0.0000
# 6 0.0000 0.0000 0.0000 -5.7704 0.0000 15.8495
#
#
#
# Elastic Compliance Matrix: (Units=1/GPa)
#
#
# Indices 1 2 3 4 5 6 
#
# 1 0.014653 -0.001719 -0.002128 0.000000 0.004808 0.000000
# 2 -0.001719 0.020659 -0.003501 0.000000 0.003899 0.000000
# 3 -0.002128 -0.003501 0.013388 0.000000 -0.000590 0.000000
# 4 0.000000 0.000000 0.000000 0.067994 0.000000 0.024755
# 5 0.004808 0.003899 -0.000590 0.000000 0.037464 0.000000
# 6 0.000000 0.000000 0.000000 0.024755 0.000000 0.072106
#
#
# Mechanical properties :
#
#
# Convention : Reuss Voigt Hill
#
# Bulk Modulus (GPa) = 29.40709 32.14958 30.77834
# Shear Modulus (GPa) = 19.81811 23.52734 21.67273
#
# Velocity S-wave (km/s) = 3.42363 3.73029 3.58024
# Velocity P-wave (km/s) = 5.74638 6.12927 5.94091
#
# Compressibility (1/GPa) = 0.03400540
#
# Stress axis : x y z
#
# Youngs Moduli (GPa) = 68.24625 48.40419 74.69528
#
# Poissons Ratio (x) = 0.08320 0.15893
# Poissons Ratio (y) = 0.11730 0.26149
# Poissons Ratio (z) = 0.14521 0.16945
#
# Static dielectric constant tensor:
#      x y z
#    x 1.618720 0.000000 -0.003530 
#    y 0.000000 1.532020 0.000000 
#    z -0.003530 0.000000 1.619990 
# 
# From -- ./inp_files/32670.got.cif
#   From: 2010.05.17/outbox.cif.g08.bks.cpg/sg11_17_cif.got.tgz:32670.got - 2010.06.03 12:22:45.
