data_PCOD9156723
_publ_section_title
;
Structure prediction by ZEFSAII (Michael W. Deem and Ramdas Pophale) SiO2 
 PCOD9156723
Probable space group: P 21/M
;
_chemical_formula_sum "Si O2"
_cell_formula_units_Z 32
_cell_length_a 22.745212
_cell_length_b 8.840663
_cell_length_c 16.719691
_cell_angle_alpha 90.000000
_cell_angle_beta 141.669777
_cell_angle_gamma 90.000000
_cell_volume 2085.114304
_symmetry_space_group_name_H-M "P 21/M"
_symmetry_group_IT_number 11
_symmetry_cell_setting 'monoclinic'
loop_
_space_group_symop_operation_xyz
x,y,z
-x,1/2+y,-z
-x,-y,-z
x,1/2-y,z
loop_
_atom_site_type_symbol
_atom_site_label
_atom_site_fract_x
_atom_site_fract_y
_atom_site_fract_z
Si Si1 0.785412 0.431283 0.309067
Si Si2 0.694536 0.429992 0.920004
Si Si3 0.029420 0.431602 0.444951
Si Si4 0.572674 0.069815 0.140963
Si Si5 0.638422 0.924089 0.699230
Si Si6 0.520812 0.930259 0.255607
Si Si7 0.582671 0.424154 0.481619
Si Si8 0.842470 0.930863 0.198636
O O1 0.800100 0.250000 0.319578
O O2 0.864663 0.504766 0.451362
O O3 0.679959 0.461598 0.227388
O O4 0.800370 0.502368 0.236903
O O5 0.709323 0.250000 0.942021
O O6 0.690872 0.481548 0.823853
O O7 0.590230 0.464664 0.845314
O O8 0.773125 0.518063 0.054102
O O9 0.028254 0.250000 0.445411
O O10 0.000000 0.500000 0.500000
O O11 0.947097 0.496587 0.300654
O O12 0.560125 0.250000 0.129435
O O13 0.552210 0.002940 0.206243
O O14 0.500000 0.000000 0.000000
O O15 0.669430 0.750000 0.732540
O O16 0.527157 0.926139 0.605946
O O17 0.641484 0.994600 0.614209
O O18 0.529853 0.750000 0.261625
O O19 0.580276 0.993377 0.393997
O O20 0.611254 0.250000 0.503712
O O21 0.849279 0.750000 0.212068
#
# Coordination Sequence:
#
# PCOD9156723 Si02
#       8
#     4   4   4   4   4   4   4   4
#     4  10  20  34  48  64  87 116 150 188 226 264
#     4  10  19  30  43  63  91 121 151 184 223 266
#     4  10  18  30  48  67  86 111 143 181 223 268
#     4  11  23  35  48  65  89 120 154 191 227 263
#     4   9  16  26  41  62  86 114 147 181 220 265
#     4  10  20  32  46  63  87 119 155 192 225 261
#     4   9  16  27  43  61  84 114 148 184 221 263
#     4  11  20  30  46  67  90 117 147 182 224 270
#
# _framework density 15.346881
#
# number of rings (size 3 to 8) (size 9 to 14) (size 15 to 20)
#    0.000    2.000    0.000    6.750    0.000    9.500 
#    0.000    0.000    0.000    0.000    0.000    0.000 
#    0.000    1.000    0.000    3.750    0.000    5.750 
#
# Total GULP energy -178496.398607 kJ/mol
# GULP energy per Si atom -5578.012456 kJ/mol
# Density = 1.531195 g / cm^3
# Si number density = 15.346881 Si / 1000 Ang^3
#
#
#
# Elastic Constant Matrix: (Units=GPa)
#
#
# Indices 1 2 3 4 5 6 
#
# 1 64.4523 46.2044 59.5171 0.0000 -8.8421 0.0000
# 2 46.2044 111.4355 67.6847 0.0000 5.1226 0.0000
# 3 59.5171 67.6847 116.9361 0.0000 -9.0837 0.0000
# 4 0.0000 0.0000 0.0000 31.1542 0.0000 -4.2907
# 5 -8.8421 5.1226 -9.0837 0.0000 22.2576 0.0000
# 6 0.0000 0.0000 0.0000 -4.2907 0.0000 21.3000
#
#
#
# Elastic Compliance Matrix: (Units=1/GPa)
#
#
# Indices 1 2 3 4 5 6 
#
# 1 0.032778 -0.006719 -0.012044 0.000000 0.009652 0.000000
# 2 -0.006719 0.016245 -0.006693 0.000000 -0.009140 0.000000
# 3 -0.012044 -0.006693 0.018903 0.000000 0.004470 0.000000
# 4 0.000000 0.000000 0.000000 0.033014 0.000000 0.006650
# 5 0.009652 -0.009140 0.004470 0.000000 0.052691 0.000000
# 6 0.000000 0.000000 0.000000 0.006650 0.000000 0.048288
#
#
# Mechanical properties :
#
#
# Convention : Reuss Voigt Hill
#
# Bulk Modulus (GPa) = 58.77587 71.07069 64.92328
# Shear Modulus (GPa) = 19.34202 22.90353 21.12278
#
# Velocity S-wave (km/s) = 3.55395 3.86734 3.71395
# Velocity P-wave (km/s) = 7.43116 8.14566 7.79660
#
# Compressibility (1/GPa) = 0.01701378
#
# Stress axis : x y z
#
# Youngs Moduli (GPa) = 30.50799 61.55660 52.90074
#
# Poissons Ratio (x) = 0.41359 0.63715
# Poissons Ratio (y) = 0.20498 0.35408
# Poissons Ratio (z) = 0.36745 0.41201
#
# Static dielectric constant tensor:
#      x y z
#    x 1.492580 0.000000 0.009290 
#    y 0.000000 1.513210 0.000000 
#    z 0.009290 0.000000 1.524780 
# 
# From -- ./inp_files/54302.got.cif
#   From: 2010.05.17/outbox.cif.g08.bks.cpg/sg11_28_cif.got.tgz:54302.got - 2010.06.03 12:22:45.
