data_PCOD9156832
_publ_section_title
;
Structure prediction by ZEFSAII (Michael W. Deem and Ramdas Pophale) SiO2 
 PCOD9156832
Probable space group: P 21/M
;
_chemical_formula_sum "Si O2"
_cell_formula_units_Z 32
_cell_length_a 15.385413
_cell_length_b 9.030714
_cell_length_c 15.290138
_cell_angle_alpha 90.000000
_cell_angle_beta 79.261261
_cell_angle_gamma 90.000000
_cell_volume 2087.226029
_symmetry_space_group_name_H-M "P 21/M"
_symmetry_group_IT_number 11
_symmetry_cell_setting 'monoclinic'
loop_
_space_group_symop_operation_xyz
x,y,z
-x,1/2+y,-z
-x,-y,-z
x,1/2-y,z
loop_
_atom_site_type_symbol
_atom_site_label
_atom_site_fract_x
_atom_site_fract_y
_atom_site_fract_z
Si Si1 0.941949 0.426086 0.383152
Si Si2 0.247639 0.426561 0.260826
Si Si3 0.385645 0.926503 0.938972
Si Si4 0.585558 0.927588 0.878521
Si Si5 0.207908 0.427768 0.923978
Si Si6 0.072367 0.072668 0.795643
Si Si7 0.885439 0.572829 0.875614
Si Si8 0.122815 0.925683 0.413924
O O1 0.949951 0.250000 0.368647
O O2 0.907229 0.502589 0.302366
O O3 0.884069 0.453618 0.480948
O O4 0.038813 0.492169 0.386332
O O5 0.244462 0.250000 0.277845
O O6 0.345799 0.467332 0.210362
O O7 0.182376 0.457017 0.190894
O O8 0.209528 0.513027 0.350567
O O9 0.376494 0.750000 0.944933
O O10 0.482579 0.961113 0.881243
O O11 0.303251 0.996482 0.904408
O O12 0.387292 0.992816 0.036697
O O13 0.593911 0.750000 0.891147
O O14 0.219229 0.250000 0.923277
O O15 0.145191 0.466875 0.854672
O O16 0.159338 0.469016 0.024014
O O17 0.067980 0.250000 0.789825
O O18 0.977063 0.010504 0.842789
O O19 0.901741 0.750000 0.873774
O O20 0.113671 0.750000 0.401622
#
# Coordination Sequence:
#
# PCOD9156832 Si02
#       8
#     4   4   4   4   4   4   4   4
#     4  10  20  34  49  67  94 127 156 194 244 283
#     4  10  18  30  50  71  96 131 158 187 237 287
#     4  10  19  30  49  73  93 123 164 201 234 275
#     4   9  18  33  49  68  98 128 156 193 241 288
#     4  10  21  36  49  65  96 133 164 197 240 279
#     4  11  22  33  49  70  93 127 167 204 234 272
#     4  10  19  32  48  66  95 134 165 192 231 277
#     4  10  20  32  49  71  95 121 157 199 236 282
#
# _framework density 15.331353999999999
#
# number of rings (size 3 to 8) (size 9 to 14) (size 15 to 20)
#    0.000    2.000    2.500    1.875    0.000    4.000 
#    0.000    0.000    0.000    0.000    0.000    0.875 
#    0.000    0.000    0.000    0.000    0.000    0.000 
#
# Total GULP energy -178563.874071 kJ/mol
# GULP energy per Si atom -5580.121065 kJ/mol
# Density = 1.529646 g / cm^3
# Si number density = 15.331354 Si / 1000 Ang^3
#
#
#
# Elastic Constant Matrix: (Units=GPa)
#
#
# Indices 1 2 3 4 5 6 
#
# 1 99.2394 45.7965 61.2555 0.0000 -14.4615 0.0000
# 2 45.7965 40.0118 44.9789 0.0000 -5.7581 0.0000
# 3 61.2555 44.9789 101.9840 0.0000 -14.5194 0.0000
# 4 0.0000 0.0000 0.0000 24.6559 0.0000 -1.5805
# 5 -14.4615 -5.7581 -14.5194 0.0000 25.0274 0.0000
# 6 0.0000 0.0000 0.0000 -1.5805 0.0000 25.3548
#
#
#
# Elastic Compliance Matrix: (Units=1/GPa)
#
#
# Indices 1 2 3 4 5 6 
#
# 1 0.023142 -0.021748 -0.003398 0.000000 0.006397 0.000000
# 2 -0.021748 0.070050 -0.018887 0.000000 -0.007407 0.000000
# 3 -0.003398 -0.018887 0.021013 0.000000 0.005882 0.000000
# 4 0.000000 0.000000 0.000000 0.040721 0.000000 0.002538
# 5 0.006397 -0.007407 0.005882 0.000000 0.045361 0.000000
# 6 0.000000 0.000000 0.000000 0.002538 0.000000 0.039599
#
#
# Mechanical properties :
#
#
# Convention : Reuss Voigt Hill
#
# Bulk Modulus (GPa) = 38.25370 60.58857 49.42114
# Shear Modulus (GPa) = 14.85157 20.95458 17.90307
#
# Velocity S-wave (km/s) = 3.11578 3.70101 3.42093
# Velocity P-wave (km/s) = 6.16032 7.60713 6.92163
#
# Compressibility (1/GPa) = 0.02614126
#
# Stress axis : x y z
#
# Youngs Moduli (GPa) = 43.21108 14.27549 47.58863
#
# Poissons Ratio (x) = 0.31046 0.16169
# Poissons Ratio (y) = 0.93975 0.89879
# Poissons Ratio (z) = 0.14681 0.26962
#
# Static dielectric constant tensor:
#      x y z
#    x 1.496970 0.000000 -0.015420 
#    y 0.000000 1.511520 0.000000 
#    z -0.015420 0.000000 1.506210 
# 
# From -- ./inp_files/51199.got.cif
#   From: 2010.05.17/outbox.cif.g08.bks.cpg/sg11_26_cif.got.tgz:51199.got - 2010.06.03 12:22:45.
