data_PCOD9156412
_publ_section_title
;
Structure prediction by ZEFSAII (Michael W. Deem and Ramdas Pophale) SiO2 
 PCOD9156412
Probable space group: P 21/M
;
_chemical_formula_sum "Si O2"
_cell_formula_units_Z 32
_cell_length_a 11.474147
_cell_length_b 15.146722
_cell_length_c 12.122271
_cell_angle_alpha 90.000000
_cell_angle_beta 35.643272
_cell_angle_gamma 90.000000
_cell_volume 1227.709352
_symmetry_space_group_name_H-M "P 21/M"
_symmetry_group_IT_number 11
_symmetry_cell_setting 'monoclinic'
loop_
_space_group_symop_operation_xyz
x,y,z
-x,1/2+y,-z
-x,-y,-z
x,1/2-y,z
loop_
_atom_site_type_symbol
_atom_site_label
_atom_site_fract_x
_atom_site_fract_y
_atom_site_fract_z
Si Si1 0.995186 0.589792 0.210343
Si Si2 0.268192 0.643331 0.692156
Si Si3 0.410237 0.850880 0.805965
Si Si4 0.178618 0.146842 0.865177
Si Si5 0.234292 0.091256 0.044980
Si Si6 0.954735 0.148938 0.600190
Si Si7 0.499641 0.353255 0.030651
Si Si8 0.144638 0.651425 0.559952
O O1 0.113332 0.498685 0.126306
O O2 0.923863 0.612093 0.388439
O O3 0.827894 0.594679 0.244389
O O4 0.175431 0.652493 0.026305
O O5 0.299806 0.750000 0.660886
O O6 0.403542 0.608376 0.688920
O O7 0.274462 0.610944 0.560765
O O8 0.042803 0.631687 0.912100
O O9 0.479257 0.750000 0.741431
O O10 0.521218 0.888215 0.828289
O O11 0.209422 0.250000 0.818310
O O12 0.314650 0.117777 0.863316
O O13 0.393133 0.090110 0.019727
O O14 0.069280 0.159459 0.215570
O O15 0.021799 0.250000 0.530154
O O16 0.919177 0.106670 0.506677
O O17 0.731518 0.148589 0.820912
O O18 0.434123 0.250000 0.076858
O O19 0.225177 0.750000 0.471193
#
# Coordination Sequence:
#
# PCOD9156412 Si02
#       8
#     4   4   4   4   4   4   4   4
#     4  10  18  28  45  69  95 121 154 192 234 275
#     4   7  11  22  42  64  81 103 144 193 224 247
#     4   8  14  26  44  64  87 119 159 195 224 265
#     4   9  16  29  47  67  92 121 155 193 228 269
#     4  11  20  28  45  74 102 119 141 190 250 287
#     4   9  18  32  49  66  88 126 170 196 215 264
#     4   9  17  30  47  68  92 119 152 190 231 276
#     4   9  17  30  47  66  90 123 160 194 228 271
#
# _framework density 26.064802
#
# number of rings (size 3 to 8) (size 9 to 14) (size 15 to 20)
#    0.000    3.000    0.000    4.875    0.000    2.500 
#    0.000    0.000    0.000    1.500    0.000   18.375 
#    0.000    0.000    0.000    0.000    0.000    0.000 
#
# Total GULP energy -178455.929848 kJ/mol
# GULP energy per Si atom -5576.747808 kJ/mol
# Density = 2.600548 g / cm^3
# Si number density = 26.064802 Si / 1000 Ang^3
#
#
#
# Elastic Constant Matrix: (Units=GPa)
#
#
# Indices 1 2 3 4 5 6 
#
# 1 204.6699 11.6146 55.3803 0.0000 96.3682 0.0000
# 2 11.6146 58.8744 -1.4719 0.0000 9.7587 0.0000
# 3 55.3803 -1.4719 103.7752 0.0000 24.4582 0.0000
# 4 0.0000 0.0000 0.0000 15.5758 0.0000 -11.9077
# 5 96.3682 9.7587 24.4582 0.0000 65.5982 0.0000
# 6 0.0000 0.0000 0.0000 -11.9077 0.0000 61.7520
#
#
#
# Elastic Compliance Matrix: (Units=1/GPa)
#
#
# Indices 1 2 3 4 5 6 
#
# 1 0.016934 0.000495 -0.003453 0.000000 -0.023663 0.000000
# 2 0.000495 0.017513 0.000844 0.000000 -0.003648 0.000000
# 3 -0.003453 0.000844 0.011320 0.000000 0.000726 0.000000
# 4 0.000000 0.000000 0.000000 0.075303 0.000000 0.014521
# 5 -0.023663 -0.003648 0.000726 0.000000 0.050279 0.000000
# 6 0.000000 0.000000 0.000000 0.014521 0.000000 0.018994
#
#
# Mechanical properties :
#
#
# Convention : Reuss Voigt Hill
#
# Bulk Modulus (GPa) = 24.07351 55.37394 39.72372
# Shear Modulus (GPa) = 23.99036 48.70497 36.34766
#
# Velocity S-wave (km/s) = 3.03712 4.32743 3.73837
# Velocity P-wave (km/s) = 4.64272 6.80145 5.82300
#
# Compressibility (1/GPa) = 0.04153944
#
# Stress axis : x y z
#
# Youngs Moduli (GPa) = 59.05323 57.09944 88.34250
#
# Poissons Ratio (x) = -0.02828 0.30502
# Poissons Ratio (y) = -0.02925 -0.07454
# Poissons Ratio (z) = 0.20390 -0.04818
#
# Static dielectric constant tensor:
#      x y z
#    x 2.231740 0.000000 -0.002660 
#    y 0.000000 2.336150 0.000000 
#    z -0.002660 0.000000 2.089880 
# 
# From -- ./inp_files/36014.got.cif
#   From: 2010.05.17/outbox.cif.g08.bks.cpg/sg11_19_cif.got.tgz:36014.got - 2010.06.03 12:22:45.
