data_PCOD9156538
_publ_section_title
;
Structure prediction by ZEFSAII (Michael W. Deem and Ramdas Pophale) SiO2 
 PCOD9156538
Probable space group: P 21/M
;
_chemical_formula_sum "Si O2"
_cell_formula_units_Z 32
_cell_length_a 20.708217
_cell_length_b 9.268969
_cell_length_c 25.732437
_cell_angle_alpha 90.000000
_cell_angle_beta 157.041944
_cell_angle_gamma 90.000000
_cell_volume 1926.563409
_symmetry_space_group_name_H-M "P 21/M"
_symmetry_group_IT_number 11
_symmetry_cell_setting 'monoclinic'
loop_
_space_group_symop_operation_xyz
x,y,z
-x,1/2+y,-z
-x,-y,-z
x,1/2-y,z
loop_
_atom_site_type_symbol
_atom_site_label
_atom_site_fract_x
_atom_site_fract_y
_atom_site_fract_z
Si Si1 0.240031 0.415819 0.813288
Si Si2 0.573773 0.415671 0.131873
Si Si3 0.264933 0.077690 0.410724
Si Si4 0.235354 0.422851 0.082922
Si Si5 0.115876 0.076767 0.187798
Si Si6 0.939125 0.077603 0.231748
Si Si7 0.664957 0.923330 0.958338
Si Si8 0.604965 0.923302 0.690007
O O1 0.188899 0.250000 0.770376
O O2 0.293475 0.484936 0.798294
O O3 0.108503 0.508136 0.748408
O O4 0.407507 0.418483 0.972797
O O5 0.631402 0.250000 0.176098
O O6 0.504383 0.460350 0.136776
O O7 0.292891 0.250000 0.430670
O O8 0.190002 0.037161 0.298999
O O9 0.124023 0.046665 0.349111
O O10 0.434734 0.997430 0.547875
O O11 0.209730 0.250000 0.066372
O O12 0.328420 0.454412 0.097745
O O13 0.337432 0.465581 0.209522
O O14 0.057983 0.499535 0.950268
O O15 0.091228 0.250000 0.168975
O O16 0.249120 0.039493 0.242298
O O17 0.914832 0.250000 0.214912
O O18 0.813278 0.007519 0.096682
O O19 0.689173 0.750000 0.983775
O O20 0.584496 0.750000 0.673349
#
# Coordination Sequence:
#
# PCOD9156538 Si02
#       8
#     4   4   4   4   4   4   4   4
#     4   9  16  25  39  63  94 126 158 195 239 289
#     4   8  14  24  38  60  91 126 157 191 236 286
#     4  10  21  35  51  73 100 131 170 209 248 295
#     4  10  20  34  52  77 102 130 167 206 250 300
#     4  10  20  36  54  75 100 129 167 209 252 300
#     4  10  18  29  46  68  95 127 163 203 243 289
#     4   9  17  29  46  68  96 127 162 200 241 291
#     4  10  22  36  52  74 102 132 166 207 252 301
#
# _framework density 16.609885999999999
#
# number of rings (size 3 to 8) (size 9 to 14) (size 15 to 20)
#    0.000    2.500    1.250    2.250    0.000    5.500 
#    0.000    0.000    0.000    0.000    0.000    0.875 
#    0.000    0.000    0.000    0.000    0.000    0.000 
#
# Total GULP energy -178405.085543 kJ/mol
# GULP energy per Si atom -5575.158923 kJ/mol
# Density = 1.657208 g / cm^3
# Si number density = 16.609886 Si / 1000 Ang^3
#
#
#
# Elastic Constant Matrix: (Units=GPa)
#
#
# Indices 1 2 3 4 5 6 
#
# 1 104.1360 36.1308 18.7541 0.0000 15.9033 0.0000
# 2 36.1308 30.7607 9.3585 0.0000 3.3269 0.0000
# 3 18.7541 9.3585 23.3875 0.0000 -11.7792 0.0000
# 4 0.0000 0.0000 0.0000 22.1817 0.0000 5.5827
# 5 15.9033 3.3269 -11.7792 0.0000 10.7970 0.0000
# 6 0.0000 0.0000 0.0000 5.5827 0.0000 21.6157
#
#
#
# Elastic Compliance Matrix: (Units=1/GPa)
#
#
# Indices 1 2 3 4 5 6 
#
# 1 -0.017911 -0.017319 0.082718 0.000000 0.121961 0.000000
# 2 -0.017319 0.056107 -0.009816 0.000000 -0.002487 0.000000
# 3 0.082718 -0.009816 -0.176428 0.000000 -0.311292 0.000000
# 4 0.000000 0.000000 0.000000 0.048216 0.000000 -0.012453
# 5 0.121961 -0.002487 -0.311292 0.000000 -0.425867 0.000000
# 6 0.000000 0.000000 0.000000 -0.012453 0.000000 0.049479
#
#
# Mechanical properties :
#
#
# Convention : Reuss Voigt Hill
#
# Bulk Modulus (GPa) = -36.94873 31.86345 -2.54264
# Shear Modulus (GPa) = -8.52381 17.18827 4.33223
#
# Velocity S-wave (km/s) = -2.26780 3.22035 1.61675
# Velocity P-wave (km/s) = 5.39912 5.74914 1.39680
#
# Compressibility (1/GPa) = -0.02706453
#
# Stress axis : x y z
#
# Youngs Moduli (GPa) = -55.83279 17.82310 -5.66803
#
# Poissons Ratio (x) = 0.30868 0.46885
# Poissons Ratio (y) = -0.96698 -0.05564
# Poissons Ratio (z) = 4.61840 0.17495
#
# Static dielectric constant tensor:
#      x y z
#    x 1.586430 0.000000 0.004710 
#    y 0.000000 1.534690 0.000000 
#    z 0.004710 0.000000 1.508810 
# 
# From -- ./inp_files/66447.got.cif
#   From: 2010.05.17/outbox.cif.g08.bks.cpg/sg11_34_cif.got.tgz:66447.got - 2010.06.03 12:22:45.
