data_PCOD9156495
_publ_section_title
;
Structure prediction by ZEFSAII (Michael W. Deem and Ramdas Pophale) SiO2 
 PCOD9156495
Probable space group: P 21/M
;
_chemical_formula_sum "Si O2"
_cell_formula_units_Z 28
_cell_length_a 13.740649
_cell_length_b 8.908486
_cell_length_c 22.421561
_cell_angle_alpha 90.000000
_cell_angle_beta 139.349456
_cell_angle_gamma 90.000000
_cell_volume 1787.944043
_symmetry_space_group_name_H-M "P 21/M"
_symmetry_group_IT_number 11
_symmetry_cell_setting 'monoclinic'
loop_
_space_group_symop_operation_xyz
x,y,z
-x,1/2+y,-z
-x,-y,-z
x,1/2-y,z
loop_
_atom_site_type_symbol
_atom_site_label
_atom_site_fract_x
_atom_site_fract_y
_atom_site_fract_z
Si Si1 0.450751 0.075046 0.707253
Si Si2 0.218796 0.929587 0.435798
Si Si3 0.236845 0.931191 0.105775
Si Si4 0.016934 0.430522 0.100804
Si Si5 0.143921 0.571116 0.536432
Si Si6 0.532478 0.425225 0.605395
Si Si7 0.844485 0.929628 0.712440
O O1 0.420423 0.250000 0.706724
O O2 0.590976 0.019841 0.811469
O O3 0.508509 0.067864 0.665639
O O4 0.297231 0.984896 0.638069
O O5 0.228084 0.750000 0.436563
O O6 0.156085 0.971286 0.471905
O O7 0.385072 0.999378 0.509422
O O8 0.126270 0.994993 0.337647
O O9 0.237571 0.750000 0.111780
O O10 0.144212 0.996908 0.118366
O O11 0.141272 0.971677 0.002732
O O12 0.032279 0.250000 0.103718
O O13 0.043608 0.471953 0.181821
O O14 0.135738 0.750000 0.535938
O O15 0.000000 0.500000 0.500000
O O16 0.543087 0.250000 0.592955
O O17 0.682046 0.511727 0.657706
O O18 0.842208 0.750000 0.705308
#
# Coordination Sequence:
#
# PCOD9156495 Si02
#       7
#     4   4   4   4   4   4   4
#     4   9  17  29  48  70  94 124 157 190 230 276
#     4  10  21  34  47  65  89 120 154 189 228 278
#     4   9  16  29  45  65  92 126 163 196 230 268
#     4   9  18  28  42  64  94 128 163 198 229 263
#     4  10  21  36  54  73  93 115 146 189 238 285
#     4  10  18  29  44  64  91 125 160 193 225 267
#     4  11  20  29  42  64  94 129 161 192 227 266
#
# _framework density 15.660446
#
# number of rings (size 3 to 8) (size 9 to 14) (size 15 to 20)
#    0.000    2.286    1.429    2.143    0.000    3.429 
#    0.000    0.000    0.000    0.000    0.000    1.000 
#    0.000    0.000    0.000    0.000    0.000    0.000 
#
# Total GULP energy -156143.287588 kJ/mol
# GULP energy per Si atom -5576.545985 kJ/mol
# Density = 1.562480 g / cm^3
# Si number density = 15.660446 Si / 1000 Ang^3
#
#
#
# Elastic Constant Matrix: (Units=GPa)
#
#
# Indices 1 2 3 4 5 6 
#
# 1 65.3170 24.9465 53.9830 0.0000 9.9943 0.0000
# 2 24.9465 37.1365 39.1207 0.0000 -0.3937 0.0000
# 3 53.9830 39.1207 148.4771 0.0000 -1.5585 0.0000
# 4 0.0000 0.0000 0.0000 21.2372 0.0000 -0.0495
# 5 9.9943 -0.3937 -1.5585 0.0000 18.3167 0.0000
# 6 0.0000 0.0000 0.0000 -0.0495 0.0000 22.7542
#
#
#
# Elastic Compliance Matrix: (Units=1/GPa)
#
#
# Indices 1 2 3 4 5 6 
#
# 1 0.028315 -0.011306 -0.007487 0.000000 -0.016330 0.000000
# 2 -0.011306 0.041788 -0.006831 0.000000 0.006486 0.000000
# 3 -0.007487 -0.006831 0.011309 0.000000 0.004901 0.000000
# 4 0.000000 0.000000 0.000000 0.047087 0.000000 0.000102
# 5 -0.016330 0.006486 0.004901 0.000000 0.064061 0.000000
# 6 0.000000 0.000000 0.000000 0.000102 0.000000 0.043948
#
#
# Mechanical properties :
#
#
# Convention : Reuss Voigt Hill
#
# Bulk Modulus (GPa) = 33.15496 54.11456 43.63476
# Shear Modulus (GPa) = 16.78915 21.32032 19.05473
#
# Velocity S-wave (km/s) = 3.27781 3.69373 3.49197
# Velocity P-wave (km/s) = 5.96175 7.26784 6.64695
#
# Compressibility (1/GPa) = 0.03016140
#
# Stress axis : x y z
#
# Youngs Moduli (GPa) = 35.31746 23.93034 88.42903
#
# Poissons Ratio (x) = 0.27057 0.66206
# Poissons Ratio (y) = 0.39932 0.60409
# Poissons Ratio (z) = 0.26442 0.16348
#
# Static dielectric constant tensor:
#      x y z
#    x 1.492820 0.000000 -0.020640 
#    y 0.000000 1.523380 0.000000 
#    z -0.020640 0.000000 1.562490 
# 
# From -- ./inp_files/51025.got.cif
#   From: 2010.05.17/outbox.cif.g08.bks.cpg/sg11_26_cif.got.tgz:51025.got - 2010.06.03 12:22:45.
