data_PCOD9156903
_publ_section_title
;
Structure prediction by ZEFSAII (Michael W. Deem and Ramdas Pophale) SiO2 
 PCOD9156903
Probable space group: P 21/M
;
_chemical_formula_sum "Si O2"
_cell_formula_units_Z 32
_cell_length_a 12.719367
_cell_length_b 13.700354
_cell_length_c 19.214303
_cell_angle_alpha 90.000000
_cell_angle_beta 150.239332
_cell_angle_gamma 90.000000
_cell_volume 1662.013609
_symmetry_space_group_name_H-M "P 21/M"
_symmetry_group_IT_number 11
_symmetry_cell_setting 'monoclinic'
loop_
_space_group_symop_operation_xyz
x,y,z
-x,1/2+y,-z
-x,-y,-z
x,1/2-y,z
loop_
_atom_site_type_symbol
_atom_site_label
_atom_site_fract_x
_atom_site_fract_y
_atom_site_fract_z
Si Si1 0.394527 0.865059 0.590674
Si Si2 0.792098 0.366528 0.843102
Si Si3 0.926241 0.483819 0.672034
Si Si4 0.712217 0.867298 0.893603
Si Si5 0.181995 0.633543 0.988115
Si Si6 0.731876 0.533737 0.701151
Si Si7 0.281566 0.865422 0.888956
Si Si8 0.699171 0.867010 0.043460
O O1 0.343839 0.750000 0.565270
O O2 0.191977 0.931829 0.459105
O O3 0.530757 0.897053 0.735929
O O4 0.557480 0.886943 0.621457
O O5 0.761249 0.250000 0.811760
O O6 0.701501 0.436279 0.730754
O O7 0.716756 0.390489 0.878578
O O8 0.046328 0.385954 0.990363
O O9 0.755950 0.512352 0.633437
O O10 0.077634 0.575757 0.744653
O O11 0.087964 0.408111 0.800807
O O12 0.696153 0.750000 0.886179
O O13 0.681889 0.903525 0.954416
O O14 0.139191 0.750000 0.967093
O O15 0.301453 0.616506 0.983626
O O16 0.959818 0.578465 0.852896
O O17 0.248538 0.750000 0.860740
O O18 0.493558 0.893375 0.970030
O O19 0.712563 0.750000 0.049664
#
# Coordination Sequence:
#
# PCOD9156903 Si02
#       8
#     4   4   4   4   4   4   4   4
#     4  11  23  37  53  79 113 145 178 217 274 330
#     4  10  18  30  51  81 111 140 180 226 265 312
#     4  11  22  36  54  82 111 143 182 226 268 319
#     4   9  18  33  55  81 108 141 177 220 269 320
#     4   9  17  30  50  79 110 136 173 223 270 316
#     4  11  20  32  52  78 108 148 178 215 265 330
#     4   9  20  36  56  79 106 145 185 225 270 319
#     4  10  19  36  60  83 108 139 183 230 269 311
#
# _framework density 19.253754000000001
#
# number of rings (size 3 to 8) (size 9 to 14) (size 15 to 20)
#    0.000    2.000    2.500    1.875    0.000    1.000 
#    0.000    1.250    0.000    0.000    0.000    6.125 
#    0.000    0.000    0.000    0.000    0.000    0.000 
#
# Total GULP energy -178613.932289 kJ/mol
# GULP energy per Si atom -5581.685384 kJ/mol
# Density = 1.920993 g / cm^3
# Si number density = 19.253754 Si / 1000 Ang^3
#
#
#
# Elastic Constant Matrix: (Units=GPa)
#
#
# Indices 1 2 3 4 5 6 
#
# 1 84.0299 18.1259 12.0781 0.0000 7.5599 0.0000
# 2 18.1259 76.0830 22.5565 0.0000 -8.8544 0.0000
# 3 12.0781 22.5565 56.7471 0.0000 -7.6546 0.0000
# 4 0.0000 0.0000 0.0000 26.2746 0.0000 -3.2126
# 5 7.5599 -8.8544 -7.6546 0.0000 15.6230 0.0000
# 6 0.0000 0.0000 0.0000 -3.2126 0.0000 21.9566
#
#
#
# Elastic Compliance Matrix: (Units=1/GPa)
#
#
# Indices 1 2 3 4 5 6 
#
# 1 0.014041 -0.003680 -0.002916 0.000000 -0.010309 0.000000
# 2 -0.003680 0.016396 -0.004540 0.000000 0.008849 0.000000
# 3 -0.002916 -0.004540 0.021298 0.000000 0.009273 0.000000
# 4 0.000000 0.000000 0.000000 0.038753 0.000000 0.005670
# 5 -0.010309 0.008849 0.009273 0.000000 0.078555 0.000000
# 6 0.000000 0.000000 0.000000 0.005670 0.000000 0.046374
#
#
# Mechanical properties :
#
#
# Convention : Reuss Voigt Hill
#
# Bulk Modulus (GPa) = 33.94227 35.82013 34.88120
# Shear Modulus (GPa) = 20.20103 23.71079 21.95591
#
# Velocity S-wave (km/s) = 3.24265 3.51307 3.38056
# Velocity P-wave (km/s) = 5.62911 5.92454 5.77871
#
# Compressibility (1/GPa) = 0.02946178
#
# Stress axis : x y z
#
# Youngs Moduli (GPa) = 71.21995 60.98951 46.95197
#
# Poissons Ratio (x) = 0.22446 0.13692
# Poissons Ratio (y) = 0.26211 0.21318
# Poissons Ratio (z) = 0.20769 0.27692
#
# Static dielectric constant tensor:
#      x y z
#    x 1.689890 0.000000 -0.030580 
#    y 0.000000 1.723710 0.000000 
#    z -0.030580 0.000000 1.653430 
# 
# From -- ./inp_files/27811.got.cif
#   From: 2010.05.17/outbox.cif.g08.bks.cpg/sg11_14_cif.got.tgz:27811.got - 2010.06.03 12:22:45.
