data_PCOD9156918
_publ_section_title
;
Structure prediction by ZEFSAII (Michael W. Deem and Ramdas Pophale) SiO2 
 PCOD9156918
Probable space group: P 21/M
;
_chemical_formula_sum "Si O2"
_cell_formula_units_Z 20
_cell_length_a 9.063958
_cell_length_b 11.312930
_cell_length_c 11.375897
_cell_angle_alpha 90.000000
_cell_angle_beta 142.221121
_cell_angle_gamma 90.000000
_cell_volume 714.606207
_symmetry_space_group_name_H-M "P 21/M"
_symmetry_group_IT_number 11
_symmetry_cell_setting 'monoclinic'
loop_
_space_group_symop_operation_xyz
x,y,z
-x,1/2+y,-z
-x,-y,-z
x,1/2-y,z
loop_
_atom_site_type_symbol
_atom_site_label
_atom_site_fract_x
_atom_site_fract_y
_atom_site_fract_z
Si Si1 0.048179 0.067067 0.888287
Si Si2 0.511109 0.379237 0.614755
Si Si3 0.789280 0.877805 0.256625
Si Si4 0.221180 0.881220 0.834785
Si Si5 0.495687 0.621635 0.666948
O O1 0.057414 0.129112 0.767805
O O2 0.797111 0.093480 0.791504
O O3 0.269266 0.112183 0.104207
O O4 0.098338 0.933541 0.875386
O O5 0.473188 0.250000 0.641635
O O6 0.385482 0.488255 0.601598
O O7 0.444422 0.375144 0.434913
O O8 0.832688 0.750000 0.344246
O O9 0.505840 0.875857 0.041778
O O10 0.817755 0.021532 0.292472
O O11 0.136376 0.750000 0.756284
O O12 0.384809 0.750000 0.626795
#
# Coordination Sequence:
#
# PCOD9156918 Si02
#       5
#     4   4   4   4   4
#     4  10  18  30  53  73  94 126 161 193 230 285
#     4  10  21  35  50  70  96 125 159 199 241 282
#     4   8  14  27  47  71  99 127 155 194 238 278
#     4   8  16  27  45  74 101 126 157 193 236 280
#     4  10  21  35  50  70  96 125 159 199 241 282
#
# _framework density 27.987442000000001
#
# number of rings (size 3 to 8) (size 9 to 14) (size 15 to 20)
#    1.200    1.600    0.000    2.400    0.000    1.600 
#    0.000    0.000    0.000    4.800    0.000    5.600 
#    0.000    0.000    0.000    0.000    0.000    0.000 
#
# Total GULP energy -111533.540301 kJ/mol
# GULP energy per Si atom -5576.677015 kJ/mol
# Density = 2.792374 g / cm^3
# Si number density = 27.987442 Si / 1000 Ang^3
#
#
#
# Elastic Constant Matrix: (Units=GPa)
#
#
# Indices 1 2 3 4 5 6 
#
# 1 120.7316 28.0099 23.8271 0.0000 5.8581 0.0000
# 2 28.0099 375.7222 34.6765 0.0000 -3.9302 0.0000
# 3 23.8271 34.6765 115.5665 0.0000 10.1066 0.0000
# 4 0.0000 0.0000 0.0000 -70.4807 0.0000 -1.4998
# 5 5.8581 -3.9302 10.1066 0.0000 34.5334 0.0000
# 6 0.0000 0.0000 0.0000 -1.4998 0.0000 4.8281
#
#
#
# Elastic Compliance Matrix: (Units=1/GPa)
#
#
# Indices 1 2 3 4 5 6 
#
# 1 0.008764 -0.000521 -0.001555 0.000000 -0.001091 0.000000
# 2 -0.000521 0.002779 -0.000782 0.000000 0.000634 0.000000
# 3 -0.001555 -0.000782 0.009434 0.000000 -0.002586 0.000000
# 4 0.000000 0.000000 0.000000 -0.014095 0.000000 -0.004379
# 5 -0.001091 0.000634 -0.002586 0.000000 0.029972 0.000000
# 6 0.000000 0.000000 0.000000 -0.004379 0.000000 0.205760
#
#
# Mechanical properties :
#
#
# Convention : Reuss Voigt Hill
#
# Bulk Modulus (GPa) = 65.52677 87.22749 76.37713
# Shear Modulus (GPa) = 19.73035 28.80995 24.27015
#
# Velocity S-wave (km/s) = 2.65801 3.21189 2.94799
# Velocity P-wave (km/s) = 5.73444 6.70741 6.23991
#
# Compressibility (1/GPa) = 0.01526094
#
# Stress axis : x y z
#
# Youngs Moduli (GPa) = 114.10853 359.81793 105.99486
#
# Poissons Ratio (x) = 0.18754 0.16483
# Poissons Ratio (y) = 0.05947 0.08287
# Poissons Ratio (z) = 0.17745 0.28132
#
# Static dielectric constant tensor:
#      x y z
#    x 2.092490 0.000000 -0.011250 
#    y 0.000000 2.350510 0.000000 
#    z -0.011250 0.000000 2.141700 
# 
# From -- ./inp_files/49964.got.cif
#   From: 2010.05.17/outbox.cif.g08.bks.cpg/sg11_25_cif.got.tgz:49964.got - 2010.06.03 12:22:45.
