data_PCOD9156098
_publ_section_title
;
Structure prediction by ZEFSAII (Michael W. Deem and Ramdas Pophale) SiO2 
 PCOD9156098
Probable space group: P 21/M
;
_chemical_formula_sum "Si O2"
_cell_formula_units_Z 28
_cell_length_a 8.654749
_cell_length_b 22.198756
_cell_length_c 16.098452
_cell_angle_alpha 90.000000
_cell_angle_beta 151.755668
_cell_angle_gamma 90.000000
_cell_volume 1463.665430
_symmetry_space_group_name_H-M "P 21/M"
_symmetry_group_IT_number 11
_symmetry_cell_setting 'monoclinic'
loop_
_space_group_symop_operation_xyz
x,y,z
-x,1/2+y,-z
-x,-y,-z
x,1/2-y,z
loop_
_atom_site_type_symbol
_atom_site_label
_atom_site_fract_x
_atom_site_fract_y
_atom_site_fract_z
Si Si1 0.829533 0.567621 0.745432
Si Si2 0.227357 0.679391 0.619287
Si Si3 0.273867 0.499123 0.701387
Si Si4 0.926314 0.106769 0.612612
Si Si5 0.922695 0.605845 0.617422
Si Si6 0.830126 0.426821 0.744567
Si Si7 0.188227 0.084855 0.085336
O O1 0.433422 0.574649 0.565823
O O2 0.938858 0.612633 0.724253
O O3 0.897130 0.497554 0.757109
O O4 0.982445 0.583972 0.906243
O O5 0.286215 0.750000 0.649625
O O6 0.090381 0.659584 0.463635
O O7 0.551713 0.639304 0.786023
O O8 0.997348 0.658252 0.587061
O O9 0.614192 0.521068 0.825268
O O10 0.000000 0.500000 0.500000
O O11 0.215045 0.436957 0.719394
O O12 0.175852 0.552970 0.716294
O O13 0.950524 0.113392 0.723467
O O14 0.557545 0.581648 0.430299
O O15 0.988876 0.409945 0.906953
#
# Coordination Sequence:
#
# PCOD9156098 Si02
#       7
#     4   4   4   4   4   4   4
#     4  10  17  31  51  83 117 144 162 205 267 341
#     4  10  22  41  57  71  97 146 198 226 252 313
#     4  11  15  31  51  78 110 143 171 209 252 329
#     4  10  18  32  57  77 108 145 179 211 262 318
#     4  10  18  32  56  76 108 138 179 216 261 316
#     4  11  19  32  52  91 117 133 162 221 280 331
#     4  10  22  32  53  84 115 146 166 214 283 314
#
# _framework density 19.130054999999999
#
# number of rings (size 3 to 8) (size 9 to 14) (size 15 to 20)
#    0.000    1.714    7.143    1.286    0.000    0.571 
#    0.000    7.857    0.000    0.000    0.000    0.000 
#    0.000    0.000    0.000    0.000    0.000    0.000 
#
# Total GULP energy -156088.901020 kJ/mol
# GULP energy per Si atom -5574.603608 kJ/mol
# Density = 1.908651 g / cm^3
# Si number density = 19.130055 Si / 1000 Ang^3
#
#
#
# Elastic Constant Matrix: (Units=GPa)
#
#
# Indices 1 2 3 4 5 6 
#
# 1 118.1730 30.0440 42.6657 0.0000 -36.3658 0.0000
# 2 30.0440 86.5809 12.0069 0.0000 -10.5493 0.0000
# 3 42.6657 12.0069 71.8514 0.0000 -40.6572 0.0000
# 4 0.0000 0.0000 0.0000 11.2835 0.0000 -0.7726
# 5 -36.3658 -10.5493 -40.6572 0.0000 37.4947 0.0000
# 6 0.0000 0.0000 0.0000 -0.7726 0.0000 12.5045
#
#
#
# Elastic Compliance Matrix: (Units=1/GPa)
#
#
# Indices 1 2 3 4 5 6 
#
# 1 0.012843 -0.003034 -0.001433 0.000000 0.010049 0.000000
# 2 -0.003034 0.012678 0.000094 0.000000 0.000727 0.000000
# 3 -0.001433 0.000094 0.036182 0.000000 0.037870 0.000000
# 4 0.000000 0.000000 0.000000 0.089002 0.000000 0.005499
# 5 0.010049 0.000727 0.037870 0.000000 0.077685 0.000000
# 6 0.000000 0.000000 0.000000 0.005499 0.000000 0.080311
#
#
# Mechanical properties :
#
#
# Convention : Reuss Voigt Hill
#
# Bulk Modulus (GPa) = 18.88318 49.55983 34.22150
# Shear Modulus (GPa) = 14.92098 25.04912 19.98505
#
# Velocity S-wave (km/s) = 2.79583 3.62251 3.23568
# Velocity P-wave (km/s) = 4.50718 6.59240 5.64687
#
# Compressibility (1/GPa) = 0.05295718
#
# Stress axis : x y z
#
# Youngs Moduli (GPa) = 77.86179 78.87644 27.63836
#
# Poissons Ratio (x) = 0.23927 0.03961
# Poissons Ratio (y) = 0.23620 -0.00260
# Poissons Ratio (z) = 0.11160 -0.00741
#
# Static dielectric constant tensor:
#      x y z
#    x 1.758780 0.000000 -0.020900 
#    y 0.000000 1.634100 0.000000 
#    z -0.020900 0.000000 1.728750 
# 
# From -- ./inp_files/48385.got.cif
#   From: 2010.05.17/outbox.cif.g08.bks.cpg/sg11_25_cif.got.tgz:48385.got - 2010.06.03 12:22:45.
