data_PCOD9156894
_publ_section_title
;
Structure prediction by ZEFSAII (Michael W. Deem and Ramdas Pophale) SiO2 
 PCOD9156894
Probable space group: P 21/M
;
_chemical_formula_sum "Si O2"
_cell_formula_units_Z 32
_cell_length_a 12.144609
_cell_length_b 14.749109
_cell_length_c 18.362190
_cell_angle_alpha 90.000000
_cell_angle_beta 148.841949
_cell_angle_gamma 90.000000
_cell_volume 1701.769523
_symmetry_space_group_name_H-M "P 21/M"
_symmetry_group_IT_number 11
_symmetry_cell_setting 'monoclinic'
loop_
_space_group_symop_operation_xyz
x,y,z
-x,1/2+y,-z
-x,-y,-z
x,1/2-y,z
loop_
_atom_site_type_symbol
_atom_site_label
_atom_site_fract_x
_atom_site_fract_y
_atom_site_fract_z
Si Si1 0.510519 0.080673 0.447664
Si Si2 0.447622 0.546147 0.294504
Si Si3 0.569601 0.857432 0.993049
Si Si4 0.649584 0.513179 0.908984
Si Si5 0.749625 0.851183 0.576614
Si Si6 0.192670 0.642346 0.896219
Si Si7 0.029588 0.854922 0.100043
Si Si8 0.039670 0.854461 0.280640
O O1 0.396701 0.154293 0.433342
O O2 0.755518 0.099772 0.568919
O O3 0.500000 0.000000 0.500000
O O4 0.395344 0.045205 0.310764
O O5 0.495859 0.521409 0.239111
O O6 0.632503 0.593688 0.446567
O O7 0.241413 0.610504 0.180769
O O8 0.591767 0.750000 0.984624
O O9 0.798759 0.887122 0.156005
O O10 0.539336 0.922037 0.906454
O O11 0.383858 0.864327 0.946303
O O12 0.752899 0.426695 0.008191
O O13 0.835510 0.576008 0.979607
O O14 0.787239 0.750000 0.569996
O O15 0.974164 0.887718 0.733217
O O16 0.172182 0.750000 0.905096
O O17 0.981087 0.750000 0.055031
O O18 0.073333 0.859354 0.212138
O O19 0.044620 0.750000 0.305795
#
# Coordination Sequence:
#
# PCOD9156894 Si02
#       8
#     4   4   4   4   4   4   4   4
#     4  10  18  30  51  78 111 144 180 228 265 343
#     4  11  22  33  51  83 122 151 181 227 296 348
#     4   9  20  39  63  83 107 149 202 247 287 336
#     4  11  22  37  56  88 113 152 188 244 291 341
#     4  10  20  35  56  80 111 151 189 229 282 344
#     4  10  22  39  61  86 111 147 198 249 288 334
#     4  10  19  34  56  80 113 156 196 228 276 343
#     4   9  16  30  55  81 101 139 195 238 274 320
#
# _framework density 18.803955999999999
#
# number of rings (size 3 to 8) (size 9 to 14) (size 15 to 20)
#    0.000    2.000    2.500    3.375    5.250    1.000 
#    0.000    4.375    0.000    0.000    0.000    0.000 
#    0.000    0.000    0.000    0.000    0.000    0.000 
#
# Total GULP energy -178335.851855 kJ/mol
# GULP energy per Si atom -5572.995370 kJ/mol
# Density = 1.876116 g / cm^3
# Si number density = 18.803956 Si / 1000 Ang^3
#
#
#
# Elastic Constant Matrix: (Units=GPa)
#
#
# Indices 1 2 3 4 5 6 
#
# 1 48.9796 29.6542 48.4252 0.0000 -1.0861 0.0000
# 2 29.6542 84.1148 41.1842 0.0000 -15.5908 0.0000
# 3 48.4252 41.1842 77.7337 0.0000 -10.2671 0.0000
# 4 0.0000 0.0000 0.0000 19.0594 0.0000 25.3191
# 5 -1.0861 -15.5908 -10.2671 0.0000 26.2660 0.0000
# 6 0.0000 0.0000 0.0000 25.3191 0.0000 -34.5445
#
#
#
# Elastic Compliance Matrix: (Units=1/GPa)
#
#
# Indices 1 2 3 4 5 6 
#
# 1 0.058728 -0.006222 -0.035277 0.000000 -0.015054 0.000000
# 2 -0.006222 0.017854 -0.004447 0.000000 0.008602 0.000000
# 3 -0.035277 -0.004447 0.038651 0.000000 0.011010 0.000000
# 4 0.000000 0.000000 0.000000 0.026584 0.000000 0.019484
# 5 -0.015054 0.008602 0.011010 0.000000 0.046859 0.000000
# 6 0.000000 0.000000 0.000000 0.019484 0.000000 -0.014667
#
#
# Mechanical properties :
#
#
# Convention : Reuss Voigt Hill
#
# Bulk Modulus (GPa) = 42.84413 49.92836 46.38625
# Shear Modulus (GPa) = 18.26947 8.26047 13.26497
#
# Velocity S-wave (km/s) = 3.12039 2.09821 2.65888
# Velocity P-wave (km/s) = 5.98469 5.69909 5.84364
#
# Compressibility (1/GPa) = 0.02334042
#
# Stress axis : x y z
#
# Youngs Moduli (GPa) = 17.02767 56.01077 25.87260
#
# Poissons Ratio (x) = 0.34851 0.91271
# Poissons Ratio (y) = 0.10595 0.11505
# Poissons Ratio (z) = 0.60069 0.24906
#
# Static dielectric constant tensor:
#      x y z
#    x 1.649690 0.000000 0.031450 
#    y 0.000000 1.734190 0.000000 
#    z 0.031450 0.000000 1.658820 
# 
# From -- ./inp_files/59497.got.cif
#   From: 2010.05.17/outbox.cif.g08.bks.cpg/sg11_30_cif.got.tgz:59497.got - 2010.06.03 12:22:45.
