data_PCOD9156366
_publ_section_title
;
Structure prediction by ZEFSAII (Michael W. Deem and Ramdas Pophale) SiO2 
 PCOD9156366
Probable space group: P 21/M
;
_chemical_formula_sum "Si O2"
_cell_formula_units_Z 32
_cell_length_a 16.358946
_cell_length_b 7.455228
_cell_length_c 14.966430
_cell_angle_alpha 90.000000
_cell_angle_beta 63.126176
_cell_angle_gamma 90.000000
_cell_volume 1628.175948
_symmetry_space_group_name_H-M "P 21/M"
_symmetry_group_IT_number 11
_symmetry_cell_setting 'monoclinic'
loop_
_space_group_symop_operation_xyz
x,y,z
-x,1/2+y,-z
-x,-y,-z
x,1/2-y,z
loop_
_atom_site_type_symbol
_atom_site_label
_atom_site_fract_x
_atom_site_fract_y
_atom_site_fract_z
Si Si1 0.608428 0.467973 0.853326
Si Si2 0.237980 0.543213 0.356205
Si Si3 0.143620 0.534481 0.777501
Si Si4 0.066914 0.466449 0.318801
Si Si5 0.768676 0.537566 0.085444
Si Si6 0.062335 0.468361 0.114580
Si Si7 0.141675 0.530444 0.575693
Si Si8 0.598712 0.539509 0.061246
O O1 0.608856 0.250000 0.853038
O O2 0.681196 0.534276 0.744664
O O3 0.504882 0.533437 0.885720
O O4 0.633014 0.522149 0.942238
O O5 0.263962 0.750000 0.359479
O O6 0.145224 0.539098 0.343778
O O7 0.210791 0.465081 0.465670
O O8 0.139722 0.750000 0.776161
O O9 0.215809 0.484952 0.817273
O O10 0.162293 0.473939 0.666985
O O11 0.041230 0.470667 0.855055
O O12 0.070509 0.250000 0.321912
O O13 0.082664 0.516866 0.207441
O O14 0.963310 0.522553 0.393779
O O15 0.767404 0.750000 0.067103
O O16 0.674928 0.463501 0.090210
O O17 0.858657 0.465362 0.990017
O O18 0.060769 0.250000 0.111746
O O19 0.142248 0.750000 0.573940
O O20 0.588752 0.750000 0.086632
#
# Coordination Sequence:
#
# PCOD9156366 Si02
#       8
#     4   4   4   4   4   4   4   4
#     4   9  18  31  47  68  91 114 142 176 213 257
#     4  10  18  28  44  66  90 114 144 181 218 254
#     4   9  17  30  45  60  82 113 147 177 207 248
#     4   9  16  28  45  64  88 118 149 175 207 257
#     4  10  18  28  44  64  85 110 141 176 216 256
#     4   8  15  27  42  61  86 114 140 169 209 258
#     4   8  16  30  45  61  86 120 150 177 212 255
#     4   9  18  32  48  66  90 117 141 171 217 266
#
# _framework density 19.653896
#
# number of rings (size 3 to 8) (size 9 to 14) (size 15 to 20)
#    0.000    3.000    0.000    3.000    0.000    2.000 
#    0.000    3.750    0.000    0.750    0.000    0.000 
#    0.000    0.000    0.000    0.000    0.000    0.000 
#
# Total GULP energy -178537.079901 kJ/mol
# GULP energy per Si atom -5579.283747 kJ/mol
# Density = 1.960916 g / cm^3
# Si number density = 19.653896 Si / 1000 Ang^3
#
#
#
# Elastic Constant Matrix: (Units=GPa)
#
#
# Indices 1 2 3 4 5 6 
#
# 1 127.1320 -4.7152 66.7289 0.0000 15.8300 0.0000
# 2 -4.7152 54.0671 -10.1662 0.0000 -2.5320 0.0000
# 3 66.7289 -10.1662 126.3749 0.0000 -8.1317 0.0000
# 4 0.0000 0.0000 0.0000 6.4579 0.0000 2.7354
# 5 15.8300 -2.5320 -8.1317 0.0000 15.8023 0.0000
# 6 0.0000 0.0000 0.0000 2.7354 0.0000 9.4624
#
#
#
# Elastic Compliance Matrix: (Units=1/GPa)
#
#
# Indices 1 2 3 4 5 6 
#
# 1 0.015397 -0.001420 -0.009568 0.000000 -0.020576 0.000000
# 2 -0.001420 0.019148 0.002667 0.000000 0.005863 0.000000
# 3 -0.009568 0.002667 0.014298 0.000000 0.017370 0.000000
# 4 0.000000 0.000000 0.000000 0.176456 0.000000 -0.051009
# 5 -0.020576 0.005863 0.017370 0.000000 0.093772 0.000000
# 6 0.000000 0.000000 0.000000 -0.051009 0.000000 0.120427
#
#
# Mechanical properties :
#
#
# Convention : Reuss Voigt Hill
#
# Bulk Modulus (GPa) = 31.05502 45.69655 38.37579
# Shear Modulus (GPa) = 10.70955 23.39294 17.05125
#
# Velocity S-wave (km/s) = 2.33686 3.45374 2.94866
# Velocity P-wave (km/s) = 4.80796 6.26143 5.58220
#
# Compressibility (1/GPa) = 0.03220091
#
# Stress axis : x y z
#
# Youngs Moduli (GPa) = 64.94576 52.22526 69.94198
#
# Poissons Ratio (x) = 0.07416 0.66923
# Poissons Ratio (y) = 0.09222 -0.18656
# Poissons Ratio (z) = 0.62143 -0.13930
#
# Static dielectric constant tensor:
#      x y z
#    x 1.680960 0.000000 -0.006930 
#    y 0.000000 1.741880 0.000000 
#    z -0.006930 0.000000 1.694270 
# 
# From -- ./inp_files/38933.got.cif
#   From: 2010.05.17/outbox.cif.g08.bks.cpg/sg11_20_cif.got.tgz:38933.got - 2010.06.03 12:22:45.
