data_PCOD9156697
_publ_section_title
;
Structure prediction by ZEFSAII (Michael W. Deem and Ramdas Pophale) SiO2 
 PCOD9156697
Probable space group: P 21/M
;
_chemical_formula_sum "Si O2"
_cell_formula_units_Z 32
_cell_length_a 13.260715
_cell_length_b 8.433601
_cell_length_c 17.674942
_cell_angle_alpha 90.000000
_cell_angle_beta 90.663237
_cell_angle_gamma 90.000000
_cell_volume 1976.554945
_symmetry_space_group_name_H-M "P 21/M"
_symmetry_group_IT_number 11
_symmetry_cell_setting 'monoclinic'
loop_
_space_group_symop_operation_xyz
x,y,z
-x,1/2+y,-z
-x,-y,-z
x,1/2-y,z
loop_
_atom_site_type_symbol
_atom_site_label
_atom_site_fract_x
_atom_site_fract_y
_atom_site_fract_z
Si Si1 0.298243 0.556132 0.818990
Si Si2 0.688232 0.439818 0.822844
Si Si3 0.105174 0.558544 0.910081
Si Si4 0.382224 0.439455 0.335396
Si Si5 0.382135 0.943013 0.661146
Si Si6 0.615420 0.440177 0.504213
Si Si7 0.115625 0.558667 0.084587
Si Si8 0.495610 0.939952 0.914366
O O1 0.297358 0.750000 0.818641
O O2 0.193593 0.503311 0.855194
O O3 0.319900 0.503172 0.733436
O O4 0.393004 0.507293 0.871643
O O5 0.686682 0.250000 0.826332
O O6 0.677497 0.493159 0.736221
O O7 0.790948 0.496477 0.863891
O O8 0.591959 0.502835 0.868054
O O9 0.104770 0.750000 0.909505
O O10 0.993505 0.499873 0.889576
O O11 0.127656 0.507595 0.996938
O O12 0.382264 0.250000 0.331689
O O13 0.500195 0.492347 0.330025
O O14 0.342270 0.492302 0.417188
O O15 0.383128 0.750000 0.662195
O O16 0.342301 0.989997 0.577653
O O17 0.500000 0.500000 0.500000
O O18 0.616481 0.250000 0.508190
O O19 0.115319 0.750000 0.085097
O O20 0.495249 0.750000 0.914713
O O21 0.500000 0.000000 0.000000
#
# Coordination Sequence:
#
# PCOD9156697 Si02
#       8
#     4   4   4   4   4   4   4   4
#     4   9  16  29  48  69  94 124 155 193 238 281
#     4  11  21  33  49  70  96 127 162 198 241 289
#     4   9  17  31  52  70  86 118 163 200 234 282
#     4  10  18  30  46  67  96 129 160 194 237 285
#     4   8  14  26  44  66  93 124 155 187 231 282
#     4   9  16  26  43  66  93 127 162 194 232 282
#     4   9  19  34  48  66  94 123 155 202 249 282
#     4  11  21  33  48  67  98 132 161 193 234 286
#
# _framework density 16.189786000000002
#
# number of rings (size 3 to 8) (size 9 to 14) (size 15 to 20)
#    0.000    2.500    1.250    3.000    0.000    3.000 
#    0.000    3.750    0.000    0.000    0.000    0.875 
#    0.000    0.000    0.000    0.000    0.000    0.000 
#
# Total GULP energy -178357.507406 kJ/mol
# GULP energy per Si atom -5573.672106 kJ/mol
# Density = 1.615294 g / cm^3
# Si number density = 16.189786 Si / 1000 Ang^3
#
#
#
# Elastic Constant Matrix: (Units=GPa)
#
#
# Indices 1 2 3 4 5 6 
#
# 1 100.1393 13.2190 66.6990 0.0000 -10.4994 0.0000
# 2 13.2190 21.5981 15.4663 0.0000 -0.3025 0.0000
# 3 66.6990 15.4663 138.2557 0.0000 -13.1449 0.0000
# 4 0.0000 0.0000 0.0000 23.8606 0.0000 0.2297
# 5 -10.4994 -0.3025 -13.1449 0.0000 18.5529 0.0000
# 6 0.0000 0.0000 0.0000 0.2297 0.0000 18.6328
#
#
#
# Elastic Compliance Matrix: (Units=1/GPa)
#
#
# Indices 1 2 3 4 5 6 
#
# 1 0.015356 -0.004686 -0.006503 0.000000 0.004006 0.000000
# 2 -0.004686 0.051963 -0.003993 0.000000 -0.004633 0.000000
# 3 -0.006503 -0.003993 0.011217 0.000000 0.004202 0.000000
# 4 0.000000 0.000000 0.000000 0.041915 0.000000 -0.000517
# 5 0.004006 -0.004633 0.004202 0.000000 0.059069 0.000000
# 6 0.000000 0.000000 0.000000 -0.000517 0.000000 0.053675
#
#
# Mechanical properties :
#
#
# Convention : Reuss Voigt Hill
#
# Bulk Modulus (GPa) = 20.75910 50.08464 35.42187
# Shear Modulus (GPa) = 17.88173 23.18319 20.53246
#
# Velocity S-wave (km/s) = 3.32702 3.78824 3.56509
# Velocity P-wave (km/s) = 5.25442 7.08078 6.23483
#
# Compressibility (1/GPa) = 0.04817164
#
# Stress axis : x y z
#
# Youngs Moduli (GPa) = 65.12007 19.24461 89.15425
#
# Poissons Ratio (x) = 0.09017 0.57979
# Poissons Ratio (y) = 0.30513 0.35599
# Poissons Ratio (z) = 0.42349 0.07684
#
# Static dielectric constant tensor:
#      x y z
#    x 1.519130 0.000000 -0.001670 
#    y 0.000000 1.558700 0.000000 
#    z -0.001670 0.000000 1.566700 
# 
# From -- ./inp_files/42465.got.cif
#   From: 2010.05.17/outbox.cif.g08.bks.cpg/sg11_22_cif.got.tgz:42465.got - 2010.06.03 12:22:45.
