data_PCOD9156171
_publ_section_title
;
Structure prediction by ZEFSAII (Michael W. Deem and Ramdas Pophale) SiO2 
 PCOD9156171
Probable space group: P 21/M
;
_chemical_formula_sum "Si O2"
_cell_formula_units_Z 32
_cell_length_a 15.351522
_cell_length_b 21.198595
_cell_length_c 9.248163
_cell_angle_alpha 90.000000
_cell_angle_beta 147.769470
_cell_angle_gamma 90.000000
_cell_volume 1605.120493
_symmetry_space_group_name_H-M "P 21/M"
_symmetry_group_IT_number 11
_symmetry_cell_setting 'monoclinic'
loop_
_space_group_symop_operation_xyz
x,y,z
-x,1/2+y,-z
-x,-y,-z
x,1/2-y,z
loop_
_atom_site_type_symbol
_atom_site_label
_atom_site_fract_x
_atom_site_fract_y
_atom_site_fract_z
Si Si1 0.543922 0.319059 0.193159
Si Si2 0.803733 0.444204 0.818792
Si Si3 0.555146 0.923371 0.713800
Si Si4 0.742333 0.677401 0.786140
Si Si5 0.111436 0.678482 0.228194
Si Si6 0.625524 0.475976 0.047958
Si Si7 0.620023 0.868669 0.313260
Si Si8 0.865678 0.517640 0.604838
O O1 0.515411 0.250000 0.216682
O O2 0.499384 0.373220 0.241066
O O3 0.739229 0.325584 0.448668
O O4 0.437933 0.327285 0.902162
O O5 0.614683 0.446374 0.596998
O O6 0.854510 0.373082 0.846902
O O7 0.818749 0.482721 0.688888
O O8 0.940665 0.471253 0.117692
O O9 0.665278 0.881573 0.763366
O O10 0.631077 0.978193 0.918522
O O11 0.709557 0.750000 0.789856
O O12 0.676740 0.669956 0.530946
O O13 0.936891 0.667639 0.054286
O O14 0.111220 0.750000 0.169306
O O15 0.796166 0.477916 0.372912
O O16 0.500000 0.500000 0.000000
O O17 0.539545 0.411729 0.878526
O O18 0.766710 0.916141 0.472780
#
# Coordination Sequence:
#
# PCOD9156171 Si02
#       8
#     4   4   4   4   4   4   4   4
#     4  10  19  34  61  84 104 147 202 237 272 335
#     4  10  18  33  58  86 112 148 188 234 286 331
#     4  11  20  35  58  85 117 145 185 236 289 331
#     4  11  24  39  55  82 121 152 186 236 289 340
#     4   9  19  35  54  79 109 150 195 232 277 343
#     4  10  17  34  54  85 111 144 182 237 272 335
#     4  11  19  36  58  85 111 151 191 230 282 343
#     4  10  18  32  58  88 114 140 185 237 283 329
#
# _framework density 19.936198999999998
#
# number of rings (size 3 to 8) (size 9 to 14) (size 15 to 20)
#    0.000    1.750    6.250    1.500    0.000    1.000 
#    0.000    1.250    0.000    2.250    0.000    0.000 
#    0.000    0.000    0.000    0.000    0.000    0.000 
#
# Total GULP energy -178531.450335 kJ/mol
# GULP energy per Si atom -5579.107823 kJ/mol
# Density = 1.989082 g / cm^3
# Si number density = 19.936199 Si / 1000 Ang^3
#
#
#
# Elastic Constant Matrix: (Units=GPa)
#
#
# Indices 1 2 3 4 5 6 
#
# 1 43.2052 6.8117 29.9320 0.0000 0.7468 0.0000
# 2 6.8117 43.9352 12.9891 0.0000 8.4646 0.0000
# 3 29.9320 12.9891 128.5714 0.0000 -0.6429 0.0000
# 4 0.0000 0.0000 0.0000 26.3748 0.0000 -2.5275
# 5 0.7468 8.4646 -0.6429 0.0000 15.4305 0.0000
# 6 0.0000 0.0000 0.0000 -2.5275 0.0000 32.8517
#
#
#
# Elastic Compliance Matrix: (Units=1/GPa)
#
#
# Indices 1 2 3 4 5 6 
#
# 1 0.027856 -0.002419 -0.006242 0.000000 -0.000281 0.000000
# 2 -0.002419 0.026590 -0.002196 0.000000 -0.014561 0.000000
# 3 -0.006242 -0.002196 0.009462 0.000000 0.001901 0.000000
# 4 0.000000 0.000000 0.000000 0.038197 0.000000 0.002939
# 5 -0.000281 -0.014561 0.001901 0.000000 0.072887 0.000000
# 6 0.000000 0.000000 0.000000 0.002939 0.000000 0.030666
#
#
# Mechanical properties :
#
#
# Convention : Reuss Voigt Hill
#
# Bulk Modulus (GPa) = 23.69984 35.01970 29.35977
# Shear Modulus (GPa) = 20.70932 25.99667 23.35299
#
# Velocity S-wave (km/s) = 3.22651 3.61500 3.42627
# Velocity P-wave (km/s) = 5.07879 5.91847 5.51464
#
# Compressibility (1/GPa) = 0.04219438
#
# Stress axis : x y z
#
# Youngs Moduli (GPa) = 35.89887 37.60756 105.68263
#
# Poissons Ratio (x) = 0.09098 0.65967
# Poissons Ratio (y) = 0.08685 0.23207
# Poissons Ratio (z) = 0.22408 0.08258
#
# Static dielectric constant tensor:
#      x y z
#    x 1.693170 0.000000 0.024090 
#    y 0.000000 1.725780 0.000000 
#    z 0.024090 0.000000 1.728860 
# 
# From -- ./inp_files/23401.got.cif
#   From: 2010.05.17/outbox.cif.g08.bks.cpg/sg11_12_cif.got.tgz:23401.got - 2010.06.03 12:22:45.
