data_PCOD9156391
_publ_section_title
;
Structure prediction by ZEFSAII (Michael W. Deem and Ramdas Pophale) SiO2 
 PCOD9156391
Probable space group: P 21/M
;
_chemical_formula_sum "Si O2"
_cell_formula_units_Z 32
_cell_length_a 21.732800
_cell_length_b 7.876877
_cell_length_c 12.924783
_cell_angle_alpha 90.000000
_cell_angle_beta 144.583123
_cell_angle_gamma 90.000000
_cell_volume 1282.219488
_symmetry_space_group_name_H-M "P 21/M"
_symmetry_group_IT_number 11
_symmetry_cell_setting 'monoclinic'
loop_
_space_group_symop_operation_xyz
x,y,z
-x,1/2+y,-z
-x,-y,-z
x,1/2-y,z
loop_
_atom_site_type_symbol
_atom_site_label
_atom_site_fract_x
_atom_site_fract_y
_atom_site_fract_z
Si Si1 0.026741 0.456596 0.206773
Si Si2 0.053482 0.445739 0.466153
Si Si3 0.239037 0.441730 0.995888
Si Si4 0.516452 0.943603 0.183313
Si Si5 0.736244 0.958126 0.532171
Si Si6 0.810489 0.550696 0.851520
Si Si7 0.721092 0.446015 0.173914
Si Si8 0.511502 0.562812 0.632133
O O1 0.020915 0.250000 0.192695
O O2 0.007088 0.522919 0.297301
O O3 0.147596 0.505674 0.348484
O O4 0.936283 0.531903 0.009144
O O5 0.028785 0.250000 0.424907
O O6 0.181420 0.465091 0.635464
O O7 0.000000 0.500000 0.500000
O O8 0.194066 0.250000 0.917860
O O9 0.206362 0.528348 0.058652
O O10 0.363633 0.419929 0.182791
O O11 0.235458 0.544022 0.884930
O O12 0.516314 0.750000 0.145123
O O13 0.633988 0.020364 0.326290
O O14 0.518446 0.945740 0.311854
O O15 0.400899 0.016856 0.991340
O O16 0.731068 0.750000 0.523598
O O17 0.742826 0.012791 0.662147
O O18 0.783564 0.750000 0.826106
O O19 0.716678 0.250000 0.198656
O O20 0.500000 0.500000 0.500000
O O21 0.463024 0.750000 0.578454
#
# Coordination Sequence:
#
# PCOD9156391 Si02
#       8
#     4   4   4   4   4   4   4   4
#     4  10  22  38  56  79 106 139 181 225 269 323
#     4  11  23  39  60  84 110 142 179 222 274 327
#     4   9  18  31  48  73 105 141 177 213 260 319
#     4   9  18  34  55  76 103 142 184 222 265 323
#     4   9  18  36  58  78 106 145 184 219 263 323
#     4  10  19  32  54  80 107 142 179 219 269 319
#     4  10  20  34  55  83 111 141 179 225 274 320
#     4  10  18  28  44  69 103 140 179 221 264 312
#
# _framework density 24.956724000000001
#
# number of rings (size 3 to 8) (size 9 to 14) (size 15 to 20)
#    0.000    2.250    0.000    3.000    0.000    6.500 
#    0.000    3.125    0.000    0.000    0.000    0.000 
#    0.000    0.000    0.000    0.000    0.000    0.000 
#
# Total GULP energy -178485.070582 kJ/mol
# GULP energy per Si atom -5577.658456 kJ/mol
# Density = 2.489992 g / cm^3
# Si number density = 24.956724 Si / 1000 Ang^3
#
#
#
# Elastic Constant Matrix: (Units=GPa)
#
#
# Indices 1 2 3 4 5 6 
#
# 1 31.1015 -3.5229 20.5339 0.0000 14.2371 0.0000
# 2 -3.5229 39.1394 -4.5523 0.0000 4.1511 0.0000
# 3 20.5339 -4.5523 144.8468 0.0000 21.3602 0.0000
# 4 0.0000 0.0000 0.0000 17.0936 0.0000 10.6498
# 5 14.2371 4.1511 21.3602 0.0000 39.8024 0.0000
# 6 0.0000 0.0000 0.0000 10.6498 0.0000 14.6857
#
#
#
# Elastic Compliance Matrix: (Units=1/GPa)
#
#
# Indices 1 2 3 4 5 6 
#
# 1 0.041205 0.004675 -0.003745 0.000000 -0.013216 0.000000
# 2 0.004675 0.026598 0.000900 0.000000 -0.004929 0.000000
# 3 -0.003745 0.000900 0.007905 0.000000 -0.002996 0.000000
# 4 0.000000 0.000000 0.000000 0.106717 0.000000 -0.077389
# 5 -0.013216 -0.004929 -0.002996 0.000000 0.031974 0.000000
# 6 0.000000 0.000000 0.000000 -0.077389 0.000000 0.124214
#
#
# Mechanical properties :
#
#
# Convention : Reuss Voigt Hill
#
# Bulk Modulus (GPa) = 12.59967 26.66723 19.63345
# Shear Modulus (GPa) = 13.83476 27.82495 20.82985
#
# Velocity S-wave (km/s) = 2.35702 3.34268 2.89215
# Velocity P-wave (km/s) = 3.53086 5.06029 4.36311
#
# Compressibility (1/GPa) = 0.07936714
#
# Stress axis : x y z
#
# Youngs Moduli (GPa) = 24.26890 37.59684 126.50274
#
# Poissons Ratio (x) = -0.17576 0.47381
# Poissons Ratio (y) = -0.11346 -0.11386
# Poissons Ratio (z) = 0.09090 -0.03384
#
# Static dielectric constant tensor:
#      x y z
#    x 2.253340 0.000000 -0.054390 
#    y 0.000000 1.945790 0.000000 
#    z -0.054390 0.000000 2.043400 
# 
# From -- ./inp_files/55563.got.cif
#   From: 2010.05.17/outbox.cif.g08.bks.cpg/sg11_28_cif.got.tgz:55563.got - 2010.06.03 12:22:45.
