data_PCOD9156090
_publ_section_title
;
Structure prediction by ZEFSAII (Michael W. Deem and Ramdas Pophale) SiO2 
 PCOD9156090
Probable space group: P 21/M
;
_chemical_formula_sum "Si O2"
_cell_formula_units_Z 28
_cell_length_a 9.767024
_cell_length_b 15.844276
_cell_length_c 7.056078
_cell_angle_alpha 90.000000
_cell_angle_beta 96.236652
_cell_angle_gamma 90.000000
_cell_volume 1085.475672
_symmetry_space_group_name_H-M "P 21/M"
_symmetry_group_IT_number 11
_symmetry_cell_setting 'monoclinic'
loop_
_space_group_symop_operation_xyz
x,y,z
-x,1/2+y,-z
-x,-y,-z
x,1/2-y,z
loop_
_atom_site_type_symbol
_atom_site_label
_atom_site_fract_x
_atom_site_fract_y
_atom_site_fract_z
Si Si1 0.191215 0.533311 0.823447
Si Si2 0.045676 0.157562 0.271493
Si Si3 0.512128 0.159931 0.730647
Si Si4 0.307655 0.421469 0.436318
Si Si5 0.808181 0.411865 0.735742
Si Si6 0.512803 0.413247 0.118817
Si Si7 0.896578 0.845368 0.171395
O O1 0.330481 0.582131 0.786513
O O2 0.179823 0.548209 0.050195
O O3 0.184405 0.432279 0.792978
O O4 0.060923 0.581710 0.717710
O O5 0.983511 0.250000 0.295728
O O6 0.183012 0.144603 0.413733
O O7 0.088804 0.154228 0.055922
O O8 0.468658 0.250000 0.645319
O O9 0.673239 0.145815 0.719636
O O10 0.492172 0.155442 0.952753
O O11 0.422405 0.089563 0.613466
O O12 0.398583 0.409296 0.260471
O O13 0.231197 0.511043 0.406881
O O14 0.949514 0.362470 0.724533
O O15 0.500000 0.500000 0.000000
O O16 0.848688 0.750000 0.212574
#
# Coordination Sequence:
#
# PCOD9156090 Si02
#       7
#     4   4   4   4   4   4   4
#     4  10  18  36  58  93 131 169 221 272 334 400
#     4  10  19  33  60  94 125 168 221 273 330 395
#     4  11  25  40  61  98 137 173 220 278 338 400
#     4  12  21  41  69  96 131 175 225 275 333 404
#     4  10  18  35  61  89 124 169 221 268 324 398
#     4  11  23  41  68  97 131 175 223 272 339 405
#     4  10  17  30  57  91 127 168 220 275 328 398
#
# _framework density 25.795145000000002
#
# number of rings (size 3 to 8) (size 9 to 14) (size 15 to 20)
#    0.000    1.429    5.714    2.143    0.000    4.571 
#    0.000    0.714    0.000    8.571    0.000   12.000 
#    0.000    4.571    0.000    0.000    0.000    0.000 
#
# Total GULP energy -156955.835272 kJ/mol
# GULP energy per Si atom -5605.565545 kJ/mol
# Density = 2.573643 g / cm^3
# Si number density = 25.795145 Si / 1000 Ang^3
#
#
#
# Elastic Constant Matrix: (Units=GPa)
#
#
# Indices 1 2 3 4 5 6 
#
# 1 141.8736 21.0160 24.4309 0.0000 13.5032 0.0000
# 2 21.0160 133.7079 14.4066 0.0000 -0.2735 0.0000
# 3 24.4309 14.4066 76.1433 0.0000 16.3970 0.0000
# 4 0.0000 0.0000 0.0000 21.0125 0.0000 11.6449
# 5 13.5032 -0.2735 16.3970 0.0000 39.7256 0.0000
# 6 0.0000 0.0000 0.0000 11.6449 0.0000 17.3211
#
#
#
# Elastic Compliance Matrix: (Units=1/GPa)
#
#
# Indices 1 2 3 4 5 6 
#
# 1 0.007698 -0.001011 -0.001881 0.000000 -0.001847 0.000000
# 2 -0.001011 0.007786 -0.001355 0.000000 0.000956 0.000000
# 3 -0.001881 -0.001355 0.015209 0.000000 -0.005648 0.000000
# 4 0.000000 0.000000 0.000000 0.075851 0.000000 -0.050994
# 5 -0.001847 0.000956 -0.005648 0.000000 0.028138 0.000000
# 6 0.000000 0.000000 0.000000 -0.050994 0.000000 0.092016
#
#
# Mechanical properties :
#
#
# Convention : Reuss Voigt Hill
#
# Bulk Modulus (GPa) = 45.04551 52.38131 48.71341
# Shear Modulus (GPa) = 20.61078 35.06993 27.84036
#
# Velocity S-wave (km/s) = 2.82976 3.69122 3.28881
# Velocity P-wave (km/s) = 5.30824 6.20625 5.77472
#
# Compressibility (1/GPa) = 0.02219977
#
# Stress axis : x y z
#
# Youngs Moduli (GPa) = 129.90383 128.43855 65.75013
#
# Poissons Ratio (x) = 0.12986 0.12367
# Poissons Ratio (y) = 0.13134 0.08907
# Poissons Ratio (z) = 0.24433 0.17399
#
# Static dielectric constant tensor:
#      x y z
#    x 1.994050 0.000000 -0.022580 
#    y 0.000000 2.012710 0.000000 
#    z -0.022580 0.000000 2.085450 
# 
# From -- ./inp_files/21724.got.cif
#   From: 2010.05.17/outbox.cif.g08.bks.cpg/sg11_11_cif.got.tgz:21724.got - 2010.06.03 12:22:45.
