data_PCOD9156105
_publ_section_title
;
Structure prediction by ZEFSAII (Michael W. Deem and Ramdas Pophale) SiO2 
 PCOD9156105
Probable space group: P 21/M
;
_chemical_formula_sum "Si O2"
_cell_formula_units_Z 32
_cell_length_a 24.812085
_cell_length_b 8.068652
_cell_length_c 12.961846
_cell_angle_alpha 90.000000
_cell_angle_beta 46.364333
_cell_angle_gamma 90.000000
_cell_volume 1878.084531
_symmetry_space_group_name_H-M "P 21/M"
_symmetry_group_IT_number 11
_symmetry_cell_setting 'monoclinic'
loop_
_space_group_symop_operation_xyz
x,y,z
-x,1/2+y,-z
-x,-y,-z
x,1/2-y,z
loop_
_atom_site_type_symbol
_atom_site_label
_atom_site_fract_x
_atom_site_fract_y
_atom_site_fract_z
Si Si1 0.163809 0.551370 0.398171
Si Si2 0.996741 0.947565 0.384213
Si Si3 0.320461 0.950105 0.272509
Si Si4 0.420443 0.447686 0.558917
Si Si5 0.412213 0.952580 0.950821
Si Si6 0.158540 0.952802 0.165313
Si Si7 0.422363 0.050224 0.322304
Si Si8 0.315605 0.550376 0.880195
O O1 0.168310 0.750000 0.387795
O O2 0.236194 0.490355 0.363477
O O3 0.167430 0.494449 0.273572
O O4 0.082831 0.508972 0.550412
O O5 0.995693 0.750000 0.380227
O O6 0.076613 0.006165 0.235077
O O7 0.000000 0.000000 0.500000
O O8 0.319492 0.750000 0.270365
O O9 0.357336 0.001744 0.330534
O O10 0.372070 0.007292 0.108654
O O11 0.500000 0.500000 0.500000
O O12 0.420083 0.250000 0.554869
O O13 0.412406 0.511410 0.452522
O O14 0.355967 0.502285 0.721806
O O15 0.411820 0.750000 0.951612
O O16 0.497450 0.007967 0.826849
O O17 0.365076 0.005781 0.912844
O O18 0.158604 0.750000 0.165380
O O19 0.230836 0.008534 0.007170
O O20 0.425777 0.250000 0.321395
O O21 0.314461 0.750000 0.886691
#
# Coordination Sequence:
#
# PCOD9156105 Si02
#       8
#     4   4   4   4   4   4   4   4
#     4   9  16  28  45  67  96 129 159 189 231 283
#     4   9  16  26  42  66  95 128 161 190 228 282
#     4  10  19  31  50  72  95 126 166 197 227 284
#     4  11  22  36  52  70  93 124 162 204 245 285
#     4   9  16  30  50  69  93 128 159 191 238 283
#     4   8  14  26  46  68  93 126 158 186 229 287
#     4  10  21  35  48  65  94 127 159 198 245 281
#     4  10  17  31  53  72  94 127 161 195 239 284
#
# _framework density 17.038636
#
# number of rings (size 3 to 8) (size 9 to 14) (size 15 to 20)
#    0.000    2.500    2.500    1.875    0.000    1.500 
#    0.000    3.750    0.000    0.000    0.000    0.875 
#    0.000    0.000    0.000    0.000    0.000    0.000 
#
# Total GULP energy -178351.588156 kJ/mol
# GULP energy per Si atom -5573.487130 kJ/mol
# Density = 1.699986 g / cm^3
# Si number density = 17.038636 Si / 1000 Ang^3
#
#
#
# Elastic Constant Matrix: (Units=GPa)
#
#
# Indices 1 2 3 4 5 6 
#
# 1 145.1073 8.7649 99.2399 0.0000 -18.2258 0.0000
# 2 8.7649 8.0745 9.7265 0.0000 -1.4650 0.0000
# 3 99.2399 9.7265 115.6129 0.0000 -24.1239 0.0000
# 4 0.0000 0.0000 0.0000 19.9845 0.0000 -1.8802
# 5 -18.2258 -1.4650 -24.1239 0.0000 34.0174 0.0000
# 6 0.0000 0.0000 0.0000 -1.8802 0.0000 20.7760
#
#
#
# Elastic Compliance Matrix: (Units=1/GPa)
#
#
# Indices 1 2 3 4 5 6 
#
# 1 0.016753 -0.000850 -0.014605 0.000000 -0.001418 0.000000
# 2 -0.000850 0.138065 -0.011432 0.000000 -0.002617 0.000000
# 3 -0.014605 -0.011432 0.023957 0.000000 0.008672 0.000000
# 4 0.000000 0.000000 0.000000 0.050468 0.000000 0.004567
# 5 -0.001418 -0.002617 0.008672 0.000000 0.034675 0.000000
# 6 0.000000 0.000000 0.000000 0.004567 0.000000 0.048546
#
#
# Mechanical properties :
#
#
# Convention : Reuss Voigt Hill
#
# Bulk Modulus (GPa) = 7.99985 56.02860 32.01423
# Shear Modulus (GPa) = 12.25776 25.02649 18.64212
#
# Velocity S-wave (km/s) = 2.68509 3.83666 3.31132
# Velocity P-wave (km/s) = 3.78395 7.25129 5.78358
#
# Compressibility (1/GPa) = 0.12500234
#
# Stress axis : x y z
#
# Youngs Moduli (GPa) = 59.69054 7.24296 41.74059
#
# Poissons Ratio (x) = 0.00616 0.60962
# Poissons Ratio (y) = 0.05073 0.47718
# Poissons Ratio (z) = 0.87177 0.08280
#
# Static dielectric constant tensor:
#      x y z
#    x 1.579870 0.000000 -0.030810 
#    y 0.000000 1.612900 0.000000 
#    z -0.030810 0.000000 1.573450 
# 
# From -- ./inp_files/42526.got.cif
#   From: 2010.05.17/outbox.cif.g08.bks.cpg/sg11_22_cif.got.tgz:42526.got - 2010.06.03 12:22:45.
