data_PCOD9156066
_publ_section_title
;
Structure prediction by ZEFSAII (Michael W. Deem and Ramdas Pophale) SiO2 
 PCOD9156066
Probable space group: P 21/M
;
_chemical_formula_sum "Si O2"
_cell_formula_units_Z 32
_cell_length_a 10.678009
_cell_length_b 14.262072
_cell_length_c 16.912144
_cell_angle_alpha 90.000000
_cell_angle_beta 36.397705
_cell_angle_gamma 90.000000
_cell_volume 1528.302570
_symmetry_space_group_name_H-M "P 21/M"
_symmetry_group_IT_number 11
_symmetry_cell_setting 'monoclinic'
loop_
_space_group_symop_operation_xyz
x,y,z
-x,1/2+y,-z
-x,-y,-z
x,1/2-y,z
loop_
_atom_site_type_symbol
_atom_site_label
_atom_site_fract_x
_atom_site_fract_y
_atom_site_fract_z
Si Si1 0.391962 0.865334 0.391127
Si Si2 0.813329 0.634832 0.265311
Si Si3 0.261008 0.643929 0.982113
Si Si4 0.634499 0.634879 0.691635
Si Si5 0.312727 0.640573 0.253885
Si Si6 0.560675 0.893204 0.975119
Si Si7 0.137505 0.364786 0.580608
Si Si8 0.945011 0.637510 0.674678
O O1 0.396858 0.750000 0.388776
O O2 0.610204 0.895544 0.319467
O O3 0.365245 0.897451 0.313788
O O4 0.184703 0.895633 0.545479
O O5 0.819271 0.750000 0.262176
O O6 0.803660 0.605319 0.361527
O O7 0.036350 0.600339 0.116652
O O8 0.215749 0.750000 0.978578
O O9 0.405010 0.651040 0.988165
O O10 0.412554 0.599948 0.839205
O O11 0.628506 0.750000 0.696590
O O12 0.702333 0.607233 0.569838
O O13 0.813122 0.606702 0.664271
O O14 0.265664 0.750000 0.291742
O O15 0.498174 0.636376 0.094957
O O16 0.098137 0.602059 0.323455
O O17 0.799896 0.881977 0.824446
O O18 0.500000 0.000000 0.000000
O O19 0.133622 0.250000 0.583872
O O20 0.954616 0.750000 0.664756
#
# Coordination Sequence:
#
# PCOD9156066 Si02
#       8
#     4   4   4   4   4   4   4   4
#     4   9  17  29  49  75 101 126 159 200 243 295
#     4   9  16  26  44  74 102 123 153 198 245 288
#     4   9  16  29  49  70  95 125 159 199 250 292
#     4   8  13  22  41  67  90 115 147 187 231 284
#     4  10  17  30  51  74  97 127 163 200 244 294
#     4  11  21  31  47  73 101 128 167 213 246 283
#     4   9  14  23  43  71  96 118 152 196 239 281
#     4   9  16  30  50  71  98 130 159 195 251 298
#
# _framework density 20.938262000000002
#
# number of rings (size 3 to 8) (size 9 to 14) (size 15 to 20)
#    0.000    2.750    2.500    1.875    0.000    0.000 
#    0.000    1.875    0.000    7.500    0.000    0.000 
#    0.000    0.000    0.000    0.000    0.000    0.000 
#
# Total GULP energy -178565.853356 kJ/mol
# GULP energy per Si atom -5580.182917 kJ/mol
# Density = 2.089061 g / cm^3
# Si number density = 20.938262 Si / 1000 Ang^3
#
#
#
# Elastic Constant Matrix: (Units=GPa)
#
#
# Indices 1 2 3 4 5 6 
#
# 1 115.8841 12.2537 92.0311 0.0000 5.0256 0.0000
# 2 12.2537 29.0641 1.8665 0.0000 -6.5932 0.0000
# 3 92.0311 1.8665 210.4583 0.0000 0.1433 0.0000
# 4 0.0000 0.0000 0.0000 10.5138 0.0000 1.7289
# 5 5.0256 -6.5932 0.1433 0.0000 22.3899 0.0000
# 6 0.0000 0.0000 0.0000 1.7289 0.0000 5.2489
#
#
#
# Elastic Compliance Matrix: (Units=1/GPa)
#
#
# Indices 1 2 3 4 5 6 
#
# 1 0.014620 -0.006957 -0.006328 0.000000 -0.005290 0.000000
# 2 -0.006957 0.040204 0.002677 0.000000 0.013383 0.000000
# 3 -0.006328 0.002677 0.007493 0.000000 0.002161 0.000000
# 4 0.000000 0.000000 0.000000 0.100560 0.000000 -0.033123
# 5 -0.005290 0.013383 0.002161 0.000000 0.049777 0.000000
# 6 0.000000 0.000000 0.000000 -0.033123 0.000000 0.201425
#
#
# Mechanical properties :
#
#
# Convention : Reuss Voigt Hill
#
# Bulk Modulus (GPa) = 24.33071 63.07879 43.70475
# Shear Modulus (GPa) = 11.13593 24.24754 17.69173
#
# Velocity S-wave (km/s) = 2.30868 3.40670 2.90995
# Velocity P-wave (km/s) = 4.33037 6.75764 5.67529
#
# Compressibility (1/GPa) = 0.04110033
#
# Stress axis : x y z
#
# Youngs Moduli (GPa) = 68.40122 24.87313 133.45157
#
# Poissons Ratio (x) = 0.17305 0.84444
# Poissons Ratio (y) = 0.47589 -0.35721
# Poissons Ratio (z) = 0.43282 -0.06658
#
# Static dielectric constant tensor:
#      x y z
#    x 1.706290 0.000000 0.008740 
#    y 0.000000 1.624400 0.000000 
#    z 0.008740 0.000000 1.787970 
# 
# From -- ./inp_files/59605.got.cif
#   From: 2010.05.17/outbox.cif.g08.bks.cpg/sg11_30_cif.got.tgz:59605.got - 2010.06.03 12:22:45.
