data_PCOD9156099
_publ_section_title
;
Structure prediction by ZEFSAII (Michael W. Deem and Ramdas Pophale) SiO2 
 PCOD9156099
Probable space group: P 21/M
;
_chemical_formula_sum "Si O2"
_cell_formula_units_Z 28
_cell_length_a 10.140289
_cell_length_b 7.732725
_cell_length_c 33.099866
_cell_angle_alpha 90.000000
_cell_angle_beta 33.367408
_cell_angle_gamma 90.000000
_cell_volume 1427.500832
_symmetry_space_group_name_H-M "P 21/M"
_symmetry_group_IT_number 11
_symmetry_cell_setting 'monoclinic'
loop_
_space_group_symop_operation_xyz
x,y,z
-x,1/2+y,-z
-x,-y,-z
x,1/2-y,z
loop_
_atom_site_type_symbol
_atom_site_label
_atom_site_fract_x
_atom_site_fract_y
_atom_site_fract_z
Si Si1 0.067648 0.546439 0.042234
Si Si2 0.106945 0.450160 0.269726
Si Si3 0.294052 0.461851 0.305843
Si Si4 0.755094 0.462260 0.292288
Si Si5 0.784116 0.542846 0.584780
Si Si6 0.391298 0.049127 0.890813
Si Si7 0.841065 0.041809 0.180412
O O1 0.079642 0.750000 0.031076
O O2 0.825418 0.479269 0.081926
O O3 0.033089 0.517456 0.098453
O O4 0.292625 0.466037 0.961558
O O5 0.039393 0.250000 0.293450
O O6 0.157723 0.525930 0.301044
O O7 0.360977 0.456343 0.181577
O O8 0.907141 0.526731 0.291311
O O9 0.294535 0.250000 0.304377
O O10 0.186026 0.517190 0.376500
O O11 0.574185 0.514391 0.234416
O O12 0.759945 0.250000 0.291461
O O13 0.477326 0.517445 0.363436
O O14 0.865688 0.514638 0.220602
O O15 0.767958 0.750000 0.590994
O O16 0.000000 0.500000 0.500000
O O17 0.427676 0.250000 0.871438
O O18 0.841989 0.250000 0.179994
#
# Coordination Sequence:
#
# PCOD9156099 Si02
#       7
#     4   4   4   4   4   4   4
#     4  10  19  30  46  70  96 126 166 206 241 284
#     4  10  17  31  52  73  94 126 164 199 239 289
#     4   8  15  27  49  72  93 123 161 194 231 284
#     4   8  17  31  51  74  99 126 158 196 240 290
#     4   9  17  33  52  74  99 127 159 194 233 280
#     4  10  20  31  45  69 100 129 158 204 250 283
#     4   9  15  29  49  70  93 123 161 204 243 281
#
# _framework density 19.614699999999999
#
# number of rings (size 3 to 8) (size 9 to 14) (size 15 to 20)
#    0.000    2.857    1.429    2.571    0.000    1.143 
#    0.000    6.429    0.000    0.000    0.000    0.000 
#    0.000    0.000    0.000    0.000    0.000    0.000 
#
# Total GULP energy -156112.977984 kJ/mol
# GULP energy per Si atom -5575.463499 kJ/mol
# Density = 1.957006 g / cm^3
# Si number density = 19.614700 Si / 1000 Ang^3
#
#
#
# Elastic Constant Matrix: (Units=GPa)
#
#
# Indices 1 2 3 4 5 6 
#
# 1 155.9532 6.5807 61.8974 0.0000 18.1655 0.0000
# 2 6.5807 31.1660 -6.8308 0.0000 -0.0108 0.0000
# 3 61.8974 -6.8308 114.7951 0.0000 24.3969 0.0000
# 4 0.0000 0.0000 0.0000 24.0022 0.0000 4.3165
# 5 18.1655 -0.0108 24.3969 0.0000 21.2590 0.0000
# 6 0.0000 0.0000 0.0000 4.3165 0.0000 4.5264
#
#
#
# Elastic Compliance Matrix: (Units=1/GPa)
#
#
# Indices 1 2 3 4 5 6 
#
# 1 0.008484 -0.002718 -0.004226 0.000000 -0.002401 0.000000
# 2 -0.002718 0.033518 0.003919 0.000000 -0.002157 0.000000
# 3 -0.004226 0.003919 0.013828 0.000000 -0.012256 0.000000
# 4 0.000000 0.000000 0.000000 0.050287 0.000000 -0.047955
# 5 -0.002401 -0.002157 -0.012256 0.000000 0.063154 0.000000
# 6 0.000000 0.000000 0.000000 -0.047955 0.000000 0.266658
#
#
# Mechanical properties :
#
#
# Convention : Reuss Voigt Hill
#
# Bulk Modulus (GPa) = 20.08904 47.24545 33.66724
# Shear Modulus (GPa) = 10.90340 25.97533 18.43936
#
# Velocity S-wave (km/s) = 2.36027 3.64301 3.06940
# Velocity P-wave (km/s) = 4.20617 6.46795 5.45556
#
# Compressibility (1/GPa) = 0.04977839
#
# Stress axis : x y z
#
# Youngs Moduli (GPa) = 117.87134 29.83443 72.31907
#
# Poissons Ratio (x) = 0.08110 0.30562
# Poissons Ratio (y) = 0.32042 -0.28340
# Poissons Ratio (z) = 0.49812 -0.11691
#
# Static dielectric constant tensor:
#      x y z
#    x 1.712560 0.000000 0.022290 
#    y 0.000000 1.714400 0.000000 
#    z 0.022290 0.000000 1.670220 
# 
# From -- ./inp_files/28467.got.cif
#   From: 2010.05.17/outbox.cif.g08.bks.cpg/sg11_15_cif.got.tgz:28467.got - 2010.06.03 12:22:45.
