data_PCOD9156994
_publ_section_title
;
Structure prediction by ZEFSAII (Michael W. Deem and Ramdas Pophale) SiO2 
 PCOD9156994
Probable space group: P 21/M
;
_chemical_formula_sum "Si O2"
_cell_formula_units_Z 24
_cell_length_a 11.529959
_cell_length_b 8.653395
_cell_length_c 24.385323
_cell_angle_alpha 90.000000
_cell_angle_beta 34.977442
_cell_angle_gamma 90.000000
_cell_volume 1394.728927
_symmetry_space_group_name_H-M "P 21/M"
_symmetry_group_IT_number 11
_symmetry_cell_setting 'monoclinic'
loop_
_space_group_symop_operation_xyz
x,y,z
-x,1/2+y,-z
-x,-y,-z
x,1/2-y,z
loop_
_atom_site_type_symbol
_atom_site_label
_atom_site_fract_x
_atom_site_fract_y
_atom_site_fract_z
Si Si1 0.407898 0.064292 0.591903
Si Si2 0.738162 0.435417 0.555560
Si Si3 0.661292 0.065317 0.981715
Si Si4 0.198229 0.433750 0.351077
Si Si5 0.640332 0.066412 0.822547
Si Si6 0.037249 0.065343 0.215014
O O1 0.391973 0.250000 0.594921
O O2 0.561919 0.025199 0.581469
O O3 0.500000 0.000000 0.500000
O O4 0.188659 0.992411 0.687398
O O5 0.737375 0.250000 0.564754
O O6 0.720105 0.518380 0.620936
O O7 0.958813 0.474755 0.445101
O O8 0.661172 0.250000 0.980697
O O9 0.570943 0.003960 0.073670
O O10 0.500000 0.000000 0.000000
O O11 0.871905 0.000595 0.877141
O O12 0.215255 0.250000 0.336386
O O13 0.309253 0.519843 0.258833
O O14 0.636817 0.250000 0.831010
O O15 0.818091 0.997304 0.792314
O O16 0.048121 0.250000 0.210618
#
# Coordination Sequence:
#
# PCOD9156994 Si02
#       6
#     4   4   4   4   4   4
#     4  11  22  36  54  77 106 140 176 211 253 305
#     4   9  20  36  52  73 103 137 172 211 254 302
#     4  10  18  31  50  74 103 134 170 211 258 306
#     4  10  19  33  54  78 103 133 171 214 257 302
#     4  11  20  32  52  78 106 136 172 212 258 307
#     4  11  21  34  51  75 107 139 173 213 259 307
#
# _framework density 17.207646
#
# number of rings (size 3 to 8) (size 9 to 14) (size 15 to 20)
#    0.000    1.667    0.000    8.500    0.000    3.333 
#    0.000    0.000    0.000    1.000    0.000    0.000 
#    0.000    0.000    0.000    0.000    0.000    0.000 
#
# Total GULP energy -134022.699006 kJ/mol
# GULP energy per Si atom -5584.279125 kJ/mol
# Density = 1.716848 g / cm^3
# Si number density = 17.207646 Si / 1000 Ang^3
#
#
#
# Elastic Constant Matrix: (Units=GPa)
#
#
# Indices 1 2 3 4 5 6 
#
# 1 64.2228 45.3275 59.2172 0.0000 1.2083 0.0000
# 2 45.3275 137.1873 75.6226 0.0000 5.7663 0.0000
# 3 59.2172 75.6226 171.1770 0.0000 11.2720 0.0000
# 4 0.0000 0.0000 0.0000 34.3347 0.0000 4.1929
# 5 1.2083 5.7663 11.2720 0.0000 23.3234 0.0000
# 6 0.0000 0.0000 0.0000 4.1929 0.0000 25.2686
#
#
#
# Elastic Compliance Matrix: (Units=1/GPa)
#
#
# Indices 1 2 3 4 5 6 
#
# 1 0.025100 -0.004660 -0.006832 0.000000 0.003154 0.000000
# 2 -0.004660 0.010503 -0.002968 0.000000 -0.000921 0.000000
# 3 -0.006832 -0.002968 0.009755 0.000000 -0.003627 0.000000
# 4 0.000000 0.000000 0.000000 0.029727 0.000000 -0.004933
# 5 0.003154 -0.000921 -0.003627 0.000000 0.044693 0.000000
# 6 0.000000 0.000000 0.000000 -0.004933 0.000000 0.040393
#
#
# Mechanical properties :
#
#
# Convention : Reuss Voigt Hill
#
# Bulk Modulus (GPa) = 60.82795 81.43574 71.13184
# Shear Modulus (GPa) = 25.69762 29.41335 27.55548
#
# Velocity S-wave (km/s) = 3.86862 4.13888 4.00603
# Velocity P-wave (km/s) = 7.44185 8.38263 7.92621
#
# Compressibility (1/GPa) = 0.01643981
#
# Stress axis : x y z
#
# Youngs Moduli (GPa) = 39.84095 95.20719 102.50805
#
# Poissons Ratio (x) = 0.44362 0.70036
# Poissons Ratio (y) = 0.18564 0.30421
# Poissons Ratio (z) = 0.27220 0.28254
#
# Static dielectric constant tensor:
#      x y z
#    x 1.567230 0.000000 0.005550 
#    y 0.000000 1.573200 0.000000 
#    z 0.005550 0.000000 1.602660 
# 
# From -- ./inp_files/68370.got.cif
#   From: 2010.05.17/outbox.cif.g08.bks.cpg/sg11_35_cif.got.tgz:68370.got - 2010.06.03 12:22:45.
