data_PCOD9156398
_publ_section_title
;
Structure prediction by ZEFSAII (Michael W. Deem and Ramdas Pophale) SiO2 
 PCOD9156398
Probable space group: P 21/M
;
_chemical_formula_sum "Si O2"
_cell_formula_units_Z 32
_cell_length_a 12.489353
_cell_length_b 13.469580
_cell_length_c 12.018947
_cell_angle_alpha 90.000000
_cell_angle_beta 39.750778
_cell_angle_gamma 90.000000
_cell_volume 1292.905037
_symmetry_space_group_name_H-M "P 21/M"
_symmetry_group_IT_number 11
_symmetry_cell_setting 'monoclinic'
loop_
_space_group_symop_operation_xyz
x,y,z
-x,1/2+y,-z
-x,-y,-z
x,1/2-y,z
loop_
_atom_site_type_symbol
_atom_site_label
_atom_site_fract_x
_atom_site_fract_y
_atom_site_fract_z
Si Si1 0.127702 0.363524 0.467810
Si Si2 0.356786 0.631500 0.993863
Si Si3 0.200244 0.638768 0.578584
Si Si4 0.987004 0.870769 0.205570
Si Si5 0.763585 0.437146 0.695468
Si Si6 0.416787 0.935552 0.720814
Si Si7 0.933844 0.366296 0.091381
Si Si8 0.429648 0.138644 0.617009
O O1 0.181160 0.250000 0.408885
O O2 0.208040 0.444999 0.323375
O O3 0.134324 0.391040 0.593742
O O4 0.929926 0.376318 0.598983
O O5 0.364191 0.750000 0.985730
O O6 0.171593 0.596621 0.100020
O O7 0.375463 0.595783 0.105245
O O8 0.469327 0.590336 0.803793
O O9 0.138378 0.750000 0.601373
O O10 0.244629 0.587991 0.427580
O O11 0.078282 0.593651 0.771705
O O12 0.377901 0.647190 0.497710
O O13 0.994176 0.750000 0.195150
O O14 0.955391 0.902809 0.102475
O O15 0.251961 0.874875 0.814465
O O16 0.556476 0.905066 0.518660
O O17 0.366949 0.050591 0.746143
O O18 0.971048 0.250000 0.077382
O O19 0.357480 0.250000 0.677777
#
# Coordination Sequence:
#
# PCOD9156398 Si02
#       8
#     4   4   4   4   4   4   4   4
#     4   9  17  29  45  63  83 108 141 180 213 247
#     4   9  15  25  43  65  85 106 140 180 205 233
#     4   9  16  27  42  61  86 111 137 173 215 253
#     4   7  11  22  40  61  82 104 135 172 206 237
#     4  10  18  28  45  65  83 110 144 174 211 252
#     4   9  15  26  45  65  84 109 141 174 207 243
#     4   8  13  23  43  67  87 108 137 176 213 243
#     4   9  17  28  44  66  89 111 136 173 215 251
#
# _framework density 24.750464999999998
#
# number of rings (size 3 to 8) (size 9 to 14) (size 15 to 20)
#    0.000    3.250    0.000    4.500    0.000    0.000 
#    0.000    1.875    0.000    8.250    0.000    0.000 
#    0.000    0.000    0.000    0.000    0.000    0.000 
#
# Total GULP energy -178517.205413 kJ/mol
# GULP energy per Si atom -5578.662669 kJ/mol
# Density = 2.469413 g / cm^3
# Si number density = 24.750465 Si / 1000 Ang^3
#
#
#
# Elastic Constant Matrix: (Units=GPa)
#
#
# Indices 1 2 3 4 5 6 
#
# 1 50.3585 0.8106 9.5800 0.0000 8.9997 0.0000
# 2 0.8106 140.8866 69.0488 0.0000 16.4596 0.0000
# 3 9.5800 69.0488 156.3312 0.0000 51.4609 0.0000
# 4 0.0000 0.0000 0.0000 37.9695 0.0000 5.0516
# 5 8.9997 16.4596 51.4609 0.0000 35.8956 0.0000
# 6 0.0000 0.0000 0.0000 5.0516 0.0000 2.5178
#
#
#
# Elastic Compliance Matrix: (Units=1/GPa)
#
#
# Indices 1 2 3 4 5 6 
#
# 1 0.020856 0.000286 0.000682 0.000000 -0.006337 0.000000
# 2 0.000286 0.009236 -0.005074 0.000000 0.002967 0.000000
# 3 0.000682 -0.005074 0.014934 0.000000 -0.019254 0.000000
# 4 0.000000 0.000000 0.000000 0.035927 0.000000 -0.072084
# 5 -0.006337 0.002967 -0.019254 0.000000 0.055690 0.000000
# 6 0.000000 0.000000 0.000000 -0.072084 0.000000 0.541806
#
#
# Mechanical properties :
#
#
# Convention : Reuss Voigt Hill
#
# Bulk Modulus (GPa) = 27.16304 56.27278 41.71791
# Shear Modulus (GPa) = 7.15377 33.15236 20.15307
#
# Velocity S-wave (km/s) = 1.70195 3.66384 2.85660
# Velocity P-wave (km/s) = 3.85497 6.37838 5.26994
#
# Compressibility (1/GPa) = 0.03681473
#
# Stress axis : x y z
#
# Youngs Moduli (GPa) = 47.94806 108.26905 66.96203
#
# Poissons Ratio (x) = -0.03100 -0.04564
# Poissons Ratio (y) = -0.01373 0.33974
# Poissons Ratio (z) = -0.03268 0.54931
#
# Static dielectric constant tensor:
#      x y z
#    x 1.986360 0.000000 -0.025750 
#    y 0.000000 1.982500 0.000000 
#    z -0.025750 0.000000 2.093930 
# 
# From -- ./inp_files/41198.got.cif
#   From: 2010.05.17/outbox.cif.g08.bks.cpg/sg11_21_cif.got.tgz:41198.got - 2010.06.03 12:22:45.
