data_PCOD9156696
_publ_section_title
;
Structure prediction by ZEFSAII (Michael W. Deem and Ramdas Pophale) SiO2 
 PCOD9156696
Probable space group: P 21/M
;
_chemical_formula_sum "Si O2"
_cell_formula_units_Z 28
_cell_length_a 16.448212
_cell_length_b 8.679124
_cell_length_c 13.914863
_cell_angle_alpha 90.000000
_cell_angle_beta 64.976472
_cell_angle_gamma 90.000000
_cell_volume 1799.973159
_symmetry_space_group_name_H-M "P 21/M"
_symmetry_group_IT_number 11
_symmetry_cell_setting 'monoclinic'
loop_
_space_group_symop_operation_xyz
x,y,z
-x,1/2+y,-z
-x,-y,-z
x,1/2-y,z
loop_
_atom_site_type_symbol
_atom_site_label
_atom_site_fract_x
_atom_site_fract_y
_atom_site_fract_z
Si Si1 0.453776 0.065608 0.167246
Si Si2 0.453776 0.934392 0.378978
Si Si3 0.186261 0.566313 0.798727
Si Si4 0.640406 0.434052 0.969640
Si Si5 0.813739 0.933687 0.984988
Si Si6 0.000000 0.565760 0.108780
Si Si7 0.640406 0.565948 0.389954
O O1 0.443976 0.250000 0.171355
O O2 0.439638 1.000000 0.280181
O O3 0.387814 0.991813 0.121621
O O4 0.554985 0.029026 0.080552
O O5 0.443976 0.750000 0.384670
O O6 0.554985 0.970974 0.364463
O O7 0.387814 0.008187 0.490565
O O8 0.179301 0.750000 0.808146
O O9 0.271351 0.515176 0.694324
O O10 0.093419 0.497405 0.803349
O O11 0.197715 0.500000 0.901143
O O12 0.652601 0.250000 0.963781
O O13 0.728649 0.515175 0.965675
O O14 0.820699 0.750000 0.987447
O O15 0.906581 0.002595 0.896767
O O16 0.000000 0.750000 0.107209
O O17 0.000000 0.500000 0.000000
O O18 0.652602 0.750000 0.383617
#
# Coordination Sequence:
#
# PCOD9156696 Si02
#       7
#     4   4   4   4   4   4   4
#     4  10  20  33  49  69  95 126 159 197 237 278
#     4  10  20  33  49  69  95 126 159 197 237 278
#     4  11  20  31  47  69  97 127 159 194 235 281
#     4  10  20  33  49  70  95 125 161 196 234 280
#     4  11  20  31  47  69  97 127 159 194 235 281
#     4  10  18  30  46  66  93 124 157 192 234 280
#     4  10  20  33  49  70  95 125 161 196 234 280
#
# _framework density 15.555787
#
# number of rings (size 3 to 8) (size 9 to 14) (size 15 to 20)
#    0.000    1.714    0.000    8.143    0.000    5.714 
#    0.000    0.000    0.000    0.000    0.000    1.000 
#    0.000    0.000    0.000    0.000    0.000    0.000 
#
# Total GULP energy -156323.356159 kJ/mol
# GULP energy per Si atom -5582.977006 kJ/mol
# Density = 1.552038 g / cm^3
# Si number density = 15.555787 Si / 1000 Ang^3
#
#
#
# Elastic Constant Matrix: (Units=GPa)
#
#
# Indices 1 2 3 4 5 6 
#
# 1 125.1234 67.5021 58.7931 0.0000 -13.0800 0.0000
# 2 67.5021 124.8973 46.5476 0.0000 -10.0107 0.0000
# 3 58.7931 46.5476 93.0748 0.0000 -2.2304 0.0000
# 4 0.0000 0.0000 0.0000 26.0696 0.0000 -0.7971
# 5 -13.0800 -10.0107 -2.2304 0.0000 24.6591 0.0000
# 6 0.0000 0.0000 0.0000 -0.7971 0.0000 27.7380
#
#
#
# Elastic Compliance Matrix: (Units=1/GPa)
#
#
# Indices 1 2 3 4 5 6 
#
# 1 0.014127 -0.004864 -0.006373 0.000000 0.004943 0.000000
# 2 -0.004864 0.011837 -0.002800 0.000000 0.001972 0.000000
# 3 -0.006373 -0.002800 0.016097 0.000000 -0.003061 0.000000
# 4 0.000000 0.000000 0.000000 0.038393 0.000000 0.001103
# 5 0.004943 0.001972 -0.003061 0.000000 0.043698 0.000000
# 6 0.000000 0.000000 0.000000 0.001103 0.000000 0.036083
#
#
# Mechanical properties :
#
#
# Convention : Reuss Voigt Hill
#
# Bulk Modulus (GPa) = 71.49493 76.53122 74.01308
# Shear Modulus (GPa) = 25.91052 27.04351 26.47701
#
# Velocity S-wave (km/s) = 4.08567 4.17404 4.13009
# Velocity P-wave (km/s) = 8.26541 8.51674 8.39202
#
# Compressibility (1/GPa) = 0.01398701
#
# Stress axis : x y z
#
# Youngs Moduli (GPa) = 70.78457 84.48089 62.12470
#
# Poissons Ratio (x) = 0.41092 0.39592
# Poissons Ratio (y) = 0.34430 0.17395
# Poissons Ratio (z) = 0.45111 0.23655
#
# Static dielectric constant tensor:
#      x y z
#    x 1.528690 0.000000 -0.015500 
#    y 0.000000 1.515560 0.000000 
#    z -0.015500 0.000000 1.496240 
# 
# From -- ./inp_files/37480.got.cif
#   From: 2010.05.17/outbox.cif.g08.bks.cpg/sg11_19_cif.got.tgz:37480.got - 2010.06.03 12:22:45.
