data_PCOD9156668
_publ_section_title
;
Structure prediction by ZEFSAII (Michael W. Deem and Ramdas Pophale) SiO2 
 PCOD9156668
Probable space group: P 21/M
;
_chemical_formula_sum "Si O2"
_cell_formula_units_Z 32
_cell_length_a 14.381006
_cell_length_b 7.797185
_cell_length_c 18.956398
_cell_angle_alpha 90.000000
_cell_angle_beta 48.712239
_cell_angle_gamma 90.000000
_cell_volume 1597.191767
_symmetry_space_group_name_H-M "P 21/M"
_symmetry_group_IT_number 11
_symmetry_cell_setting 'monoclinic'
loop_
_space_group_symop_operation_xyz
x,y,z
-x,1/2+y,-z
-x,-y,-z
x,1/2-y,z
loop_
_atom_site_type_symbol
_atom_site_label
_atom_site_fract_x
_atom_site_fract_y
_atom_site_fract_z
Si Si1 0.509888 0.043730 0.666248
Si Si2 0.515752 0.046320 0.820909
Si Si3 0.735055 0.045018 0.979538
Si Si4 0.995261 0.445393 0.673437
Si Si5 0.266804 0.042956 0.708181
Si Si6 0.000595 0.551739 0.829471
Si Si7 0.262304 0.457332 0.547797
Si Si8 0.273428 0.960818 0.179200
O O1 0.498474 0.250000 0.676653
O O2 0.531148 0.975958 0.734423
O O3 0.381560 0.979358 0.696711
O O4 0.624015 0.005806 0.557964
O O5 0.538738 0.250000 0.806203
O O6 0.613810 0.978710 0.829049
O O7 0.376589 0.019433 0.917129
O O8 0.732554 0.250000 0.980936
O O9 0.714715 0.985421 0.908454
O O10 0.872552 0.986981 0.932654
O O11 0.993989 0.250000 0.647584
O O12 0.128340 0.523255 0.587676
O O13 0.998334 0.444385 0.757770
O O14 0.860491 0.520818 0.724754
O O15 0.269648 0.250000 0.706459
O O16 0.280710 0.984463 0.619601
O O17 0.130395 0.988145 0.801486
O O18 0.000468 0.750000 0.808659
O O19 0.254084 0.250000 0.553964
O O20 0.270831 0.750000 0.179690
#
# Coordination Sequence:
#
# PCOD9156668 Si02
#       8
#     4   4   4   4   4   4   4   4
#     4  10  21  34  49  70 101 134 165 203 248 290
#     4  10  20  34  50  72 100 131 166 207 245 283
#     4  10  19  33  53  75  99 131 163 197 242 296
#     4   8  15  30  50  74 101 130 161 198 244 292
#     4   9  18  34  52  72  98 131 165 200 244 295
#     4  10  18  29  50  79 102 122 155 205 250 289
#     4   9  17  30  51  73  96 127 167 207 242 287
#     4   8  15  30  53  75  98 128 163 199 242 290
#
# _framework density 20.035164999999999
#
# number of rings (size 3 to 8) (size 9 to 14) (size 15 to 20)
#    0.000    2.750    0.000    3.750    0.000    3.000 
#    0.000    3.750    0.000    0.000    0.000    0.000 
#    0.000    0.000    0.000    0.000    0.000    0.000 
#
# Total GULP energy -178400.753832 kJ/mol
# GULP energy per Si atom -5575.023557 kJ/mol
# Density = 1.998956 g / cm^3
# Si number density = 20.035165 Si / 1000 Ang^3
#
#
#
# Elastic Constant Matrix: (Units=GPa)
#
#
# Indices 1 2 3 4 5 6 
#
# 1 -33.7850 2.3465 -25.5023 0.0000 -4.1800 0.0000
# 2 2.3465 27.5166 -4.2621 0.0000 8.1048 0.0000
# 3 -25.5023 -4.2621 -45.7654 0.0000 -10.1756 0.0000
# 4 0.0000 0.0000 0.0000 20.1480 0.0000 -8.4945
# 5 -4.1800 8.1048 -10.1756 0.0000 26.6099 0.0000
# 6 0.0000 0.0000 0.0000 -8.4945 0.0000 1.4243
#
#
#
# Elastic Compliance Matrix: (Units=1/GPa)
#
#
# Indices 1 2 3 4 5 6 
#
# 1 -0.049085 0.008328 0.026594 0.000000 -0.000077 0.000000
# 2 0.008328 0.038467 -0.005446 0.000000 -0.012491 0.000000
# 3 0.026594 -0.005446 -0.034525 0.000000 -0.007366 0.000000
# 4 0.000000 0.000000 0.000000 -0.032773 0.000000 -0.195457
# 5 -0.000077 -0.012491 -0.007366 0.000000 0.038555 0.000000
# 6 0.000000 0.000000 0.000000 -0.195457 0.000000 -0.463604
#
#
# Mechanical properties :
#
#
# Convention : Reuss Voigt Hill
#
# Bulk Modulus (GPa) = 72.41728 -11.87440 30.27144
# Shear Modulus (GPa) = -8.97162 7.99538 -0.48812
#
# Velocity S-wave (km/s) = -2.11841 1.99983 -0.49413
# Velocity P-wave (km/s) = 5.49909 0.77923 3.84921
#
# Compressibility (1/GPa) = 0.01380886
#
# Stress axis : x y z
#
# Youngs Moduli (GPa) = -20.37281 25.99626 -28.96474
#
# Poissons Ratio (x) = -0.21649 0.77028
# Poissons Ratio (y) = 0.16966 -0.15773
# Poissons Ratio (z) = 0.54179 0.14157
#
# Static dielectric constant tensor:
#      x y z
#    x 1.721780 0.000000 -0.033510 
#    y 0.000000 1.728310 0.000000 
#    z -0.033510 0.000000 1.693620 
# 
# From -- ./inp_files/54234.got.cif
#   From: 2010.05.17/outbox.cif.g08.bks.cpg/sg11_28_cif.got.tgz:54234.got - 2010.06.03 12:22:45.
