data_PCOD9156576
_publ_section_title
;
Structure prediction by ZEFSAII (Michael W. Deem and Ramdas Pophale) SiO2 
 PCOD9156576
Probable space group: P 21/M
;
_chemical_formula_sum "Si O2"
_cell_formula_units_Z 28
_cell_length_a 15.359358
_cell_length_b 8.667915
_cell_length_c 19.390156
_cell_angle_alpha 90.000000
_cell_angle_beta 141.859341
_cell_angle_gamma 90.000000
_cell_volume 1594.307861
_symmetry_space_group_name_H-M "P 21/M"
_symmetry_group_IT_number 11
_symmetry_cell_setting 'monoclinic'
loop_
_space_group_symop_operation_xyz
x,y,z
-x,1/2+y,-z
-x,-y,-z
x,1/2-y,z
loop_
_atom_site_type_symbol
_atom_site_label
_atom_site_fract_x
_atom_site_fract_y
_atom_site_fract_z
Si Si1 0.726913 0.066144 0.404567
Si Si2 0.576260 0.428432 0.948565
Si Si3 0.123040 0.565002 0.029297
Si Si4 0.006908 0.562002 0.341184
Si Si5 0.871827 0.933485 0.120198
Si Si6 0.565957 0.428079 0.774145
Si Si7 0.730789 0.563158 0.252730
O O1 0.736884 0.250000 0.403681
O O2 0.850982 0.011343 0.532524
O O3 0.571094 0.021591 0.333193
O O4 0.744564 0.992476 0.339950
O O5 0.594538 0.250000 0.981598
O O6 0.568799 0.428830 0.859802
O O7 0.421079 0.488580 0.872473
O O8 0.715369 0.525302 0.051095
O O9 0.123614 0.750000 0.031732
O O10 0.279759 0.512790 0.150853
O O11 0.106425 0.512439 0.939820
O O12 0.000000 0.500000 0.000000
O O13 0.006621 0.750000 0.341791
O O14 0.983243 0.515441 0.247452
O O15 0.868192 0.512139 0.296908
O O16 0.879880 0.750000 0.116064
O O17 0.549924 0.250000 0.742805
O O18 0.724998 0.750000 0.249062
#
# Coordination Sequence:
#
# PCOD9156576 Si02
#       7
#     4   4   4   4   4   4   4
#     4  10  18  29  47  70  95 125 168 210 234 267
#     4   8  15  28  45  65  92 125 160 201 243 281
#     4  10  20  35  56  80 101 119 145 186 234 286
#     4   9  19  32  45  65  96 133 166 200 242 279
#     4  10  19  32  49  69  97 130 159 190 237 291
#     4   8  16  31  49  70  97 125 150 184 236 285
#     4   9  17  31  47  63  91 130 168 206 247 281
#
# _framework density 17.562480999999998
#
# number of rings (size 3 to 8) (size 9 to 14) (size 15 to 20)
#    0.000    2.857    0.000    3.429    0.000    6.286 
#    0.000    5.000    0.000    0.857    0.000    0.000 
#    0.000    0.000    0.000    0.000    0.000    0.000 
#
# Total GULP energy -156070.546687 kJ/mol
# GULP energy per Si atom -5573.948096 kJ/mol
# Density = 1.752251 g / cm^3
# Si number density = 17.562481 Si / 1000 Ang^3
#
#
#
# Elastic Constant Matrix: (Units=GPa)
#
#
# Indices 1 2 3 4 5 6 
#
# 1 99.7571 14.9379 51.1668 0.0000 19.4528 0.0000
# 2 14.9379 21.4438 15.0910 0.0000 2.3979 0.0000
# 3 51.1668 15.0910 111.4880 0.0000 8.1092 0.0000
# 4 0.0000 0.0000 0.0000 20.7756 0.0000 6.3596
# 5 19.4528 2.3979 8.1092 0.0000 18.6327 0.0000
# 6 0.0000 0.0000 0.0000 6.3596 0.0000 22.0434
#
#
#
# Elastic Compliance Matrix: (Units=1/GPa)
#
#
# Indices 1 2 3 4 5 6 
#
# 1 0.016637 -0.005927 -0.005809 0.000000 -0.014078 0.000000
# 2 -0.005927 0.053905 -0.004670 0.000000 0.001283 0.000000
# 3 -0.005809 -0.004670 0.012168 0.000000 0.001370 0.000000
# 4 0.000000 0.000000 0.000000 0.052796 0.000000 -0.015232
# 5 -0.014078 0.001283 0.001370 0.000000 0.067606 0.000000
# 6 0.000000 0.000000 0.000000 -0.015232 0.000000 0.049759
#
#
# Mechanical properties :
#
#
# Convention : Reuss Voigt Hill
#
# Bulk Modulus (GPa) = 20.04070 43.89779 31.96924
# Shear Modulus (GPa) = 16.53905 22.38990 19.46447
#
# Velocity S-wave (km/s) = 3.07208 3.57441 3.33272
# Velocity P-wave (km/s) = 4.90097 6.48727 5.74909
#
# Compressibility (1/GPa) = 0.04989846
#
# Stress axis : x y z
#
# Youngs Moduli (GPa) = 60.10835 18.55108 82.18237
#
# Poissons Ratio (x) = 0.10995 0.47740
# Poissons Ratio (y) = 0.35625 0.38378
# Poissons Ratio (z) = 0.34917 0.08663
#
# Static dielectric constant tensor:
#      x y z
#    x 1.602380 0.000000 0.019830 
#    y 0.000000 1.593640 0.000000 
#    z 0.019830 0.000000 1.616910 
# 
# From -- ./inp_files/60138.got.cif
#   From: 2010.05.17/outbox.cif.g08.bks.cpg/sg11_31_cif.got.tgz:60138.got - 2010.06.03 12:22:45.
