data_PCOD9156134
_publ_section_title
;
Structure prediction by ZEFSAII (Michael W. Deem and Ramdas Pophale) SiO2 
 PCOD9156134
Probable space group: P 21/M
;
_chemical_formula_sum "Si O2"
_cell_formula_units_Z 32
_cell_length_a 30.260654
_cell_length_b 8.539448
_cell_length_c 24.194282
_cell_angle_alpha 90.000000
_cell_angle_beta 16.706622
_cell_angle_gamma 90.000000
_cell_volume 1797.277829
_symmetry_space_group_name_H-M "P 21/M"
_symmetry_group_IT_number 11
_symmetry_cell_setting 'monoclinic'
loop_
_space_group_symop_operation_xyz
x,y,z
-x,1/2+y,-z
-x,-y,-z
x,1/2-y,z
loop_
_atom_site_type_symbol
_atom_site_label
_atom_site_fract_x
_atom_site_fract_y
_atom_site_fract_z
Si Si1 0.112544 0.940252 0.236895
Si Si2 0.101431 0.437475 0.828579
Si Si3 0.565353 0.560109 0.599752
Si Si4 0.361822 0.561174 0.031339
Si Si5 0.126201 0.437548 0.392536
Si Si6 0.023751 0.564422 0.801186
Si Si7 0.656105 0.939219 0.615885
Si Si8 0.225253 0.940162 0.981901
O O1 0.116819 0.750000 0.231182
O O2 0.246852 0.988621 0.119017
O O3 0.947863 0.986184 0.460090
O O4 0.149590 0.991736 0.130796
O O5 0.101558 0.250000 0.829956
O O6 0.279770 0.492347 0.616479
O O7 0.038972 0.490807 0.843825
O O8 0.000000 0.500000 0.000000
O O9 0.563069 0.750000 0.601076
O O10 0.584591 0.518995 0.641445
O O11 0.402830 0.507487 0.770582
O O12 0.358735 0.750000 0.036100
O O13 0.287841 0.500605 0.176702
O O14 0.533656 0.511959 0.809016
O O15 0.128960 0.250000 0.387184
O O16 0.000000 0.500000 0.500000
O O17 0.023922 0.750000 0.805992
O O18 0.174560 0.510285 0.586292
O O19 0.873332 0.505760 0.949984
O O20 0.670220 0.750000 0.600600
O O21 0.221547 0.750000 0.984575
#
# Coordination Sequence:
#
# PCOD9156134 Si02
#       8
#     4   4   4   4   4   4   4   4
#     4   8  14  25  45  69  95 129 168 208 256 308
#     4  10  20  38  62  86 108 137 172 206 248 298
#     4   8  15  29  55  82 101 127 171 215 249 294
#     4   9  15  26  46  71  97 126 167 217 265 313
#     4   9  16  25  38  63  97 131 167 211 260 312
#     4  11  23  36  50  77 112 140 168 208 253 303
#     4   9  16  31  53  75  98 132 176 218 260 311
#     4  10  17  32  55  76 100 135 174 214 256 302
#
# _framework density 17.804704000000001
#
# number of rings (size 3 to 8) (size 9 to 14) (size 15 to 20)
#    0.000    2.750    1.250    3.375    0.000    0.500 
#    0.000    6.875    0.000    0.750    0.000    0.000 
#    0.000    0.000    0.000    0.000    0.000    0.000 
#
# Total GULP energy -178293.230033 kJ/mol
# GULP energy per Si atom -5571.663439 kJ/mol
# Density = 1.776418 g / cm^3
# Si number density = 17.804704 Si / 1000 Ang^3
#
#
#
# Elastic Constant Matrix: (Units=GPa)
#
#
# Indices 1 2 3 4 5 6 
#
# 1 63.2952 16.0527 66.2616 0.0000 -3.3426 0.0000
# 2 16.0527 34.4041 33.1052 0.0000 2.6082 0.0000
# 3 66.2616 33.1052 166.7328 0.0000 12.3713 0.0000
# 4 0.0000 0.0000 0.0000 23.0887 0.0000 7.1575
# 5 -3.3426 2.6082 12.3713 0.0000 30.2726 0.0000
# 6 0.0000 0.0000 0.0000 7.1575 0.0000 14.5130
#
#
#
# Elastic Compliance Matrix: (Units=1/GPa)
#
#
# Indices 1 2 3 4 5 6 
#
# 1 0.029131 -0.003076 -0.011575 0.000000 0.008212 0.000000
# 2 -0.003076 0.036257 -0.005898 0.000000 -0.001053 0.000000
# 3 -0.011575 -0.005898 0.012196 0.000000 -0.005754 0.000000
# 4 0.000000 0.000000 0.000000 0.051128 0.000000 -0.025215
# 5 0.008212 -0.001053 -0.005754 0.000000 0.036382 0.000000
# 6 0.000000 0.000000 0.000000 -0.025215 0.000000 0.081339
#
#
# Mechanical properties :
#
#
# Convention : Reuss Voigt Hill
#
# Bulk Modulus (GPa) = 27.40950 55.03011 41.21980
# Shear Modulus (GPa) = 16.68368 23.50904 20.09636
#
# Velocity S-wave (km/s) = 3.06443 3.63765 3.36327
# Velocity P-wave (km/s) = 5.28667 6.97266 6.18736
#
# Compressibility (1/GPa) = 0.03648370
#
# Stress axis : x y z
#
# Youngs Moduli (GPa) = 34.32796 27.58086 81.99511
#
# Poissons Ratio (x) = 0.08485 0.94913
# Poissons Ratio (y) = 0.10561 0.48362
# Poissons Ratio (z) = 0.39736 0.16268
#
# Static dielectric constant tensor:
#      x y z
#    x 1.583850 0.000000 0.006250 
#    y 0.000000 1.607310 0.000000 
#    z 0.006250 0.000000 1.645130 
# 
# From -- ./inp_files/67034.got.cif
#   From: 2010.05.17/outbox.cif.g08.bks.cpg/sg11_34_cif.got.tgz:67034.got - 2010.06.03 12:22:45.
