data_PCOD9156771
_publ_section_title
;
Structure prediction by ZEFSAII (Michael W. Deem and Ramdas Pophale) SiO2 
 PCOD9156771
Probable space group: P 21/M
;
_chemical_formula_sum "Si O2"
_cell_formula_units_Z 32
_cell_length_a 18.518804
_cell_length_b 7.577864
_cell_length_c 24.843745
_cell_angle_alpha 90.000000
_cell_angle_beta 149.882251
_cell_angle_gamma 90.000000
_cell_volume 1749.399680
_symmetry_space_group_name_H-M "P 21/M"
_symmetry_group_IT_number 11
_symmetry_cell_setting 'monoclinic'
loop_
_space_group_symop_operation_xyz
x,y,z
-x,1/2+y,-z
-x,-y,-z
x,1/2-y,z
loop_
_atom_site_type_symbol
_atom_site_label
_atom_site_fract_x
_atom_site_fract_y
_atom_site_fract_z
Si Si1 0.444250 0.461571 0.523965
Si Si2 0.834505 0.033568 0.177334
Si Si3 0.618346 0.040902 0.122357
Si Si4 0.878372 0.536576 0.692703
Si Si5 0.970491 0.041597 0.874303
Si Si6 0.706200 0.453005 0.892677
Si Si7 0.607783 0.042590 0.940839
Si Si8 0.304368 0.966977 0.234845
O O1 0.500000 0.500000 0.500000
O O2 0.438721 0.250000 0.526281
O O3 0.281203 0.528809 0.424014
O O4 0.560850 0.525771 0.642212
O O5 0.831121 0.250000 0.175335
O O6 0.765849 0.975886 0.189956
O O7 0.994419 0.977330 0.264994
O O8 0.726721 0.972955 0.059926
O O9 0.628931 0.250000 0.135290
O O10 0.547836 0.972470 0.131682
O O11 0.500000 0.000000 0.000000
O O12 0.876177 0.750000 0.689657
O O13 0.920199 0.486609 0.780572
O O14 0.989807 0.250000 0.895563
O O15 0.844105 0.977463 0.832284
O O16 0.124204 0.955481 0.984325
O O17 0.656719 0.250000 0.856231
O O18 0.627424 0.533756 0.893976
O O19 0.686019 0.529863 0.820306
O O20 0.641223 0.250000 0.957809
O O21 0.301748 0.750000 0.233536
#
# Coordination Sequence:
#
# PCOD9156771 Si02
#       8
#     4   4   4   4   4   4   4   4
#     4  10  19  32  50  69  90 118 155 194 232 272
#     4   8  14  26  41  62  87 112 148 182 211 262
#     4   9  16  26  41  61  89 118 145 180 221 270
#     4  10  18  30  49  68  89 124 158 182 223 280
#     4  11  20  30  45  68  97 119 150 197 233 268
#     4  10  19  33  49  63  90 128 159 186 226 279
#     4   9  16  27  43  62  86 117 151 183 219 271
#     4   9  19  33  47  66  92 121 155 198 233 263
#
# _framework density 18.291989999999998
#
# number of rings (size 3 to 8) (size 9 to 14) (size 15 to 20)
#    0.000    2.500    2.500    1.875    0.000    0.500 
#    0.000    1.875    0.000    0.000    0.000    0.875 
#    0.000    0.000    0.000    0.000    0.000    0.000 
#
# Total GULP energy -178410.710109 kJ/mol
# GULP energy per Si atom -5575.334691 kJ/mol
# Density = 1.825036 g / cm^3
# Si number density = 18.291990 Si / 1000 Ang^3
#
#
#
# Elastic Constant Matrix: (Units=GPa)
#
#
# Indices 1 2 3 4 5 6 
#
# 1 192.7073 -2.9747 76.6635 0.0000 13.8077 0.0000
# 2 -2.9747 40.2726 -3.3084 0.0000 0.2093 0.0000
# 3 76.6635 -3.3084 60.2882 0.0000 -3.6044 0.0000
# 4 0.0000 0.0000 0.0000 3.2528 0.0000 -3.0491
# 5 13.8077 0.2093 -3.6044 0.0000 26.0068 0.0000
# 6 0.0000 0.0000 0.0000 -3.0491 0.0000 12.5216
#
#
#
# Elastic Compliance Matrix: (Units=1/GPa)
#
#
# Indices 1 2 3 4 5 6 
#
# 1 0.012185 -0.000372 -0.016034 0.000000 -0.008689 0.000000
# 2 -0.000372 0.024955 0.001858 0.000000 0.000254 0.000000
# 3 -0.016034 0.001858 0.037901 0.000000 0.013751 0.000000
# 4 0.000000 0.000000 0.000000 0.398346 0.000000 0.096999
# 5 -0.008689 0.000254 0.013751 0.000000 0.044968 0.000000
# 6 0.000000 0.000000 0.000000 0.096999 0.000000 0.103481
#
#
# Mechanical properties :
#
#
# Convention : Reuss Voigt Hill
#
# Bulk Modulus (GPa) = 21.76628 48.22545 34.99587
# Shear Modulus (GPa) = 7.50472 23.21543 15.36007
#
# Velocity S-wave (km/s) = 2.02772 3.56639 2.90093
# Velocity P-wave (km/s) = 4.17221 6.58637 5.51306
#
# Compressibility (1/GPa) = 0.04594263
#
# Stress axis : x y z
#
# Youngs Moduli (GPa) = 82.06910 40.07280 26.38482
#
# Poissons Ratio (x) = 0.01491 0.42306
# Poissons Ratio (y) = 0.03053 -0.04901
# Poissons Ratio (z) = 1.31592 -0.07444
#
# Static dielectric constant tensor:
#      x y z
#    x 1.665530 0.000000 0.015990 
#    y 0.000000 1.720720 0.000000 
#    z 0.015990 0.000000 1.597210 
# 
# From -- ./inp_files/42481.got.cif
#   From: 2010.05.17/outbox.cif.g08.bks.cpg/sg11_22_cif.got.tgz:42481.got - 2010.06.03 12:22:45.
