data_PCOD9156648
_publ_section_title
;
Structure prediction by ZEFSAII (Michael W. Deem and Ramdas Pophale) SiO2 
 PCOD9156648
Probable space group: P 21/M
;
_chemical_formula_sum "Si O2"
_cell_formula_units_Z 32
_cell_length_a 26.398920
_cell_length_b 8.108956
_cell_length_c 22.290351
_cell_angle_alpha 90.000000
_cell_angle_beta 21.357719
_cell_angle_gamma 90.000000
_cell_volume 1737.783117
_symmetry_space_group_name_H-M "P 21/M"
_symmetry_group_IT_number 11
_symmetry_cell_setting 'monoclinic'
loop_
_space_group_symop_operation_xyz
x,y,z
-x,1/2+y,-z
-x,-y,-z
x,1/2-y,z
loop_
_atom_site_type_symbol
_atom_site_label
_atom_site_fract_x
_atom_site_fract_y
_atom_site_fract_z
Si Si1 0.983830 0.441005 0.705991
Si Si2 0.622661 0.947251 0.820873
Si Si3 0.712261 0.057948 0.600347
Si Si4 0.065028 0.449321 0.491067
Si Si5 0.938771 0.449275 0.884143
Si Si6 0.384397 0.447960 0.544107
Si Si7 0.689001 0.947274 0.244191
Si Si8 0.745578 0.550196 0.436733
O O1 0.940757 0.250000 0.749437
O O2 0.914272 0.512504 0.842831
O O3 0.148787 0.451440 0.539610
O O4 0.978738 0.512615 0.644513
O O5 0.624911 0.750000 0.814348
O O6 0.774273 0.003552 0.678286
O O7 0.609206 0.018315 0.768456
O O8 0.500000 0.000000 0.000000
O O9 0.750324 0.250000 0.560779
O O10 0.668102 0.013199 0.581791
O O11 0.065203 0.250000 0.494166
O O12 0.000000 0.500000 0.500000
O O13 0.941232 0.250000 0.878348
O O14 0.092918 0.502114 0.734946
O O15 0.821411 0.500377 0.059933
O O16 0.369976 0.250000 0.559076
O O17 0.312280 0.508467 0.685243
O O18 0.546704 0.489343 0.371399
O O19 0.318910 0.510078 0.554488
O O20 0.682745 0.750000 0.252593
O O21 0.741580 0.750000 0.442118
#
# Coordination Sequence:
#
# PCOD9156648 Si02
#       8
#     4   4   4   4   4   4   4   4
#     4   8  16  32  50  69  97 133 168 200 239 294
#     4  10  20  35  53  74 101 135 172 208 246 293
#     4  10  18  29  49  76 102 129 161 202 253 300
#     4   9  18  32  51  74 100 129 164 204 244 289
#     4   9  17  31  52  74  97 128 165 203 244 293
#     4   9  19  36  54  70  95 134 171 200 242 299
#     4  10  20  33  50  74 102 130 163 204 248 295
#     4   9  18  34  54  74  97 129 168 205 242 292
#
# _framework density 18.414266000000001
#
# number of rings (size 3 to 8) (size 9 to 14) (size 15 to 20)
#    0.000    2.750    0.000    3.375    0.000    6.000 
#    0.000    1.250    0.000    4.500    0.000    0.000 
#    0.000    0.000    0.000    0.000    0.000    0.000 
#
# Total GULP energy -178274.889067 kJ/mol
# GULP energy per Si atom -5571.090283 kJ/mol
# Density = 1.837235 g / cm^3
# Si number density = 18.414266 Si / 1000 Ang^3
#
#
#
# Elastic Constant Matrix: (Units=GPa)
#
#
# Indices 1 2 3 4 5 6 
#
# 1 176.1570 13.8311 77.8176 0.0000 37.9540 0.0000
# 2 13.8311 19.2950 7.3858 0.0000 3.0020 0.0000
# 3 77.8176 7.3858 117.6643 0.0000 36.1025 0.0000
# 4 0.0000 0.0000 0.0000 26.4913 0.0000 4.5815
# 5 37.9540 3.0020 36.1025 0.0000 23.1155 0.0000
# 6 0.0000 0.0000 0.0000 4.5815 0.0000 22.4530
#
#
#
# Elastic Compliance Matrix: (Units=1/GPa)
#
#
# Indices 1 2 3 4 5 6 
#
# 1 0.009547 -0.004109 -0.002707 0.000000 -0.010912 0.000000
# 2 -0.004109 0.054999 -0.001178 0.000000 0.001443 0.000000
# 3 -0.002707 -0.001178 0.017190 0.000000 -0.022249 0.000000
# 4 0.000000 0.000000 0.000000 0.039129 0.000000 -0.007984
# 5 -0.010912 0.001443 -0.022249 0.000000 0.095741 0.000000
# 6 0.000000 0.000000 0.000000 -0.007984 0.000000 0.046167
#
#
# Mechanical properties :
#
#
# Convention : Reuss Voigt Hill
#
# Bulk Modulus (GPa) = 15.20981 56.79834 36.00408
# Shear Modulus (GPa) = 16.62924 28.68409 22.65667
#
# Velocity S-wave (km/s) = 3.00836 3.95107 3.51149
# Velocity P-wave (km/s) = 4.51051 7.19210 6.00296
#
# Compressibility (1/GPa) = 0.06574703
#
# Stress axis : x y z
#
# Youngs Moduli (GPa) = 104.74975 18.18227 58.17350
#
# Poissons Ratio (x) = 0.07471 0.15750
# Poissons Ratio (y) = 0.43041 0.06850
# Poissons Ratio (z) = 0.28361 0.02141
#
# Static dielectric constant tensor:
#      x y z
#    x 1.659840 0.000000 0.040680 
#    y 0.000000 1.664530 0.000000 
#    z 0.040680 0.000000 1.626990 
# 
# From -- ./inp_files/67115.got.cif
#   From: 2010.05.17/outbox.cif.g08.bks.cpg/sg11_34_cif.got.tgz:67115.got - 2010.06.03 12:22:45.
