data_PCOD9156178
_publ_section_title
;
Structure prediction by ZEFSAII (Michael W. Deem and Ramdas Pophale) SiO2 
 PCOD9156178
Probable space group: P 21/M
;
_chemical_formula_sum "Si O2"
_cell_formula_units_Z 32
_cell_length_a 9.871615
_cell_length_b 17.811326
_cell_length_c 14.820611
_cell_angle_alpha 90.000000
_cell_angle_beta 42.726760
_cell_angle_gamma 90.000000
_cell_volume 1768.081332
_symmetry_space_group_name_H-M "P 21/M"
_symmetry_group_IT_number 11
_symmetry_cell_setting 'monoclinic'
loop_
_space_group_symop_operation_xyz
x,y,z
-x,1/2+y,-z
-x,-y,-z
x,1/2-y,z
loop_
_atom_site_type_symbol
_atom_site_label
_atom_site_fract_x
_atom_site_fract_y
_atom_site_fract_z
Si Si1 0.967662 0.339424 0.771556
Si Si2 0.264337 0.990483 0.123317
Si Si3 0.577987 0.425768 0.579476
Si Si4 0.178169 0.399064 0.847818
Si Si5 0.557041 0.401616 0.388551
Si Si6 0.965234 0.939187 0.594196
Si Si7 0.204389 0.164411 0.471634
Si Si8 0.979735 0.434279 0.118732
O O1 0.918493 0.250000 0.792319
O O2 0.794012 0.402354 0.857257
O O3 0.090992 0.355999 0.803433
O O4 0.090908 0.360280 0.619799
O O5 0.167518 0.024873 0.261753
O O6 0.154523 0.037273 0.098187
O O7 0.500000 0.000000 0.000000
O O8 0.418625 0.394703 0.729522
O O9 0.520578 0.389299 0.511945
O O10 0.530318 0.514846 0.590938
O O11 0.812214 0.416354 0.482708
O O12 0.122380 0.487270 0.863144
O O13 0.068838 0.383426 0.995387
O O14 0.434830 0.347798 0.383468
O O15 0.793164 0.396366 0.258994
O O16 0.853287 0.875574 0.592517
O O17 0.000000 0.000000 0.500000
O O18 0.152164 0.250000 0.486643
#
# Coordination Sequence:
#
# PCOD9156178 Si02
#       8
#     4   4   4   4   4   4   4   4
#     4  10  20  38  60  88 120 153 199 258 313 366
#     4  11  23  38  59  90 122 162 209 251 302 367
#     4  10  18  31  60  84 110 144 199 245 292 338
#     4   9  18  32  54  86 111 144 187 238 293 353
#     4  10  17  34  56  83 110 147 188 248 294 348
#     4  12  22  37  59  90 122 161 206 252 300 361
#     4  11  23  38  60  90 123 160 203 255 316 370
#     4   9  19  32  54  82 116 142 187 246 290 341
#
# _framework density 18.098716
#
# number of rings (size 3 to 8) (size 9 to 14) (size 15 to 20)
#    0.000    1.750    5.000    0.000    1.750    2.000 
#    0.000    3.750    0.000    2.250    0.000    0.000 
#    0.000    0.000    0.000    0.000    0.000    0.000 
#
# Total GULP energy -178205.720602 kJ/mol
# GULP energy per Si atom -5568.928769 kJ/mol
# Density = 1.805752 g / cm^3
# Si number density = 18.098716 Si / 1000 Ang^3
#
#
#
# Elastic Constant Matrix: (Units=GPa)
#
#
# Indices 1 2 3 4 5 6 
#
# 1 91.4937 25.0442 50.2216 0.0000 -13.1867 0.0000
# 2 25.0442 45.8528 31.4622 0.0000 -0.8430 0.0000
# 3 50.2216 31.4622 124.8017 0.0000 -14.0820 0.0000
# 4 0.0000 0.0000 0.0000 12.2398 0.0000 7.0529
# 5 -13.1867 -0.8430 -14.0820 0.0000 35.1064 0.0000
# 6 0.0000 0.0000 0.0000 7.0529 0.0000 14.0553
#
#
#
# Elastic Compliance Matrix: (Units=1/GPa)
#
#
# Indices 1 2 3 4 5 6 
#
# 1 0.015356 -0.005291 -0.004409 0.000000 0.003873 0.000000
# 2 -0.005291 0.028346 -0.005409 0.000000 -0.003477 0.000000
# 3 -0.004409 -0.005409 0.011468 0.000000 0.002814 0.000000
# 4 0.000000 0.000000 0.000000 0.114933 0.000000 -0.057672
# 5 0.003873 -0.003477 0.002814 0.000000 0.030985 0.000000
# 6 0.000000 0.000000 0.000000 -0.057672 0.000000 0.100087
#
#
# Mechanical properties :
#
#
# Convention : Reuss Voigt Hill
#
# Bulk Modulus (GPa) = 40.07574 52.84493 46.46033
# Shear Modulus (GPa) = 14.71843 22.64166 18.68004
#
# Velocity S-wave (km/s) = 2.85481 3.54080 3.21615
# Velocity P-wave (km/s) = 5.74957 6.78070 6.28631
#
# Compressibility (1/GPa) = 0.02495275
#
# Stress axis : x y z
#
# Youngs Moduli (GPa) = 65.12071 35.27781 87.19938
#
# Poissons Ratio (x) = 0.18666 0.38443
# Poissons Ratio (y) = 0.34456 0.47167
# Poissons Ratio (z) = 0.28709 0.19082
#
# Static dielectric constant tensor:
#      x y z
#    x 1.594910 0.000000 0.019030 
#    y 0.000000 1.643780 0.000000 
#    z 0.019030 0.000000 1.645700 
# 
# From -- ./inp_files/48234.got.cif
#   From: 2010.05.17/outbox.cif.g08.bks.cpg/sg11_25_cif.got.tgz:48234.got - 2010.06.03 12:22:45.
