data_PCOD9156734
_publ_section_title
;
Structure prediction by ZEFSAII (Michael W. Deem and Ramdas Pophale) SiO2 
 PCOD9156734
Probable space group: P 21/M
;
_chemical_formula_sum "Si O2"
_cell_formula_units_Z 28
_cell_length_a 17.271800
_cell_length_b 7.586812
_cell_length_c 15.610703
_cell_angle_alpha 90.000000
_cell_angle_beta 133.488028
_cell_angle_gamma 90.000000
_cell_volume 1484.115456
_symmetry_space_group_name_H-M "P 21/M"
_symmetry_group_IT_number 11
_symmetry_cell_setting 'monoclinic'
loop_
_space_group_symop_operation_xyz
x,y,z
-x,1/2+y,-z
-x,-y,-z
x,1/2-y,z
loop_
_atom_site_type_symbol
_atom_site_label
_atom_site_fract_x
_atom_site_fract_y
_atom_site_fract_z
Si Si1 0.393427 0.533025 0.107335
Si Si2 0.751542 0.460112 0.157114
Si Si3 0.793139 0.537405 0.511852
Si Si4 0.636272 0.041066 0.538660
Si Si5 0.595492 0.046294 0.694666
Si Si6 0.016688 0.961898 0.612942
Si Si7 0.368206 0.037835 0.759237
O O1 0.394081 0.750000 0.108872
O O2 0.374957 0.470836 0.190519
O O3 0.511626 0.477158 0.167306
O O4 0.306245 0.473247 0.972259
O O5 0.762175 0.250000 0.154562
O O6 0.869344 0.531449 0.268023
O O7 0.676146 0.489586 0.181649
O O8 0.794915 0.750000 0.508263
O O9 0.740678 0.489264 0.562118
O O10 0.713821 0.473453 0.376130
O O11 0.912591 0.473097 0.584514
O O12 0.615152 0.250000 0.527203
O O13 0.638802 0.970610 0.637987
O O14 0.533237 0.960390 0.412866
O O15 0.629600 0.250000 0.722393
O O16 0.019170 0.750000 0.623425
O O17 0.000000 0.000000 0.500000
O O18 0.369403 0.250000 0.755044
#
# Coordination Sequence:
#
# PCOD9156734 Si02
#       7
#     4   4   4   4   4   4   4
#     4   9  17  31  49  68  94 128 156 184 230 288
#     4  10  20  32  48  70  94 121 161 201 227 266
#     4  10  19  32  49  67  96 131 157 186 237 290
#     4  10  19  29  48  76  97 119 157 200 235 271
#     4   9  17  32  50  69  98 129 153 185 238 293
#     4  10  20  33  49  69  92 124 161 198 235 271
#     4  10  18  30  48  68  95 131 157 179 232 291
#
# _framework density 18.866457
#
# number of rings (size 3 to 8) (size 9 to 14) (size 15 to 20)
#    0.000    2.286    2.857    0.857    0.000    1.714 
#    0.000    0.714    0.000    0.857    0.000    0.000 
#    0.000    0.000    0.000    0.000    0.000    0.429 
#
# Total GULP energy -156256.859640 kJ/mol
# GULP energy per Si atom -5580.602130 kJ/mol
# Density = 1.882352 g / cm^3
# Si number density = 18.866457 Si / 1000 Ang^3
#
#
#
# Elastic Constant Matrix: (Units=GPa)
#
#
# Indices 1 2 3 4 5 6 
#
# 1 143.6514 -4.5050 87.2001 0.0000 -19.4971 0.0000
# 2 -4.5050 42.8587 6.5496 0.0000 1.9031 0.0000
# 3 87.2001 6.5496 164.7544 0.0000 -13.7801 0.0000
# 4 0.0000 0.0000 0.0000 0.6482 0.0000 -3.1897
# 5 -19.4971 1.9031 -13.7801 0.0000 24.7713 0.0000
# 6 0.0000 0.0000 0.0000 -3.1897 0.0000 18.8194
#
#
#
# Elastic Compliance Matrix: (Units=1/GPa)
#
#
# Indices 1 2 3 4 5 6 
#
# 1 0.011095 0.001757 -0.005478 0.000000 0.005550 0.000000
# 2 0.001757 0.023894 -0.002011 0.000000 -0.001572 0.000000
# 3 -0.005478 -0.002011 0.009126 0.000000 0.000920 0.000000
# 4 0.000000 0.000000 0.000000 9.300892 0.000000 1.576427
# 5 0.005550 -0.001572 0.000920 0.000000 0.045370 0.000000
# 6 0.000000 0.000000 0.000000 1.576427 0.000000 0.320328
#
#
# Mechanical properties :
#
#
# Convention : Reuss Voigt Hill
#
# Bulk Modulus (GPa) = 30.62728 58.86152 44.74440
# Shear Modulus (GPa) = 0.51371 26.31576 13.41474
#
# Velocity S-wave (km/s) = 0.52238 3.73881 2.66942
# Velocity P-wave (km/s) = 4.07833 7.06435 5.76792
#
# Compressibility (1/GPa) = 0.03265063
#
# Stress axis : x y z
#
# Youngs Moduli (GPa) = 90.13144 41.85101 109.57966
#
# Poissons Ratio (x) = -0.07353 0.60026
# Poissons Ratio (y) = -0.15835 0.22039
# Poissons Ratio (z) = 0.49373 0.08417
#
# Static dielectric constant tensor:
#      x y z
#    x 1.645860 0.000000 -0.008190 
#    y 0.000000 1.723530 0.000000 
#    z -0.008190 0.000000 1.650030 
# 
# From -- ./inp_files/37670.got.cif
#   From: 2010.05.17/outbox.cif.g08.bks.cpg/sg11_19_cif.got.tgz:37670.got - 2010.06.03 12:22:45.
