data_PCOD9156935
_publ_section_title
;
Structure prediction by ZEFSAII (Michael W. Deem and Ramdas Pophale) SiO2 
 PCOD9156935
Probable space group: P 21/M
;
_chemical_formula_sum "Si O2"
_cell_formula_units_Z 32
_cell_length_a 18.352407
_cell_length_b 18.812441
_cell_length_c 10.184018
_cell_angle_alpha 90.000000
_cell_angle_beta 33.761304
_cell_angle_gamma 90.000000
_cell_volume 1953.999804
_symmetry_space_group_name_H-M "P 21/M"
_symmetry_group_IT_number 11
_symmetry_cell_setting 'monoclinic'
loop_
_space_group_symop_operation_xyz
x,y,z
-x,1/2+y,-z
-x,-y,-z
x,1/2-y,z
loop_
_atom_site_type_symbol
_atom_site_label
_atom_site_fract_x
_atom_site_fract_y
_atom_site_fract_z
Si Si1 0.465403 0.947118 0.931755
Si Si2 0.332675 0.333101 0.281561
Si Si3 0.460630 0.542150 0.428165
Si Si4 0.882781 0.926434 0.772876
Si Si5 0.166854 0.981813 0.893890
Si Si6 0.349313 0.332441 0.940607
Si Si7 0.164713 0.535520 0.392524
Si Si8 0.115592 0.063789 0.707382
O O1 0.549326 0.876607 0.828914
O O2 0.509043 0.988953 0.736969
O O3 0.309709 0.934007 0.159418
O O4 0.500000 0.000000 0.000000
O O5 0.335595 0.250000 0.307371
O O6 0.199745 0.369947 0.532191
O O7 0.345488 0.341632 0.104647
O O8 0.500000 0.500000 0.500000
O O9 0.305552 0.555816 0.667762
O O10 0.545110 0.612934 0.277307
O O11 0.038523 0.915039 0.555898
O O12 0.854741 0.971259 0.682447
O O13 0.791744 0.857741 0.902309
O O14 0.839865 0.976931 0.957856
O O15 0.149816 0.039612 0.803059
O O16 0.041022 0.930520 0.071996
O O17 0.375839 0.250000 0.872197
O O18 0.153989 0.501258 0.552870
#
# Coordination Sequence:
#
# PCOD9156935 Si02
#       8
#     4   4   4   4   4   4   4   4
#     4  12  18  34  57  82 109 142 189 235 268 316
#     4  11  22  36  57  83 112 147 186 232 287 330
#     4  12  20  34  55  85 112 141 183 229 273 330
#     4  10  18  34  51  82 106 139 179 226 269 326
#     4  10  20  30  55  81 110 130 181 228 268 311
#     4  11  22  37  56  82 114 148 183 228 290 337
#     4  10  18  30  57  79 105 133 188 231 261 303
#     4  10  18  34  51  81 106 137 176 228 264 322
#
# _framework density 16.376664999999999
#
# number of rings (size 3 to 8) (size 9 to 14) (size 15 to 20)
#    0.000    1.250    7.500    0.000    0.000    0.000 
#    0.000    3.750    0.000    0.000    0.000    0.000 
#    0.000    0.000    0.000    0.000    0.000    0.000 
#
# Total GULP energy -178515.863858 kJ/mol
# GULP energy per Si atom -5578.620746 kJ/mol
# Density = 1.633939 g / cm^3
# Si number density = 16.376665 Si / 1000 Ang^3
#
#
#
# Elastic Constant Matrix: (Units=GPa)
#
#
# Indices 1 2 3 4 5 6 
#
# 1 65.7500 32.1392 42.4007 0.0000 -13.3873 0.0000
# 2 32.1392 100.6114 54.1786 0.0000 -25.8198 0.0000
# 3 42.4007 54.1786 128.9170 0.0000 -34.7508 0.0000
# 4 0.0000 0.0000 0.0000 20.1945 0.0000 -1.6837
# 5 -13.3873 -25.8198 -34.7508 0.0000 46.2023 0.0000
# 6 0.0000 0.0000 0.0000 -1.6837 0.0000 19.5895
#
#
#
# Elastic Compliance Matrix: (Units=1/GPa)
#
#
# Indices 1 2 3 4 5 6 
#
# 1 0.020338 -0.003750 -0.005129 0.000000 -0.000061 0.000000
# 2 -0.003750 0.014127 -0.003598 0.000000 0.004102 0.000000
# 3 -0.005129 -0.003598 0.012560 0.000000 0.005950 0.000000
# 4 0.000000 0.000000 0.000000 0.049876 0.000000 0.004287
# 5 -0.000061 0.004102 0.005950 0.000000 0.028394 0.000000
# 6 0.000000 0.000000 0.000000 0.004287 0.000000 0.051416
#
#
# Mechanical properties :
#
#
# Convention : Reuss Voigt Hill
#
# Bulk Modulus (GPa) = 45.31044 61.41283 53.36163
# Shear Modulus (GPa) = 23.92083 28.30123 26.11103
#
# Velocity S-wave (km/s) = 3.82601 4.16160 3.99733
# Velocity P-wave (km/s) = 6.87354 7.78932 7.34572
#
# Compressibility (1/GPa) = 0.02206997
#
# Stress axis : x y z
#
# Youngs Moduli (GPa) = 49.16980 70.78453 79.61822
#
# Poissons Ratio (x) = 0.26545 0.40840
# Poissons Ratio (y) = 0.18439 0.28647
# Poissons Ratio (z) = 0.25221 0.25468
#
# Static dielectric constant tensor:
#      x y z
#    x 1.549870 0.000000 -0.023050 
#    y 0.000000 1.503950 0.000000 
#    z -0.023050 0.000000 1.574660 
# 
# From -- ./inp_files/23061.got.cif
#   From: 2010.05.17/outbox.cif.g08.bks.cpg/sg11_12_cif.got.tgz:23061.got - 2010.06.03 12:22:45.
