data_PCOD9156990
_publ_section_title
;
Structure prediction by ZEFSAII (Michael W. Deem and Ramdas Pophale) SiO2 
 PCOD9156990
Probable space group: P 21/M
;
_chemical_formula_sum "Si O2"
_cell_formula_units_Z 32
_cell_length_a 23.483130
_cell_length_b 17.600437
_cell_length_c 7.788079
_cell_angle_alpha 90.000000
_cell_angle_beta 23.751668
_cell_angle_gamma 90.000000
_cell_volume 1296.493949
_symmetry_space_group_name_H-M "P 21/M"
_symmetry_group_IT_number 11
_symmetry_cell_setting 'monoclinic'
loop_
_space_group_symop_operation_xyz
x,y,z
-x,1/2+y,-z
-x,-y,-z
x,1/2-y,z
loop_
_atom_site_type_symbol
_atom_site_label
_atom_site_fract_x
_atom_site_fract_y
_atom_site_fract_z
Si Si1 0.841816 0.337919 0.294067
Si Si2 0.665475 0.582810 0.675231
Si Si3 0.061951 0.417597 0.878328
Si Si4 0.418230 0.911495 0.121055
Si Si5 0.264164 0.903971 0.920251
Si Si6 0.517506 0.662590 0.399553
Si Si7 0.737549 0.917369 0.997499
Si Si8 0.000569 0.590475 0.463326
O O1 0.867088 0.250000 0.188599
O O2 0.675183 0.354796 0.735440
O O3 0.914895 0.389470 0.944952
O O4 0.927639 0.362815 0.226027
O O5 0.835383 0.582692 0.238027
O O6 0.614887 0.496365 0.855339
O O7 0.582642 0.597208 0.723438
O O8 0.599465 0.639655 0.997203
O O9 0.172202 0.398186 0.422811
O O10 0.000000 0.500000 0.000000
O O11 0.344363 0.905840 0.514646
O O12 0.356780 0.855316 0.793847
O O13 0.105696 0.876969 0.316269
O O14 0.264185 0.991481 0.980950
O O15 0.540090 0.750000 0.377148
O O16 0.583724 0.612659 0.369676
O O17 0.841150 0.885419 0.859975
O O18 0.000000 0.500000 0.500000
#
# Coordination Sequence:
#
# PCOD9156990 Si02
#       8
#     4   4   4   4   4   4   4   4
#     4  10  19  30  50  78 104 129 168 217 262 300
#     4   9  18  30  48  72 100 134 168 210 251 309
#     4  10  18  31  50  73 105 136 172 215 255 304
#     4   9  17  31  49  73 103 131 168 207 261 307
#     4   9  17  31  51  74 100 131 166 207 253 310
#     4  10  20  32  50  77 103 129 168 217 256 294
#     4   9  18  31  50  75 100 130 171 209 252 303
#     4   8  16  29  45  70 103 129 161 202 249 307
#
# _framework density 24.681950000000001
#
# number of rings (size 3 to 8) (size 9 to 14) (size 15 to 20)
#    0.000    2.750    1.250    0.375    0.000    9.000 
#    0.000    0.000    0.000    1.500    0.000    5.250 
#    0.000    0.000    0.000    0.000    0.000    0.000 
#
# Total GULP energy -178687.187318 kJ/mol
# GULP energy per Si atom -5583.974604 kJ/mol
# Density = 2.462577 g / cm^3
# Si number density = 24.681950 Si / 1000 Ang^3
#
#
#
# Elastic Constant Matrix: (Units=GPa)
#
#
# Indices 1 2 3 4 5 6 
#
# 1 124.9438 21.1382 37.2470 0.0000 -40.1097 0.0000
# 2 21.1382 53.6490 9.5395 0.0000 -14.5853 0.0000
# 3 37.2470 9.5395 180.5475 0.0000 -50.4922 0.0000
# 4 0.0000 0.0000 0.0000 19.4440 0.0000 1.9963
# 5 -40.1097 -14.5853 -50.4922 0.0000 56.1542 0.0000
# 6 0.0000 0.0000 0.0000 1.9963 0.0000 11.4920
#
#
#
# Elastic Compliance Matrix: (Units=1/GPa)
#
#
# Indices 1 2 3 4 5 6 
#
# 1 0.010643 -0.002299 -0.000154 0.000000 0.006866 0.000000
# 2 -0.002299 0.020591 0.000565 0.000000 0.004214 0.000000
# 3 -0.000154 0.000565 0.007416 0.000000 0.006705 0.000000
# 4 0.000000 0.000000 0.000000 0.052364 0.000000 -0.009096
# 5 0.006866 0.004214 0.006705 0.000000 0.029836 0.000000
# 6 0.000000 0.000000 0.000000 -0.009096 0.000000 0.088597
#
#
# Mechanical properties :
#
#
# Convention : Reuss Voigt Hill
#
# Bulk Modulus (GPa) = 28.67589 54.99884 41.83736
# Shear Modulus (GPa) = 22.23738 36.83241 29.53489
#
# Velocity S-wave (km/s) = 3.00485 3.86720 3.46297
# Velocity P-wave (km/s) = 4.86644 6.50167 5.74256
#
# Compressibility (1/GPa) = 0.03487250
#
# Stress axis : x y z
#
# Youngs Moduli (GPa) = 93.96120 48.56548 134.84957
#
# Poissons Ratio (x) = 0.11166 0.02075
# Poissons Ratio (y) = 0.21604 -0.07617
# Poissons Ratio (z) = 0.01446 -0.02743
#
# Static dielectric constant tensor:
#      x y z
#    x 2.020570 0.000000 0.020550 
#    y 0.000000 1.820220 0.000000 
#    z 0.020550 0.000000 2.088150 
# 
# From -- ./inp_files/45448.got.cif
#   From: 2010.05.17/outbox.cif.g08.bks.cpg/sg11_23_cif.got.tgz:45448.got - 2010.06.03 12:22:45.
