data_PCOD9156528
_publ_section_title
;
Structure prediction by ZEFSAII (Michael W. Deem and Ramdas Pophale) SiO2 
 PCOD9156528
Probable space group: P 21/M
;
_chemical_formula_sum "Si O2"
_cell_formula_units_Z 32
_cell_length_a 15.484757
_cell_length_b 7.737511
_cell_length_c 15.404090
_cell_angle_alpha 90.000000
_cell_angle_beta 99.450032
_cell_angle_gamma 90.000000
_cell_volume 1820.571022
_symmetry_space_group_name_H-M "P 21/M"
_symmetry_group_IT_number 11
_symmetry_cell_setting 'monoclinic'
loop_
_space_group_symop_operation_xyz
x,y,z
-x,1/2+y,-z
-x,-y,-z
x,1/2-y,z
loop_
_atom_site_type_symbol
_atom_site_label
_atom_site_fract_x
_atom_site_fract_y
_atom_site_fract_z
Si Si1 0.238507 0.550264 0.263860
Si Si2 0.373124 0.960132 0.422500
Si Si3 0.558247 0.950781 0.189328
Si Si4 0.887264 0.957026 0.066372
Si Si5 0.638914 0.949624 0.870080
Si Si6 0.435515 0.545374 0.617130
Si Si7 0.303223 0.461627 0.929139
Si Si8 0.919318 0.459534 0.872163
O O1 0.219983 0.750000 0.282479
O O2 0.289903 0.474443 0.354683
O O3 0.307694 0.545709 0.195849
O O4 0.148830 0.474211 0.210799
O O5 0.371953 0.750000 0.422032
O O6 0.382748 0.018126 0.523748
O O7 0.462406 0.013018 0.388545
O O8 0.543154 0.750000 0.165456
O O9 0.631779 0.019488 0.135912
O O10 0.464536 0.040204 0.162836
O O11 0.586166 0.964584 0.294058
O O12 0.888530 0.750000 0.076617
O O13 0.797332 0.021168 0.093594
O O14 0.980494 0.022789 0.117096
O O15 0.885954 0.994049 0.963070
O O16 0.667295 0.750000 0.869429
O O17 0.660992 0.013421 0.970280
O O18 0.422364 0.750000 0.622607
O O19 0.302713 0.250000 0.927063
O O20 0.919827 0.250000 0.868016
#
# Coordination Sequence:
#
# PCOD9156528 Si02
#       8
#     4   4   4   4   4   4   4   4
#     4  10  18  29  45  69  94 119 145 176 223 273
#     4   9  18  31  47  64  90 119 144 182 229 272
#     4  11  21  33  46  62  88 123 156 190 225 260
#     4   9  16  30  46  63  89 119 149 183 219 260
#     4  11  20  31  45  65  90 121 156 187 215 259
#     4  10  19  31  46  66  87 114 152 188 224 269
#     4   9  19  32  46  63  88 123 158 186 221 260
#     4   9  17  27  45  69  91 114 145 182 221 266
#
# _framework density 17.576902
#
# number of rings (size 3 to 8) (size 9 to 14) (size 15 to 20)
#    0.000    2.250    2.500    1.500    0.000    0.500 
#    0.000    3.125    0.000    0.000    0.000    0.875 
#    0.000    0.000    0.000    0.000    0.000    0.000 
#
# Total GULP energy -178482.053831 kJ/mol
# GULP energy per Si atom -5577.564182 kJ/mol
# Density = 1.753690 g / cm^3
# Si number density = 17.576902 Si / 1000 Ang^3
#
#
#
# Elastic Constant Matrix: (Units=GPa)
#
#
# Indices 1 2 3 4 5 6 
#
# 1 87.2208 -3.5603 53.7008 0.0000 21.6672 0.0000
# 2 -3.5603 29.8614 -5.9507 0.0000 0.7909 0.0000
# 3 53.7008 -5.9507 96.5989 0.0000 24.7050 0.0000
# 4 0.0000 0.0000 0.0000 16.3024 0.0000 -0.0788
# 5 21.6672 0.7909 24.7050 0.0000 32.0898 0.0000
# 6 0.0000 0.0000 0.0000 -0.0788 0.0000 3.9318
#
#
#
# Elastic Compliance Matrix: (Units=1/GPa)
#
#
# Indices 1 2 3 4 5 6 
#
# 1 0.018217 0.000600 -0.008642 0.000000 -0.005662 0.000000
# 2 0.000600 0.034164 0.002603 0.000000 -0.003251 0.000000
# 3 -0.008642 0.002603 0.017234 0.000000 -0.007497 0.000000
# 4 0.000000 0.000000 0.000000 0.061347 0.000000 0.001230
# 5 -0.005662 -0.003251 -0.007497 0.000000 0.040837 0.000000
# 6 0.000000 0.000000 0.000000 0.001230 0.000000 0.254362
#
#
# Mechanical properties :
#
#
# Convention : Reuss Voigt Hill
#
# Bulk Modulus (GPa) = 17.02551 33.56230 25.29390
# Shear Modulus (GPa) = 10.95004 21.76422 16.35713
#
# Velocity S-wave (km/s) = 2.49866 3.52266 3.05389
# Velocity P-wave (km/s) = 4.24638 5.97340 5.18234
#
# Compressibility (1/GPa) = 0.05873540
#
# Stress axis : x y z
#
# Youngs Moduli (GPa) = 54.89382 29.27034 58.02452
#
# Poissons Ratio (x) = -0.01755 0.50146
# Poissons Ratio (y) = -0.03292 -0.15101
# Poissons Ratio (z) = 0.47441 -0.07618
#
# Static dielectric constant tensor:
#      x y z
#    x 1.603690 0.000000 0.035090 
#    y 0.000000 1.612090 0.000000 
#    z 0.035090 0.000000 1.604150 
# 
# From -- ./inp_files/51391.got.cif
#   From: 2010.05.17/outbox.cif.g08.bks.cpg/sg11_26_cif.got.tgz:51391.got - 2010.06.03 12:22:45.
