data_PCOD9156787
_publ_section_title
;
Structure prediction by ZEFSAII (Michael W. Deem and Ramdas Pophale) SiO2 
 PCOD9156787
Probable space group: P 21/M
;
_chemical_formula_sum "Si O2"
_cell_formula_units_Z 32
_cell_length_a 11.934439
_cell_length_b 8.523037
_cell_length_c 22.616765
_cell_angle_alpha 90.000000
_cell_angle_beta 124.425170
_cell_angle_gamma 90.000000
_cell_volume 1897.622693
_symmetry_space_group_name_H-M "P 21/M"
_symmetry_group_IT_number 11
_symmetry_cell_setting 'monoclinic'
loop_
_space_group_symop_operation_xyz
x,y,z
-x,1/2+y,-z
-x,-y,-z
x,1/2-y,z
loop_
_atom_site_type_symbol
_atom_site_label
_atom_site_fract_x
_atom_site_fract_y
_atom_site_fract_z
Si Si1 0.418979 0.062099 0.648103
Si Si2 0.306201 0.561833 0.916560
Si Si3 0.874316 0.440708 0.626552
Si Si4 0.860671 0.061358 0.485623
Si Si5 0.572460 0.435044 0.930187
Si Si6 0.160799 0.438510 0.766254
Si Si7 0.571183 0.065099 0.219599
Si Si8 0.416459 0.939914 0.418392
O O1 0.423929 0.250000 0.652604
O O2 0.513674 0.008687 0.621818
O O3 0.266985 0.008393 0.586943
O O4 0.456935 0.994190 0.723065
O O5 0.326400 0.750000 0.917670
O O6 0.434137 0.474203 0.924817
O O7 0.183096 0.510243 0.838179
O O8 0.310390 0.522111 0.987530
O O9 0.877302 0.250000 0.628214
O O10 0.855569 0.487726 0.552800
O O11 0.740190 0.490672 0.621947
O O12 0.018877 0.492542 0.695494
O O13 0.855685 0.250000 0.481234
O O14 0.000000 0.000000 0.500000
O O15 0.579448 0.250000 0.920815
O O16 0.549966 0.522224 0.861905
O O17 0.161247 0.250000 0.770407
O O18 0.289738 0.488318 0.764491
O O19 0.592190 0.250000 0.225564
O O20 0.420064 0.750000 0.421025
O O21 0.500000 0.000000 0.500000
#
# Coordination Sequence:
#
# PCOD9156787 Si02
#       8
#     4   4   4   4   4   4   4   4
#     4  11  22  35  52  73  97 127 165 206 252 300
#     4   9  16  26  42  67  99 132 164 198 238 287
#     4   9  19  34  51  71  96 127 161 202 248 289
#     4  11  21  34  52  72 101 132 164 201 242 296
#     4   9  16  27  44  66  96 132 166 199 238 288
#     4  10  18  30  49  72 102 135 165 200 243 295
#     4  11  21  32  48  71 102 134 165 204 246 293
#     4  10  20  37  57  74  93 122 164 212 254 295
#
# _framework density 16.863204
#
# number of rings (size 3 to 8) (size 9 to 14) (size 15 to 20)
#    0.000    2.000    1.250    5.250    0.000    3.000 
#    0.000    3.125    0.000    0.000    0.000    0.875 
#    0.000    0.000    0.000    0.000    0.000    0.000 
#
# Total GULP energy -178451.909793 kJ/mol
# GULP energy per Si atom -5576.622181 kJ/mol
# Density = 1.682482 g / cm^3
# Si number density = 16.863204 Si / 1000 Ang^3
#
#
#
# Elastic Constant Matrix: (Units=GPa)
#
#
# Indices 1 2 3 4 5 6 
#
# 1 68.8550 13.9146 32.1071 0.0000 -23.3090 0.0000
# 2 13.9146 33.5874 19.7309 0.0000 -4.6363 0.0000
# 3 32.1071 19.7309 129.2552 0.0000 -27.6651 0.0000
# 4 0.0000 0.0000 0.0000 30.9006 0.0000 -2.1185
# 5 -23.3090 -4.6363 -27.6651 0.0000 13.6609 0.0000
# 6 0.0000 0.0000 0.0000 -2.1185 0.0000 12.7511
#
#
#
# Elastic Compliance Matrix: (Units=1/GPa)
#
#
# Indices 1 2 3 4 5 6 
#
# 1 0.042008 -0.011186 0.010240 0.000000 0.088616 0.000000
# 2 -0.011186 0.035708 -0.007349 0.000000 -0.021850 0.000000
# 3 0.010240 -0.007349 0.016804 0.000000 0.049008 0.000000
# 4 0.000000 0.000000 0.000000 0.032735 0.000000 0.005439
# 5 0.088616 -0.021850 0.049008 0.000000 0.316235 0.000000
# 6 0.000000 0.000000 0.000000 0.005439 0.000000 0.079328
#
#
# Mechanical properties :
#
#
# Convention : Reuss Voigt Hill
#
# Bulk Modulus (GPa) = 12.83207 40.35587 26.59397
# Shear Modulus (GPa) = 8.84352 22.52552 15.68452
#
# Velocity S-wave (km/s) = 2.29252 3.65880 3.05307
# Velocity P-wave (km/s) = 3.82538 6.46779 5.31347
#
# Compressibility (1/GPa) = 0.07792973
#
# Stress axis : x y z
#
# Youngs Moduli (GPa) = 23.80514 28.00472 59.50839
#
# Poissons Ratio (x) = 0.31326 -0.60935
# Poissons Ratio (y) = 0.26629 0.43732
# Poissons Ratio (z) = -0.24376 0.20580
#
# Static dielectric constant tensor:
#      x y z
#    x 1.539750 0.000000 -0.008040 
#    y 0.000000 1.581980 0.000000 
#    z -0.008040 0.000000 1.601490 
# 
# From -- ./inp_files/64235.got.cif
#   From: 2010.05.17/outbox.cif.g08.bks.cpg/sg11_33_cif.got.tgz:64235.got - 2010.06.03 12:22:45.
