data_PCOD9156354
_publ_section_title
;
Structure prediction by ZEFSAII (Michael W. Deem and Ramdas Pophale) SiO2 
 PCOD9156354
Probable space group: P 21/M
;
_chemical_formula_sum "Si O2"
_cell_formula_units_Z 32
_cell_length_a 12.531774
_cell_length_b 8.596466
_cell_length_c 24.312243
_cell_angle_alpha 90.000000
_cell_angle_beta 138.534418
_cell_angle_gamma 90.000000
_cell_volume 1734.311283
_symmetry_space_group_name_H-M "P 21/M"
_symmetry_group_IT_number 11
_symmetry_cell_setting 'monoclinic'
loop_
_space_group_symop_operation_xyz
x,y,z
-x,1/2+y,-z
-x,-y,-z
x,1/2-y,z
loop_
_atom_site_type_symbol
_atom_site_label
_atom_site_fract_x
_atom_site_fract_y
_atom_site_fract_z
Si Si1 0.893991 0.064655 0.409446
Si Si2 0.727688 0.930896 0.754105
Si Si3 0.038408 0.573619 0.072436
Si Si4 0.259921 0.073643 0.960686
Si Si5 0.006658 0.563837 0.779831
Si Si6 0.124317 0.065273 0.714068
Si Si7 0.485838 0.937241 0.853704
Si Si8 0.466416 0.065613 0.727856
O O1 0.903095 0.250000 0.410783
O O2 0.945904 0.993918 0.370815
O O3 0.708414 0.012686 0.344799
O O4 0.000000 0.000000 0.500000
O O5 0.688875 0.750000 0.730870
O O6 0.843057 0.986421 0.748745
O O7 0.846063 0.956599 0.851219
O O8 0.571583 0.021902 0.715023
O O9 0.106714 0.750000 0.095650
O O10 0.875400 0.583896 0.044313
O O11 0.000000 0.500000 0.000000
O O12 0.296341 0.250000 0.955280
O O13 0.166828 0.982740 0.876623
O O14 0.413164 0.009004 0.053561
O O15 0.002687 0.750000 0.774124
O O16 0.020541 0.486006 0.726080
O O17 0.144619 0.250000 0.720265
O O18 0.300291 0.986558 0.788193
O O19 0.500559 0.750000 0.857098
O O20 0.538683 0.004577 0.814398
O O21 0.448670 0.250000 0.725377
#
# Coordination Sequence:
#
# PCOD9156354 Si02
#       8
#     4   4   4   4   4   4   4   4
#     4  11  22  40  65  92 119 142 171 211 261 319
#     4  10  20  34  51  73 103 141 184 227 271 320
#     4  10  18  28  43  65  95 133 179 229 279 326
#     4   9  19  32  46  67  98 138 184 232 277 321
#     4  10  21  36  54  75 103 144 191 232 272 319
#     4  11  22  37  57  81 110 143 180 221 270 325
#     4  10  19  33  52  75 106 143 185 233 282 325
#     4  11  21  34  55  84 114 144 180 221 273 327
#
# _framework density 18.451127
#
# number of rings (size 3 to 8) (size 9 to 14) (size 15 to 20)
#    0.000    1.750    0.000    7.125    0.000    4.500 
#    0.000    0.000    0.000    0.750    0.000    0.000 
#    0.000    0.000    0.000    0.000    0.000    0.000 
#
# Total GULP energy -178558.331487 kJ/mol
# GULP energy per Si atom -5579.947859 kJ/mol
# Density = 1.840913 g / cm^3
# Si number density = 18.451127 Si / 1000 Ang^3
#
#
#
# Elastic Constant Matrix: (Units=GPa)
#
#
# Indices 1 2 3 4 5 6 
#
# 1 97.0657 21.3435 36.9940 0.0000 -21.9283 0.0000
# 2 21.3435 74.0137 19.1699 0.0000 -11.5500 0.0000
# 3 36.9940 19.1699 78.8344 0.0000 -21.8678 0.0000
# 4 0.0000 0.0000 0.0000 25.9444 0.0000 0.2784
# 5 -21.9283 -11.5500 -21.8678 0.0000 19.8954 0.0000
# 6 0.0000 0.0000 0.0000 0.2784 0.0000 24.1052
#
#
#
# Elastic Compliance Matrix: (Units=1/GPa)
#
#
# Indices 1 2 3 4 5 6 
#
# 1 0.014470 -0.001542 -0.003222 0.000000 0.011512 0.000000
# 2 -0.001542 0.015192 -0.001432 0.000000 0.005546 0.000000
# 3 -0.003222 -0.001432 0.019176 0.000000 0.016694 0.000000
# 4 0.000000 0.000000 0.000000 0.038549 0.000000 -0.000445
# 5 0.011512 0.005546 0.016694 0.000000 0.084521 0.000000
# 6 0.000000 0.000000 0.000000 -0.000445 0.000000 0.041490
#
#
# Mechanical properties :
#
#
# Convention : Reuss Voigt Hill
#
# Bulk Modulus (GPa) = 27.43794 44.99204 36.21499
# Shear Modulus (GPa) = 21.01389 25.48276 23.24832
#
# Velocity S-wave (km/s) = 3.37841 3.72034 3.55349
# Velocity P-wave (km/s) = 5.48827 6.54919 6.04206
#
# Compressibility (1/GPa) = 0.03644589
#
# Stress axis : x y z
#
# Youngs Moduli (GPa) = 69.10841 65.82387 52.14881
#
# Poissons Ratio (x) = 0.10148 0.16802
# Poissons Ratio (y) = 0.10655 0.07469
# Poissons Ratio (z) = 0.22267 0.09428
#
# Static dielectric constant tensor:
#      x y z
#    x 1.680000 0.000000 0.014040 
#    y 0.000000 1.629950 0.000000 
#    z 0.014040 0.000000 1.584950 
# 
# From -- ./inp_files/68318.got.cif
#   From: 2010.05.17/outbox.cif.g08.bks.cpg/sg11_35_cif.got.tgz:68318.got - 2010.06.03 12:22:45.
