data_PCOD9156776
_publ_section_title
;
Structure prediction by ZEFSAII (Michael W. Deem and Ramdas Pophale) SiO2 
 PCOD9156776
Probable space group: P 21/M
;
_chemical_formula_sum "Si O2"
_cell_formula_units_Z 32
_cell_length_a 16.425606
_cell_length_b 7.752059
_cell_length_c 14.908098
_cell_angle_alpha 90.000000
_cell_angle_beta 117.405211
_cell_angle_gamma 90.000000
_cell_volume 1685.244428
_symmetry_space_group_name_H-M "P 21/M"
_symmetry_group_IT_number 11
_symmetry_cell_setting 'monoclinic'
loop_
_space_group_symop_operation_xyz
x,y,z
-x,1/2+y,-z
-x,-y,-z
x,1/2-y,z
loop_
_atom_site_type_symbol
_atom_site_label
_atom_site_fract_x
_atom_site_fract_y
_atom_site_fract_z
Si Si1 0.059606 0.539601 0.884345
Si Si2 0.051657 0.541665 0.673650
Si Si3 0.155999 0.549136 0.419847
Si Si4 0.233079 0.547335 0.082640
Si Si5 0.611747 0.044798 0.153748
Si Si6 0.145523 0.049718 0.211366
Si Si7 0.777725 0.461943 0.360705
Si Si8 0.595411 0.040813 0.941475
O O1 0.055924 0.750000 0.887350
O O2 0.077468 0.496585 0.789314
O O3 0.957319 0.475618 0.855951
O O4 0.141557 0.475673 0.988242
O O5 0.044552 0.750000 0.665864
O O6 0.130536 0.485365 0.646011
O O7 0.950635 0.468881 0.605513
O O8 0.176854 0.750000 0.418143
O O9 0.165515 0.466012 0.327054
O O10 0.215231 0.480082 0.532785
O O11 0.233449 0.750000 0.060792
O O12 0.218618 0.530160 0.181149
O O13 0.326662 0.478125 0.087369
O O14 0.626598 0.250000 0.155539
O O15 0.689301 0.978327 0.260333
O O16 0.508021 0.013739 0.132795
O O17 0.617857 0.979090 0.054295
O O18 0.142511 0.250000 0.186864
O O19 0.777817 0.250000 0.362327
O O20 0.594819 0.250000 0.942511
#
# Coordination Sequence:
#
# PCOD9156776 Si02
#       8
#     4   4   4   4   4   4   4   4
#     4   8  15  27  45  68  94 124 154 185 223 272
#     4   9  16  29  47  69  98 127 156 189 227 273
#     4  10  19  31  46  67  95 126 161 196 230 269
#     4  10  18  30  49  70  93 123 157 191 231 277
#     4   9  17  32  52  72  97 127 154 183 226 280
#     4  10  20  33  47  66  93 125 161 197 233 271
#     4   9  17  29  49  72  93 124 162 193 225 273
#     4   9  18  31  49  74 100 123 149 186 232 279
#
# _framework density 18.988344000000001
#
# number of rings (size 3 to 8) (size 9 to 14) (size 15 to 20)
#    0.000    2.750    0.000    3.000    0.000    3.500 
#    0.000    5.000    0.000    5.250    0.000    0.000 
#    0.000    0.000    0.000    0.000    0.000    0.000 
#
# Total GULP energy -178497.294668 kJ/mol
# GULP energy per Si atom -5578.040458 kJ/mol
# Density = 1.894513 g / cm^3
# Si number density = 18.988344 Si / 1000 Ang^3
#
#
#
# Elastic Constant Matrix: (Units=GPa)
#
#
# Indices 1 2 3 4 5 6 
#
# 1 113.0019 -9.7257 51.6937 0.0000 -13.1580 0.0000
# 2 -9.7257 21.6317 -8.6539 0.0000 0.3467 0.0000
# 3 51.6937 -8.6539 103.3721 0.0000 7.0022 0.0000
# 4 0.0000 0.0000 0.0000 12.6194 0.0000 0.5092
# 5 -13.1580 0.3467 7.0022 0.0000 13.3085 0.0000
# 6 0.0000 0.0000 0.0000 0.5092 0.0000 18.7953
#
#
#
# Elastic Compliance Matrix: (Units=1/GPa)
#
#
# Indices 1 2 3 4 5 6 
#
# 1 0.015460 0.003106 -0.008815 0.000000 0.019842 0.000000
# 2 0.003106 0.048610 0.002482 0.000000 0.000499 0.000000
# 3 -0.008815 0.002482 0.015435 0.000000 -0.016901 0.000000
# 4 0.000000 0.000000 0.000000 0.079330 0.000000 -0.002149
# 5 0.019842 0.000499 -0.016901 0.000000 0.103637 0.000000
# 6 0.000000 0.000000 0.000000 -0.002149 0.000000 0.053263
#
#
# Mechanical properties :
#
#
# Convention : Reuss Voigt Hill
#
# Bulk Modulus (GPa) = 13.68900 33.84824 23.76862
# Shear Modulus (GPa) = 14.42848 22.59074 18.50961
#
# Velocity S-wave (km/s) = 2.75955 3.45297 3.12555
# Velocity P-wave (km/s) = 4.16873 5.81049 5.05668
#
# Compressibility (1/GPa) = 0.07305135
#
# Stress axis : x y z
#
# Youngs Moduli (GPa) = 64.68465 20.57188 64.78979
#
# Poissons Ratio (x) = -0.06390 0.57112
# Poissons Ratio (y) = -0.20093 -0.16083
# Poissons Ratio (z) = 0.57019 -0.05107
#
# Static dielectric constant tensor:
#      x y z
#    x 1.647590 0.000000 -0.006520 
#    y 0.000000 1.699210 0.000000 
#    z -0.006520 0.000000 1.664180 
# 
# From -- ./inp_files/51772.got.cif
#   From: 2010.05.17/outbox.cif.g08.bks.cpg/sg11_26_cif.got.tgz:51772.got - 2010.06.03 12:22:45.
