data_PCOD9156017
_publ_section_title
;
Structure prediction by ZEFSAII (Michael W. Deem and Ramdas Pophale) SiO2 
 PCOD9156017
Probable space group: P 21/M
;
_chemical_formula_sum "Si O2"
_cell_formula_units_Z 28
_cell_length_a 19.001859
_cell_length_b 8.555157
_cell_length_c 14.262555
_cell_angle_alpha 90.000000
_cell_angle_beta 48.192320
_cell_angle_gamma 90.000000
_cell_volume 1728.235881
_symmetry_space_group_name_H-M "P 21/M"
_symmetry_group_IT_number 11
_symmetry_cell_setting 'monoclinic'
loop_
_space_group_symop_operation_xyz
x,y,z
-x,1/2+y,-z
-x,-y,-z
x,1/2-y,z
loop_
_atom_site_type_symbol
_atom_site_label
_atom_site_fract_x
_atom_site_fract_y
_atom_site_fract_z
Si Si1 0.169442 0.939686 0.504374
Si Si2 0.225177 0.937602 0.242762
Si Si3 0.399878 0.436456 0.627880
Si Si4 0.969101 0.938084 0.629663
Si Si5 0.671928 0.061868 0.491894
Si Si6 0.527786 0.436377 0.253767
Si Si7 0.576326 0.936344 0.005938
O O1 0.171458 0.750000 0.502114
O O2 0.206181 0.987260 0.368154
O O3 0.240431 0.991724 0.522221
O O4 0.059335 0.984283 0.612734
O O5 0.232998 0.750000 0.234411
O O6 0.133764 0.989661 0.264079
O O7 0.320351 0.012984 0.120430
O O8 0.500000 0.500000 0.500000
O O9 0.477126 0.750000 0.736676
O O10 0.326770 0.496752 0.615087
O O11 0.397656 0.502104 0.734942
O O12 0.962104 0.750000 0.634575
O O13 0.000000 0.000000 0.500000
O O14 0.669845 0.250000 0.490332
O O15 0.574841 0.004872 0.626828
O O16 0.598679 0.750000 0.371820
O O17 0.554945 0.491986 0.126563
O O18 0.569320 0.750000 0.017273
O O19 0.500000 0.000000 0.000000
#
# Coordination Sequence:
#
# PCOD9156017 Si02
#       7
#     4   4   4   4   4   4   4
#     4   8  16  28  46  69  96 125 156 193 237 280
#     4  10  19  33  49  69  96 129 164 200 237 281
#     4  10  18  30  46  67  93 123 157 197 240 287
#     4   9  16  29  46  67  93 125 161 199 240 286
#     4  10  17  29  48  71  97 127 159 198 242 286
#     4  11  21  34  49  68  94 128 164 199 235 281
#     4  12  24  37  51  71  97 129 163 198 234 277
#
# _framework density 16.201491000000001
#
# number of rings (size 3 to 8) (size 9 to 14) (size 15 to 20)
#    0.000    2.000    0.000    8.571    0.000    1.143 
#    0.000    7.857    0.000    0.000    0.000    1.000 
#    0.000    0.000    0.000    0.000    0.000    0.000 
#
# Total GULP energy -156131.738541 kJ/mol
# GULP energy per Si atom -5576.133519 kJ/mol
# Density = 1.616462 g / cm^3
# Si number density = 16.201491 Si / 1000 Ang^3
#
#
#
# Elastic Constant Matrix: (Units=GPa)
#
#
# Indices 1 2 3 4 5 6 
#
# 1 162.2629 39.4018 58.6093 0.0000 5.0524 0.0000
# 2 39.4018 101.2404 21.9514 0.0000 5.4095 0.0000
# 3 58.6093 21.9514 64.0281 0.0000 2.8496 0.0000
# 4 0.0000 0.0000 0.0000 23.4620 0.0000 0.1184
# 5 5.0524 5.4095 2.8496 0.0000 28.8565 0.0000
# 6 0.0000 0.0000 0.0000 0.1184 0.0000 26.1700
#
#
#
# Elastic Compliance Matrix: (Units=1/GPa)
#
#
# Indices 1 2 3 4 5 6 
#
# 1 0.009564 -0.001946 -0.008065 0.000000 -0.000513 0.000000
# 2 -0.001946 0.011145 -0.001970 0.000000 -0.001554 0.000000
# 3 -0.008065 -0.001970 0.023701 0.000000 -0.000559 0.000000
# 4 0.000000 0.000000 0.000000 0.042623 0.000000 -0.000193
# 5 -0.000513 -0.001554 -0.000559 0.000000 0.035091 0.000000
# 6 0.000000 0.000000 0.000000 -0.000193 0.000000 0.038213
#
#
# Mechanical properties :
#
#
# Convention : Reuss Voigt Hill
#
# Bulk Modulus (GPa) = 48.90555 63.05071 55.97813
# Shear Modulus (GPa) = 26.16217 29.53562 27.84889
#
# Velocity S-wave (km/s) = 4.02282 4.27431 4.15047
# Velocity P-wave (km/s) = 7.19922 7.95995 7.58912
#
# Compressibility (1/GPa) = 0.02044758
#
# Stress axis : x y z
#
# Youngs Moduli (GPa) = 104.55353 89.72471 42.19259
#
# Poissons Ratio (x) = 0.17463 0.34028
# Poissons Ratio (y) = 0.20349 0.08313
# Poissons Ratio (z) = 0.84321 0.17678
#
# Static dielectric constant tensor:
#      x y z
#    x 1.585680 0.000000 0.002420 
#    y 0.000000 1.546060 0.000000 
#    z 0.002420 0.000000 1.502800 
# 
# From -- ./inp_files/52871.got.cif
#   From: 2010.05.17/outbox.cif.g08.bks.cpg/sg11_27_cif.got.tgz:52871.got - 2010.06.03 12:22:45.
