data_PCOD9156046
_publ_section_title
;
Structure prediction by ZEFSAII (Michael W. Deem and Ramdas Pophale) SiO2 
 PCOD9156046
Probable space group: P 21/M
;
_chemical_formula_sum "Si O2"
_cell_formula_units_Z 24
_cell_length_a 5.427928
_cell_length_b 15.536288
_cell_length_c 13.016589
_cell_angle_alpha 90.000000
_cell_angle_beta 77.725722
_cell_angle_gamma 90.000000
_cell_volume 1072.595128
_symmetry_space_group_name_H-M "P 21/M"
_symmetry_group_IT_number 11
_symmetry_cell_setting 'monoclinic'
loop_
_space_group_symop_operation_xyz
x,y,z
-x,1/2+y,-z
-x,-y,-z
x,1/2-y,z
loop_
_atom_site_type_symbol
_atom_site_label
_atom_site_fract_x
_atom_site_fract_y
_atom_site_fract_z
Si Si1 0.278580 0.385646 0.443655
Si Si2 0.924972 0.650533 0.144172
Si Si3 0.510979 0.396305 0.981381
Si Si4 0.128816 0.987245 0.737008
Si Si5 0.251293 0.919325 0.497946
Si Si6 0.601668 0.604575 0.790237
O O1 0.494297 0.367296 0.507092
O O2 0.285194 0.492131 0.431886
O O3 0.338760 0.350179 0.324904
O O4 0.998249 0.367521 0.507341
O O5 0.911855 0.750000 0.171304
O O6 0.875388 0.588264 0.244771
O O7 0.707837 0.629085 0.079498
O O8 0.207081 0.628803 0.078563
O O9 0.452022 0.351828 0.096444
O O10 0.500000 0.500000 0.000000
O O11 0.189918 0.954981 0.617867
O O12 0.347312 0.948286 0.788841
O O13 0.853883 0.950703 0.787578
#
# Coordination Sequence:
#
# PCOD9156046 Si02
#       6
#     4   4   4   4   4   4
#     4   8  14  24  37  66  93 118 146 195 239 282
#     4  12  24  36  50  74 105 134 170 213 256 305
#     4  12  21  36  55  74  98 137 175 212 251 303
#     4  10  17  30  46  70  95 131 158 199 247 301
#     4   8  14  23  40  60  95 122 146 184 244 288
#     4  10  18  28  50  71  95 123 168 202 247 290
#
# _framework density 22.375637000000001
#
# number of rings (size 3 to 8) (size 9 to 14) (size 15 to 20)
#    0.000    2.000    3.333    2.000    0.000    0.000 
#    0.000    0.000    0.000    0.000    0.000    2.333 
#    0.000    0.000    0.000    0.000    0.000    0.333 
#
# Total GULP energy -133873.226187 kJ/mol
# GULP energy per Si atom -5578.051091 kJ/mol
# Density = 2.232471 g / cm^3
# Si number density = 22.375637 Si / 1000 Ang^3
#
#
#
# Elastic Constant Matrix: (Units=GPa)
#
#
# Indices 1 2 3 4 5 6 
#
# 1 223.3385 25.7092 14.2007 0.0000 9.0489 0.0000
# 2 25.7092 89.7821 -2.3895 0.0000 3.5659 0.0000
# 3 14.2007 -2.3895 67.6008 0.0000 -0.0490 0.0000
# 4 0.0000 0.0000 0.0000 -2.3077 0.0000 0.3453
# 5 9.0489 3.5659 -0.0490 0.0000 -0.7228 0.0000
# 6 0.0000 0.0000 0.0000 0.3453 0.0000 6.3863
#
#
#
# Elastic Compliance Matrix: (Units=1/GPa)
#
#
# Indices 1 2 3 4 5 6 
#
# 1 0.003484 -0.002302 -0.000790 0.000000 0.032309 0.000000
# 2 -0.002302 0.010843 0.000885 0.000000 0.024617 0.000000
# 3 -0.000790 0.000885 0.014985 0.000000 -0.006539 0.000000
# 4 0.000000 0.000000 0.000000 -0.429859 0.000000 0.023240
# 5 0.032309 0.024617 -0.006539 0.000000 -0.857109 0.000000
# 6 0.000000 0.000000 0.000000 0.023240 0.000000 0.155328
#
#
# Mechanical properties :
#
#
# Convention : Reuss Voigt Hill
#
# Bulk Modulus (GPa) = 40.16373 50.64024 45.40199
# Shear Modulus (GPa) = -4.58878 23.55123 9.48123
#
# Velocity S-wave (km/s) = -1.43361 3.24781 2.06070
# Velocity P-wave (km/s) = 3.90492 6.06179 5.09871
#
# Compressibility (1/GPa) = 0.02489808
#
# Stress axis : x y z
#
# Youngs Moduli (GPa) = 287.05721 92.22511 66.73272
#
# Poissons Ratio (x) = 0.21228 0.05270
# Poissons Ratio (y) = 0.66075 -0.05904
# Poissons Ratio (z) = 0.22669 -0.08159
#
# Static dielectric constant tensor:
#      x y z
#    x 1.925840 0.000000 -0.000070 
#    y 0.000000 1.806540 0.000000 
#    z -0.000070 0.000000 1.864910 
# 
# From -- ./inp_files/6471.got.cif
#   From: 2010.05.17/outbox.cif.g08.bks.cpg/sg11_4_cif.got.tgz:6471.got - 2010.06.03 12:22:45.
