data_PCOD9156489
_publ_section_title
;
Structure prediction by ZEFSAII (Michael W. Deem and Ramdas Pophale) SiO2 
 PCOD9156489
Probable space group: P 21/M
;
_chemical_formula_sum "Si O2"
_cell_formula_units_Z 32
_cell_length_a 24.752087
_cell_length_b 8.347876
_cell_length_c 17.874887
_cell_angle_alpha 90.000000
_cell_angle_beta 146.881300
_cell_angle_gamma 90.000000
_cell_volume 2018.004870
_symmetry_space_group_name_H-M "P 21/M"
_symmetry_group_IT_number 11
_symmetry_cell_setting 'monoclinic'
loop_
_space_group_symop_operation_xyz
x,y,z
-x,1/2+y,-z
-x,-y,-z
x,1/2-y,z
loop_
_atom_site_type_symbol
_atom_site_label
_atom_site_fract_x
_atom_site_fract_y
_atom_site_fract_z
Si Si1 0.780092 0.054664 0.724071
Si Si2 0.929731 0.061641 0.022487
Si Si3 0.760278 0.562219 0.931407
Si Si4 0.887191 0.942356 0.380302
Si Si5 0.389486 0.942497 0.357767
Si Si6 0.924784 0.941722 0.584772
Si Si7 0.152085 0.558775 0.822355
Si Si8 0.131423 0.937531 0.320807
O O1 0.781387 0.250000 0.725146
O O2 0.683775 0.005988 0.659274
O O3 0.791735 0.998883 0.652380
O O4 0.876122 0.005950 0.884298
O O5 0.954591 0.250000 0.046122
O O6 0.024826 0.965183 0.158598
O O7 0.845202 0.038078 0.987134
O O8 0.778429 0.750000 0.940408
O O9 0.658618 0.513429 0.773419
O O10 0.772519 0.520508 0.032413
O O11 0.882478 0.750000 0.369962
O O12 0.866731 0.993264 0.442274
O O13 0.830227 0.014989 0.243726
O O14 0.000000 0.000000 0.500000
O O15 0.386202 0.750000 0.349765
O O16 0.500000 0.000000 0.500000
O O17 0.931284 0.750000 0.588965
O O18 0.039676 0.998856 0.713062
O O19 0.875245 0.987389 0.605130
O O20 0.154727 0.750000 0.834107
O O21 0.148950 0.750000 0.351020
#
# Coordination Sequence:
#
# PCOD9156489 Si02
#       8
#     4   4   4   4   4   4   4   4
#     4   8  18  32  45  63  87 116 148 187 228 266
#     4  10  18  30  43  58  88 122 151 189 231 260
#     4  11  20  30  47  70  91 118 156 189 225 274
#     4   9  17  28  41  57  82 117 158 193 227 267
#     4  10  20  37  55  70  92 117 146 188 236 279
#     4   9  18  29  40  57  87 124 155 188 231 263
#     4  10  18  29  44  62  89 119 152 192 233 266
#     4  11  19  27  42  63  87 119 158 189 218 264
#
# _framework density 15.857245000000001
#
# number of rings (size 3 to 8) (size 9 to 14) (size 15 to 20)
#    0.000    2.250    1.250    4.875    0.000    2.500 
#    0.000    6.875    0.000    0.000    0.000    0.000 
#    0.000    1.000    0.000    3.000    0.000    4.625 
#
# Total GULP energy -178342.823563 kJ/mol
# GULP energy per Si atom -5573.213236 kJ/mol
# Density = 1.582115 g / cm^3
# Si number density = 15.857245 Si / 1000 Ang^3
#
#
#
# Elastic Constant Matrix: (Units=GPa)
#
#
# Indices 1 2 3 4 5 6 
#
# 1 99.0341 6.6056 51.0710 0.0000 -32.8933 0.0000
# 2 6.6056 28.2305 7.8093 0.0000 -6.4951 0.0000
# 3 51.0710 7.8093 75.5452 0.0000 -18.7189 0.0000
# 4 0.0000 0.0000 0.0000 20.6383 0.0000 -5.6235
# 5 -32.8933 -6.4951 -18.7189 0.0000 24.8372 0.0000
# 6 0.0000 0.0000 0.0000 -5.6235 0.0000 16.9769
#
#
#
# Elastic Compliance Matrix: (Units=1/GPa)
#
#
# Indices 1 2 3 4 5 6 
#
# 1 0.022815 0.002803 -0.009892 0.000000 0.023492 0.000000
# 2 0.002803 0.038232 -0.003012 0.000000 0.011440 0.000000
# 3 -0.009892 -0.003012 0.020651 0.000000 0.001675 0.000000
# 4 0.000000 0.000000 0.000000 0.053261 0.000000 0.017642
# 5 0.023492 0.011440 0.001675 0.000000 0.075628 0.000000
# 6 0.000000 0.000000 0.000000 0.017642 0.000000 0.064747
#
#
# Mechanical properties :
#
#
# Convention : Reuss Voigt Hill
#
# Bulk Modulus (GPa) = 16.26164 37.08685 26.67424
# Shear Modulus (GPa) = 15.82099 21.64542 18.73321
#
# Velocity S-wave (km/s) = 3.16209 3.69862 3.44083
# Velocity P-wave (km/s) = 4.85891 6.45589 5.71347
#
# Compressibility (1/GPa) = 0.06149443
#
# Stress axis : x y z
#
# Youngs Moduli (GPa) = 43.83159 26.15607 48.42356
#
# Poissons Ratio (x) = -0.07332 0.47901
# Poissons Ratio (y) = -0.12286 0.14588
# Poissons Ratio (z) = 0.43359 0.07879
#
# Static dielectric constant tensor:
#      x y z
#    x 1.571210 0.000000 -0.038980 
#    y 0.000000 1.556260 0.000000 
#    z -0.038980 0.000000 1.515390 
# 
# From -- ./inp_files/59865.got.cif
#   From: 2010.05.17/outbox.cif.g08.bks.cpg/sg11_30_cif.got.tgz:59865.got - 2010.06.03 12:22:45.
