data_PCOD9156546
_publ_section_title
;
Structure prediction by ZEFSAII (Michael W. Deem and Ramdas Pophale) SiO2 
 PCOD9156546
Probable space group: P 21/M
;
_chemical_formula_sum "Si O2"
_cell_formula_units_Z 24
_cell_length_a 20.382072
_cell_length_b 8.581117
_cell_length_c 11.726976
_cell_angle_alpha 90.000000
_cell_angle_beta 43.674776
_cell_angle_gamma 90.000000
_cell_volume 1416.387762
_symmetry_space_group_name_H-M "P 21/M"
_symmetry_group_IT_number 11
_symmetry_cell_setting 'monoclinic'
loop_
_space_group_symop_operation_xyz
x,y,z
-x,1/2+y,-z
-x,-y,-z
x,1/2-y,z
loop_
_atom_site_type_symbol
_atom_site_label
_atom_site_fract_x
_atom_site_fract_y
_atom_site_fract_z
Si Si1 0.643505 0.937861 0.764943
Si Si2 0.213816 0.937263 0.818385
Si Si3 0.822020 0.937374 0.391263
Si Si4 0.445658 0.562038 0.899842
Si Si5 0.587803 0.438349 0.316440
Si Si6 0.981809 0.935884 0.894972
O O1 0.642993 0.750000 0.769460
O O2 0.740697 0.986904 0.582059
O O3 0.551802 0.987395 0.805108
O O4 0.625421 0.001363 0.913954
O O5 0.208882 0.750000 0.818649
O O6 0.312316 0.985311 0.752855
O O7 0.206976 0.003505 0.698489
O O8 0.122142 0.998906 0.002783
O O9 0.826726 0.750000 0.381879
O O10 0.926439 0.003485 0.288010
O O11 0.443738 0.750000 0.903480
O O12 0.421832 0.508848 0.802463
O O13 0.500000 0.500000 0.500000
O O14 0.584666 0.250000 0.320921
O O15 0.980485 0.750000 0.898330
O O16 0.000000 0.000000 0.000000
#
# Coordination Sequence:
#
# PCOD9156546 Si02
#       6
#     4   4   4   4   4   4
#     4   9  18  31  49  71  94 123 157 194 235 278
#     4  10  19  31  47  70  99 128 159 193 235 283
#     4  10  18  30  49  72  98 125 157 197 239 282
#     4   9  18  33  49  68  96 126 157 192 233 278
#     4  10  21  34  50  72  98 129 160 193 233 281
#     4  10  18  29  46  69  96 125 158 195 238 282
#
# _framework density 16.944510999999999
#
# number of rings (size 3 to 8) (size 9 to 14) (size 15 to 20)
#    0.000    2.333    0.000    5.500    0.000    4.667 
#    0.000    3.333    0.000    1.000    0.000    0.000 
#    0.000    0.000    0.000    0.000    0.000    0.000 
#
# Total GULP energy -133841.548310 kJ/mol
# GULP energy per Si atom -5576.731180 kJ/mol
# Density = 1.690594 g / cm^3
# Si number density = 16.944511 Si / 1000 Ang^3
#
#
#
# Elastic Constant Matrix: (Units=GPa)
#
#
# Indices 1 2 3 4 5 6 
#
# 1 106.0173 25.1420 81.1299 0.0000 -12.9929 0.0000
# 2 25.1420 46.8197 35.6278 0.0000 -9.4479 0.0000
# 3 81.1299 35.6278 179.6040 0.0000 -23.3323 0.0000
# 4 0.0000 0.0000 0.0000 30.2238 0.0000 -2.3204
# 5 -12.9929 -9.4479 -23.3323 0.0000 28.6159 0.0000
# 6 0.0000 0.0000 0.0000 -2.3204 0.0000 18.7912
#
#
#
# Elastic Compliance Matrix: (Units=1/GPa)
#
#
# Indices 1 2 3 4 5 6 
#
# 1 0.014873 -0.003288 -0.005961 0.000000 0.000807 0.000000
# 2 -0.003288 0.026470 -0.003159 0.000000 0.004671 0.000000
# 3 -0.005961 -0.003159 0.009395 0.000000 0.003911 0.000000
# 4 0.000000 0.000000 0.000000 0.033403 0.000000 0.004125
# 5 0.000807 0.004671 0.003911 0.000000 0.040043 0.000000
# 6 0.000000 0.000000 0.000000 0.004125 0.000000 0.053726
#
#
# Mechanical properties :
#
#
# Convention : Reuss Voigt Hill
#
# Bulk Modulus (GPa) = 38.57610 68.47114 53.52362
# Shear Modulus (GPa) = 23.65552 28.22895 25.94223
#
# Velocity S-wave (km/s) = 3.74044 4.08605 3.91706
# Velocity P-wave (km/s) = 6.43973 7.92198 7.21900
#
# Compressibility (1/GPa) = 0.02592279
#
# Stress axis : x y z
#
# Youngs Moduli (GPa) = 67.23650 37.77804 106.43554
#
# Poissons Ratio (x) = 0.12420 0.63450
# Poissons Ratio (y) = 0.22104 0.33624
# Poissons Ratio (z) = 0.40082 0.11934
#
# Static dielectric constant tensor:
#      x y z
#    x 1.594770 0.000000 -0.014300 
#    y 0.000000 1.574310 0.000000 
#    z -0.014300 0.000000 1.584300 
# 
# From -- ./inp_files/42250.got.cif
#   From: 2010.05.17/outbox.cif.g08.bks.cpg/sg11_22_cif.got.tgz:42250.got - 2010.06.03 12:22:45.
