data_PCOD9156525
_publ_section_title
;
Structure prediction by ZEFSAII (Michael W. Deem and Ramdas Pophale) SiO2 
 PCOD9156525
Probable space group: P 21/M
;
_chemical_formula_sum "Si O2"
_cell_formula_units_Z 28
_cell_length_a 10.052686
_cell_length_b 7.533069
_cell_length_c 29.752821
_cell_angle_alpha 90.000000
_cell_angle_beta 141.150218
_cell_angle_gamma 90.000000
_cell_volume 1413.331846
_symmetry_space_group_name_H-M "P 21/M"
_symmetry_group_IT_number 11
_symmetry_cell_setting 'monoclinic'
loop_
_space_group_symop_operation_xyz
x,y,z
-x,1/2+y,-z
-x,-y,-z
x,1/2-y,z
loop_
_atom_site_type_symbol
_atom_site_label
_atom_site_fract_x
_atom_site_fract_y
_atom_site_fract_z
Si Si1 0.253257 0.456915 0.305364
Si Si2 0.774604 0.962095 0.191889
Si Si3 0.880995 0.534586 0.903554
Si Si4 0.705611 0.536745 0.583393
Si Si5 0.679787 0.458815 0.947296
Si Si6 0.831978 0.037780 0.311829
Si Si7 0.575501 0.968188 0.743102
O O1 0.313112 0.250000 0.322798
O O2 0.307043 0.533072 0.368703
O O3 0.366866 0.532039 0.291429
O O4 0.998531 0.467078 0.233218
O O5 0.780505 0.750000 0.188691
O O6 0.558273 0.032287 0.112574
O O7 0.765830 0.003544 0.242814
O O8 0.883964 0.750000 0.905137
O O9 0.757379 0.477365 0.916048
O O10 0.754270 0.478030 0.826206
O O11 0.123610 0.469589 0.971898
O O12 0.500000 0.500000 0.500000
O O13 0.727143 0.750000 0.592401
O O14 0.927146 0.470296 0.620462
O O15 0.664204 0.250000 0.953451
O O16 0.837042 0.250000 0.319139
O O17 0.651513 0.970833 0.297789
O O18 0.576309 0.750000 0.743058
#
# Coordination Sequence:
#
# PCOD9156525 Si02
#       7
#     4   4   4   4   4   4   4
#     4   9  19  34  51  71  94 124 160 197 233 277
#     4  10  18  29  45  68  98 130 160 197 237 280
#     4   9  16  27  46  68  91 124 161 199 236 275
#     4   9  18  32  51  72  96 121 151 190 230 278
#     4   9  17  27  41  67  98 124 157 199 241 275
#     4   9  17  31  52  75  93 120 161 198 228 273
#     4   9  16  30  52  73  93 121 162 203 235 270
#
# _framework density 19.811340000000001
#
# number of rings (size 3 to 8) (size 9 to 14) (size 15 to 20)
#    0.000    2.857    1.429    1.286    0.000    2.857 
#    0.000    2.857    0.000    0.000    0.000    0.000 
#    0.000    0.000    0.000    0.000    0.000    0.000 
#
# Total GULP energy -156095.707457 kJ/mol
# GULP energy per Si atom -5574.846695 kJ/mol
# Density = 1.976625 g / cm^3
# Si number density = 19.811340 Si / 1000 Ang^3
#
#
#
# Elastic Constant Matrix: (Units=GPa)
#
#
# Indices 1 2 3 4 5 6 
#
# 1 186.6278 -22.9477 107.0747 0.0000 33.0354 0.0000
# 2 -22.9477 64.3233 -17.2206 0.0000 -18.4415 0.0000
# 3 107.0747 -17.2206 184.0970 0.0000 36.8690 0.0000
# 4 0.0000 0.0000 0.0000 16.3663 0.0000 0.5457
# 5 33.0354 -18.4415 36.8690 0.0000 33.6196 0.0000
# 6 0.0000 0.0000 0.0000 0.5457 0.0000 0.2034
#
#
#
# Elastic Compliance Matrix: (Units=1/GPa)
#
#
# Indices 1 2 3 4 5 6 
#
# 1 0.008439 0.000983 -0.004182 0.000000 -0.003167 0.000000
# 2 0.000983 0.018584 -0.000873 0.000000 0.010185 0.000000
# 3 -0.004182 -0.000873 0.009041 0.000000 -0.006285 0.000000
# 4 0.000000 0.000000 0.000000 0.067102 0.000000 -0.179990
# 5 -0.003167 0.010185 -0.006285 0.000000 0.045336 0.000000
# 6 0.000000 0.000000 0.000000 -0.179990 0.000000 5.398466
#
#
# Mechanical properties :
#
#
# Convention : Reuss Voigt Hill
#
# Bulk Modulus (GPa) = 35.81752 63.20675 49.51213
# Shear Modulus (GPa) = 0.89857 34.58065 17.73961
#
# Velocity S-wave (km/s) = 0.67420 4.18245 2.99561
# Velocity P-wave (km/s) = 4.32719 7.43622 6.08367
#
# Compressibility (1/GPa) = 0.02791930
#
# Stress axis : x y z
#
# Youngs Moduli (GPa) = 118.49466 53.81094 110.60321
#
# Poissons Ratio (x) = -0.05290 0.46257
# Poissons Ratio (y) = -0.11650 0.09659
# Poissons Ratio (z) = 0.49557 0.04699
#
# Static dielectric constant tensor:
#      x y z
#    x 1.682170 0.000000 0.023010 
#    y 0.000000 1.721890 0.000000 
#    z 0.023010 0.000000 1.698690 
# 
# From -- ./inp_files/29029.got.cif
#   From: 2010.05.17/outbox.cif.g08.bks.cpg/sg11_15_cif.got.tgz:29029.got - 2010.06.03 12:22:45.
