data_PCOD9156132
_publ_section_title
;
Structure prediction by ZEFSAII (Michael W. Deem and Ramdas Pophale) SiO2 
 PCOD9156132
Probable space group: P 21/M
;
_chemical_formula_sum "Si O2"
_cell_formula_units_Z 32
_cell_length_a 17.559466
_cell_length_b 18.864146
_cell_length_c 13.041382
_cell_angle_alpha 90.000000
_cell_angle_beta 154.834953
_cell_angle_gamma 90.000000
_cell_volume 1836.932230
_symmetry_space_group_name_H-M "P 21/M"
_symmetry_group_IT_number 11
_symmetry_cell_setting 'monoclinic'
loop_
_space_group_symop_operation_xyz
x,y,z
-x,1/2+y,-z
-x,-y,-z
x,1/2-y,z
loop_
_atom_site_type_symbol
_atom_site_label
_atom_site_fract_x
_atom_site_fract_y
_atom_site_fract_z
Si Si1 0.108244 0.435389 0.084977
Si Si2 0.541932 0.580694 0.088168
Si Si3 0.546186 0.827047 0.751967
Si Si4 0.366324 0.036697 0.577671
Si Si5 0.196293 0.333271 0.740358
Si Si6 0.828206 0.164618 0.396279
Si Si7 0.185334 0.617969 0.393448
Si Si8 0.384464 0.031028 0.266991
O O1 0.258197 0.422798 0.355058
O O2 0.188953 0.464099 0.075865
O O3 0.000000 0.500000 0.000000
O O4 0.969601 0.375607 0.880696
O O5 0.605853 0.577605 0.283523
O O6 0.696020 0.616762 0.206450
O O7 0.500000 0.500000 0.000000
O O8 0.359559 0.626308 0.856758
O O9 0.570297 0.750000 0.734992
O O10 0.355436 0.833599 0.575313
O O11 0.557094 0.889041 0.683837
O O12 0.696532 0.838252 0.021546
O O13 0.263375 0.962661 0.479397
O O14 0.557466 0.012796 0.761994
O O15 0.807460 0.250000 0.373702
O O16 0.990056 0.351700 0.514596
O O17 0.205381 0.250000 0.719732
O O18 0.880147 0.137051 0.573147
O O19 0.500000 0.000000 0.500000
#
# Coordination Sequence:
#
# PCOD9156132 Si02
#       8
#     4   4   4   4   4   4   4   4
#     4   9  18  32  54  81 113 145 181 224 281 336
#     4  12  21  37  57  86 122 147 192 242 288 348
#     4  10  18  32  55  81 111 144 182 235 287 330
#     4   9  19  34  52  83 113 150 183 226 290 342
#     4  10  22  38  57  83 115 153 194 238 290 344
#     4  11  22  37  59  84 112 155 196 237 297 346
#     4  10  17  32  54  83 114 143 185 232 281 335
#     4   9  17  33  54  76 107 142 180 225 278 333
#
# _framework density 17.420348000000001
#
# number of rings (size 3 to 8) (size 9 to 14) (size 15 to 20)
#    0.000    2.000    2.500    3.000    0.000    0.500 
#    4.500    0.625    0.000    9.000    0.000    0.000 
#    0.000    0.000    0.000    0.000    0.000    0.000 
#
# Total GULP energy -178211.984108 kJ/mol
# GULP energy per Si atom -5569.124503 kJ/mol
# Density = 1.738070 g / cm^3
# Si number density = 17.420348 Si / 1000 Ang^3
#
#
#
# Elastic Constant Matrix: (Units=GPa)
#
#
# Indices 1 2 3 4 5 6 
#
# 1 119.6970 52.7824 40.1442 0.0000 15.6477 0.0000
# 2 52.7824 70.6619 28.3389 0.0000 -0.6125 0.0000
# 3 40.1442 28.3389 82.4707 0.0000 1.8236 0.0000
# 4 0.0000 0.0000 0.0000 14.5840 0.0000 -1.8048
# 5 15.6477 -0.6125 1.8236 0.0000 36.7454 0.0000
# 6 0.0000 0.0000 0.0000 -1.8048 0.0000 26.2123
#
#
#
# Elastic Compliance Matrix: (Units=1/GPa)
#
#
# Indices 1 2 3 4 5 6 
#
# 1 0.014575 -0.009453 -0.003710 0.000000 -0.006180 0.000000
# 2 -0.009453 0.022556 -0.003250 0.000000 0.004563 0.000000
# 3 -0.003710 -0.003250 0.015031 0.000000 0.000780 0.000000
# 4 0.000000 0.000000 0.000000 0.069158 0.000000 0.004762
# 5 -0.006180 0.004563 0.000780 0.000000 0.029883 0.000000
# 6 0.000000 0.000000 0.000000 0.004762 0.000000 0.038478
#
#
# Mechanical properties :
#
#
# Convention : Reuss Voigt Hill
#
# Bulk Modulus (GPa) = 51.71683 57.26229 54.48956
# Shear Modulus (GPa) = 21.83866 25.61260 23.72563
#
# Velocity S-wave (km/s) = 3.54450 3.83857 3.69446
# Velocity P-wave (km/s) = 6.81934 7.25179 7.03889
#
# Compressibility (1/GPa) = 0.01933607
#
# Stress axis : x y z
#
# Youngs Moduli (GPa) = 68.61117 44.33420 66.52929
#
# Poissons Ratio (x) = 0.41908 0.24681
# Poissons Ratio (y) = 0.64857 0.21624
# Poissons Ratio (z) = 0.25453 0.14410
#
# Static dielectric constant tensor:
#      x y z
#    x 1.620180 0.000000 0.025800 
#    y 0.000000 1.586780 0.000000 
#    z 0.025800 0.000000 1.621550 
# 
# From -- ./inp_files/40034.got.cif
#   From: 2010.05.17/outbox.cif.g08.bks.cpg/sg11_21_cif.got.tgz:40034.got - 2010.06.03 12:22:45.
