data_PCOD9156906
_publ_section_title
;
Structure prediction by ZEFSAII (Michael W. Deem and Ramdas Pophale) SiO2 
 PCOD9156906
Probable space group: P 21/M
;
_chemical_formula_sum "Si O2"
_cell_formula_units_Z 30
_cell_length_a 19.975486
_cell_length_b 7.486448
_cell_length_c 9.701737
_cell_angle_alpha 90.000000
_cell_angle_beta 64.690446
_cell_angle_gamma 90.000000
_cell_volume 1311.585213
_symmetry_space_group_name_H-M "P 21/M"
_symmetry_group_IT_number 11
_symmetry_cell_setting 'monoclinic'
loop_
_space_group_symop_operation_xyz
x,y,z
-x,1/2+y,-z
-x,-y,-z
x,1/2-y,z
loop_
_atom_site_type_symbol
_atom_site_label
_atom_site_fract_x
_atom_site_fract_y
_atom_site_fract_z
Si Si1 0.314953 0.467004 0.340055
Si Si2 0.931808 0.035276 0.380882
Si Si3 0.095783 0.460426 0.277004
Si Si4 0.204737 0.456973 0.680893
Si Si5 0.621560 0.544961 0.235429
Si Si6 0.256414 0.468031 0.093429
Si Si7 0.295671 0.750000 0.717674
Si Si8 0.518168 0.962945 0.823094
O O1 0.315280 0.250000 0.340304
O O2 0.258668 0.520808 0.508444
O O3 0.283654 0.523569 0.220254
O O4 0.399036 0.528667 0.280374
O O5 0.932507 0.250000 0.379900
O O6 0.016475 0.967519 0.297989
O O7 0.902470 0.978505 0.557916
O O8 0.877406 0.973180 0.308683
O O9 0.094936 0.250000 0.246190
O O10 0.172470 0.532085 0.149514
O O11 0.217575 0.250000 0.704226
O O12 0.230450 0.592677 0.773631
O O13 0.634909 0.750000 0.262537
O O14 0.638971 0.407574 0.340068
O O15 0.543491 0.535824 0.226109
O O16 0.681412 0.476160 0.068976
O O17 0.256317 0.250000 0.090236
O O18 0.517495 0.750000 0.806997
O O19 0.500000 0.000000 0.000000
#
# Coordination Sequence:
#
# PCOD9156906 Si02
#       8
#     4   4   4   4   4   4   2   4
#     4   9  18  33  60  91 124 156 195 245 306 369
#     4  10  18  30  51  91 128 159 195 239 301 368
#     4   9  17  30  53  86 131 161 185 239 308 373
#     4  11  22  41  66  86 118 165 208 250 297 354
#     4  11  23  42  65  89 119 161 203 254 308 358
#     4   9  16  32  58  91 121 155 194 242 309 375
#     4  12  26  46  62  88 116 162 222 258 284 350
#     4  11  20  36  60  94 129 157 191 244 310 376
#
# _framework density 22.873083999999999
#
# number of rings (size 3 to 8) (size 9 to 14) (size 15 to 20)
#    0.000    1.867    4.000    1.200    0.000    0.533 
#    3.600    2.667    0.000    0.800    0.000    0.000 
#    0.000    0.000    0.000    0.000    0.000    0.000 
#
# Total GULP energy -167162.512093 kJ/mol
# GULP energy per Si atom -5572.083736 kJ/mol
# Density = 2.282102 g / cm^3
# Si number density = 22.873084 Si / 1000 Ang^3
#
#
#
# Elastic Constant Matrix: (Units=GPa)
#
#
# Indices 1 2 3 4 5 6 
#
# 1 179.9674 21.2167 15.8969 0.0000 -9.9873 0.0000
# 2 21.2167 108.9769 -0.2087 0.0000 1.3539 0.0000
# 3 15.8969 -0.2087 34.6597 0.0000 -13.6938 0.0000
# 4 0.0000 0.0000 0.0000 -28.8673 0.0000 1.1335
# 5 -9.9873 1.3539 -13.6938 0.0000 35.5702 0.0000
# 6 0.0000 0.0000 0.0000 1.1335 0.0000 25.6192
#
#
#
# Elastic Compliance Matrix: (Units=1/GPa)
#
#
# Indices 1 2 3 4 5 6 
#
# 1 0.005953 -0.001173 -0.002429 0.000000 0.000781 0.000000
# 2 -0.001173 0.009412 0.000381 0.000000 -0.000541 0.000000
# 3 -0.002429 0.000381 0.035020 0.000000 0.012785 0.000000
# 4 0.000000 0.000000 0.000000 -0.034581 0.000000 0.001530
# 5 0.000781 -0.000541 0.012785 0.000000 0.033275 0.000000
# 6 0.000000 0.000000 0.000000 0.001530 0.000000 0.038966
#
#
# Mechanical properties :
#
#
# Convention : Reuss Voigt Hill
#
# Bulk Modulus (GPa) = 22.75699 44.15708 33.45704
# Shear Modulus (GPa) = 45.81539 25.57769 35.69654
#
# Velocity S-wave (km/s) = 4.48037 3.34764 3.95477
# Velocity P-wave (km/s) = 6.06101 5.85572 5.95925
#
# Compressibility (1/GPa) = 0.04394254
#
# Stress axis : x y z
#
# Youngs Moduli (GPa) = 167.98917 106.24578 28.55548
#
# Poissons Ratio (x) = 0.12466 0.06935
# Poissons Ratio (y) = 0.19710 -0.01088
# Poissons Ratio (z) = 0.40800 -0.04049
#
# Static dielectric constant tensor:
#      x y z
#    x 1.885770 0.000000 0.041150 
#    y 0.000000 1.892970 0.000000 
#    z 0.041150 0.000000 1.921450 
# 
# From -- ./inp_files/40544.got.cif
#   From: 2010.05.17/outbox.cif.g08.bks.cpg/sg11_21_cif.got.tgz:40544.got - 2010.06.03 12:22:45.
