data_PCOD9156051
_publ_section_title
;
Structure prediction by ZEFSAII (Michael W. Deem and Ramdas Pophale) SiO2 
 PCOD9156051
Probable space group: P 21/M
;
_chemical_formula_sum "Si O2"
_cell_formula_units_Z 32
_cell_length_a 15.025003
_cell_length_b 8.678387
_cell_length_c 17.138117
_cell_angle_alpha 90.000000
_cell_angle_beta 64.776691
_cell_angle_gamma 90.000000
_cell_volume 2021.617915
_symmetry_space_group_name_H-M "P 21/M"
_symmetry_group_IT_number 11
_symmetry_cell_setting 'monoclinic'
loop_
_space_group_symop_operation_xyz
x,y,z
-x,1/2+y,-z
-x,-y,-z
x,1/2-y,z
loop_
_atom_site_type_symbol
_atom_site_label
_atom_site_fract_x
_atom_site_fract_y
_atom_site_fract_z
Si Si1 0.054252 0.064172 0.096103
Si Si2 0.048489 0.433394 0.273176
Si Si3 0.717445 0.069396 0.554726
Si Si4 0.506134 0.062051 0.586281
Si Si5 0.096247 0.934569 0.419853
Si Si6 0.149430 0.933540 0.909347
Si Si7 0.695905 0.930207 0.258702
Si Si8 0.184312 0.573519 0.651282
O O1 0.055317 0.250000 0.095683
O O2 0.078329 0.014030 0.175125
O O3 0.943421 0.017229 0.111012
O O4 0.126411 0.002774 0.002632
O O5 0.068055 0.250000 0.273463
O O6 0.092302 0.519896 0.330785
O O7 0.930456 0.453065 0.319476
O O8 0.707256 0.250000 0.579857
O O9 0.606976 0.006717 0.589541
O O10 0.802697 0.004847 0.578596
O O11 0.760568 0.062611 0.451268
O O12 0.507648 0.250000 0.581194
O O13 0.410792 0.014869 0.671912
O O14 0.500000 0.000000 0.500000
O O15 0.093361 0.750000 0.430393
O O16 0.000000 0.000000 0.500000
O O17 0.146815 0.750000 0.914975
O O18 0.250706 0.987198 0.833000
O O19 0.688959 0.750000 0.243927
O O20 0.767488 0.960174 0.305308
O O21 0.195032 0.750000 0.677530
#
# Coordination Sequence:
#
# PCOD9156051 Si02
#       8
#     4   4   4   4   4   4   4   4
#     4   9  18  32  49  70  97 127 159 196 237 285
#     4  10  19  33  49  70  98 130 162 193 239 287
#     4   9  18  33  49  64  93 132 164 197 238 282
#     4  10  20  33  49  69  94 127 165 202 239 283
#     4  11  21  33  49  70  95 128 167 202 238 282
#     4  10  19  32  49  69  96 131 162 191 238 293
#     4  11  21  30  45  73 100 125 164 205 239 278
#     4  10  17  30  49  66  94 134 166 191 234 289
#
# _framework density 15.828906999999999
#
# number of rings (size 3 to 8) (size 9 to 14) (size 15 to 20)
#    0.000    2.000    3.750    1.125    0.000    2.000 
#    0.000    1.250    0.000    0.000    0.000    0.875 
#    0.000    0.000    0.000    0.000    0.000    0.000 
#
# Total GULP energy -178416.053715 kJ/mol
# GULP energy per Si atom -5575.501679 kJ/mol
# Density = 1.579288 g / cm^3
# Si number density = 15.828907 Si / 1000 Ang^3
#
#
#
# Elastic Constant Matrix: (Units=GPa)
#
#
# Indices 1 2 3 4 5 6 
#
# 1 91.2829 18.1193 57.0524 0.0000 -3.7097 0.0000
# 2 18.1193 16.2261 22.5899 0.0000 -0.8873 0.0000
# 3 57.0524 22.5899 109.1102 0.0000 -8.0574 0.0000
# 4 0.0000 0.0000 0.0000 25.8653 0.0000 3.2858
# 5 -3.7097 -0.8873 -8.0574 0.0000 23.2041 0.0000
# 6 0.0000 0.0000 0.0000 3.2858 0.0000 14.8451
#
#
#
# Elastic Compliance Matrix: (Units=1/GPa)
#
#
# Indices 1 2 3 4 5 6 
#
# 1 0.017240 -0.009411 -0.007070 0.000000 -0.000059 0.000000
# 2 -0.009411 0.091927 -0.014330 0.000000 -0.002966 0.000000
# 3 -0.007070 -0.014330 0.016118 0.000000 0.003919 0.000000
# 4 0.000000 0.000000 0.000000 0.039780 0.000000 -0.008805
# 5 -0.000059 -0.002966 0.003919 0.000000 0.044334 0.000000
# 6 0.000000 0.000000 0.000000 -0.008805 0.000000 0.069311
#
#
# Mechanical properties :
#
#
# Convention : Reuss Voigt Hill
#
# Bulk Modulus (GPa) = 15.70812 45.79360 30.75086
# Shear Modulus (GPa) = 13.82920 20.70673 17.26796
#
# Velocity S-wave (km/s) = 2.95899 3.62077 3.30648
# Velocity P-wave (km/s) = 4.64967 6.81712 5.83492
#
# Compressibility (1/GPa) = 0.06366133
#
# Stress axis : x y z
#
# Youngs Moduli (GPa) = 58.00605 10.87821 62.04117
#
# Poissons Ratio (x) = 0.10238 0.43865
# Poissons Ratio (y) = 0.54590 0.88908
# Poissons Ratio (z) = 0.41012 0.15589
#
# Static dielectric constant tensor:
#      x y z
#    x 1.531970 0.000000 -0.005720 
#    y 0.000000 1.554710 0.000000 
#    z -0.005720 0.000000 1.527560 
# 
# From -- ./inp_files/51689.got.cif
#   From: 2010.05.17/outbox.cif.g08.bks.cpg/sg11_26_cif.got.tgz:51689.got - 2010.06.03 12:22:45.
