data_PCOD9156411
_publ_section_title
;
Structure prediction by ZEFSAII (Michael W. Deem and Ramdas Pophale) SiO2 
 PCOD9156411
Probable space group: P 21/M
;
_chemical_formula_sum "Si O2"
_cell_formula_units_Z 24
_cell_length_a 11.714874
_cell_length_b 7.922939
_cell_length_c 20.685986
_cell_angle_alpha 90.000000
_cell_angle_beta 43.564308
_cell_angle_gamma 90.000000
_cell_volume 1323.199867
_symmetry_space_group_name_H-M "P 21/M"
_symmetry_group_IT_number 11
_symmetry_cell_setting 'monoclinic'
loop_
_space_group_symop_operation_xyz
x,y,z
-x,1/2+y,-z
-x,-y,-z
x,1/2-y,z
loop_
_atom_site_type_symbol
_atom_site_label
_atom_site_fract_x
_atom_site_fract_y
_atom_site_fract_z
Si Si1 0.889795 0.453028 0.982946
Si Si2 0.688895 0.545784 0.407964
Si Si3 0.892914 0.949305 0.445912
Si Si4 0.191179 0.454783 0.781278
Si Si5 0.769799 0.050769 0.631101
Si Si6 0.410450 0.548801 0.815847
O O1 0.879399 0.250000 0.982797
O O2 0.004172 0.511745 0.876621
O O3 0.706790 0.515200 0.077289
O O4 0.000000 0.500000 0.000000
O O5 0.500000 0.500000 0.500000
O O6 0.698886 0.750000 0.403186
O O7 0.805593 0.480382 0.418023
O O8 0.747036 0.485287 0.313643
O O9 0.914685 0.750000 0.425669
O O10 0.073386 0.017682 0.392529
O O11 0.778183 0.972172 0.556136
O O12 0.191657 0.250000 0.780860
O O13 0.313799 0.508818 0.788684
O O14 0.795390 0.250000 0.611380
O O15 0.594177 0.022766 0.736382
O O16 0.423562 0.750000 0.815763
#
# Coordination Sequence:
#
# PCOD9156411 Si02
#       6
#     4   4   4   4   4   4
#     4   8  15  27  43  64  89 116 146 181 220 260
#     4  10  20  32  47  67  91 118 146 178 218 265
#     4   9  19  34  48  65  90 118 149 184 222 261
#     4   9  17  30  47  67  91 119 150 182 219 265
#     4  10  19  31  48  67  88 117 151 186 221 260
#     4  10  18  28  45  69  94 118 146 183 225 263
#
# _framework density 18.137851000000001
#
# number of rings (size 3 to 8) (size 9 to 14) (size 15 to 20)
#    0.000    2.667    0.000    2.000    0.000    5.333 
#    0.000    0.000    0.000    1.000    0.000    0.000 
#    0.000    0.000    0.000    0.000    0.000    1.333 
#
# Total GULP energy -133711.782872 kJ/mol
# GULP energy per Si atom -5571.324286 kJ/mol
# Density = 1.809657 g / cm^3
# Si number density = 18.137851 Si / 1000 Ang^3
#
#
#
# Elastic Constant Matrix: (Units=GPa)
#
#
# Indices 1 2 3 4 5 6 
#
# 1 66.0778 3.7749 50.2833 0.0000 2.9814 0.0000
# 2 3.7749 14.1847 -5.8866 0.0000 3.0876 0.0000
# 3 50.2833 -5.8866 159.3130 0.0000 -6.1934 0.0000
# 4 0.0000 0.0000 0.0000 19.4344 0.0000 -3.9929
# 5 2.9814 3.0876 -6.1934 0.0000 26.0706 0.0000
# 6 0.0000 0.0000 0.0000 -3.9929 0.0000 15.3857
#
#
#
# Elastic Compliance Matrix: (Units=1/GPa)
#
#
# Indices 1 2 3 4 5 6 
#
# 1 0.021111 -0.007866 -0.007077 0.000000 -0.003164 0.000000
# 2 -0.007866 0.076187 0.005029 0.000000 -0.006929 0.000000
# 3 -0.007077 0.005029 0.008786 0.000000 0.002301 0.000000
# 4 0.000000 0.000000 0.000000 0.054353 0.000000 0.014106
# 5 -0.003164 -0.006929 0.002301 0.000000 0.040086 0.000000
# 6 0.000000 0.000000 0.000000 0.014106 0.000000 0.068656
#
#
# Mechanical properties :
#
#
# Convention : Reuss Voigt Hill
#
# Bulk Modulus (GPa) = 11.59361 37.32428 24.45894
# Shear Modulus (GPa) = 15.73512 24.93840 20.33676
#
# Velocity S-wave (km/s) = 2.94858 3.71204 3.35211
# Velocity P-wave (km/s) = 4.24240 6.24460 5.33821
#
# Compressibility (1/GPa) = 0.08625443
#
# Stress axis : x y z
#
# Youngs Moduli (GPa) = 47.36843 13.12564 113.81943
#
# Poissons Ratio (x) = 0.10325 0.80548
# Poissons Ratio (y) = 0.37262 -0.57235
# Poissons Ratio (z) = 0.33522 -0.06600
#
# Static dielectric constant tensor:
#      x y z
#    x 1.606890 0.000000 -0.009440 
#    y 0.000000 1.656800 0.000000 
#    z -0.009440 0.000000 1.655550 
# 
# From -- ./inp_files/36966.got.cif
#   From: 2010.05.17/outbox.cif.g08.bks.cpg/sg11_19_cif.got.tgz:36966.got - 2010.06.03 12:22:45.
