data_PCOD9156912
_publ_section_title
;
Structure prediction by ZEFSAII (Michael W. Deem and Ramdas Pophale) SiO2 
 PCOD9156912
Probable space group: P 21/M
;
_chemical_formula_sum "Si O2"
_cell_formula_units_Z 32
_cell_length_a 20.920615
_cell_length_b 17.975773
_cell_length_c 14.435401
_cell_angle_alpha 90.000000
_cell_angle_beta 163.155731
_cell_angle_gamma 90.000000
_cell_volume 1573.063864
_symmetry_space_group_name_H-M "P 21/M"
_symmetry_group_IT_number 11
_symmetry_cell_setting 'monoclinic'
loop_
_space_group_symop_operation_xyz
x,y,z
-x,1/2+y,-z
-x,-y,-z
x,1/2-y,z
loop_
_atom_site_type_symbol
_atom_site_label
_atom_site_fract_x
_atom_site_fract_y
_atom_site_fract_z
Si Si1 0.580470 0.083624 0.700954
Si Si2 0.959891 0.165250 0.486580
Si Si3 0.234461 0.549278 0.226336
Si Si4 0.250414 0.521290 0.451056
Si Si5 0.963291 0.566677 0.573412
Si Si6 0.690486 0.667488 0.315847
Si Si7 0.523038 0.867838 0.261813
Si Si8 0.248158 0.917380 0.650500
O O1 0.678179 0.101540 0.735232
O O2 0.481942 0.144283 0.635237
O O3 0.384341 0.024325 0.419531
O O4 0.786649 0.049962 0.046982
O O5 0.042680 0.250000 0.592591
O O6 0.069371 0.101468 0.574102
O O7 0.929646 0.139087 0.550689
O O8 0.710421 0.161847 0.099428
O O9 0.261302 0.568988 0.371727
O O10 0.981934 0.523372 0.866163
O O11 0.433337 0.456171 0.695731
O O12 0.255666 0.568197 0.551851
O O13 0.895569 0.633031 0.548466
O O14 0.813827 0.495473 0.386816
O O15 0.643383 0.750000 0.217036
O O16 0.704056 0.667783 0.445762
O O17 0.485988 0.614293 0.007513
#
# Coordination Sequence:
#
# PCOD9156912 Si02
#       8
#     4   4   4   4   4   4   4   4
#     4   9  17  30  51  76 109 140 169 221 278 320
#     4  10  22  36  51  77 114 149 178 217 274 337
#     4   9  17  31  48  77 116 135 172 227 286 310
#     4  10  18  30  52  79 110 143 175 227 271 311
#     4  11  20  35  55  80 111 145 183 228 268 327
#     4  11  22  35  53  78 113 148 178 219 274 337
#     4   9  17  30  50  74 107 142 176 212 261 327
#     4  11  20  34  52  82 108 145 181 225 268 322
#
# _framework density 20.342466999999999
#
# number of rings (size 3 to 8) (size 9 to 14) (size 15 to 20)
#    0.000    2.000    2.500    2.625    1.750    0.000 
#    2.250    0.000    0.000    0.000    0.000   66.500 
#    0.000    0.000    0.000    0.000    0.000    0.000 
#
# Total GULP energy -178147.478215 kJ/mol
# GULP energy per Si atom -5567.108694 kJ/mol
# Density = 2.029617 g / cm^3
# Si number density = 20.342467 Si / 1000 Ang^3
#
#
#
# Elastic Constant Matrix: (Units=GPa)
#
#
# Indices 1 2 3 4 5 6 
#
# 1 175.6459 27.6238 12.3440 0.0000 -0.6088 0.0000
# 2 27.6238 68.3056 24.9463 0.0000 -3.4837 0.0000
# 3 12.3440 24.9463 48.6312 0.0000 9.4473 0.0000
# 4 0.0000 0.0000 0.0000 8.5711 0.0000 1.8116
# 5 -0.6088 -3.4837 9.4473 0.0000 26.2116 0.0000
# 6 0.0000 0.0000 0.0000 1.8116 0.0000 8.0148
#
#
#
# Elastic Compliance Matrix: (Units=1/GPa)
#
#
# Indices 1 2 3 4 5 6 
#
# 1 0.006085 -0.002341 -0.000334 0.000000 -0.000050 0.000000
# 2 -0.002341 0.019890 -0.010873 0.000000 0.006508 0.000000
# 3 -0.000334 -0.010873 0.028503 0.000000 -0.011726 0.000000
# 4 0.000000 0.000000 0.000000 0.122525 0.000000 -0.027695
# 5 -0.000050 0.006508 -0.011726 0.000000 0.043241 0.000000
# 6 0.000000 0.000000 0.000000 -0.027695 0.000000 0.131029
#
#
# Mechanical properties :
#
#
# Convention : Reuss Voigt Hill
#
# Bulk Modulus (GPa) = 36.52083 46.93453 41.72768
# Shear Modulus (GPa) = 12.90334 23.73739 18.32036
#
# Velocity S-wave (km/s) = 2.52127 3.41968 3.00425
# Velocity P-wave (km/s) = 5.14468 6.22210 5.70887
#
# Compressibility (1/GPa) = 0.02738164
#
# Stress axis : x y z
#
# Youngs Moduli (GPa) = 164.34415 50.27693 35.08393
#
# Poissons Ratio (x) = 0.11772 0.01171
# Poissons Ratio (y) = 0.38479 0.38146
# Poissons Ratio (z) = 0.05486 0.54665
#
# Static dielectric constant tensor:
#      x y z
#    x 1.864340 0.000000 0.011270 
#    y 0.000000 1.725070 0.000000 
#    z 0.011270 0.000000 1.733920 
# 
# From -- ./inp_files/55030.got.cif
#   From: 2010.05.17/outbox.cif.g08.bks.cpg/sg11_28_cif.got.tgz:55030.got - 2010.06.03 12:22:45.
