data_PCOD9156255
_publ_section_title
;
Structure prediction by ZEFSAII (Michael W. Deem and Ramdas Pophale) SiO2 
 PCOD9156255
Probable space group: P 21/M
;
_chemical_formula_sum "Si O2"
_cell_formula_units_Z 32
_cell_length_a 16.548410
_cell_length_b 8.751033
_cell_length_c 20.733656
_cell_angle_alpha 90.000000
_cell_angle_beta 44.052849
_cell_angle_gamma 90.000000
_cell_volume 2087.743762
_symmetry_space_group_name_H-M "P 21/M"
_symmetry_group_IT_number 11
_symmetry_cell_setting 'monoclinic'
loop_
_space_group_symop_operation_xyz
x,y,z
-x,1/2+y,-z
-x,-y,-z
x,1/2-y,z
loop_
_atom_site_type_symbol
_atom_site_label
_atom_site_fract_x
_atom_site_fract_y
_atom_site_fract_z
Si Si1 0.889465 0.426507 0.646775
Si Si2 0.628462 0.568301 0.422945
Si Si3 0.125431 0.433307 0.949743
Si Si4 0.164825 0.426243 0.453058
Si Si5 0.802180 0.066786 0.219175
Si Si6 0.947785 0.067961 0.881834
Si Si7 0.052690 0.069747 0.254376
Si Si8 0.781208 0.429708 0.446101
O O1 0.856158 0.250000 0.672881
O O2 0.823761 0.503537 0.624576
O O3 0.882224 0.513287 0.718763
O O4 0.026653 0.430073 0.548959
O O5 0.500000 0.500000 0.500000
O O6 0.625678 0.750000 0.415675
O O7 0.700491 0.490502 0.323787
O O8 0.697381 0.525950 0.448664
O O9 0.123536 0.250000 0.949832
O O10 0.209088 0.499141 0.846530
O O11 0.136927 0.496241 0.015519
O O12 0.000000 0.500000 0.000000
O O13 0.201439 0.250000 0.433384
O O14 0.224567 0.520062 0.476117
O O15 0.808287 0.250000 0.213978
O O16 0.923994 0.002783 0.178095
O O17 0.954000 0.250000 0.886007
O O18 0.914677 0.021372 0.828537
O O19 0.069838 0.250000 0.234760
O O20 0.914622 0.045184 0.346675
O O21 0.756145 0.250000 0.453298
#
# Coordination Sequence:
#
# PCOD9156255 Si02
#       8
#     4   4   4   4   4   4   4   4
#     4   9  16  25  37  56  81 109 143 178 214 254
#     4  12  24  37  51  67  87 113 148 189 232 271
#     4  10  18  29  44  63  85 111 143 179 218 261
#     4   9  16  26  40  57  79 107 142 178 215 257
#     4  11  20  33  48  64  85 111 144 183 224 266
#     4  11  19  28  43  64  88 116 148 182 219 262
#     4  10  18  27  41  60  86 116 147 181 219 260
#     4  10  19  31  46  62  82 110 145 183 224 264
#
# _framework density 15.327551
#
# number of rings (size 3 to 8) (size 9 to 14) (size 15 to 20)
#    0.000    1.750    1.250    7.500    0.000    4.000 
#    0.000    0.000    0.000    0.000    0.000    0.000 
#    0.000    0.000    0.000    1.125    0.000   15.750 
#
# Total GULP energy -178506.667767 kJ/mol
# GULP energy per Si atom -5578.333368 kJ/mol
# Density = 1.529267 g / cm^3
# Si number density = 15.327551 Si / 1000 Ang^3
#
#
#
# Elastic Constant Matrix: (Units=GPa)
#
#
# Indices 1 2 3 4 5 6 
#
# 1 62.3945 44.0105 46.1791 0.0000 32.1769 0.0000
# 2 44.0105 135.4193 37.3666 0.0000 19.4020 0.0000
# 3 46.1791 37.3666 66.5184 0.0000 23.4837 0.0000
# 4 0.0000 0.0000 0.0000 20.6936 0.0000 8.9559
# 5 32.1769 19.4020 23.4837 0.0000 25.6548 0.0000
# 6 0.0000 0.0000 0.0000 8.9559 0.0000 26.7069
#
#
#
# Elastic Compliance Matrix: (Units=1/GPa)
#
#
# Indices 1 2 3 4 5 6 
#
# 1 0.069178 -0.007640 -0.022372 0.000000 -0.060508 0.000000
# 2 -0.007640 0.009756 -0.001410 0.000000 0.003495 0.000000
# 3 -0.022372 -0.001410 0.031136 0.000000 0.000624 0.000000
# 4 0.000000 0.000000 0.000000 0.056528 0.000000 -0.018956
# 5 -0.060508 0.003495 0.000624 0.000000 0.111654 0.000000
# 6 0.000000 0.000000 0.000000 -0.018956 0.000000 0.043800
#
#
# Mechanical properties :
#
#
# Convention : Reuss Voigt Hill
#
# Bulk Modulus (GPa) = 21.17498 57.71607 39.44553
# Shear Modulus (GPa) = 12.48009 23.72946 18.10477
#
# Velocity S-wave (km/s) = 2.85656 3.93893 3.44058
# Velocity P-wave (km/s) = 4.97241 7.64354 6.44782
#
# Compressibility (1/GPa) = 0.04722554
#
# Stress axis : x y z
#
# Youngs Moduli (GPa) = 14.45557 102.50285 32.11672
#
# Poissons Ratio (x) = 0.78313 0.71851
# Poissons Ratio (y) = 0.11044 0.04529
# Poissons Ratio (z) = 0.32340 0.14456
#
# Static dielectric constant tensor:
#      x y z
#    x 1.512090 0.000000 0.035300 
#    y 0.000000 1.512360 0.000000 
#    z 0.035300 0.000000 1.509810 
# 
# From -- ./inp_files/65192.got.cif
#   From: 2010.05.17/outbox.cif.g08.bks.cpg/sg11_33_cif.got.tgz:65192.got - 2010.06.03 12:22:45.
