data_PCOD9156667
_publ_section_title
;
Structure prediction by ZEFSAII (Michael W. Deem and Ramdas Pophale) SiO2 
 PCOD9156667
Probable space group: P 21/M
;
_chemical_formula_sum "Si O2"
_cell_formula_units_Z 32
_cell_length_a 12.588924
_cell_length_b 8.739350
_cell_length_c 21.122224
_cell_angle_alpha 90.000000
_cell_angle_beta 128.229092
_cell_angle_gamma 90.000000
_cell_volume 1825.480666
_symmetry_space_group_name_H-M "P 21/M"
_symmetry_group_IT_number 11
_symmetry_cell_setting 'monoclinic'
loop_
_space_group_symop_operation_xyz
x,y,z
-x,1/2+y,-z
-x,-y,-z
x,1/2-y,z
loop_
_atom_site_type_symbol
_atom_site_label
_atom_site_fract_x
_atom_site_fract_y
_atom_site_fract_z
Si Si1 0.025613 0.932649 0.805281
Si Si2 0.277027 0.933093 0.451482
Si Si3 0.708244 0.932602 0.050123
Si Si4 0.031901 0.066092 0.667177
Si Si5 0.694509 0.936204 0.294414
Si Si6 0.447387 0.066232 0.629076
Si Si7 0.534869 0.934361 0.110510
Si Si8 0.717916 0.933420 0.687360
O O1 0.035645 0.750000 0.809304
O O2 0.870687 0.975282 0.764040
O O3 0.141092 0.002222 0.892026
O O4 0.050180 0.992883 0.742989
O O5 0.706611 0.250000 0.546241
O O6 0.375471 0.001588 0.540021
O O7 0.300517 0.004560 0.391005
O O8 0.120346 0.968099 0.411087
O O9 0.711954 0.750000 0.048862
O O10 0.635096 0.977683 0.089628
O O11 0.610607 0.996664 0.959755
O O12 0.041925 0.250000 0.678812
O O13 0.152231 0.016063 0.665268
O O14 0.694064 0.750000 0.294944
O O15 0.635078 0.986476 0.339421
O O16 0.600049 0.983817 0.200753
O O17 0.447332 0.250000 0.626804
O O18 0.600351 0.005821 0.685891
O O19 0.525417 0.750000 0.107006
O O20 0.706506 0.750000 0.682596
#
# Coordination Sequence:
#
# PCOD9156667 Si02
#       8
#     4   4   4   4   4   4   4   4
#     4  10  19  31  51  78 104 131 164 210 259 301
#     4  10  20  34  55  78 102 130 167 215 261 302
#     4  10  18  29  50  78 107 135 165 203 248 300
#     4   9  17  33  53  74 101 135 169 204 252 305
#     4   9  18  34  53  73 102 140 172 203 247 303
#     4  11  22  35  53  74 100 136 176 210 250 304
#     4   9  17  31  50  73 105 138 167 201 244 297
#     4  10  21  37  55  75 101 130 170 219 261 297
#
# _framework density 17.529629
#
# number of rings (size 3 to 8) (size 9 to 14) (size 15 to 20)
#    0.000    2.250    1.250    2.250    0.000    3.000 
#    0.000    2.500    0.000    0.750    0.000    0.000 
#    0.000    0.000    0.000    0.000    0.000    0.000 
#
# Total GULP energy -178553.641452 kJ/mol
# GULP energy per Si atom -5579.801295 kJ/mol
# Density = 1.748973 g / cm^3
# Si number density = 17.529629 Si / 1000 Ang^3
#
#
#
# Elastic Constant Matrix: (Units=GPa)
#
#
# Indices 1 2 3 4 5 6 
#
# 1 90.6889 19.9642 14.4553 0.0000 23.0866 0.0000
# 2 19.9642 27.3446 14.2325 0.0000 11.0935 0.0000
# 3 14.4553 14.2325 44.9811 0.0000 24.3506 0.0000
# 4 0.0000 0.0000 0.0000 24.1739 0.0000 4.2417
# 5 23.0866 11.0935 24.3506 0.0000 23.5113 0.0000
# 6 0.0000 0.0000 0.0000 4.2417 0.0000 18.2944
#
#
#
# Elastic Compliance Matrix: (Units=1/GPa)
#
#
# Indices 1 2 3 4 5 6 
#
# 1 0.017084 -0.008164 0.009308 0.000000 -0.022564 0.000000
# 2 -0.008164 0.049922 -0.010836 0.000000 -0.004316 0.000000
# 3 0.009308 -0.010836 0.056562 0.000000 -0.062608 0.000000
# 4 0.000000 0.000000 0.000000 0.043121 0.000000 -0.009998
# 5 -0.022564 -0.004316 -0.062608 0.000000 0.131569 0.000000
# 6 0.000000 0.000000 0.000000 -0.009998 0.000000 0.056980
#
#
# Mechanical properties :
#
#
# Convention : Reuss Voigt Hill
#
# Bulk Modulus (GPa) = 9.59835 28.92428 19.26131
# Shear Modulus (GPa) = 12.21450 20.82009 16.51729
#
# Velocity S-wave (km/s) = 2.64254 3.45005 3.07294
# Velocity P-wave (km/s) = 3.84683 5.69267 4.85822
#
# Compressibility (1/GPa) = 0.10418456
#
# Stress axis : x y z
#
# Youngs Moduli (GPa) = 58.53304 20.03145 17.67967
#
# Poissons Ratio (x) = 0.16353 -0.16456
# Poissons Ratio (y) = 0.47786 0.19157
# Poissons Ratio (z) = -0.54482 0.21705
#
# Static dielectric constant tensor:
#      x y z
#    x 1.606350 0.000000 0.027390 
#    y 0.000000 1.585540 0.000000 
#    z 0.027390 0.000000 1.582500 
# 
# From -- ./inp_files/43793.got.cif
#   From: 2010.05.17/outbox.cif.g08.bks.cpg/sg11_22_cif.got.tgz:43793.got - 2010.06.03 12:22:45.
