data_PCOD9156631
_publ_section_title
;
Structure prediction by ZEFSAII (Michael W. Deem and Ramdas Pophale) SiO2 
 PCOD9156631
Probable space group: P 21/M
;
_chemical_formula_sum "Si O2"
_cell_formula_units_Z 22
_cell_length_a 7.186511
_cell_length_b 14.028600
_cell_length_c 9.606364
_cell_angle_alpha 90.000000
_cell_angle_beta 96.350311
_cell_angle_gamma 90.000000
_cell_volume 962.539409
_symmetry_space_group_name_H-M "P 21/M"
_symmetry_group_IT_number 11
_symmetry_cell_setting 'monoclinic'
loop_
_space_group_symop_operation_xyz
x,y,z
-x,1/2+y,-z
-x,-y,-z
x,1/2-y,z
loop_
_atom_site_type_symbol
_atom_site_label
_atom_site_fract_x
_atom_site_fract_y
_atom_site_fract_z
Si Si1 0.042352 0.750000 0.855002
Si Si2 0.906616 0.639009 0.369930
Si Si3 0.014457 0.567683 0.684073
Si Si4 0.469917 0.750000 0.858774
Si Si5 0.529042 0.385704 0.652577
Si Si6 0.291572 0.750000 0.126908
Si Si7 0.452048 0.903039 0.657081
O O1 0.965214 0.647514 0.797138
O O2 0.248800 0.750000 0.801030
O O3 0.099570 0.750000 0.022910
O O4 0.971098 0.750000 0.356468
O O5 0.007326 0.547624 0.303819
O O6 0.684303 0.636859 0.320135
O O7 0.925363 0.608809 0.534369
O O8 0.238945 0.572783 0.678016
O O9 0.543021 0.841728 0.786642
O O10 0.455584 0.750000 0.021841
O O11 0.668287 0.338062 0.771189
O O12 0.550264 0.354696 0.494065
O O13 0.559466 0.498322 0.652797
#
# Coordination Sequence:
#
# PCOD9156631 Si02
#       7
#     2   4   4   2   4   2   4
#     4   8  16  31  46  71  96 132 169 195 240 308
#     4  10  18  29  48  78 103 126 167 223 252 287
#     4   9  17  32  51  73  98 135 172 207 248 305
#     4   8  17  29  45  67  96 133 161 192 239 300
#     4  10  19  31  49  80 101 123 163 218 259 289
#     4  10  19  30  47  76 104 131 164 203 251 304
#     4   9  18  33  51  73 100 129 168 206 253 297
#
# _framework density 22.856206
#
# number of rings (size 3 to 8) (size 9 to 14) (size 15 to 20)
#    0.545    2.182    1.818    0.545    0.000    0.727 
#    0.000    0.000    0.000    0.000    9.455    5.091 
#    0.000    0.000    0.000    0.000    0.000    0.000 
#
# Total GULP energy -122549.970177 kJ/mol
# GULP energy per Si atom -5570.453190 kJ/mol
# Density = 2.280418 g / cm^3
# Si number density = 22.856206 Si / 1000 Ang^3
#
#
#
# Elastic Constant Matrix: (Units=GPa)
#
#
# Indices 1 2 3 4 5 6 
#
# 1 84.7697 26.2883 18.1451 0.0000 3.8366 0.0000
# 2 26.2883 219.9556 75.3700 0.0000 2.7903 0.0000
# 3 18.1451 75.3700 116.6538 0.0000 3.9706 0.0000
# 4 0.0000 0.0000 0.0000 64.8761 0.0000 14.5405
# 5 3.8366 2.7903 3.9706 0.0000 20.4855 0.0000
# 6 0.0000 0.0000 0.0000 14.5405 0.0000 11.8641
#
#
#
# Elastic Compliance Matrix: (Units=1/GPa)
#
#
# Indices 1 2 3 4 5 6 
#
# 1 0.012468 -0.001058 -0.001189 0.000000 -0.001960 0.000000
# 2 -0.001058 0.005929 -0.003670 0.000000 0.000102 0.000000
# 3 -0.001189 -0.003670 0.011177 0.000000 -0.001444 0.000000
# 4 0.000000 0.000000 0.000000 0.021252 0.000000 -0.026046
# 5 -0.001960 0.000102 -0.001444 0.000000 0.049448 0.000000
# 6 0.000000 0.000000 0.000000 -0.026046 0.000000 0.116210
#
#
# Mechanical properties :
#
#
# Convention : Reuss Voigt Hill
#
# Bulk Modulus (GPa) = 56.36600 73.44286 64.90443
# Shear Modulus (GPa) = 21.34648 39.55018 30.44833
#
# Velocity S-wave (km/s) = 3.05937 4.16431 3.65385
# Velocity P-wave (km/s) = 6.09872 7.43803 6.80142
#
# Compressibility (1/GPa) = 0.01774119
#
# Stress axis : x y z
#
# Youngs Moduli (GPa) = 80.20550 168.66450 89.46598
#
# Poissons Ratio (x) = 0.17841 0.10639
# Poissons Ratio (y) = 0.08484 0.32831
# Poissons Ratio (z) = 0.09538 0.61893
#
# Static dielectric constant tensor:
#      x y z
#    x 1.908700 0.000000 -0.001540 
#    y 0.000000 1.947390 0.000000 
#    z -0.001540 0.000000 1.797030 
# 
# From -- ./inp_files/12633.got.cif
#   From: 2010.05.17/outbox.cif.g08.bks.cpg/sg11_7_cif.got.tgz:12633.got - 2010.06.03 12:22:45.
