data_PCOD9156965
_publ_section_title
;
Structure prediction by ZEFSAII (Michael W. Deem and Ramdas Pophale) SiO2 
 PCOD9156965
Probable space group: P 21/M
;
_chemical_formula_sum "Si O2"
_cell_formula_units_Z 28
_cell_length_a 12.029040
_cell_length_b 27.865791
_cell_length_c 14.035975
_cell_angle_alpha 90.000000
_cell_angle_beta 159.565105
_cell_angle_gamma 90.000000
_cell_volume 1642.661367
_symmetry_space_group_name_H-M "P 21/M"
_symmetry_group_IT_number 11
_symmetry_cell_setting 'monoclinic'
loop_
_space_group_symop_operation_xyz
x,y,z
-x,1/2+y,-z
-x,-y,-z
x,1/2-y,z
loop_
_atom_site_type_symbol
_atom_site_label
_atom_site_fract_x
_atom_site_fract_y
_atom_site_fract_z
Si Si1 0.141925 0.750000 0.802354
Si Si2 0.907350 0.054919 0.897957
Si Si3 0.811416 0.972576 0.062227
Si Si4 0.841313 0.572061 0.707243
Si Si5 0.920850 0.040210 0.517102
Si Si6 0.232342 0.851686 0.906378
Si Si7 0.125564 0.250000 0.617922
Si Si8 0.976459 0.855891 0.492548
O O1 0.122460 0.798381 0.845313
O O2 0.904524 0.750000 0.522131
O O3 0.506391 0.750000 0.055314
O O4 0.531577 0.062818 0.605100
O O5 0.017855 0.061852 0.877936
O O6 0.085798 0.083954 0.123783
O O7 0.000000 0.000000 0.000000
O O8 0.861557 0.962464 0.214053
O O9 0.439050 0.971318 0.740833
O O10 0.968981 0.024029 0.169406
O O11 0.996283 0.611742 0.765549
O O12 0.945638 0.094714 0.498704
O O13 0.000000 0.000000 0.500000
O O14 0.191209 0.854626 0.759330
O O15 0.604933 0.859063 0.226226
O O16 0.990739 0.303518 0.533337
#
# Coordination Sequence:
#
# PCOD9156965 Si02
#       8
#     2   4   4   4   4   4   2   4
#     4   8  16  28  46  70  97 122 147 190 242 282
#     4  10  20  34  50  69  91 123 164 198 229 271
#     4  11  21  34  47  67  98 127 157 196 229 275
#     4  11  19  32  52  72  93 126 159 195 236 283
#     4  12  22  32  47  71 100 130 154 187 239 289
#     4  10  18  31  49  73 100 124 154 193 236 286
#     4   8  16  30  48  64  91 126 163 198 222 264
#     4  10  19  32  47  71  99 129 160 191 231 283
#
# _framework density 17.045508999999999
#
# number of rings (size 3 to 8) (size 9 to 14) (size 15 to 20)
#    0.000    1.714    0.000    8.143    0.000    0.000 
#    0.000    0.000    0.000    0.000    0.000    6.000 
#    0.000    0.000    0.000    0.000    0.000    0.000 
#
# Total GULP energy -155992.596914 kJ/mol
# GULP energy per Si atom -5571.164176 kJ/mol
# Density = 1.700671 g / cm^3
# Si number density = 17.045509 Si / 1000 Ang^3
#
#
#
# Elastic Constant Matrix: (Units=GPa)
#
#
# Indices 1 2 3 4 5 6 
#
# 1 45.0440 30.3417 -7.9348 0.0000 -3.1064 0.0000
# 2 30.3417 127.9645 7.9002 0.0000 24.2519 0.0000
# 3 -7.9348 7.9002 78.8018 0.0000 6.0374 0.0000
# 4 0.0000 0.0000 0.0000 49.4394 0.0000 -15.8212
# 5 -3.1064 24.2519 6.0374 0.0000 41.3932 0.0000
# 6 0.0000 0.0000 0.0000 -15.8212 0.0000 19.1589
#
#
#
# Elastic Compliance Matrix: (Units=1/GPa)
#
#
# Indices 1 2 3 4 5 6 
#
# 1 0.028784 -0.008262 0.003226 0.000000 0.006530 0.000000
# 2 -0.008262 0.011181 -0.001419 0.000000 -0.006964 0.000000
# 3 0.003226 -0.001419 0.013223 0.000000 -0.000855 0.000000
# 4 0.000000 0.000000 0.000000 0.027492 0.000000 0.022702
# 5 0.006530 -0.006964 -0.000855 0.000000 0.028853 0.000000
# 6 0.000000 0.000000 0.000000 0.022702 0.000000 0.070942
#
#
# Mechanical properties :
#
#
# Convention : Reuss Voigt Hill
#
# Bulk Modulus (GPa) = 24.82709 34.71385 29.77047
# Shear Modulus (GPa) = 24.17659 36.76518 30.47089
#
# Velocity S-wave (km/s) = 3.77019 4.64926 4.23261
# Velocity P-wave (km/s) = 5.79217 7.01644 6.43350
#
# Compressibility (1/GPa) = 0.04027858
#
# Stress axis : x y z
#
# Youngs Moduli (GPa) = 34.74100 89.43687 75.62732
#
# Poissons Ratio (x) = 0.73892 -0.24400
# Poissons Ratio (y) = 0.28703 0.10734
# Poissons Ratio (z) = -0.11209 0.12694
#
# Static dielectric constant tensor:
#      x y z
#    x 1.605150 0.000000 -0.023260 
#    y 0.000000 1.745700 0.000000 
#    z -0.023260 0.000000 1.571790 
# 
# From -- ./inp_files/50853.got.cif
#   From: 2010.05.17/outbox.cif.g08.bks.cpg/sg11_26_cif.got.tgz:50853.got - 2010.06.03 12:22:45.
