data_PCOD9156770
_publ_section_title
;
Structure prediction by ZEFSAII (Michael W. Deem and Ramdas Pophale) SiO2 
 PCOD9156770
Probable space group: P 21/M
;
_chemical_formula_sum "Si O2"
_cell_formula_units_Z 32
_cell_length_a 13.130673
_cell_length_b 17.208020
_cell_length_c 19.076820
_cell_angle_alpha 90.000000
_cell_angle_beta 161.537810
_cell_angle_gamma 90.000000
_cell_volume 1365.032002
_symmetry_space_group_name_H-M "P 21/M"
_symmetry_group_IT_number 11
_symmetry_cell_setting 'monoclinic'
loop_
_space_group_symop_operation_xyz
x,y,z
-x,1/2+y,-z
-x,-y,-z
x,1/2-y,z
loop_
_atom_site_type_symbol
_atom_site_label
_atom_site_fract_x
_atom_site_fract_y
_atom_site_fract_z
Si Si1 0.228604 0.542948 0.231933
Si Si2 0.126312 0.339416 0.519798
Si Si3 0.375280 0.955792 0.851611
Si Si4 0.230130 0.118140 0.174691
Si Si5 0.466709 0.165224 0.468315
Si Si6 0.120623 0.335541 0.806120
Si Si7 0.201155 0.874434 0.545942
Si Si8 0.535193 0.474229 0.818900
O O1 0.379887 0.466347 0.295856
O O2 0.467833 0.592940 0.436624
O O3 0.082279 0.596919 0.074834
O O4 0.902669 0.505106 0.054049
O O5 0.156197 0.250000 0.517284
O O6 0.925861 0.398044 0.338547
O O7 0.931581 0.341615 0.467459
O O8 0.458051 0.386664 0.746008
O O9 0.379197 0.019084 0.793637
O O10 0.649979 0.895689 0.007474
O O11 0.500000 0.000000 0.000000
O O12 0.208022 0.157343 0.236446
O O13 0.473526 0.159158 0.278983
O O14 0.428358 0.250000 0.478351
O O15 0.794474 0.166959 0.636917
O O16 0.267363 0.250000 0.901190
O O17 0.049505 0.361493 0.680390
O O18 0.317185 0.962161 0.636388
#
# Coordination Sequence:
#
# PCOD9156770 Si02
#       8
#     4   4   4   4   4   4   4   4
#     4  10  19  38  60  86 116 156 203 240 281 357
#     4  11  22  36  55  81 114 149 186 243 299 338
#     4  11  20  33  52  78 108 146 193 235 279 350
#     4   9  20  35  60  88 112 151 197 239 292 346
#     4  10  20  34  55  86 121 149 187 246 301 341
#     4  10  18  30  48  79 113 142 177 233 299 338
#     4   9  18  34  56  81 111 144 192 238 284 343
#     4  10  20  36  55  79 109 152 198 228 281 347
#
# _framework density 23.442674
#
# number of rings (size 3 to 8) (size 9 to 14) (size 15 to 20)
#    0.000    2.000    1.250    4.125    0.000    1.000 
#    0.000    3.125    0.000    4.500    0.000    0.000 
#    0.000    0.000    0.000    0.000    0.000    0.000 
#
# Total GULP energy -178395.929284 kJ/mol
# GULP energy per Si atom -5574.872790 kJ/mol
# Density = 2.338932 g / cm^3
# Si number density = 23.442674 Si / 1000 Ang^3
#
#
#
# Elastic Constant Matrix: (Units=GPa)
#
#
# Indices 1 2 3 4 5 6 
#
# 1 79.7273 23.1923 12.2492 0.0000 -9.2520 0.0000
# 2 23.1923 123.3916 32.4484 0.0000 -2.2773 0.0000
# 3 12.2492 32.4484 50.2123 0.0000 -3.3218 0.0000
# 4 0.0000 0.0000 0.0000 13.0563 0.0000 -0.7807
# 5 -9.2520 -2.2773 -3.3218 0.0000 29.9196 0.0000
# 6 0.0000 0.0000 0.0000 -0.7807 0.0000 17.4077
#
#
#
# Elastic Compliance Matrix: (Units=1/GPa)
#
#
# Indices 1 2 3 4 5 6 
#
# 1 0.013875 -0.002064 -0.001790 0.000000 0.003935 0.000000
# 2 -0.002064 0.010071 -0.006040 0.000000 -0.000542 0.000000
# 3 -0.001790 -0.006040 0.024367 0.000000 0.001692 0.000000
# 4 0.000000 0.000000 0.000000 0.076797 0.000000 0.003444
# 5 0.003935 -0.000542 0.001692 0.000000 0.034786 0.000000
# 6 0.000000 0.000000 0.000000 0.003444 0.000000 0.057600
#
#
# Mechanical properties :
#
#
# Convention : Reuss Voigt Hill
#
# Bulk Modulus (GPa) = 35.05937 43.23458 39.14697
# Shear Modulus (GPa) = 20.25978 24.43948 22.34963
#
# Velocity S-wave (km/s) = 2.94296 3.23231 3.09102
# Velocity P-wave (km/s) = 5.15130 5.69326 5.42904
#
# Compressibility (1/GPa) = 0.02852305
#
# Stress axis : x y z
#
# Youngs Moduli (GPa) = 72.07228 99.29800 41.03837
#
# Poissons Ratio (x) = 0.20500 0.07347
# Poissons Ratio (y) = 0.14879 0.24788
# Poissons Ratio (z) = 0.12904 0.59978
#
# Static dielectric constant tensor:
#      x y z
#    x 1.933890 0.000000 0.001460 
#    y 0.000000 1.994100 0.000000 
#    z 0.001460 0.000000 1.944420 
# 
# From -- ./inp_files/65857.got.cif
#   From: 2010.05.17/outbox.cif.g08.bks.cpg/sg11_33_cif.got.tgz:65857.got - 2010.06.03 12:22:45.
