data_PCOD9156904
_publ_section_title
;
Structure prediction by ZEFSAII (Michael W. Deem and Ramdas Pophale) SiO2 
 PCOD9156904
Probable space group: P 21/M
;
_chemical_formula_sum "Si O2"
_cell_formula_units_Z 28
_cell_length_a 15.428121
_cell_length_b 8.119895
_cell_length_c 12.978873
_cell_angle_alpha 90.000000
_cell_angle_beta 131.881963
_cell_angle_gamma 90.000000
_cell_volume 1210.536308
_symmetry_space_group_name_H-M "P 21/M"
_symmetry_group_IT_number 11
_symmetry_cell_setting 'monoclinic'
loop_
_space_group_symop_operation_xyz
x,y,z
-x,1/2+y,-z
-x,-y,-z
x,1/2-y,z
loop_
_atom_site_type_symbol
_atom_site_label
_atom_site_fract_x
_atom_site_fract_y
_atom_site_fract_z
Si Si1 0.738691 0.551186 0.446422
Si Si2 0.998139 0.944429 0.381000
Si Si3 0.624502 0.051375 0.801852
Si Si4 0.068052 0.052113 0.154076
Si Si5 0.851394 0.447543 0.102168
Si Si6 0.331215 0.051582 0.385789
Si Si7 0.453320 0.051657 0.851268
O O1 0.736053 0.750000 0.446598
O O2 0.873880 0.504431 0.558064
O O3 0.665406 0.498611 0.491144
O O4 0.672656 0.495007 0.290576
O O5 0.996365 0.750000 0.370760
O O6 0.000000 0.000000 0.500000
O O7 0.872477 0.008131 0.236822
O O8 0.624453 0.250000 0.800466
O O9 0.537859 0.999392 0.824330
O O10 0.600635 0.002181 0.663867
O O11 0.749250 0.990525 0.946971
O O12 0.074978 0.250000 0.169688
O O13 0.199119 0.992907 0.255819
O O14 0.977229 0.988265 0.165450
O O15 0.000000 0.000000 0.000000
O O16 0.846907 0.250000 0.090048
O O17 0.340334 0.250000 0.393841
O O18 0.453160 0.250000 0.852847
O O19 0.500000 0.000000 0.000000
#
# Coordination Sequence:
#
# PCOD9156904 Si02
#       7
#     4   4   4   4   4   4   4
#     4  10  22  44  66  90 127 168 208 258 318 368
#     4  12  26  41  62  92 125 162 208 258 312 376
#     4  10  22  39  61  93 128 164 207 258 312 367
#     4  10  18  30  51  81 119 160 195 236 292 354
#     4  10  20  37  58  85 126 165 200 249 306 366
#     4  10  20  35  58  88 125 165 208 256 309 371
#     4  10  24  45  68  91 121 161 209 265 317 370
#
# _framework density 23.130244999999999
#
# number of rings (size 3 to 8) (size 9 to 14) (size 15 to 20)
#    0.000    1.714    2.857    1.286    2.000    3.429 
#    0.000    0.000    0.000    0.000    0.000    0.000 
#    0.000    0.000    0.000    0.000    0.000    0.000 
#
# Total GULP energy -155990.481370 kJ/mol
# GULP energy per Si atom -5571.088620 kJ/mol
# Density = 2.307760 g / cm^3
# Si number density = 23.130245 Si / 1000 Ang^3
#
#
#
# Elastic Constant Matrix: (Units=GPa)
#
#
# Indices 1 2 3 4 5 6 
#
# 1 90.0806 9.2000 35.1620 0.0000 -11.3011 0.0000
# 2 9.2000 14.5907 7.6456 0.0000 -1.2617 0.0000
# 3 35.1620 7.6456 180.1748 0.0000 -13.1852 0.0000
# 4 0.0000 0.0000 0.0000 27.4098 0.0000 -11.6156
# 5 -11.3011 -1.2617 -13.1852 0.0000 28.7526 0.0000
# 6 0.0000 0.0000 0.0000 -11.6156 0.0000 18.4779
#
#
#
# Elastic Compliance Matrix: (Units=1/GPa)
#
#
# Indices 1 2 3 4 5 6 
#
# 1 0.013065 -0.006865 -0.001971 0.000000 0.003930 0.000000
# 2 -0.006865 0.073790 -0.001813 0.000000 -0.000292 0.000000
# 3 -0.001971 -0.001813 0.006156 0.000000 0.001969 0.000000
# 4 0.000000 0.000000 0.000000 0.049731 0.000000 0.031262
# 5 0.003930 -0.000292 0.001969 0.000000 0.037214 0.000000
# 6 0.000000 0.000000 0.000000 0.031262 0.000000 0.073771
#
#
# Mechanical properties :
#
#
# Convention : Reuss Voigt Hill
#
# Bulk Modulus (GPa) = 13.94443 43.20681 28.57562
# Shear Modulus (GPa) = 16.72638 30.45062 23.58850
#
# Velocity S-wave (km/s) = 2.69204 3.63228 3.19691
# Velocity P-wave (km/s) = 3.96289 6.02591 5.09981
#
# Compressibility (1/GPa) = 0.07171322
#
# Stress axis : x y z
#
# Youngs Moduli (GPa) = 76.54268 13.55192 162.44958
#
# Poissons Ratio (x) = 0.09304 0.32014
# Poissons Ratio (y) = 0.52548 0.29449
# Poissons Ratio (z) = 0.15084 0.02457
#
# Static dielectric constant tensor:
#      x y z
#    x 2.057520 0.000000 -0.125270 
#    y 0.000000 1.829760 0.000000 
#    z -0.125270 0.000000 2.099180 
# 
# From -- ./inp_files/38467.got.cif
#   From: 2010.05.17/outbox.cif.g08.bks.cpg/sg11_20_cif.got.tgz:38467.got - 2010.06.03 12:22:45.
