data_PCOD9156680
_publ_section_title
;
Structure prediction by ZEFSAII (Michael W. Deem and Ramdas Pophale) SiO2 
 PCOD9156680
Probable space group: P 21/M
;
_chemical_formula_sum "Si O2"
_cell_formula_units_Z 24
_cell_length_a 9.856533
_cell_length_b 11.682183
_cell_length_c 9.898074
_cell_angle_alpha 90.000000
_cell_angle_beta 57.234652
_cell_angle_gamma 90.000000
_cell_volume 958.385362
_symmetry_space_group_name_H-M "P 21/M"
_symmetry_group_IT_number 11
_symmetry_cell_setting 'monoclinic'
loop_
_space_group_symop_operation_xyz
x,y,z
-x,1/2+y,-z
-x,-y,-z
x,1/2-y,z
loop_
_atom_site_type_symbol
_atom_site_label
_atom_site_fract_x
_atom_site_fract_y
_atom_site_fract_z
Si Si1 0.825174 0.870674 0.184949
Si Si2 0.825223 0.446209 0.985886
Si Si3 0.689882 0.376027 0.579269
Si Si4 0.929598 0.878391 0.693933
Si Si5 0.297925 0.377259 0.449555
Si Si6 0.436437 0.629732 0.051456
O O1 0.758166 0.750000 0.171210
O O2 0.802389 0.873232 0.357149
O O3 0.754360 0.976765 0.143524
O O4 0.015229 0.881597 0.052864
O O5 0.691661 0.366113 0.998603
O O6 0.879312 0.531144 0.834583
O O7 0.640192 0.250000 0.547703
O O8 0.881737 0.388690 0.447777
O O9 0.614077 0.499709 0.582828
O O10 0.653806 0.368152 0.757243
O O11 0.911295 0.750000 0.758465
O O12 0.182479 0.112756 0.379548
O O13 0.377671 0.250000 0.396445
O O14 0.535213 0.750000 0.991721
O O15 0.500000 0.500000 0.000000
#
# Coordination Sequence:
#
# PCOD9156680 Si02
#       6
#     4   4   4   4   4   4
#     4  10  21  33  53  89 132 164 191 239 307 372
#     4  11  20  36  58  87 127 162 201 242 303 369
#     4  10  19  34  55  85 117 148 194 248 301 355
#     4  10  18  29  55  88 119 154 197 247 304 363
#     4  10  18  31  51  83 121 157 190 234 297 362
#     4  11  25  42  63  88 121 164 211 261 303 352
#
# _framework density 25.042119
#
# number of rings (size 3 to 8) (size 9 to 14) (size 15 to 20)
#    0.000    1.667    3.333    2.500    0.000    4.667 
#    0.000    0.833    0.000    1.000    0.000    0.000 
#    0.000    0.000    0.000    0.000    0.000    0.000 
#
# Total GULP energy -133983.844705 kJ/mol
# GULP energy per Si atom -5582.660196 kJ/mol
# Density = 2.498512 g / cm^3
# Si number density = 25.042119 Si / 1000 Ang^3
#
#
#
# Elastic Constant Matrix: (Units=GPa)
#
#
# Indices 1 2 3 4 5 6 
#
# 1 51.1776 25.2540 28.1570 0.0000 -0.5649 0.0000
# 2 25.2540 263.7563 25.6519 0.0000 -2.1880 0.0000
# 3 28.1570 25.6519 68.1189 0.0000 3.6174 0.0000
# 4 0.0000 0.0000 0.0000 10.8865 0.0000 6.8984
# 5 -0.5649 -2.1880 3.6174 0.0000 33.6275 0.0000
# 6 0.0000 0.0000 0.0000 6.8984 0.0000 -2.8406
#
#
#
# Elastic Compliance Matrix: (Units=1/GPa)
#
#
# Indices 1 2 3 4 5 6 
#
# 1 0.025913 -0.001474 -0.010232 0.000000 0.001440 0.000000
# 2 -0.001474 0.004025 -0.000924 0.000000 0.000337 0.000000
# 3 -0.010232 -0.000924 0.019381 0.000000 -0.002317 0.000000
# 4 0.000000 0.000000 0.000000 0.036181 0.000000 0.087864
# 5 0.001440 0.000337 -0.002317 0.000000 0.030033 0.000000
# 6 0.000000 0.000000 0.000000 0.087864 0.000000 -0.138659
#
#
# Mechanical properties :
#
#
# Convention : Reuss Voigt Hill
#
# Bulk Modulus (GPa) = 41.56757 60.13098 50.84927
# Shear Modulus (GPa) = 492.42279 28.60067 260.51173
#
# Velocity S-wave (km/s) = 14.03797 3.38317 10.21055
# Velocity P-wave (km/s) = 16.71490 6.27098 12.62365
#
# Compressibility (1/GPa) = 0.02405722
#
# Stress axis : x y z
#
# Youngs Moduli (GPa) = 38.59104 248.43469 51.59705
#
# Poissons Ratio (x) = 0.36618 0.52797
# Poissons Ratio (y) = 0.05688 0.04770
# Poissons Ratio (z) = 0.39488 0.22965
#
# Static dielectric constant tensor:
#      x y z
#    x 1.950270 0.000000 -0.035910 
#    y 0.000000 2.141810 0.000000 
#    z -0.035910 0.000000 1.932700 
# 
# From -- ./inp_files/34649.got.cif
#   From: 2010.05.17/outbox.cif.g08.bks.cpg/sg11_18_cif.got.tgz:34649.got - 2010.06.03 12:22:45.
