data_PCOD9156716
_publ_section_title
;
Structure prediction by ZEFSAII (Michael W. Deem and Ramdas Pophale) SiO2 
 PCOD9156716
Probable space group: P 21/M
;
_chemical_formula_sum "Si O2"
_cell_formula_units_Z 28
_cell_length_a 22.495459
_cell_length_b 9.010859
_cell_length_c 18.456278
_cell_angle_alpha 90.000000
_cell_angle_beta 152.967587
_cell_angle_gamma 90.000000
_cell_volume 1700.332244
_symmetry_space_group_name_H-M "P 21/M"
_symmetry_group_IT_number 11
_symmetry_cell_setting 'monoclinic'
loop_
_space_group_symop_operation_xyz
x,y,z
-x,1/2+y,-z
-x,-y,-z
x,1/2-y,z
loop_
_atom_site_type_symbol
_atom_site_label
_atom_site_fract_x
_atom_site_fract_y
_atom_site_fract_z
Si Si1 0.620658 0.576380 0.969743
Si Si2 0.374276 0.072304 0.325207
Si Si3 0.133427 0.072017 0.170758
Si Si4 0.582664 0.071912 0.779499
Si Si5 0.275810 0.427591 0.468857
Si Si6 0.642562 0.429296 0.140113
Si Si7 0.695890 0.421937 0.353687
O O1 0.654919 0.750000 0.004128
O O2 0.644653 0.494202 0.920012
O O3 0.462473 0.567788 0.809399
O O4 0.684194 0.496329 0.108280
O O5 0.391360 0.250000 0.339117
O O6 0.248957 0.041348 0.239084
O O7 0.500000 0.000000 0.500000
O O8 0.361104 0.002027 0.231516
O O9 0.118052 0.250000 0.157704
O O10 0.182396 0.019066 0.302965
O O11 0.000000 0.000000 0.000000
O O12 0.594860 0.250000 0.790861
O O13 0.426774 0.035060 0.613032
O O14 0.269528 0.250000 0.464248
O O15 0.246057 0.488790 0.516262
O O16 0.632202 0.250000 0.125304
O O17 0.723713 0.468188 0.300915
O O18 0.500000 0.500000 0.000000
O O19 0.731452 0.250000 0.400018
#
# Coordination Sequence:
#
# PCOD9156716 Si02
#       7
#     4   4   4   4   4   4   4
#     4   9  16  25  37  58  87 120 157 194 237 288
#     4  11  21  35  53  74 100 127 165 208 248 297
#     4  10  22  38  52  72  99 129 165 207 251 298
#     4  10  18  30  47  69  95 124 160 201 246 290
#     4   9  17  30  45  64  92 121 156 200 242 287
#     4   9  15  23  34  52  82 119 156 194 235 284
#     4   8  15  24  36  57  83 115 157 194 231 283
#
# _framework density 16.467369000000001
#
# number of rings (size 3 to 8) (size 9 to 14) (size 15 to 20)
#    0.000    2.571    1.429    2.571    0.000    6.286 
#    0.000    0.000    0.000    0.000    0.000    0.000 
#    0.000    1.143    0.000    3.714    0.000    6.429 
#
# Total GULP energy -155965.490741 kJ/mol
# GULP energy per Si atom -5570.196098 kJ/mol
# Density = 1.642989 g / cm^3
# Si number density = 16.467369 Si / 1000 Ang^3
#
#
#
# Elastic Constant Matrix: (Units=GPa)
#
#
# Indices 1 2 3 4 5 6 
#
# 1 116.7080 56.8755 66.1692 0.0000 -48.6765 0.0000
# 2 56.8755 61.3650 43.3769 0.0000 -17.9643 0.0000
# 3 66.1692 43.3769 76.9531 0.0000 -27.8805 0.0000
# 4 0.0000 0.0000 0.0000 22.0727 0.0000 -9.8763
# 5 -48.6765 -17.9643 -27.8805 0.0000 35.0718 0.0000
# 6 0.0000 0.0000 0.0000 -9.8763 0.0000 30.3604
#
#
#
# Elastic Compliance Matrix: (Units=1/GPa)
#
#
# Indices 1 2 3 4 5 6 
#
# 1 0.036804 -0.017396 -0.009217 0.000000 0.034843 0.000000
# 2 -0.017396 0.035462 -0.010109 0.000000 -0.014016 0.000000
# 3 -0.009217 -0.010109 0.028242 0.000000 0.004481 0.000000
# 4 0.000000 0.000000 0.000000 0.053022 0.000000 0.017248
# 5 0.034843 -0.014016 0.004481 0.000000 0.073255 0.000000
# 6 0.000000 0.000000 0.000000 0.017248 0.000000 0.038548
#
#
# Mechanical properties :
#
#
# Convention : Reuss Voigt Hill
#
# Bulk Modulus (GPa) = 36.94968 65.31883 51.13426
# Shear Modulus (GPa) = 14.37612 23.40794 18.89203
#
# Velocity S-wave (km/s) = 2.95787 3.77433 3.39077
# Velocity P-wave (km/s) = 5.84399 7.66458 6.81535
#
# Compressibility (1/GPa) = 0.02706383
#
# Stress axis : x y z
#
# Youngs Moduli (GPa) = 27.17092 28.19922 35.40852
#
# Poissons Ratio (x) = 0.49056 0.32635
# Poissons Ratio (y) = 0.47267 0.35795
# Poissons Ratio (z) = 0.25043 0.28507
#
# Static dielectric constant tensor:
#      x y z
#    x 1.574830 0.000000 -0.032700 
#    y 0.000000 1.551540 0.000000 
#    z -0.032700 0.000000 1.539850 
# 
# From -- ./inp_files/29028.got.cif
#   From: 2010.05.17/outbox.cif.g08.bks.cpg/sg11_15_cif.got.tgz:29028.got - 2010.06.03 12:22:45.
