data_PCOD9156763
_publ_section_title
;
Structure prediction by ZEFSAII (Michael W. Deem and Ramdas Pophale) SiO2 
 PCOD9156763
Probable space group: P 21/M
;
_chemical_formula_sum "Si O2"
_cell_formula_units_Z 32
_cell_length_a 12.045201
_cell_length_b 9.383584
_cell_length_c 21.801857
_cell_angle_alpha 90.000000
_cell_angle_beta 130.241155
_cell_angle_gamma 90.000000
_cell_volume 1881.004655
_symmetry_space_group_name_H-M "P 21/M"
_symmetry_group_IT_number 11
_symmetry_cell_setting 'monoclinic'
loop_
_space_group_symop_operation_xyz
x,y,z
-x,1/2+y,-z
-x,-y,-z
x,1/2-y,z
loop_
_atom_site_type_symbol
_atom_site_label
_atom_site_fract_x
_atom_site_fract_y
_atom_site_fract_z
Si Si1 0.444791 0.586165 0.171370
Si Si2 0.357432 0.083655 0.472136
Si Si3 0.685164 0.080811 0.420432
Si Si4 0.453075 0.421764 0.921886
Si Si5 0.220130 0.415038 0.660724
Si Si6 0.870903 0.578984 0.240313
Si Si7 0.863674 0.584295 0.720487
Si Si8 0.644459 0.918980 0.746448
O O1 0.396566 0.750000 0.155750
O O2 0.450635 0.536482 0.103146
O O3 0.613073 0.584789 0.254650
O O4 0.356722 0.494512 0.188517
O O5 0.391174 0.250000 0.497687
O O6 0.243347 0.080041 0.376063
O O7 0.500000 0.000000 0.500000
O O8 0.295227 0.004147 0.509571
O O9 0.709994 0.250000 0.436019
O O10 0.514694 0.059199 0.341130
O O11 0.779420 0.013920 0.398800
O O12 0.463404 0.250000 0.931785
O O13 0.286586 0.455626 0.844366
O O14 0.500000 0.500000 0.000000
O O15 0.184253 0.250000 0.632973
O O16 0.128300 0.463812 0.687214
O O17 0.885264 0.750000 0.245031
O O18 0.996298 0.506116 0.246426
O O19 0.902868 0.750000 0.744939
O O20 0.769941 0.531596 0.745034
O O21 0.659732 0.750000 0.759715
#
# Coordination Sequence:
#
# PCOD9156763 Si02
#       8
#     4   4   4   4   4   4   4   4
#     4   8  15  28  47  73 100 126 159 200 241 288
#     4  11  21  34  49  69  99 132 169 215 259 298
#     4  10  18  30  48  72  98 125 166 214 257 300
#     4   9  18  33  54  81 109 130 158 200 243 291
#     4   8  15  30  49  69  95 127 162 205 253 293
#     4   9  19  35  53  75 103 132 167 206 243 298
#     4  10  21  35  49  70 102 134 167 209 253 298
#     4   9  17  30  46  69 100 129 162 208 250 289
#
# _framework density 17.012184999999999
#
# number of rings (size 3 to 8) (size 9 to 14) (size 15 to 20)
#    0.000    2.750    1.250    2.250    0.000    3.500 
#    0.000    3.125    0.000    0.750    0.000    0.000 
#    0.000    0.000    0.000    0.000    0.000    0.000 
#
# Total GULP energy -178366.465504 kJ/mol
# GULP energy per Si atom -5573.952047 kJ/mol
# Density = 1.697346 g / cm^3
# Si number density = 17.012185 Si / 1000 Ang^3
#
#
#
# Elastic Constant Matrix: (Units=GPa)
#
#
# Indices 1 2 3 4 5 6 
#
# 1 136.5176 52.5921 41.5015 0.0000 -29.2666 0.0000
# 2 52.5921 51.6523 30.8099 0.0000 -15.6038 0.0000
# 3 41.5015 30.8099 44.9216 0.0000 -26.1551 0.0000
# 4 0.0000 0.0000 0.0000 26.1001 0.0000 -6.2792
# 5 -29.2666 -15.6038 -26.1551 0.0000 29.7318 0.0000
# 6 0.0000 0.0000 0.0000 -6.2792 0.0000 33.8600
#
#
#
# Elastic Compliance Matrix: (Units=1/GPa)
#
#
# Indices 1 2 3 4 5 6 
#
# 1 0.013205 -0.010929 -0.000974 0.000000 0.006405 0.000000
# 2 -0.010929 0.042218 -0.025055 0.000000 -0.010642 0.000000
# 3 -0.000974 -0.025055 0.065868 0.000000 0.043836 0.000000
# 4 0.000000 0.000000 0.000000 0.040103 0.000000 0.007437
# 5 0.006405 -0.010642 0.043836 0.000000 0.072916 0.000000
# 6 0.000000 0.000000 0.000000 0.007437 0.000000 0.030912
#
#
# Mechanical properties :
#
#
# Convention : Reuss Voigt Hill
#
# Bulk Modulus (GPa) = 21.10827 53.65540 37.38183
# Shear Modulus (GPa) = 14.08725 25.15092 19.61908
#
# Velocity S-wave (km/s) = 2.88074 3.84918 3.39962
# Velocity P-wave (km/s) = 4.84763 7.16678 6.11810
#
# Compressibility (1/GPa) = 0.04737480
#
# Stress axis : x y z
#
# Youngs Moduli (GPa) = 75.73125 23.68658 15.18179
#
# Poissons Ratio (x) = 0.25886 0.01479
# Poissons Ratio (y) = 0.82764 0.38038
# Poissons Ratio (z) = 0.07379 0.59347
#
# Static dielectric constant tensor:
#      x y z
#    x 1.584340 0.000000 -0.005320 
#    y 0.000000 1.567010 0.000000 
#    z -0.005320 0.000000 1.565050 
# 
# From -- ./inp_files/40629.got.cif
#   From: 2010.05.17/outbox.cif.g08.bks.cpg/sg11_21_cif.got.tgz:40629.got - 2010.06.03 12:22:45.
