data_PCOD9156329
_publ_section_title
;
Structure prediction by ZEFSAII (Michael W. Deem and Ramdas Pophale) SiO2 
 PCOD9156329
Probable space group: P 21/M
;
_chemical_formula_sum "Si O2"
_cell_formula_units_Z 32
_cell_length_a 16.590856
_cell_length_b 8.795833
_cell_length_c 31.605908
_cell_angle_alpha 90.000000
_cell_angle_beta 150.616978
_cell_angle_gamma 90.000000
_cell_volume 2262.986299
_symmetry_space_group_name_H-M "P 21/M"
_symmetry_group_IT_number 11
_symmetry_cell_setting 'monoclinic'
loop_
_space_group_symop_operation_xyz
x,y,z
-x,1/2+y,-z
-x,-y,-z
x,1/2-y,z
loop_
_atom_site_type_symbol
_atom_site_label
_atom_site_fract_x
_atom_site_fract_y
_atom_site_fract_z
Si Si1 0.181144 0.932066 0.174302
Si Si2 0.904773 0.432244 0.996858
Si Si3 0.318247 0.067532 0.412202
Si Si4 0.078909 0.931672 0.471092
Si Si5 0.761315 0.068647 0.366060
Si Si6 0.349508 0.433038 0.333857
Si Si7 0.404243 0.932302 0.194371
Si Si8 0.716628 0.567230 0.511327
O O1 0.172881 0.750000 0.172214
O O2 0.304495 0.972497 0.191789
O O3 0.253726 0.998822 0.250451
O O4 0.002040 0.998404 0.080779
O O5 0.920405 0.250000 0.004218
O O6 0.715229 0.469390 0.899862
O O7 0.000000 0.500000 0.000000
O O8 0.328766 0.250000 0.417006
O O9 0.265534 0.024072 0.340629
O O10 0.231760 0.024759 0.416767
O O11 0.500000 0.000000 0.500000
O O12 0.078148 0.750000 0.466631
O O13 0.188139 0.971900 0.562503
O O14 0.158833 0.005816 0.466540
O O15 0.897098 0.991361 0.398364
O O16 0.773497 0.250000 0.367590
O O17 0.578350 0.013260 0.273161
O O18 0.356205 0.250000 0.333622
O O19 0.535823 0.497048 0.420117
O O20 0.427811 0.750000 0.205793
O O21 0.704684 0.750000 0.503027
#
# Coordination Sequence:
#
# PCOD9156329 Si02
#       8
#     4   4   4   4   4   4   4   4
#     4  10  19  29  42  62  86 113 144 176 210 246
#     4   9  17  29  43  60  83 111 141 173 209 248
#     4   8  16  28  41  58  81 109 139 172 207 245
#     4  10  20  32  44  60  83 110 141 176 211 246
#     4  10  20  31  44  61  81 108 141 176 211 245
#     4  10  18  28  42  61  85 113 144 174 208 249
#     4   9  18  30  43  59  82 111 140 171 208 248
#     4  10  18  29  44  61  83 111 143 176 210 248
#
# _framework density 14.140606
#
# number of rings (size 3 to 8) (size 9 to 14) (size 15 to 20)
#    0.000    2.500    0.000    3.750    0.000    7.500 
#    0.000    0.000    0.000    0.000    0.000    0.000 
#    0.000    1.000    0.000    3.000    0.000    4.000 
#
# Total GULP energy -178233.520165 kJ/mol
# GULP energy per Si atom -5569.797505 kJ/mol
# Density = 1.410842 g / cm^3
# Si number density = 14.140606 Si / 1000 Ang^3
#
#
#
# Elastic Constant Matrix: (Units=GPa)
#
#
# Indices 1 2 3 4 5 6 
#
# 1 108.9560 39.2576 54.3577 0.0000 -10.4586 0.0000
# 2 39.2576 44.2737 40.3483 0.0000 -2.6923 0.0000
# 3 54.3577 40.3483 106.6233 0.0000 -7.9906 0.0000
# 4 0.0000 0.0000 0.0000 25.0582 0.0000 0.7274
# 5 -10.4586 -2.6923 -7.9906 0.0000 20.9221 0.0000
# 6 0.0000 0.0000 0.0000 0.7274 0.0000 19.7956
#
#
#
# Elastic Compliance Matrix: (Units=1/GPa)
#
#
# Indices 1 2 3 4 5 6 
#
# 1 0.014912 -0.009663 -0.003583 0.000000 0.004842 0.000000
# 2 -0.009663 0.040745 -0.010770 0.000000 -0.003700 0.000000
# 3 -0.003583 -0.010770 0.015486 0.000000 0.002738 0.000000
# 4 0.000000 0.000000 0.000000 0.039950 0.000000 -0.001468
# 5 0.004842 -0.003700 0.002738 0.000000 0.050786 0.000000
# 6 0.000000 0.000000 0.000000 -0.001468 0.000000 0.050570
#
#
# Mechanical properties :
#
#
# Convention : Reuss Voigt Hill
#
# Bulk Modulus (GPa) = 43.26759 58.64224 50.95492
# Shear Modulus (GPa) = 18.64401 21.54782 20.09592
#
# Velocity S-wave (km/s) = 3.63502 3.90786 3.77390
# Velocity P-wave (km/s) = 6.94855 7.86909 7.42310
#
# Compressibility (1/GPa) = 0.02311199
#
# Stress axis : x y z
#
# Youngs Moduli (GPa) = 67.06099 24.54319 64.57478
#
# Poissons Ratio (x) = 0.23716 0.23135
# Poissons Ratio (y) = 0.64800 0.69545
# Poissons Ratio (z) = 0.24026 0.26432
#
# Static dielectric constant tensor:
#      x y z
#    x 1.484440 0.000000 -0.040170 
#    y 0.000000 1.467590 0.000000 
#    z -0.040170 0.000000 1.477740 
# 
# From -- ./inp_files/51403.got.cif
#   From: 2010.05.17/outbox.cif.g08.bks.cpg/sg11_26_cif.got.tgz:51403.got - 2010.06.03 12:22:45.
