data_PCOD9156150
_publ_section_title
;
Structure prediction by ZEFSAII (Michael W. Deem and Ramdas Pophale) SiO2 
 PCOD9156150
Probable space group: P 21/M
;
_chemical_formula_sum "Si O2"
_cell_formula_units_Z 30
_cell_length_a 10.544978
_cell_length_b 10.270150
_cell_length_c 12.494519
_cell_angle_alpha 90.000000
_cell_angle_beta 63.028246
_cell_angle_gamma 90.000000
_cell_volume 1205.957253
_symmetry_space_group_name_H-M "P 21/M"
_symmetry_group_IT_number 11
_symmetry_cell_setting 'monoclinic'
loop_
_space_group_symop_operation_xyz
x,y,z
-x,1/2+y,-z
-x,-y,-z
x,1/2-y,z
loop_
_atom_site_type_symbol
_atom_site_label
_atom_site_fract_x
_atom_site_fract_y
_atom_site_fract_z
Si Si1 0.677190 0.390323 0.078904
Si Si2 0.293205 0.108941 0.763989
Si Si3 0.896859 0.534721 0.888664
Si Si4 0.683609 0.604409 0.494971
Si Si5 0.986595 0.106089 0.649214
Si Si6 0.375233 0.106380 0.128347
Si Si7 0.043376 0.250000 0.963571
Si Si8 0.303572 0.902413 0.338689
O O1 0.672376 0.250000 0.134125
O O2 0.658578 0.499346 0.174232
O O3 0.545738 0.393250 0.046034
O O4 0.833317 0.402731 0.966805
O O5 0.357383 0.250000 0.767648
O O6 0.323226 0.081252 0.629448
O O7 0.126501 0.137376 0.853575
O O8 0.964494 0.502824 0.748503
O O9 0.738522 0.597874 0.923703
O O10 0.974837 0.635112 0.935159
O O11 0.624156 0.750000 0.540812
O O12 0.634852 0.483405 0.585009
O O13 0.852936 0.610610 0.450794
O O14 0.956227 0.250000 0.709616
O O15 0.868832 0.092863 0.602544
O O16 0.347133 0.250000 0.190147
O O17 0.345868 0.987050 0.218885
O O18 0.339672 0.750000 0.322444
#
# Coordination Sequence:
#
# PCOD9156150 Si02
#       8
#     4   4   4   4   4   4   2   4
#     4  10  20  33  53  79 112 141 180 221 270 313
#     4   8  18  35  55  72 103 143 183 223 260 313
#     4  10  17  33  53  79 112 142 174 219 260 321
#     4  10  19  37  60  76 102 147 186 220 270 322
#     4   9  19  33  54  81 113 140 175 218 272 320
#     4  10  20  34  54  82 108 145 181 214 269 329
#     4   8  16  32  50  72 106 136 176 216 256 300
#     4  10  21  36  53  84 113 137 173 232 275 319
#
# _framework density 24.876505000000002
#
# number of rings (size 3 to 8) (size 9 to 14) (size 15 to 20)
#    0.400    2.133    0.667    1.600    0.000    1.600 
#    1.200    3.333    2.933    0.000    0.000    0.000 
#    0.000    0.000    0.000    0.000    0.000    0.000 
#
# Total GULP energy -167005.091244 kJ/mol
# GULP energy per Si atom -5566.836375 kJ/mol
# Density = 2.481988 g / cm^3
# Si number density = 24.876505 Si / 1000 Ang^3
#
#
#
# Elastic Constant Matrix: (Units=GPa)
#
#
# Indices 1 2 3 4 5 6 
#
# 1 91.2363 -5.5244 -12.7393 0.0000 -4.5309 0.0000
# 2 -5.5244 136.9237 56.8226 0.0000 26.4149 0.0000
# 3 -12.7393 56.8226 71.7557 0.0000 21.3884 0.0000
# 4 0.0000 0.0000 0.0000 -19.7441 0.0000 -68.2861
# 5 -4.5309 26.4149 21.3884 0.0000 26.0852 0.0000
# 6 0.0000 0.0000 0.0000 -68.2861 0.0000 -92.4942
#
#
#
# Elastic Compliance Matrix: (Units=1/GPa)
#
#
# Indices 1 2 3 4 5 6 
#
# 1 0.011278 -0.000635 0.002289 0.000000 0.000725 0.000000
# 2 -0.000635 0.011481 -0.007552 0.000000 -0.005545 0.000000
# 3 0.002289 -0.007552 0.023723 0.000000 -0.011406 0.000000
# 4 0.000000 0.000000 0.000000 0.032605 0.000000 -0.024072
# 5 0.000725 -0.005545 -0.011406 0.000000 0.053429 0.000000
# 6 0.000000 0.000000 0.000000 -0.024072 0.000000 0.006960
#
#
# Mechanical properties :
#
#
# Convention : Reuss Voigt Hill
#
# Bulk Modulus (GPa) = 28.83013 41.89261 35.36137
# Shear Modulus (GPa) = 30.70614 0.19319 15.44966
#
# Velocity S-wave (km/s) = 3.51713 0.27898 2.49480
# Velocity P-wave (km/s) = 5.30171 4.12075 4.74809
#
# Compressibility (1/GPa) = 0.03468593
#
# Stress axis : x y z
#
# Youngs Moduli (GPa) = 88.67062 87.09741 42.15364
#
# Poissons Ratio (x) = 0.05527 -0.09648
# Poissons Ratio (y) = 0.05627 0.31834
# Poissons Ratio (z) = -0.20294 0.65776
#
# Static dielectric constant tensor:
#      x y z
#    x 2.141280 0.000000 -0.009950 
#    y 0.000000 2.134690 0.000000 
#    z -0.009950 0.000000 1.916370 
# 
# From -- ./inp_files/38038.got.cif
#   From: 2010.05.17/outbox.cif.g08.bks.cpg/sg11_20_cif.got.tgz:38038.got - 2010.06.03 12:22:45.
