data_PCOD9156497
_publ_section_title
;
Structure prediction by ZEFSAII (Michael W. Deem and Ramdas Pophale) SiO2 
 PCOD9156497
Probable space group: P 21/M
;
_chemical_formula_sum "Si O2"
_cell_formula_units_Z 28
_cell_length_a 20.272930
_cell_length_b 7.585291
_cell_length_c 18.845774
_cell_angle_alpha 90.000000
_cell_angle_beta 29.366622
_cell_angle_gamma 90.000000
_cell_volume 1421.182296
_symmetry_space_group_name_H-M "P 21/M"
_symmetry_group_IT_number 11
_symmetry_cell_setting 'monoclinic'
loop_
_space_group_symop_operation_xyz
x,y,z
-x,1/2+y,-z
-x,-y,-z
x,1/2-y,z
loop_
_atom_site_type_symbol
_atom_site_label
_atom_site_fract_x
_atom_site_fract_y
_atom_site_fract_z
Si Si1 0.785250 0.532874 0.513449
Si Si2 0.858377 0.961504 0.288370
Si Si3 0.423894 0.042309 0.182385
Si Si4 0.099886 0.538594 0.972093
Si Si5 0.659109 0.041465 0.344992
Si Si6 0.690834 0.464223 0.860195
Si Si7 0.981788 0.460961 0.600026
O O1 0.783442 0.750000 0.515009
O O2 0.811632 0.473411 0.408924
O O3 0.648233 0.472782 0.680060
O O4 0.903911 0.472805 0.454795
O O5 0.870350 0.750000 0.282068
O O6 0.744334 0.995690 0.335835
O O7 0.006280 0.028077 0.124676
O O8 0.444867 0.250000 0.174117
O O9 0.327548 0.022040 0.204124
O O10 0.565177 0.967663 0.023263
O O11 0.112009 0.750000 0.969733
O O12 0.246981 0.470641 0.808656
O O13 0.000000 0.500000 0.000000
O O14 0.664313 0.250000 0.332930
O O15 0.500000 0.000000 0.500000
O O16 0.687152 0.250000 0.862558
O O17 0.832313 0.523700 0.758154
O O18 0.983654 0.250000 0.605341
O O19 0.000000 0.500000 0.500000
#
# Coordination Sequence:
#
# PCOD9156497 Si02
#       7
#     4   4   4   4   4   4   4
#     4   9  17  29  47  68  93 123 155 193 240 286
#     4   9  17  32  51  72  98 128 160 197 241 288
#     4   9  16  28  44  63  88 119 151 188 235 283
#     4   8  15  28  48  71  95 123 157 191 228 276
#     4  10  19  32  51  77 102 127 160 196 233 279
#     4   9  17  27  42  64  87 113 153 198 236 276
#     4  10  18  29  44  65  89 116 154 197 235 274
#
# _framework density 19.701906000000001
#
# number of rings (size 3 to 8) (size 9 to 14) (size 15 to 20)
#    0.000    2.857    1.429    0.429    0.000    0.571 
#    0.000    2.857    0.000    6.857    0.000    2.000 
#    0.000    0.000    0.000    0.000    0.000    0.000 
#
# Total GULP energy -155890.013584 kJ/mol
# GULP energy per Si atom -5567.500485 kJ/mol
# Density = 1.965706 g / cm^3
# Si number density = 19.701906 Si / 1000 Ang^3
#
#
#
# Elastic Constant Matrix: (Units=GPa)
#
#
# Indices 1 2 3 4 5 6 
#
# 1 63.6228 -3.6473 69.9696 0.0000 9.2668 0.0000
# 2 -3.6473 41.4544 3.7181 0.0000 2.8732 0.0000
# 3 69.9696 3.7181 203.2482 0.0000 17.9626 0.0000
# 4 0.0000 0.0000 0.0000 9.4640 0.0000 -0.5860
# 5 9.2668 2.8732 17.9626 0.0000 31.4237 0.0000
# 6 0.0000 0.0000 0.0000 -0.5860 0.0000 16.0016
#
#
#
# Elastic Compliance Matrix: (Units=1/GPa)
#
#
# Indices 1 2 3 4 5 6 
#
# 1 0.025932 0.003269 -0.008726 0.000000 -0.002958 0.000000
# 2 0.003269 0.024702 -0.001361 0.000000 -0.002445 0.000000
# 3 -0.008726 -0.001361 0.008121 0.000000 -0.001944 0.000000
# 4 0.000000 0.000000 0.000000 0.105904 0.000000 0.003878
# 5 -0.002958 -0.002445 -0.001944 0.000000 0.034031 0.000000
# 6 0.000000 0.000000 0.000000 0.003878 0.000000 0.062636
#
#
# Mechanical properties :
#
#
# Convention : Reuss Voigt Hill
#
# Bulk Modulus (GPa) = 22.16336 49.82292 35.99314
# Shear Modulus (GPa) = 17.24137 27.26352 22.25245
#
# Velocity S-wave (km/s) = 2.96144 3.72398 3.36438
# Velocity P-wave (km/s) = 4.79242 6.62073 5.77933
#
# Compressibility (1/GPa) = 0.04511952
#
# Stress axis : x y z
#
# Youngs Moduli (GPa) = 38.56229 40.48240 123.14220
#
# Poissons Ratio (x) = -0.13235 1.07449
# Poissons Ratio (y) = -0.12607 0.16764
# Poissons Ratio (z) = 0.33648 0.05511
#
# Static dielectric constant tensor:
#      x y z
#    x 1.652390 0.000000 -0.005230 
#    y 0.000000 1.731270 0.000000 
#    z -0.005230 0.000000 1.776640 
# 
# From -- ./inp_files/61226.got.cif
#   From: 2010.05.17/outbox.cif.g08.bks.cpg/sg11_31_cif.got.tgz:61226.got - 2010.06.03 12:22:45.
