data_PCOD9156145
_publ_section_title
;
Structure prediction by ZEFSAII (Michael W. Deem and Ramdas Pophale) SiO2 
 PCOD9156145
Probable space group: P 21/M
;
_chemical_formula_sum "Si O2"
_cell_formula_units_Z 32
_cell_length_a 8.923529
_cell_length_b 20.851893
_cell_length_c 12.932428
_cell_angle_alpha 90.000000
_cell_angle_beta 134.836693
_cell_angle_gamma 90.000000
_cell_volume 1706.402672
_symmetry_space_group_name_H-M "P 21/M"
_symmetry_group_IT_number 11
_symmetry_cell_setting 'monoclinic'
loop_
_space_group_symop_operation_xyz
x,y,z
-x,1/2+y,-z
-x,-y,-z
x,1/2-y,z
loop_
_atom_site_type_symbol
_atom_site_label
_atom_site_fract_x
_atom_site_fract_y
_atom_site_fract_z
Si Si1 0.465382 0.678054 0.946996
Si Si2 0.663230 0.322522 0.356344
Si Si3 0.201279 0.962698 0.551483
Si Si4 0.869164 0.476375 0.716557
Si Si5 0.123456 0.126443 0.939966
Si Si6 0.177113 0.321346 0.177997
Si Si7 0.162124 0.917741 0.913349
Si Si8 0.336151 0.007018 0.166816
O O1 0.439435 0.750000 0.976860
O O2 0.380512 0.678523 0.787861
O O3 0.341278 0.623855 0.947592
O O4 0.708898 0.658424 0.054580
O O5 0.734571 0.250000 0.420316
O O6 0.806136 0.384840 0.446022
O O7 0.429726 0.333288 0.293504
O O8 0.230665 0.978375 0.444383
O O9 0.413266 0.984686 0.713750
O O10 0.000000 0.000000 0.500000
O O11 0.740055 0.503588 0.751697
O O12 0.935333 0.405005 0.784250
O O13 0.081483 0.519873 0.812864
O O14 0.086221 0.174611 0.016483
O O15 0.231708 0.066834 0.055526
O O16 0.146777 0.250000 0.204743
O O17 0.041182 0.372186 0.174206
O O18 0.246437 0.945091 0.063407
#
# Coordination Sequence:
#
# PCOD9156145 Si02
#       8
#     4   4   4   4   4   4   4   4
#     4  10  20  33  56  84 114 148 188 234 281 343
#     4   9  19  39  59  80 114 153 194 239 283 342
#     4  12  24  37  58  88 115 156 202 234 288 344
#     4  11  22  35  59  85 113 149 186 244 285 344
#     4  10  18  36  57  83 109 142 192 229 295 334
#     4  10  17  32  60  84 109 145 190 231 277 347
#     4  11  20  34  57  88 119 141 185 238 305 331
#     4  11  21  38  57  81 120 149 180 244 289 341
#
# _framework density 18.752901000000001
#
# number of rings (size 3 to 8) (size 9 to 14) (size 15 to 20)
#    0.000    1.500    5.000    3.375    1.750    1.000 
#    0.000    1.250    0.000    0.000    0.000    0.000 
#    0.000    0.000    0.000    0.000    0.000    0.000 
#
# Total GULP energy -178409.846839 kJ/mol
# GULP energy per Si atom -5575.307714 kJ/mol
# Density = 1.871022 g / cm^3
# Si number density = 18.752901 Si / 1000 Ang^3
#
#
#
# Elastic Constant Matrix: (Units=GPa)
#
#
# Indices 1 2 3 4 5 6 
#
# 1 20.4130 4.6015 2.1280 0.0000 -1.7163 0.0000
# 2 4.6015 88.8363 9.2444 0.0000 2.1185 0.0000
# 3 2.1280 9.2444 49.8577 0.0000 -0.5976 0.0000
# 4 0.0000 0.0000 0.0000 19.9706 0.0000 7.0167
# 5 -1.7163 2.1185 -0.5976 0.0000 17.4866 0.0000
# 6 0.0000 0.0000 0.0000 7.0167 0.0000 30.1298
#
#
#
# Elastic Compliance Matrix: (Units=1/GPa)
#
#
# Indices 1 2 3 4 5 6 
#
# 1 0.050167 -0.002555 -0.001605 0.000000 0.005179 0.000000
# 2 -0.002555 0.011646 -0.002071 0.000000 -0.001732 0.000000
# 3 -0.001605 -0.002071 0.020519 0.000000 0.000795 0.000000
# 4 0.000000 0.000000 0.000000 0.054536 0.000000 -0.012701
# 5 0.005179 -0.001732 0.000795 0.000000 0.057932 0.000000
# 6 0.000000 0.000000 0.000000 -0.012701 0.000000 0.036147
#
#
# Mechanical properties :
#
#
# Convention : Reuss Voigt Hill
#
# Bulk Modulus (GPa) = 14.31243 21.22831 17.77037
# Shear Modulus (GPa) = 18.74765 23.05960 20.90362
#
# Velocity S-wave (km/s) = 3.16526 3.51045 3.34232
# Velocity P-wave (km/s) = 4.58336 5.27025 4.93877
#
# Compressibility (1/GPa) = 0.06986933
#
# Stress axis : x y z
#
# Youngs Moduli (GPa) = 19.93336 85.86759 48.73504
#
# Poissons Ratio (x) = 0.21939 0.07824
# Poissons Ratio (y) = 0.05093 0.10093
# Poissons Ratio (z) = 0.03200 0.17784
#
# Static dielectric constant tensor:
#      x y z
#    x 1.667870 0.000000 0.001720 
#    y 0.000000 1.691960 0.000000 
#    z 0.001720 0.000000 1.641250 
# 
# From -- ./inp_files/23140.got.cif
#   From: 2010.05.17/outbox.cif.g08.bks.cpg/sg11_12_cif.got.tgz:23140.got - 2010.06.03 12:22:45.
