data_PCOD9156805
_publ_section_title
;
Structure prediction by ZEFSAII (Michael W. Deem and Ramdas Pophale) SiO2 
 PCOD9156805
Probable space group: P 21/M
;
_chemical_formula_sum "Si O2"
_cell_formula_units_Z 32
_cell_length_a 10.657927
_cell_length_b 16.070820
_cell_length_c 12.814638
_cell_angle_alpha 90.000000
_cell_angle_beta 140.923187
_cell_angle_gamma 90.000000
_cell_volume 1383.588479
_symmetry_space_group_name_H-M "P 21/M"
_symmetry_group_IT_number 11
_symmetry_cell_setting 'monoclinic'
loop_
_space_group_symop_operation_xyz
x,y,z
-x,1/2+y,-z
-x,-y,-z
x,1/2-y,z
loop_
_atom_site_type_symbol
_atom_site_label
_atom_site_fract_x
_atom_site_fract_y
_atom_site_fract_z
Si Si1 0.339722 0.153007 0.289758
Si Si2 0.698494 0.006065 0.240989
Si Si3 0.671080 0.657462 0.497576
Si Si4 0.894096 0.488130 0.593664
Si Si5 0.681287 0.576535 0.929341
Si Si6 0.115349 0.598723 0.001265
Si Si7 0.089887 0.847483 0.224237
Si Si8 0.483951 0.662322 0.150774
O O1 0.324847 0.250000 0.253804
O O2 0.446103 0.145814 0.469667
O O3 0.422804 0.104269 0.245879
O O4 0.117085 0.116870 0.163566
O O5 0.498872 0.061126 0.107603
O O6 0.808353 0.027868 0.421813
O O7 0.869032 0.004841 0.264837
O O8 0.608217 0.913862 0.188853
O O9 0.768825 0.750000 0.570382
O O10 0.542241 0.662005 0.310833
O O11 0.802589 0.575863 0.568970
O O12 0.853417 0.413493 0.648397
O O13 0.806044 0.493698 0.975907
O O14 0.847208 0.643232 0.066431
O O15 0.247675 0.651672 0.006117
O O16 0.149711 0.622080 0.145642
O O17 0.142092 0.750000 0.273598
O O18 0.540214 0.750000 0.138674
#
# Coordination Sequence:
#
# PCOD9156805 Si02
#       8
#     4   4   4   4   4   4   4   4
#     4  10  18  30  49  74 104 132 164 206 257 318
#     4   9  21  36  56  75 100 141 181 221 267 311
#     4   9  18  32  53  78 102 134 172 218 270 316
#     4  10  20  39  55  75 106 138 180 226 263 312
#     4  10  19  34  53  77 104 138 175 216 264 313
#     4  10  18  31  52  77 104 138 171 211 263 315
#     4  11  22  35  54  80 112 145 176 215 266 319
#     4   9  17  31  51  76 104 131 170 219 266 318
#
# _framework density 23.128261999999999
#
# number of rings (size 3 to 8) (size 9 to 14) (size 15 to 20)
#    0.000    2.250    0.000    5.250    0.000    2.000 
#    0.000    9.375    0.000    3.000    0.000    0.000 
#    0.000    0.000    0.000    0.000    0.000    0.000 
#
# Total GULP energy -178650.870267 kJ/mol
# GULP energy per Si atom -5582.839696 kJ/mol
# Density = 2.307562 g / cm^3
# Si number density = 23.128262 Si / 1000 Ang^3
#
#
#
# Elastic Constant Matrix: (Units=GPa)
#
#
# Indices 1 2 3 4 5 6 
#
# 1 80.5003 38.8566 23.8580 0.0000 13.9408 0.0000
# 2 38.8566 83.2016 20.9414 0.0000 1.7621 0.0000
# 3 23.8580 20.9414 62.3168 0.0000 -9.5149 0.0000
# 4 0.0000 0.0000 0.0000 25.0712 0.0000 3.3164
# 5 13.9408 1.7621 -9.5149 0.0000 45.8901 0.0000
# 6 0.0000 0.0000 0.0000 3.3164 0.0000 -9.2969
#
#
#
# Elastic Compliance Matrix: (Units=1/GPa)
#
#
# Indices 1 2 3 4 5 6 
#
# 1 0.018734 -0.007155 -0.005778 0.000000 -0.006614 0.000000
# 2 -0.007155 0.015958 -0.002463 0.000000 0.001050 0.000000
# 3 -0.005778 -0.002463 0.020003 0.000000 0.005997 0.000000
# 4 0.000000 0.000000 0.000000 0.038089 0.000000 0.013587
# 5 -0.006614 0.001050 0.005997 0.000000 0.025004 0.000000
# 6 0.000000 0.000000 0.000000 0.013587 0.000000 -0.102715
#
#
# Mechanical properties :
#
#
# Convention : Reuss Voigt Hill
#
# Bulk Modulus (GPa) = 41.83580 43.70341 42.76960
# Shear Modulus (GPa) = 92.88432 21.82371 57.35401
#
# Velocity S-wave (km/s) = 6.34411 3.07513 4.98519
# Velocity P-wave (km/s) = 8.47299 5.61656 7.18809
#
# Compressibility (1/GPa) = 0.02390297
#
# Stress axis : x y z
#
# Youngs Moduli (GPa) = 53.38009 62.66419 49.99372
#
# Poissons Ratio (x) = 0.44834 0.28885
# Poissons Ratio (y) = 0.38191 0.12315
# Poissons Ratio (z) = 0.30842 0.15436
#
# Static dielectric constant tensor:
#      x y z
#    x 1.837090 0.000000 -0.019540 
#    y 0.000000 1.865660 0.000000 
#    z -0.019540 0.000000 1.982990 
# 
# From -- ./inp_files/22231.got.cif
#   From: 2010.05.17/outbox.cif.g08.bks.cpg/sg11_12_cif.got.tgz:22231.got - 2010.06.03 12:22:45.
