data_PCOD9156217
_publ_section_title
;
Structure prediction by ZEFSAII (Michael W. Deem and Ramdas Pophale) SiO2 
 PCOD9156217
Probable space group: P 21/M
;
_chemical_formula_sum "Si O2"
_cell_formula_units_Z 28
_cell_length_a 11.957939
_cell_length_b 7.385958
_cell_length_c 14.855217
_cell_angle_alpha 90.000000
_cell_angle_beta 124.995819
_cell_angle_gamma 90.000000
_cell_volume 1074.803015
_symmetry_space_group_name_H-M "P 21/M"
_symmetry_group_IT_number 11
_symmetry_cell_setting 'monoclinic'
loop_
_space_group_symop_operation_xyz
x,y,z
-x,1/2+y,-z
-x,-y,-z
x,1/2-y,z
loop_
_atom_site_type_symbol
_atom_site_label
_atom_site_fract_x
_atom_site_fract_y
_atom_site_fract_z
Si Si1 0.339557 0.465129 0.433302
Si Si2 0.784782 0.045798 0.299051
Si Si3 0.690217 0.958219 0.058567
Si Si4 0.249947 0.470499 0.193054
Si Si5 0.028649 0.966961 0.879914
Si Si6 0.064473 0.469514 0.369402
Si Si7 0.494954 0.472366 0.181344
O O1 0.500000 0.500000 0.500000
O O2 0.327878 0.250000 0.434955
O O3 0.287886 0.521252 0.311761
O O4 0.222202 0.533312 0.449036
O O5 0.796878 0.250000 0.339508
O O6 0.646572 0.962863 0.275801
O O7 0.936046 0.961664 0.369237
O O8 0.738981 0.054950 0.171756
O O9 0.671096 0.750000 0.074012
O O10 0.560832 0.027021 0.942702
O O11 0.817525 0.962357 0.046366
O O12 0.247749 0.250000 0.186132
O O13 0.093581 0.534088 0.112314
O O14 0.376155 0.533779 0.192506
O O15 0.036088 0.750000 0.889838
O O16 0.980869 0.007964 0.754788
O O17 0.061735 0.250000 0.378335
O O18 0.498540 0.250000 0.183387
#
# Coordination Sequence:
#
# PCOD9156217 Si02
#       7
#     4   4   4   4   4   4   4
#     4   9  16  28  48  69  86 104 131 171 216 260
#     4   9  16  29  47  62  81 115 156 184 204 243
#     4  10  18  26  39  63  91 114 144 188 224 243
#     4   8  15  29  46  64  87 114 144 176 211 254
#     4   8  14  27  45  60  80 114 150 178 207 251
#     4   7  12  24  42  62  80 104 139 171 199 240
#     4   9  17  27  42  64  87 114 149 185 213 243
#
# _framework density 26.051286999999999
#
# number of rings (size 3 to 8) (size 9 to 14) (size 15 to 20)
#    0.000    3.429    0.000    3.429    0.000    0.571 
#    0.000    7.143    0.000    5.143    0.000    0.000 
#    0.000    0.000    0.000    0.000    0.000    0.000 
#
# Total GULP energy -156159.726041 kJ/mol
# GULP energy per Si atom -5577.133073 kJ/mol
# Density = 2.599199 g / cm^3
# Si number density = 26.051287 Si / 1000 Ang^3
#
#
#
# Elastic Constant Matrix: (Units=GPa)
#
#
# Indices 1 2 3 4 5 6 
#
# 1 154.8266 14.6960 46.4684 0.0000 60.7784 0.0000
# 2 14.6960 98.1795 -2.2273 0.0000 4.5253 0.0000
# 3 46.4684 -2.2273 93.9878 0.0000 49.3150 0.0000
# 4 0.0000 0.0000 0.0000 9.3396 0.0000 7.4491
# 5 60.7784 4.5253 49.3150 0.0000 49.5409 0.0000
# 6 0.0000 0.0000 0.0000 7.4491 0.0000 9.4209
#
#
#
# Elastic Compliance Matrix: (Units=1/GPa)
#
#
# Indices 1 2 3 4 5 6 
#
# 1 0.013269 -0.000965 0.004003 0.000000 -0.020175 0.000000
# 2 -0.000965 0.010405 0.001258 0.000000 -0.001019 0.000000
# 3 0.004003 0.001258 0.023713 0.000000 -0.028630 0.000000
# 4 0.000000 0.000000 0.000000 0.289889 0.000000 -0.229214
# 5 -0.020175 -0.001019 -0.028630 0.000000 0.073529 0.000000
# 6 0.000000 0.000000 0.000000 -0.229214 0.000000 0.287386
#
#
# Mechanical properties :
#
#
# Convention : Reuss Voigt Hill
#
# Bulk Modulus (GPa) = 17.86411 51.65200 34.75805
# Shear Modulus (GPa) = 7.05955 32.86405 19.96180
#
# Velocity S-wave (km/s) = 1.64795 3.55563 2.77113
# Velocity P-wave (km/s) = 3.23932 6.06026 4.85901
#
# Compressibility (1/GPa) = 0.05597816
#
# Stress axis : x y z
#
# Youngs Moduli (GPa) = 75.36335 96.10352 42.17160
#
# Poissons Ratio (x) = 0.09278 -0.16879
# Poissons Ratio (y) = 0.07276 -0.05307
# Poissons Ratio (z) = -0.30164 -0.12094
#
# Static dielectric constant tensor:
#      x y z
#    x 2.202170 0.000000 0.047930 
#    y 0.000000 1.973630 0.000000 
#    z 0.047930 0.000000 2.060920 
# 
# From -- ./inp_files/42603.got.cif
#   From: 2010.05.17/outbox.cif.g08.bks.cpg/sg11_22_cif.got.tgz:42603.got - 2010.06.03 12:22:45.
