data_PCOD9156340
_publ_section_title
;
Structure prediction by ZEFSAII (Michael W. Deem and Ramdas Pophale) SiO2 
 PCOD9156340
Probable space group: P 21/M
;
_chemical_formula_sum "Si O2"
_cell_formula_units_Z 32
_cell_length_a 13.968081
_cell_length_b 8.904796
_cell_length_c 24.783239
_cell_angle_alpha 90.000000
_cell_angle_beta 135.894926
_cell_angle_gamma 90.000000
_cell_volume 2145.424775
_symmetry_space_group_name_H-M "P 21/M"
_symmetry_group_IT_number 11
_symmetry_cell_setting 'monoclinic'
loop_
_space_group_symop_operation_xyz
x,y,z
-x,1/2+y,-z
-x,-y,-z
x,1/2-y,z
loop_
_atom_site_type_symbol
_atom_site_label
_atom_site_fract_x
_atom_site_fract_y
_atom_site_fract_z
Si Si1 0.810434 0.429810 0.681766
Si Si2 0.326713 0.929757 0.171997
Si Si3 0.916040 0.068928 0.840604
Si Si4 0.206020 0.428721 0.435104
Si Si5 0.864533 0.930913 0.471353
Si Si6 0.104588 0.570579 0.998968
Si Si7 0.494590 0.930091 0.405382
Si Si8 0.578509 0.071674 0.327073
O O1 0.820223 0.250000 0.683025
O O2 0.887753 0.478409 0.767709
O O3 0.855362 0.496819 0.642949
O O4 0.649773 0.468154 0.626211
O O5 0.347470 0.750000 0.184643
O O6 0.215482 0.970214 0.174261
O O7 0.253211 0.962881 0.085056
O O8 0.469385 0.013283 0.239175
O O9 0.926151 0.250000 0.846715
O O10 0.052256 0.997735 0.921803
O O11 0.191523 0.250000 0.424792
O O12 0.146772 0.473875 0.469622
O O13 0.369528 0.463085 0.505009
O O14 0.494937 0.750000 0.393782
O O15 0.727738 0.993781 0.387001
O O16 0.000000 0.000000 0.500000
O O17 0.089098 0.750000 0.992010
O O18 0.000000 0.500000 0.000000
O O19 0.864803 0.750000 0.468578
O O20 0.512898 0.018587 0.357294
O O21 0.593418 0.250000 0.331131
#
# Coordination Sequence:
#
# PCOD9156340 Si02
#       8
#     4   4   4   4   4   4   4   4
#     4  10  18  28  43  61  88 123 155 187 221 262
#     4   9  16  29  43  57  86 121 152 188 229 264
#     4   9  17  28  41  58  85 122 157 189 226 260
#     4   9  19  31  45  65  87 113 145 185 226 264
#     4  10  21  38  55  69  90 116 144 184 232 276
#     4   9  17  27  40  57  81 116 154 191 228 264
#     4   9  17  31  43  56  87 123 152 186 226 258
#     4  11  20  28  45  71  91 115 153 189 224 269
#
# _framework density 14.915462
#
# number of rings (size 3 to 8) (size 9 to 14) (size 15 to 20)
#    0.000    2.500    1.250    3.750    0.000    6.000 
#    0.000    0.000    0.000    0.000    0.000    0.000 
#    0.000    1.000    0.000    3.250    0.000    4.750 
#
# Total GULP energy -178272.652762 kJ/mol
# GULP energy per Si atom -5571.020399 kJ/mol
# Density = 1.488151 g / cm^3
# Si number density = 14.915462 Si / 1000 Ang^3
#
#
#
# Elastic Constant Matrix: (Units=GPa)
#
#
# Indices 1 2 3 4 5 6 
#
# 1 54.2486 28.0585 58.8502 0.0000 0.6926 0.0000
# 2 28.0585 36.7198 49.3932 0.0000 1.3585 0.0000
# 3 58.8502 49.3932 138.3937 0.0000 -11.3412 0.0000
# 4 0.0000 0.0000 0.0000 28.1102 0.0000 -1.6370
# 5 0.6926 1.3585 -11.3412 0.0000 16.7629 0.0000
# 6 0.0000 0.0000 0.0000 -1.6370 0.0000 18.8437
#
#
#
# Elastic Compliance Matrix: (Units=1/GPa)
#
#
# Indices 1 2 3 4 5 6 
#
# 1 0.038833 -0.011645 -0.013140 0.000000 -0.009550 0.000000
# 2 -0.011645 0.061479 -0.018378 0.000000 -0.016935 0.000000
# 3 -0.013140 -0.018378 0.020686 0.000000 0.016027 0.000000
# 4 0.000000 0.000000 0.000000 0.035755 0.000000 0.003106
# 5 -0.009550 -0.016935 0.016027 0.000000 0.072266 0.000000
# 6 0.000000 0.000000 0.000000 0.003106 0.000000 0.053338
#
#
# Mechanical properties :
#
#
# Convention : Reuss Voigt Hill
#
# Bulk Modulus (GPa) = 28.84150 55.77398 42.30774
# Shear Modulus (GPa) = 13.14959 18.94737 16.04848
#
# Velocity S-wave (km/s) = 2.97241 3.56802 3.28375
# Velocity P-wave (km/s) = 5.58202 7.37895 6.54247
#
# Compressibility (1/GPa) = 0.03467226
#
# Stress axis : x y z
#
# Youngs Moduli (GPa) = 25.75138 16.26568 48.34232
#
# Poissons Ratio (x) = 0.18942 0.63520
# Poissons Ratio (y) = 0.29988 0.88843
# Poissons Ratio (z) = 0.33836 0.29893
#
# Static dielectric constant tensor:
#      x y z
#    x 1.465320 0.000000 -0.010980 
#    y 0.000000 1.498940 0.000000 
#    z -0.010980 0.000000 1.535790 
# 
# From -- ./inp_files/52920.got.cif
#   From: 2010.05.17/outbox.cif.g08.bks.cpg/sg11_27_cif.got.tgz:52920.got - 2010.06.03 12:22:45.
