data_PCOD9156585
_publ_section_title
;
Structure prediction by ZEFSAII (Michael W. Deem and Ramdas Pophale) SiO2 
 PCOD9156585
Probable space group: P 21/M
;
_chemical_formula_sum "Si O2"
_cell_formula_units_Z 32
_cell_length_a 22.493940
_cell_length_b 7.951109
_cell_length_c 12.331512
_cell_angle_alpha 90.000000
_cell_angle_beta 51.086723
_cell_angle_gamma 90.000000
_cell_volume 1716.104189
_symmetry_space_group_name_H-M "P 21/M"
_symmetry_group_IT_number 11
_symmetry_cell_setting 'monoclinic'
loop_
_space_group_symop_operation_xyz
x,y,z
-x,1/2+y,-z
-x,-y,-z
x,1/2-y,z
loop_
_atom_site_type_symbol
_atom_site_label
_atom_site_fract_x
_atom_site_fract_y
_atom_site_fract_z
Si Si1 0.597445 0.449543 0.154528
Si Si2 0.254865 0.543840 0.154029
Si Si3 0.230615 0.952979 0.651719
Si Si4 0.159891 0.943481 0.070439
Si Si5 0.918415 0.453210 0.046457
Si Si6 0.695426 0.944318 0.225722
Si Si7 0.287946 0.956088 0.356135
Si Si8 0.462899 0.549613 0.157174
O O1 0.603801 0.250000 0.156430
O O2 0.618010 0.524387 0.248257
O O3 0.517199 0.491483 0.192209
O O4 0.665030 0.507363 0.994407
O O5 0.253812 0.750000 0.153129
O O6 0.186005 0.482549 0.155671
O O7 0.253944 0.490065 0.279543
O O8 0.229716 0.750000 0.651969
O O9 0.151064 0.011655 0.796615
O O10 0.244075 0.011550 0.514119
O O11 0.298046 0.008307 0.656152
O O12 0.137963 0.750000 0.115532
O O13 0.098967 0.017993 0.055848
O O14 0.238986 0.948371 0.910517
O O15 0.913506 0.250000 0.047342
O O16 0.000000 0.500000 0.000000
O O17 0.716616 0.750000 0.189109
O O18 0.287779 0.750000 0.355600
O O19 0.376004 0.012667 0.262261
O O20 0.459784 0.750000 0.164087
O O21 0.500000 0.500000 0.000000
#
# Coordination Sequence:
#
# PCOD9156585 Si02
#       8
#     4   4   4   4   4   4   4   4
#     4  10  18  31  49  69  95 127 166 207 247 286
#     4   8  13  25  47  71  91 118 157 199 236 273
#     4   9  18  34  52  70  95 127 164 198 234 290
#     4   8  15  28  47  71  98 124 158 195 234 287
#     4   9  17  29  48  74  97 124 157 196 241 286
#     4  10  18  29  47  71  96 123 159 203 251 292
#     4   9  17  30  50  72  94 125 164 202 240 288
#     4  11  20  31  47  72 100 127 163 206 251 292
#
# _framework density 18.646887
#
# number of rings (size 3 to 8) (size 9 to 14) (size 15 to 20)
#    0.000    2.750    1.250    3.375    0.000    2.000 
#    0.000    1.875    0.000    0.750    0.000    0.000 
#    0.000    0.000    0.000    0.000    0.000    1.250 
#
# Total GULP energy -178279.583531 kJ/mol
# GULP energy per Si atom -5571.236985 kJ/mol
# Density = 1.860445 g / cm^3
# Si number density = 18.646887 Si / 1000 Ang^3
#
#
#
# Elastic Constant Matrix: (Units=GPa)
#
#
# Indices 1 2 3 4 5 6 
#
# 1 199.2686 6.2989 69.9500 0.0000 30.3208 0.0000
# 2 6.2989 28.7680 7.3662 0.0000 1.6295 0.0000
# 3 69.9500 7.3662 77.9066 0.0000 25.4183 0.0000
# 4 0.0000 0.0000 0.0000 5.3073 0.0000 -1.9125
# 5 30.3208 1.6295 25.4183 0.0000 28.3367 0.0000
# 6 0.0000 0.0000 0.0000 -1.9125 0.0000 25.3549
#
#
#
# Elastic Compliance Matrix: (Units=1/GPa)
#
#
# Indices 1 2 3 4 5 6 
#
# 1 0.007482 0.000007 -0.005805 0.000000 -0.002799 0.000000
# 2 0.000007 0.035661 -0.003826 0.000000 0.001374 0.000000
# 3 -0.005805 -0.003826 0.023060 0.000000 -0.014254 0.000000
# 4 0.000000 0.000000 0.000000 0.193686 0.000000 0.014610
# 5 -0.002799 0.001374 -0.014254 0.000000 0.050991 0.000000
# 6 0.000000 0.000000 0.000000 0.014610 0.000000 0.040542
#
#
# Mechanical properties :
#
#
# Convention : Reuss Voigt Hill
#
# Bulk Modulus (GPa) = 21.29737 52.57482 36.93610
# Shear Modulus (GPa) = 12.94252 26.62164 19.78208
#
# Velocity S-wave (km/s) = 2.63741 3.78255 3.26065
# Velocity P-wave (km/s) = 4.55201 6.87991 5.83326
#
# Compressibility (1/GPa) = 0.04695415
#
# Stress axis : x y z
#
# Youngs Moduli (GPa) = 133.65734 28.04165 43.36422
#
# Poissons Ratio (x) = -0.00019 0.25174
# Poissons Ratio (y) = -0.00091 0.16592
# Poissons Ratio (z) = 0.77591 0.10730
#
# Static dielectric constant tensor:
#      x y z
#    x 1.680930 0.000000 0.025570 
#    y 0.000000 1.670910 0.000000 
#    z 0.025570 0.000000 1.625630 
# 
# From -- ./inp_files/42521.got.cif
#   From: 2010.05.17/outbox.cif.g08.bks.cpg/sg11_22_cif.got.tgz:42521.got - 2010.06.03 12:22:45.
