data_PCOD9156164
_publ_section_title
;
Structure prediction by ZEFSAII (Michael W. Deem and Ramdas Pophale) SiO2 
 PCOD9156164
Probable space group: P 21/M
;
_chemical_formula_sum "Si O2"
_cell_formula_units_Z 28
_cell_length_a 8.593715
_cell_length_b 21.668936
_cell_length_c 8.476468
_cell_angle_alpha 90.000000
_cell_angle_beta 115.573214
_cell_angle_gamma 90.000000
_cell_volume 1423.824871
_symmetry_space_group_name_H-M "P 21/M"
_symmetry_group_IT_number 11
_symmetry_cell_setting 'monoclinic'
loop_
_space_group_symop_operation_xyz
x,y,z
-x,1/2+y,-z
-x,-y,-z
x,1/2-y,z
loop_
_atom_site_type_symbol
_atom_site_label
_atom_site_fract_x
_atom_site_fract_y
_atom_site_fract_z
Si Si1 0.073259 0.816192 0.063604
Si Si2 0.628307 0.321963 0.378723
Si Si3 0.115919 0.031634 0.191384
Si Si4 0.855980 0.375909 0.218859
Si Si5 0.291862 0.364133 0.056966
Si Si6 0.327695 0.915265 0.326501
Si Si7 0.493022 0.933475 0.077357
O O1 0.146619 0.750000 0.139542
O O2 0.080154 0.825063 0.878188
O O3 0.876988 0.822914 0.030835
O O4 0.182691 0.871438 0.184029
O O5 0.646358 0.250000 0.432378
O O6 0.797662 0.345499 0.356896
O O7 0.457817 0.328579 0.195904
O O8 0.601880 0.372505 0.504263
O O9 0.236415 0.080774 0.152505
O O10 0.994922 0.069054 0.260361
O O11 0.229762 0.978793 0.323166
O O12 0.000000 0.000000 0.000000
O O13 0.678718 0.403028 0.070478
O O14 0.346046 0.394869 0.915862
O O15 0.466693 0.932360 0.252882
O O16 0.500000 0.000000 0.000000
#
# Coordination Sequence:
#
# PCOD9156164 Si02
#       7
#     4   4   4   4   4   4   4
#     4  10  19  36  60  83 105 154 207 235 274 340
#     4  11  24  41  53  82 123 157 194 234 280 348
#     4  11  17  37  62  93 115 137 195 251 290 339
#     4   9  20  34  59  82 109 156 186 234 287 342
#     4  10  20  35  61  84 114 153 189 237 289 338
#     4  11  22  35  61  85 119 152 185 244 298 332
#     4  10  17  33  57  86 113 144 182 235 288 349
#
# _framework density 19.66534
#
# number of rings (size 3 to 8) (size 9 to 14) (size 15 to 20)
#    0.000    1.714    5.714    1.286    0.000    1.143 
#    0.000    5.000    0.000    0.000    0.000    0.000 
#    0.000    0.000    0.000    0.000    0.000    0.000 
#
# Total GULP energy -156111.725832 kJ/mol
# GULP energy per Si atom -5575.418780 kJ/mol
# Density = 1.962058 g / cm^3
# Si number density = 19.665340 Si / 1000 Ang^3
#
#
#
# Elastic Constant Matrix: (Units=GPa)
#
#
# Indices 1 2 3 4 5 6 
#
# 1 107.8963 27.3847 10.8939 0.0000 -22.0712 0.0000
# 2 27.3847 101.3644 -0.5993 0.0000 -2.5545 0.0000
# 3 10.8939 -0.5993 27.7143 0.0000 -6.9341 0.0000
# 4 0.0000 0.0000 0.0000 16.3224 0.0000 6.9998
# 5 -22.0712 -2.5545 -6.9341 0.0000 15.7782 0.0000
# 6 0.0000 0.0000 0.0000 6.9998 0.0000 9.6660
#
#
#
# Elastic Compliance Matrix: (Units=1/GPa)
#
#
# Indices 1 2 3 4 5 6 
#
# 1 0.014025 -0.003324 -0.000911 0.000000 0.018680 0.000000
# 2 -0.003324 0.010705 0.000908 0.000000 -0.002517 0.000000
# 3 -0.000911 0.000908 0.040648 0.000000 0.016736 0.000000
# 4 0.000000 0.000000 0.000000 0.088862 0.000000 -0.064351
# 5 0.018680 -0.002517 0.016736 0.000000 0.096456 0.000000
# 6 0.000000 0.000000 0.000000 -0.064351 0.000000 0.150057
#
#
# Mechanical properties :
#
#
# Convention : Reuss Voigt Hill
#
# Bulk Modulus (GPa) = 17.02853 34.70375 25.86614
# Shear Modulus (GPa) = 11.71013 21.63971 16.67492
#
# Velocity S-wave (km/s) = 2.44287 3.32082 2.91509
# Velocity P-wave (km/s) = 4.07858 5.69116 4.95096
#
# Compressibility (1/GPa) = 0.05872497
#
# Stress axis : x y z
#
# Youngs Moduli (GPa) = 71.30202 93.41219 24.60168
#
# Poissons Ratio (x) = 0.31046 0.02241
# Poissons Ratio (y) = 0.23698 -0.02234
# Poissons Ratio (z) = 0.06496 -0.08484
#
# Static dielectric constant tensor:
#      x y z
#    x 1.699740 0.000000 -0.022560 
#    y 0.000000 1.721950 0.000000 
#    z -0.022560 0.000000 1.733630 
# 
# From -- ./inp_files/14079.got.cif
#   From: 2010.05.17/outbox.cif.g08.bks.cpg/sg11_8_cif.got.tgz:14079.got - 2010.06.03 12:22:45.
