data_PCOD9156050
_publ_section_title
;
Structure prediction by ZEFSAII (Michael W. Deem and Ramdas Pophale) SiO2 
 PCOD9156050
Probable space group: P 21/M
;
_chemical_formula_sum "Si O2"
_cell_formula_units_Z 32
_cell_length_a 5.316575
_cell_length_b 17.749068
_cell_length_c 18.707462
_cell_angle_alpha 90.000000
_cell_angle_beta 56.727227
_cell_angle_gamma 90.000000
_cell_volume 1475.924207
_symmetry_space_group_name_H-M "P 21/M"
_symmetry_group_IT_number 11
_symmetry_cell_setting 'monoclinic'
loop_
_space_group_symop_operation_xyz
x,y,z
-x,1/2+y,-z
-x,-y,-z
x,1/2-y,z
loop_
_atom_site_type_symbol
_atom_site_label
_atom_site_fract_x
_atom_site_fract_y
_atom_site_fract_z
Si Si1 0.916572 0.459894 0.688837
Si Si2 0.569073 0.376192 0.368610
Si Si3 0.868186 0.335629 0.184620
Si Si4 0.683564 0.661998 0.004166
Si Si5 0.198981 0.943201 0.913911
Si Si6 0.742551 0.464659 0.883252
Si Si7 0.958398 0.388504 0.423676
Si Si8 0.561612 0.055291 0.612290
O O1 0.841980 0.463746 0.784471
O O2 0.655502 0.426132 0.679043
O O3 0.969546 0.540628 0.640967
O O4 0.235664 0.416753 0.637366
O O5 0.827284 0.363887 0.270149
O O6 0.691796 0.347353 0.423786
O O7 0.478022 0.464583 0.388132
O O8 0.259183 0.342198 0.388942
O O9 0.774557 0.250000 0.193397
O O10 0.660460 0.388313 0.167456
O O11 0.201063 0.340322 0.096915
O O12 0.675990 0.750000 0.025769
O O13 0.386589 0.615962 0.070690
O O14 0.965942 0.612896 0.990801
O O15 0.443579 0.982653 0.924615
O O16 0.998931 0.999577 0.894474
O O17 0.822060 0.418573 0.518773
#
# Coordination Sequence:
#
# PCOD9156050 Si02
#       8
#     4   4   4   4   4   4   4   4
#     4  10  18  27  48  78 110 139 179 228 275 325
#     4  10  17  30  48  74 102 144 181 220 271 336
#     4   9  20  38  56  82 122 157 192 239 301 366
#     4   9  22  42  60  85 121 162 196 238 300 357
#     4  10  21  38  58  85 113 154 195 239 290 341
#     4  12  21  38  61  89 117 152 201 248 287 345
#     4  10  18  30  50  76 111 139 176 230 284 336
#     4  10  18  31  48  79 111 141 175 230 287 336
#
# _framework density 21.681331
#
# number of rings (size 3 to 8) (size 9 to 14) (size 15 to 20)
#    0.750    1.250    0.000    8.250    0.000    0.000 
#    0.000    6.250    0.000    0.000    0.000    9.625 
#    0.000    0.000    0.000    0.000    0.000    0.000 
#
# Total GULP energy -178191.770769 kJ/mol
# GULP energy per Si atom -5568.492837 kJ/mol
# Density = 2.163198 g / cm^3
# Si number density = 21.681331 Si / 1000 Ang^3
#
#
#
# Elastic Constant Matrix: (Units=GPa)
#
#
# Indices 1 2 3 4 5 6 
#
# 1 142.9068 17.9443 5.7844 0.0000 9.0557 0.0000
# 2 17.9443 74.9494 29.7328 0.0000 8.1536 0.0000
# 3 5.7844 29.7328 94.1934 0.0000 4.8865 0.0000
# 4 0.0000 0.0000 0.0000 12.0470 0.0000 -0.8557
# 5 9.0557 8.1536 4.8865 0.0000 22.2204 0.0000
# 6 0.0000 0.0000 0.0000 -0.8557 0.0000 -0.4471
#
#
#
# Elastic Compliance Matrix: (Units=1/GPa)
#
#
# Indices 1 2 3 4 5 6 
#
# 1 0.007342 -0.001557 0.000168 0.000000 -0.002458 0.000000
# 2 -0.001557 0.016060 -0.004755 0.000000 -0.004213 0.000000
# 3 0.000168 -0.004755 0.012159 0.000000 -0.000997 0.000000
# 4 0.000000 0.000000 0.000000 0.073074 0.000000 -0.139854
# 5 -0.002458 -0.004213 -0.000997 0.000000 0.047771 0.000000
# 6 0.000000 0.000000 0.000000 -0.139854 0.000000 -1.968917
#
#
# Mechanical properties :
#
#
# Convention : Reuss Voigt Hill
#
# Bulk Modulus (GPa) = 42.96949 46.55250 44.76100
# Shear Modulus (GPa) = -2.78945 24.00324 10.60690
#
# Velocity S-wave (km/s) = -1.13550 3.33091 2.21423
# Velocity P-wave (km/s) = 4.25941 6.02587 5.21793
#
# Compressibility (1/GPa) = 0.02327233
#
# Stress axis : x y z
#
# Youngs Moduli (GPa) = 136.20201 62.26697 82.24428
#
# Poissons Ratio (x) = 0.09696 -0.01383
# Poissons Ratio (y) = 0.21209 0.39109
# Poissons Ratio (z) = -0.02290 0.29609
#
# Static dielectric constant tensor:
#      x y z
#    x 1.946730 0.000000 -0.011350 
#    y 0.000000 1.835760 0.000000 
#    z -0.011350 0.000000 1.847610 
# 
# From -- ./inp_files/62926.got.cif
#   From: 2010.05.17/outbox.cif.g08.bks.cpg/sg11_32_cif.got.tgz:62926.got - 2010.06.03 12:22:45.
