data_PCOD9156182
_publ_section_title
;
Structure prediction by ZEFSAII (Michael W. Deem and Ramdas Pophale) SiO2 
 PCOD9156182
Probable space group: P 21/M
;
_chemical_formula_sum "Si O2"
_cell_formula_units_Z 16
_cell_length_a 9.647586
_cell_length_b 14.395425
_cell_length_c 8.415903
_cell_angle_alpha 90.000000
_cell_angle_beta 32.746239
_cell_angle_gamma 90.000000
_cell_volume 632.231774
_symmetry_space_group_name_H-M "P 21/M"
_symmetry_group_IT_number 11
_symmetry_cell_setting 'monoclinic'
loop_
_space_group_symop_operation_xyz
x,y,z
-x,1/2+y,-z
-x,-y,-z
x,1/2-y,z
loop_
_atom_site_type_symbol
_atom_site_label
_atom_site_fract_x
_atom_site_fract_y
_atom_site_fract_z
Si Si1 0.514839 0.894583 0.045877
Si Si2 0.146336 0.146844 0.822007
Si Si3 0.998580 0.882748 0.383508
Si Si4 0.758426 0.463446 0.418114
O O1 0.468106 0.905680 0.278964
O O2 0.259222 0.855027 0.215255
O O3 0.766337 0.854730 0.722986
O O4 0.500000 0.000000 0.000000
O O5 0.243528 0.250000 0.773465
O O6 0.006850 0.158563 0.786764
O O7 0.322742 0.058015 0.597918
O O8 0.940541 0.103163 0.141391
O O9 0.939486 0.991126 0.384999
#
# Coordination Sequence:
#
# PCOD9156182 Si02
#       4
#     4   4   4   4
#     4  10  17  34  61  85 107 142 187 233 282 337
#     4   9  18  35  54  81 116 150 189 233 282 339
#     4   9  19  34  60  83 109 145 186 232 283 333
#     4   8  17  33  56  81 109 150 187 233 281 337
#
# _framework density 25.307175999999998
#
# number of rings (size 3 to 8) (size 9 to 14) (size 15 to 20)
#    1.500    1.500    0.000    3.000    0.000    0.000 
#    0.000   17.500    0.000    0.000    0.000    0.000 
#    0.000    0.000    0.000    0.000    0.000    0.000 
#
# Total GULP energy -89077.156032 kJ/mol
# GULP energy per Si atom -5567.322252 kJ/mol
# Density = 2.524958 g / cm^3
# Si number density = 25.307176 Si / 1000 Ang^3
#
#
#
# Elastic Constant Matrix: (Units=GPa)
#
#
# Indices 1 2 3 4 5 6 
#
# 1 78.6761 40.9477 68.3989 0.0000 15.9587 0.0000
# 2 40.9477 153.8758 46.2816 0.0000 4.3474 0.0000
# 3 68.3989 46.2816 192.1869 0.0000 21.0275 0.0000
# 4 0.0000 0.0000 0.0000 -63.7998 0.0000 -39.1985
# 5 15.9587 4.3474 21.0275 0.0000 48.6286 0.0000
# 6 0.0000 0.0000 0.0000 -39.1985 0.0000 -25.2508
#
#
#
# Elastic Compliance Matrix: (Units=1/GPa)
#
#
# Indices 1 2 3 4 5 6 
#
# 1 0.020602 -0.003552 -0.006058 0.000000 -0.003824 0.000000
# 2 -0.003552 0.007619 -0.000655 0.000000 0.000768 0.000000
# 3 -0.006058 -0.000655 0.007655 0.000000 -0.001264 0.000000
# 4 0.000000 0.000000 0.000000 -0.339045 0.000000 0.526322
# 5 -0.003824 0.000768 -0.001264 0.000000 0.022297 0.000000
# 6 0.000000 0.000000 0.000000 0.526322 0.000000 -0.856647
#
#
# Mechanical properties :
#
#
# Convention : Reuss Voigt Hill
#
# Bulk Modulus (GPa) = 65.16331 81.77722 73.47027
# Shear Modulus (GPa) = -4.49691 9.85631 2.67970
#
# Velocity S-wave (km/s) = -1.33446 1.97563 1.03013
# Velocity P-wave (km/s) = 4.84050 6.13092 5.52352
#
# Compressibility (1/GPa) = 0.01534606
#
# Stress axis : x y z
#
# Youngs Moduli (GPa) = 48.54004 131.24759 130.62857
#
# Poissons Ratio (x) = 0.46620 0.79139
# Poissons Ratio (y) = 0.17242 0.08551
# Poissons Ratio (z) = 0.29407 0.08592
#
# Static dielectric constant tensor:
#      x y z
#    x 2.113400 0.000000 -0.005570 
#    y 0.000000 1.900930 0.000000 
#    z -0.005570 0.000000 1.989440 
# 
# From -- ./inp_files/1525.got.cif
#   From: 2010.05.17/outbox.cif.g08.bks.cpg/sg11_1_cif.got.tgz:1525.got - 2010.06.03 12:22:45.
