data_PCOD9156639
_publ_section_title
;
Structure prediction by ZEFSAII (Michael W. Deem and Ramdas Pophale) SiO2 
 PCOD9156639
Probable space group: P 21/M
;
_chemical_formula_sum "Si O2"
_cell_formula_units_Z 32
_cell_length_a 17.318181
_cell_length_b 9.560081
_cell_length_c 12.010202
_cell_angle_alpha 90.000000
_cell_angle_beta 47.820832
_cell_angle_gamma 90.000000
_cell_volume 1473.536685
_symmetry_space_group_name_H-M "P 21/M"
_symmetry_group_IT_number 11
_symmetry_cell_setting 'monoclinic'
loop_
_space_group_symop_operation_xyz
x,y,z
-x,1/2+y,-z
-x,-y,-z
x,1/2-y,z
loop_
_atom_site_type_symbol
_atom_site_label
_atom_site_fract_x
_atom_site_fract_y
_atom_site_fract_z
Si Si1 0.162336 0.086017 0.825714
Si Si2 0.672362 0.595907 0.053659
Si Si3 0.411267 0.595131 0.040043
Si Si4 0.045061 0.586796 0.126444
Si Si5 0.100522 0.412328 0.276289
Si Si6 0.805495 0.087423 0.617610
Si Si7 0.487825 0.091176 0.618625
Si Si8 0.289488 0.917589 0.525481
O O1 0.184412 0.250000 0.831181
O O2 0.061281 0.086503 0.841482
O O3 0.249349 0.006202 0.669339
O O4 0.126928 0.996990 0.968227
O O5 0.631077 0.750000 0.056388
O O6 0.628627 0.583404 0.219624
O O7 0.620753 0.464184 0.046733
O O8 0.789919 0.593386 0.897871
O O9 0.450750 0.750000 0.996076
O O10 0.307589 0.588021 0.214161
O O11 0.500000 0.500000 0.000000
O O12 0.075796 0.750000 0.115316
O O13 0.032800 0.504645 0.255669
O O14 0.068650 0.250000 0.321400
O O15 0.123317 0.490408 0.371562
O O16 0.840926 0.250000 0.583501
O O17 0.777789 0.042604 0.518651
O O18 0.505086 0.250000 0.568200
O O19 0.585317 0.060145 0.607768
O O20 0.500000 0.000000 0.500000
O O21 0.272684 0.750000 0.557578
#
# Coordination Sequence:
#
# PCOD9156639 Si02
#       8
#     4   4   4   4   4   4   4   4
#     4  10  22  39  61  88 115 147 188 236 289 340
#     4   9  19  35  51  73 108 144 182 228 274 322
#     4  10  18  29  49  74 101 137 183 230 275 322
#     4  10  21  39  62  87 116 147 185 233 287 348
#     4  10  20  34  58  89 118 148 188 239 288 334
#     4   9  19  36  55  78 111 152 193 232 282 340
#     4  10  22  38  54  78 113 153 194 234 281 336
#     4  10  21  38  59  82 114 155 195 235 284 342
#
# _framework density 21.716460999999999
#
# number of rings (size 3 to 8) (size 9 to 14) (size 15 to 20)
#    0.000    2.250    0.000    2.250    1.750    6.000 
#    0.000    1.875    0.000    0.000    0.000    0.000 
#    0.000    0.000    0.000    0.000    0.000    0.000 
#
# Total GULP energy -178533.285664 kJ/mol
# GULP energy per Si atom -5579.165177 kJ/mol
# Density = 2.166703 g / cm^3
# Si number density = 21.716461 Si / 1000 Ang^3
#
#
#
# Elastic Constant Matrix: (Units=GPa)
#
#
# Indices 1 2 3 4 5 6 
#
# 1 85.7485 49.7560 31.3661 0.0000 13.2784 0.0000
# 2 49.7560 105.9851 27.0567 0.0000 11.6962 0.0000
# 3 31.3661 27.0567 73.7605 0.0000 2.4278 0.0000
# 4 0.0000 0.0000 0.0000 18.5462 0.0000 8.9569
# 5 13.2784 11.6962 2.4278 0.0000 40.2441 0.0000
# 6 0.0000 0.0000 0.0000 8.9569 0.0000 29.9354
#
#
#
# Elastic Compliance Matrix: (Units=1/GPa)
#
#
# Indices 1 2 3 4 5 6 
#
# 1 0.017999 -0.006754 -0.005056 0.000000 -0.003671 0.000000
# 2 -0.006754 0.013269 -0.001946 0.000000 -0.001511 0.000000
# 3 -0.005056 -0.001946 0.016380 0.000000 0.001245 0.000000
# 4 0.000000 0.000000 0.000000 0.063027 0.000000 -0.018858
# 5 -0.003671 -0.001511 0.001245 0.000000 0.026423 0.000000
# 6 0.000000 0.000000 0.000000 -0.018858 0.000000 0.039048
#
#
# Mechanical properties :
#
#
# Convention : Reuss Voigt Hill
#
# Bulk Modulus (GPa) = 49.65798 53.53906 51.59852
# Shear Modulus (GPa) = 23.76772 28.23281 26.00026
#
# Velocity S-wave (km/s) = 3.31185 3.60955 3.46390
# Velocity P-wave (km/s) = 6.12704 6.48684 6.30950
#
# Compressibility (1/GPa) = 0.02013775
#
# Stress axis : x y z
#
# Youngs Moduli (GPa) = 55.55934 75.36094 61.05031
#
# Poissons Ratio (x) = 0.50899 0.30864
# Poissons Ratio (y) = 0.37525 0.11878
# Poissons Ratio (z) = 0.28088 0.14663
#
# Static dielectric constant tensor:
#      x y z
#    x 1.806940 0.000000 -0.015680 
#    y 0.000000 1.746660 0.000000 
#    z -0.015680 0.000000 1.787040 
# 
# From -- ./inp_files/42750.got.cif
#   From: 2010.05.17/outbox.cif.g08.bks.cpg/sg11_22_cif.got.tgz:42750.got - 2010.06.03 12:22:45.
