data_PCOD9156040
_publ_section_title
;
Structure prediction by ZEFSAII (Michael W. Deem and Ramdas Pophale) SiO2 
 PCOD9156040
Probable space group: P 21/M
;
_chemical_formula_sum "Si O2"
_cell_formula_units_Z 20
_cell_length_a 8.942789
_cell_length_b 9.638390
_cell_length_c 21.383425
_cell_angle_alpha 90.000000
_cell_angle_beta 40.860929
_cell_angle_gamma 90.000000
_cell_volume 1205.818761
_symmetry_space_group_name_H-M "P 21/M"
_symmetry_group_IT_number 11
_symmetry_cell_setting 'monoclinic'
loop_
_space_group_symop_operation_xyz
x,y,z
-x,1/2+y,-z
-x,-y,-z
x,1/2-y,z
loop_
_atom_site_type_symbol
_atom_site_label
_atom_site_fract_x
_atom_site_fract_y
_atom_site_fract_z
Si Si1 0.744718 0.250000 0.867701
Si Si2 0.755827 0.750000 0.133143
Si Si3 0.275261 0.250000 0.706408
Si Si4 0.541846 0.477076 0.842970
Si Si5 0.693858 0.092307 0.573081
Si Si6 0.856052 0.915017 0.637012
Si Si7 0.710554 0.250000 0.028132
O O1 0.630404 0.383586 0.871962
O O2 0.015800 0.250000 0.767553
O O3 0.710937 0.250000 0.952643
O O4 0.725739 0.750000 0.217514
O O5 0.631490 0.882998 0.142745
O O6 0.025071 0.750000 0.034449
O O7 0.431237 0.117978 0.637189
O O8 0.752443 0.517755 0.731591
O O9 0.416397 0.614249 0.906347
O O10 0.760342 0.250000 0.574742
O O11 0.874841 0.059670 0.461470
O O12 0.730011 0.984816 0.617349
O O13 0.817111 0.750000 0.651045
#
# Coordination Sequence:
#
# PCOD9156040 Si02
#       7
#     2   2   2   4   4   4   2
#     4  10  24  36  54  69 102 149 181 198 259 318
#     4  10  20  34  56  82 101 130 174 212 269 314
#     4   9  16  35  54  72 106 142 170 203 247 314
#     4  11  20  36  55  79 103 133 178 216 255 309
#     4   8  16  30  55  78 110 131 166 201 265 305
#     4  10  17  29  53  86 105 130 165 220 258 298
#     4  11  22  37  56  75 103 133 171 229 267 292
#
# _framework density 16.586241999999999
#
# number of rings (size 3 to 8) (size 9 to 14) (size 15 to 20)
#    0.600    1.600    3.000    1.200    1.400    0.000 
#    0.000    1.000    2.200    0.000    0.000    0.000 
#    0.000    0.000    0.000    0.000    0.000    0.000 
#
# Total GULP energy -111367.528567 kJ/mol
# GULP energy per Si atom -5568.376428 kJ/mol
# Density = 1.654849 g / cm^3
# Si number density = 16.586242 Si / 1000 Ang^3
#
#
#
# Elastic Constant Matrix: (Units=GPa)
#
#
# Indices 1 2 3 4 5 6 
#
# 1 66.0708 28.7630 25.6107 0.0000 -14.9961 0.0000
# 2 28.7630 94.7477 38.3075 0.0000 -2.2388 0.0000
# 3 25.6107 38.3075 101.3266 0.0000 -13.6155 0.0000
# 4 0.0000 0.0000 0.0000 23.4400 0.0000 -10.8598
# 5 -14.9961 -2.2388 -13.6155 0.0000 25.6162 0.0000
# 6 0.0000 0.0000 0.0000 -10.8598 0.0000 3.7248
#
#
#
# Elastic Compliance Matrix: (Units=1/GPa)
#
#
# Indices 1 2 3 4 5 6 
#
# 1 0.020522 -0.005263 -0.001771 0.000000 0.010612 0.000000
# 2 -0.005263 0.013864 -0.004482 0.000000 -0.004252 0.000000
# 3 -0.001771 -0.004482 0.012729 0.000000 0.005337 0.000000
# 4 0.000000 0.000000 0.000000 -0.121624 0.000000 -0.354598
# 5 0.010612 -0.004252 0.005337 0.000000 0.047715 0.000000
# 6 0.000000 0.000000 0.000000 -0.354598 0.000000 -0.765374
#
#
# Mechanical properties :
#
#
# Convention : Reuss Voigt Hill
#
# Bulk Modulus (GPa) = 41.52694 49.72306 45.62500
# Shear Modulus (GPa) = -6.56937 21.85380 7.64221
#
# Velocity S-wave (km/s) = -1.99232 3.63379 2.14885
# Velocity P-wave (km/s) = 4.44959 6.90286 5.80725
#
# Compressibility (1/GPa) = 0.02408075
#
# Stress axis : x y z
#
# Youngs Moduli (GPa) = 48.72901 72.12976 78.56365
#
# Poissons Ratio (x) = 0.37962 0.13915
# Poissons Ratio (y) = 0.25646 0.35216
# Poissons Ratio (z) = 0.08631 0.32332
#
# Static dielectric constant tensor:
#      x y z
#    x 1.534590 0.000000 -0.026080 
#    y 0.000000 1.541310 0.000000 
#    z -0.026080 0.000000 1.571950 
# 
# From -- ./inp_files/57457.got.cif
#   From: 2010.05.17/outbox.cif.g08.bks.cpg/sg11_29_cif.got.tgz:57457.got - 2010.06.03 12:22:45.
