data_PCOD9156604
_publ_section_title
;
Structure prediction by ZEFSAII (Michael W. Deem and Ramdas Pophale) SiO2 
 PCOD9156604
Probable space group: P 21/M
;
_chemical_formula_sum "Si O2"
_cell_formula_units_Z 32
_cell_length_a 23.413848
_cell_length_b 7.973205
_cell_length_c 15.893505
_cell_angle_alpha 90.000000
_cell_angle_beta 149.025851
_cell_angle_gamma 90.000000
_cell_volume 1526.997994
_symmetry_space_group_name_H-M "P 21/M"
_symmetry_group_IT_number 11
_symmetry_cell_setting 'monoclinic'
loop_
_space_group_symop_operation_xyz
x,y,z
-x,1/2+y,-z
-x,-y,-z
x,1/2-y,z
loop_
_atom_site_type_symbol
_atom_site_label
_atom_site_fract_x
_atom_site_fract_y
_atom_site_fract_z
Si Si1 0.156623 0.956630 0.456415
Si Si2 0.919333 0.949465 0.100259
Si Si3 0.690336 0.050359 0.497057
Si Si4 0.797610 0.052182 0.114977
Si Si5 0.546343 0.938499 0.796856
Si Si6 0.822022 0.442453 0.329702
Si Si7 0.443616 0.560412 0.012764
Si Si8 0.126086 0.049051 0.137464
O O1 0.160790 0.750000 0.465099
O O2 0.261556 0.011376 0.532381
O O3 0.145482 0.017397 0.538901
O O4 0.045607 0.011297 0.267783
O O5 0.928137 0.750000 0.100987
O O6 0.858579 0.982836 0.110840
O O7 0.858482 0.011743 0.939541
O O8 0.672915 0.250000 0.465618
O O9 0.571295 0.982278 0.378612
O O10 0.786064 0.024157 0.686418
O O11 0.816675 0.250000 0.143572
O O12 0.840505 0.981148 0.259753
O O13 0.665272 0.025513 0.936434
O O14 0.558269 0.750000 0.778276
O O15 0.530867 0.939699 0.878111
O O16 0.864803 0.250000 0.382365
O O17 0.688458 0.436078 0.166197
O O18 0.478245 0.750000 0.078406
O O19 0.500000 0.500000 0.000000
O O20 0.136729 0.250000 0.155209
O O21 0.000000 0.000000 0.000000
#
# Coordination Sequence:
#
# PCOD9156604 Si02
#       8
#     4   4   4   4   4   4   4   4
#     4   9  16  31  54  80 112 146 183 225 277 334
#     4  10  21  37  58  81 108 147 189 228 276 340
#     4  10  20  36  59  87 115 146 185 230 287 346
#     4  10  21  37  56  80 113 150 192 235 278 328
#     4  10  20  35  57  81 109 148 191 232 283 343
#     4   8  16  30  49  74 106 147 186 226 273 322
#     4  10  18  29  47  74 110 149 193 235 280 333
#     4  11  22  38  60  87 116 145 182 229 284 343
#
# _framework density 20.956151999999999
#
# number of rings (size 3 to 8) (size 9 to 14) (size 15 to 20)
#    0.000    2.250    1.250    3.000    0.000    4.500 
#    0.000    0.625    0.000    5.250    0.000    0.000 
#    0.000    0.000    0.000    0.000    0.000    0.000 
#
# Total GULP energy -178405.503981 kJ/mol
# GULP energy per Si atom -5575.171999 kJ/mol
# Density = 2.090845 g / cm^3
# Si number density = 20.956152 Si / 1000 Ang^3
#
#
#
# Elastic Constant Matrix: (Units=GPa)
#
#
# Indices 1 2 3 4 5 6 
#
# 1 69.7783 -7.3505 3.8094 0.0000 -19.9509 0.0000
# 2 -7.3505 19.1686 -3.5081 0.0000 -1.0187 0.0000
# 3 3.8094 -3.5081 75.8210 0.0000 -13.9520 0.0000
# 4 0.0000 0.0000 0.0000 20.5373 0.0000 -2.5496
# 5 -19.9509 -1.0187 -13.9520 0.0000 28.1647 0.0000
# 6 0.0000 0.0000 0.0000 -2.5496 0.0000 16.2847
#
#
#
# Elastic Compliance Matrix: (Units=1/GPa)
#
#
# Indices 1 2 3 4 5 6 
#
# 1 0.019473 0.008682 0.002222 0.000000 0.015209 0.000000
# 2 0.008682 0.056786 0.004072 0.000000 0.010221 0.000000
# 3 0.002222 0.004072 0.014945 0.000000 0.009124 0.000000
# 4 0.000000 0.000000 0.000000 0.049657 0.000000 0.007775
# 5 0.015209 0.010221 0.009124 0.000000 0.051168 0.000000
# 6 0.000000 0.000000 0.000000 0.007775 0.000000 0.062625
#
#
# Mechanical properties :
#
#
# Convention : Reuss Voigt Hill
#
# Bulk Modulus (GPa) = 8.25382 16.74103 12.49743
# Shear Modulus (GPa) = 18.86172 24.45181 21.65677
#
# Velocity S-wave (km/s) = 3.00335 3.41956 3.21819
# Velocity P-wave (km/s) = 3.99674 4.85769 4.44810
#
# Compressibility (1/GPa) = 0.12115606
#
# Stress axis : x y z
#
# Youngs Moduli (GPa) = 51.35373 17.60984 66.91314
#
# Poissons Ratio (x) = -0.15289 -0.14868
# Poissons Ratio (y) = -0.44586 -0.27247
# Poissons Ratio (z) = -0.11410 -0.07171
#
# Static dielectric constant tensor:
#      x y z
#    x 1.760850 0.000000 -0.001780 
#    y 0.000000 1.767430 0.000000 
#    z -0.001780 0.000000 1.817350 
# 
# From -- ./inp_files/55765.got.cif
#   From: 2010.05.17/outbox.cif.g08.bks.cpg/sg11_28_cif.got.tgz:55765.got - 2010.06.03 12:22:45.
