data_PCOD9156806
_publ_section_title
;
Structure prediction by ZEFSAII (Michael W. Deem and Ramdas Pophale) SiO2 
 PCOD9156806
Probable space group: P 21/M
;
_chemical_formula_sum "Si O2"
_cell_formula_units_Z 28
_cell_length_a 15.957981
_cell_length_b 8.527999
_cell_length_c 19.697429
_cell_angle_alpha 90.000000
_cell_angle_beta 37.464978
_cell_angle_gamma 90.000000
_cell_volume 1630.555478
_symmetry_space_group_name_H-M "P 21/M"
_symmetry_group_IT_number 11
_symmetry_cell_setting 'monoclinic'
loop_
_space_group_symop_operation_xyz
x,y,z
-x,1/2+y,-z
-x,-y,-z
x,1/2-y,z
loop_
_atom_site_type_symbol
_atom_site_label
_atom_site_fract_x
_atom_site_fract_y
_atom_site_fract_z
Si Si1 0.099673 0.941109 0.730630
Si Si2 0.570929 0.438263 0.113397
Si Si3 0.593026 0.061971 0.502640
Si Si4 0.191669 0.061495 0.140257
Si Si5 0.585690 0.439555 0.261272
Si Si6 0.884080 0.060915 0.124591
Si Si7 0.381505 0.563065 0.126821
O O1 0.099412 0.750000 0.730114
O O2 0.248467 0.991560 0.607287
O O3 0.090113 0.991875 0.815125
O O4 0.962656 0.990748 0.779083
O O5 0.577125 0.250000 0.105222
O O6 0.575211 0.486511 0.189280
O O7 0.431232 0.496800 0.166822
O O8 0.700694 0.504394 0.986981
O O9 0.591267 0.250000 0.500056
O O10 0.500000 0.000000 0.500000
O O11 0.528575 0.006697 0.614887
O O12 0.197766 0.250000 0.137680
O O13 0.243642 0.997050 0.179255
O O14 0.579037 0.250000 0.268170
O O15 0.733827 0.489149 0.195593
O O16 0.885987 0.250000 0.122989
O O17 0.000000 0.000000 0.000000
O O18 0.383692 0.750000 0.126565
O O19 0.500000 0.500000 0.000000
#
# Coordination Sequence:
#
# PCOD9156806 Si02
#       7
#     4   4   4   4   4   4   4
#     4   9  19  34  52  72 102 136 167 211 258 300
#     4  10  19  32  51  77 108 138 168 209 258 307
#     4  11  21  37  57  75  99 135 180 219 257 304
#     4  10  18  31  52  77 105 137 171 208 255 311
#     4  10  21  36  53  74 105 137 170 217 260 299
#     4  10  19  33  49  71 105 135 165 203 252 305
#     4  10  18  30  49  74 105 137 170 209 251 306
#
# _framework density 17.172060999999999
#
# number of rings (size 3 to 8) (size 9 to 14) (size 15 to 20)
#    0.000    2.000    1.429    5.143    0.000    1.714 
#    0.000    3.571    0.000    0.857    0.000    0.000 
#    0.000    0.000    0.000    0.000    0.000    0.000 
#
# Total GULP energy -156217.971235 kJ/mol
# GULP energy per Si atom -5579.213258 kJ/mol
# Density = 1.713298 g / cm^3
# Si number density = 17.172061 Si / 1000 Ang^3
#
#
#
# Elastic Constant Matrix: (Units=GPa)
#
#
# Indices 1 2 3 4 5 6 
#
# 1 151.4614 26.3714 47.2688 0.0000 -29.5860 0.0000
# 2 26.3714 43.8881 13.3270 0.0000 -5.0297 0.0000
# 3 47.2688 13.3270 93.3042 0.0000 -27.3587 0.0000
# 4 0.0000 0.0000 0.0000 25.2450 0.0000 1.6624
# 5 -29.5860 -5.0297 -27.3587 0.0000 15.9583 0.0000
# 6 0.0000 0.0000 0.0000 1.6624 0.0000 20.2600
#
#
#
# Elastic Compliance Matrix: (Units=1/GPa)
#
#
# Indices 1 2 3 4 5 6 
#
# 1 0.011221 -0.004667 0.001308 0.000000 0.021575 0.000000
# 2 -0.004667 0.025850 -0.002968 0.000000 -0.005594 0.000000
# 3 0.001308 -0.002968 0.021950 0.000000 0.039120 0.000000
# 4 0.000000 0.000000 0.000000 0.039827 0.000000 -0.003268
# 5 0.021575 -0.005594 0.039120 0.000000 0.167967 0.000000
# 6 0.000000 0.000000 0.000000 -0.003268 0.000000 0.049627
#
#
# Mechanical properties :
#
#
# Convention : Reuss Voigt Hill
#
# Bulk Modulus (GPa) = 21.56731 51.39869 36.48300
# Shear Modulus (GPa) = 14.51167 25.73842 20.12505
#
# Velocity S-wave (km/s) = 2.91017 3.87570 3.42711
# Velocity P-wave (km/s) = 4.88661 7.07281 6.07880
#
# Compressibility (1/GPa) = 0.04636646
#
# Stress axis : x y z
#
# Youngs Moduli (GPa) = 89.11737 38.68497 45.55897
#
# Poissons Ratio (x) = 0.18055 -0.05960
# Poissons Ratio (y) = 0.41593 0.13522
# Poissons Ratio (z) = -0.11659 0.11482
#
# Static dielectric constant tensor:
#      x y z
#    x 1.606720 0.000000 -0.009820 
#    y 0.000000 1.588160 0.000000 
#    z -0.009820 0.000000 1.551270 
# 
# From -- ./inp_files/60061.got.cif
#   From: 2010.05.17/outbox.cif.g08.bks.cpg/sg11_31_cif.got.tgz:60061.got - 2010.06.03 12:22:45.
