data_PCOD9156941
_publ_section_title
;
Structure prediction by ZEFSAII (Michael W. Deem and Ramdas Pophale) SiO2 
 PCOD9156941
Probable space group: P 21/M
;
_chemical_formula_sum "Si O2"
_cell_formula_units_Z 32
_cell_length_a 24.799886
_cell_length_b 7.558113
_cell_length_c 12.884132
_cell_angle_alpha 90.000000
_cell_angle_beta 133.329926
_cell_angle_gamma 90.000000
_cell_volume 1756.710330
_symmetry_space_group_name_H-M "P 21/M"
_symmetry_group_IT_number 11
_symmetry_cell_setting 'monoclinic'
loop_
_space_group_symop_operation_xyz
x,y,z
-x,1/2+y,-z
-x,-y,-z
x,1/2-y,z
loop_
_atom_site_type_symbol
_atom_site_label
_atom_site_fract_x
_atom_site_fract_y
_atom_site_fract_z
Si Si1 0.078662 0.032687 0.823616
Si Si2 0.918417 0.959973 0.936596
Si Si3 0.912737 0.035937 0.550130
Si Si4 0.181343 0.459052 0.777184
Si Si5 0.344529 0.540905 0.654171
Si Si6 0.334424 0.034738 0.885763
Si Si7 0.812815 0.458931 0.609498
Si Si8 0.495433 0.038050 0.116942
O O1 0.078792 0.250000 0.823637
O O2 0.141913 0.970637 0.828215
O O3 0.997457 0.977670 0.675943
O O4 0.088571 0.972517 0.955135
O O5 0.911644 0.750000 0.932734
O O6 0.856916 0.022915 0.774446
O O7 0.000000 0.000000 0.000000
O O8 0.913350 0.250000 0.553845
O O9 0.863186 0.970341 0.581554
O O10 0.874804 0.981182 0.393116
O O11 0.192101 0.250000 0.808099
O O12 0.261292 0.530639 0.847913
O O13 0.348566 0.750000 0.636337
O O14 0.332287 0.520806 0.762118
O O15 0.270553 0.466821 0.503160
O O16 0.426447 0.467138 0.736230
O O17 0.333901 0.250000 0.884563
O O18 0.413173 0.974784 0.038075
O O19 0.805363 0.250000 0.578422
O O20 0.495534 0.250000 0.131467
O O21 0.500000 0.000000 0.000000
#
# Coordination Sequence:
#
# PCOD9156941 Si02
#       8
#     4   4   4   4   4   4   4   4
#     4   9  19  34  47  61  86 118 148 183 224 260
#     4  11  21  35  52  67  86 115 151 190 229 265
#     4  10  18  31  47  63  90 120 147 180 217 261
#     4  10  19  30  45  66  91 118 148 180 216 261
#     4   9  16  27  43  61  88 121 146 172 216 267
#     4   9  16  25  40  64  91 114 144 181 211 253
#     4  10  19  31  47  68  91 118 150 184 222 262
#     4   8  14  24  38  59  86 116 144 172 210 256
#
# _framework density 18.215865000000001
#
# number of rings (size 3 to 8) (size 9 to 14) (size 15 to 20)
#    0.000    2.500    2.500    0.750    0.000    1.000 
#    0.000    1.250    0.000    0.000    0.000    0.875 
#    0.000    0.000    0.000    0.000    0.000    0.000 
#
# Total GULP energy -178385.614653 kJ/mol
# GULP energy per Si atom -5574.550458 kJ/mol
# Density = 1.817440 g / cm^3
# Si number density = 18.215865 Si / 1000 Ang^3
#
#
#
# Elastic Constant Matrix: (Units=GPa)
#
#
# Indices 1 2 3 4 5 6 
#
# 1 103.6220 -12.5213 84.8928 0.0000 9.3447 0.0000
# 2 -12.5213 37.9000 -10.8453 0.0000 1.2964 0.0000
# 3 84.8928 -10.8453 116.4932 0.0000 25.4339 0.0000
# 4 0.0000 0.0000 0.0000 13.2773 0.0000 -6.3340
# 5 9.3447 1.2964 25.4339 0.0000 35.1109 0.0000
# 6 0.0000 0.0000 0.0000 -6.3340 0.0000 1.9772
#
#
#
# Elastic Compliance Matrix: (Units=1/GPa)
#
#
# Indices 1 2 3 4 5 6 
#
# 1 0.025928 0.002475 -0.020357 0.000000 0.007754 0.000000
# 2 0.002475 0.027682 0.001354 0.000000 -0.002662 0.000000
# 3 -0.020357 0.001354 0.026577 0.000000 -0.013884 0.000000
# 4 0.000000 0.000000 0.000000 -0.142571 0.000000 -0.456733
# 5 0.007754 -0.002662 -0.013884 0.000000 0.036573 0.000000
# 6 0.000000 0.000000 0.000000 -0.456733 0.000000 -0.957401
#
#
# Mechanical properties :
#
#
# Convention : Reuss Voigt Hill
#
# Bulk Modulus (GPa) = 21.21729 42.34084 31.77907
# Shear Modulus (GPa) = -5.35076 23.17234 8.91079
#
# Velocity S-wave (km/s) = -1.71575 3.57052 2.21414
# Velocity P-wave (km/s) = 2.78351 6.34764 4.90104
#
# Compressibility (1/GPa) = 0.04713137
#
# Stress axis : x y z
#
# Youngs Moduli (GPa) = 38.56809 36.12501 37.62697
#
# Poissons Ratio (x) = -0.08943 0.76599
# Poissons Ratio (y) = -0.09547 -0.05096
# Poissons Ratio (z) = 0.78515 -0.04893
#
# Static dielectric constant tensor:
#      x y z
#    x 1.646140 0.000000 0.044890 
#    y 0.000000 1.671910 0.000000 
#    z 0.044890 0.000000 1.612490 
# 
# From -- ./inp_files/42493.got.cif
#   From: 2010.05.17/outbox.cif.g08.bks.cpg/sg11_22_cif.got.tgz:42493.got - 2010.06.03 12:22:45.
