data_PCOD9156173
_publ_section_title
;
Structure prediction by ZEFSAII (Michael W. Deem and Ramdas Pophale) SiO2 
 PCOD9156173
Probable space group: P 21/M
;
_chemical_formula_sum "Si O2"
_cell_formula_units_Z 24
_cell_length_a 15.883871
_cell_length_b 15.198281
_cell_length_c 9.945420
_cell_angle_alpha 90.000000
_cell_angle_beta 146.184468
_cell_angle_gamma 90.000000
_cell_volume 1336.150562
_symmetry_space_group_name_H-M "P 21/M"
_symmetry_group_IT_number 11
_symmetry_cell_setting 'monoclinic'
loop_
_space_group_symop_operation_xyz
x,y,z
-x,1/2+y,-z
-x,-y,-z
x,1/2-y,z
loop_
_atom_site_type_symbol
_atom_site_label
_atom_site_fract_x
_atom_site_fract_y
_atom_site_fract_z
Si Si1 0.449361 0.353980 0.277108
Si Si2 0.433918 0.593341 0.859138
Si Si3 0.848711 0.994995 0.478588
Si Si4 0.807207 0.987049 0.106891
Si Si5 0.657208 0.847521 0.367494
Si Si6 0.592731 0.146235 0.751024
O O1 0.416887 0.250000 0.225101
O O2 0.523417 0.386692 0.236602
O O3 0.558825 0.367902 0.549089
O O4 0.298403 0.411332 0.093657
O O5 0.254781 0.581494 0.636873
O O6 0.500000 0.500000 0.000000
O O7 0.525419 0.656402 0.079063
O O8 0.778759 0.918811 0.479967
O O9 0.025857 0.009225 0.733230
O O10 0.824883 0.969204 0.290256
O O11 0.719804 0.079454 0.971209
O O12 0.723069 0.750000 0.471396
O O13 0.563189 0.873015 0.375473
O O14 0.627553 0.250000 0.819598
#
# Coordination Sequence:
#
# PCOD9156173 Si02
#       6
#     4   4   4   4   4   4
#     4  11  22  38  60  84 113 152 193 233 284 339
#     4  10  17  34  55  79 108 139 188 232 267 333
#     4  10  21  33  55  85 115 143 184 234 287 341
#     4  11  20  37  56  82 119 148 180 237 289 335
#     4  10  18  34  57  80 109 148 194 236 272 328
#     4  10  22  38  59  85 112 151 197 235 277 337
#
# _framework density 17.962047999999999
#
# number of rings (size 3 to 8) (size 9 to 14) (size 15 to 20)
#    0.000    1.667    5.000    2.000    0.000    0.667 
#    0.000    7.500    0.000    4.000    0.000    0.000 
#    0.000    0.000    0.000    0.000    0.000    0.000 
#
# Total GULP energy -133817.736888 kJ/mol
# GULP energy per Si atom -5575.739037 kJ/mol
# Density = 1.792117 g / cm^3
# Si number density = 17.962048 Si / 1000 Ang^3
#
#
#
# Elastic Constant Matrix: (Units=GPa)
#
#
# Indices 1 2 3 4 5 6 
#
# 1 86.5237 17.2318 23.6906 0.0000 5.1491 0.0000
# 2 17.2318 69.2231 21.8950 0.0000 9.0272 0.0000
# 3 23.6906 21.8950 41.7219 0.0000 6.0976 0.0000
# 4 0.0000 0.0000 0.0000 16.8261 0.0000 -2.0553
# 5 5.1491 9.0272 6.0976 0.0000 42.2400 0.0000
# 6 0.0000 0.0000 0.0000 -2.0553 0.0000 72.5485
#
#
#
# Elastic Compliance Matrix: (Units=1/GPa)
#
#
# Indices 1 2 3 4 5 6 
#
# 1 0.013767 -0.001103 -0.007179 0.000000 -0.000406 0.000000
# 2 -0.001103 0.017660 -0.008284 0.000000 -0.002444 0.000000
# 3 -0.007179 -0.008284 0.032695 0.000000 -0.002074 0.000000
# 4 0.000000 0.000000 0.000000 0.059638 0.000000 0.001690
# 5 -0.000406 -0.002444 -0.002074 0.000000 0.024545 0.000000
# 6 0.000000 0.000000 0.000000 0.001690 0.000000 0.013832
#
#
# Mechanical properties :
#
#
# Convention : Reuss Voigt Hill
#
# Bulk Modulus (GPa) = 32.26908 35.90040 34.08474
# Shear Modulus (GPa) = 24.31926 35.29965 29.80946
#
# Velocity S-wave (km/s) = 3.68356 4.43791 4.07821
# Velocity P-wave (km/s) = 6.00797 6.80369 6.41817
#
# Compressibility (1/GPa) = 0.03098942
#
# Stress axis : x y z
#
# Youngs Moduli (GPa) = 72.63721 56.62668 30.58591
#
# Poissons Ratio (x) = 0.06249 0.21957
# Poissons Ratio (y) = 0.08015 0.25336
# Poissons Ratio (z) = 0.52145 0.46908
#
# Static dielectric constant tensor:
#      x y z
#    x 1.630130 0.000000 -0.002060 
#    y 0.000000 1.633320 0.000000 
#    z -0.002060 0.000000 1.609570 
# 
# From -- ./inp_files/22325.got.cif
#   From: 2010.05.17/outbox.cif.g08.bks.cpg/sg11_12_cif.got.tgz:22325.got - 2010.06.03 12:22:45.
