data_PCOD9156662
_publ_section_title
;
Structure prediction by ZEFSAII (Michael W. Deem and Ramdas Pophale) SiO2 
 PCOD9156662
Probable space group: P 21/M
;
_chemical_formula_sum "Si O2"
_cell_formula_units_Z 28
_cell_length_a 9.009524
_cell_length_b 15.514145
_cell_length_c 18.109170
_cell_angle_alpha 90.000000
_cell_angle_beta 31.919167
_cell_angle_gamma 90.000000
_cell_volume 1338.307384
_symmetry_space_group_name_H-M "P 21/M"
_symmetry_group_IT_number 11
_symmetry_cell_setting 'monoclinic'
loop_
_space_group_symop_operation_xyz
x,y,z
-x,1/2+y,-z
-x,-y,-z
x,1/2-y,z
loop_
_atom_site_type_symbol
_atom_site_label
_atom_site_fract_x
_atom_site_fract_y
_atom_site_fract_z
Si Si1 0.761700 0.848216 0.798029
Si Si2 0.474866 0.347608 0.261117
Si Si3 0.094423 0.404702 0.984166
Si Si4 0.861025 0.525502 0.886987
Si Si5 0.100890 0.155148 0.823259
Si Si6 0.400200 0.623692 0.497300
Si Si7 0.470633 0.062554 0.408623
O O1 0.681475 0.750000 0.856353
O O2 0.606327 0.872052 0.787592
O O3 0.737381 0.926163 0.867689
O O4 0.090383 0.840800 0.637327
O O5 0.379119 0.250000 0.313590
O O6 0.363471 0.406564 0.374780
O O7 0.812816 0.351953 0.121467
O O8 0.257221 0.424342 0.991020
O O9 0.210544 0.364730 0.860027
O O10 0.000000 0.500000 0.000000
O O11 0.889583 0.421811 0.886859
O O12 0.195466 0.546676 0.742019
O O13 0.968478 0.250000 0.879038
O O14 0.372775 0.156368 0.656406
O O15 0.545826 0.628105 0.516322
O O16 0.347381 0.525259 0.492795
#
# Coordination Sequence:
#
# PCOD9156662 Si02
#       7
#     4   4   4   4   4   4   4
#     4  10  20  33  51  76 105 135 169 214 262 303
#     4  10  20  33  52  78 103 131 171 216 258 299
#     4   9  18  34  53  73  97 128 170 213 253 300
#     4   8  17  33  51  74  99 129 172 214 251 296
#     4  10  18  29  50  76 101 130 167 212 256 305
#     4   9  17  31  50  74 101 131 166 204 255 310
#     4   8  16  31  50  71  97 129 168 210 249 293
#
# _framework density 20.921949000000001
#
# number of rings (size 3 to 8) (size 9 to 14) (size 15 to 20)
#    0.000    2.857    0.000    2.571    0.000    6.857 
#    0.000    2.857    0.000    1.714    0.000   23.000 
#    0.000    0.000    0.000    0.000    0.000    0.000 
#
# Total GULP energy -155904.532536 kJ/mol
# GULP energy per Si atom -5568.019019 kJ/mol
# Density = 2.087433 g / cm^3
# Si number density = 20.921949 Si / 1000 Ang^3
#
#
#
# Elastic Constant Matrix: (Units=GPa)
#
#
# Indices 1 2 3 4 5 6 
#
# 1 104.3076 65.2706 12.4021 0.0000 32.8508 0.0000
# 2 65.2706 115.5268 21.5305 0.0000 25.6763 0.0000
# 3 12.4021 21.5305 62.5057 0.0000 20.1129 0.0000
# 4 0.0000 0.0000 0.0000 -21.1168 0.0000 -14.8459
# 5 32.8508 25.6763 20.1129 0.0000 37.3208 0.0000
# 6 0.0000 0.0000 0.0000 -14.8459 0.0000 5.2873
#
#
#
# Elastic Compliance Matrix: (Units=1/GPa)
#
#
# Indices 1 2 3 4 5 6 
#
# 1 0.018077 -0.008123 0.003064 0.000000 -0.011975 0.000000
# 2 -0.008123 0.013989 -0.002917 0.000000 -0.000903 0.000000
# 3 0.003064 -0.002917 0.020104 0.000000 -0.011525 0.000000
# 4 0.000000 0.000000 0.000000 -0.015923 0.000000 -0.044710
# 5 -0.011975 -0.000903 -0.011525 0.000000 0.044168 0.000000
# 6 0.000000 0.000000 0.000000 -0.044710 0.000000 0.063595
#
#
# Mechanical properties :
#
#
# Convention : Reuss Voigt Hill
#
# Bulk Modulus (GPa) = 27.60887 53.41627 40.51257
# Shear Modulus (GPa) = 29.06424 16.50738 22.78581
#
# Velocity S-wave (km/s) = 3.73121 2.81196 3.30371
# Velocity P-wave (km/s) = 5.63802 6.01078 5.82738
#
# Compressibility (1/GPa) = 0.03622024
#
# Stress axis : x y z
#
# Youngs Moduli (GPa) = 55.31922 71.48240 49.74226
#
# Poissons Ratio (x) = 0.58064 -0.15243
# Poissons Ratio (y) = 0.44935 0.14508
# Poissons Ratio (z) = -0.16952 0.20848
#
# Static dielectric constant tensor:
#      x y z
#    x 1.782720 0.000000 0.034370 
#    y 0.000000 1.810640 0.000000 
#    z 0.034370 0.000000 1.776330 
# 
# From -- ./inp_files/58114.got.cif
#   From: 2010.05.17/outbox.cif.g08.bks.cpg/sg11_30_cif.got.tgz:58114.got - 2010.06.03 12:22:45.
