data_PCOD9156481
_publ_section_title
;
Structure prediction by ZEFSAII (Michael W. Deem and Ramdas Pophale) SiO2 
 PCOD9156481
Probable space group: P 21/M
;
_chemical_formula_sum "Si O2"
_cell_formula_units_Z 32
_cell_length_a 15.618986
_cell_length_b 7.532356
_cell_length_c 15.722175
_cell_angle_alpha 90.000000
_cell_angle_beta 101.911627
_cell_angle_gamma 90.000000
_cell_volume 1809.849807
_symmetry_space_group_name_H-M "P 21/M"
_symmetry_group_IT_number 11
_symmetry_cell_setting 'monoclinic'
loop_
_space_group_symop_operation_xyz
x,y,z
-x,1/2+y,-z
-x,-y,-z
x,1/2-y,z
loop_
_atom_site_type_symbol
_atom_site_label
_atom_site_fract_x
_atom_site_fract_y
_atom_site_fract_z
Si Si1 0.756865 0.964225 0.243594
Si Si2 0.866195 0.540989 0.419900
Si Si3 0.202820 0.031462 0.079096
Si Si4 0.585660 0.460327 0.112342
Si Si5 0.918794 0.539964 0.794160
Si Si6 0.941254 0.966060 0.609345
Si Si7 0.882443 0.964142 0.116259
Si Si8 0.608068 0.954521 0.924720
O O1 0.763375 0.750000 0.246079
O O2 0.793000 0.031942 0.341177
O O3 0.820613 0.027685 0.180610
O O4 0.658261 0.009962 0.198307
O O5 0.848480 0.750000 0.426535
O O6 0.882300 0.469601 0.518132
O O7 0.959283 0.520965 0.391072
O O8 0.203397 0.250000 0.078425
O O9 0.149039 0.970143 0.150093
O O10 0.303291 0.969181 0.095974
O O11 0.154331 0.976182 0.982274
O O12 0.577462 0.250000 0.094937
O O13 0.488375 0.531227 0.112605
O O14 0.617369 0.540879 0.029287
O O15 0.901961 0.750000 0.784568
O O16 0.914243 0.469425 0.696984
O O17 0.017686 0.516539 0.847455
O O18 0.940705 0.750000 0.608947
O O19 0.879153 0.750000 0.116130
O O20 0.604824 0.750000 0.895919
#
# Coordination Sequence:
#
# PCOD9156481 Si02
#       8
#     4   4   4   4   4   4   4   4
#     4  10  18  29  45  62  85 119 146 167 206 262
#     4   9  17  29  44  60  82 114 144 168 209 261
#     4   9  17  30  45  59  82 117 148 169 203 251
#     4  10  19  28  45  68  87 107 139 183 219 246
#     4  10  19  29  43  63  86 112 142 181 213 235
#     4   9  17  28  42  63  86 106 138 183 215 240
#     4  10  18  29  43  59  84 120 151 169 194 249
#     4   9  17  32  47  61  85 116 144 171 210 261
#
# _framework density 17.681025000000002
#
# number of rings (size 3 to 8) (size 9 to 14) (size 15 to 20)
#    0.000    2.500    2.500    0.750    0.000    1.500 
#    0.000    0.625    0.000    0.000    0.000    0.875 
#    0.000    0.000    0.000    0.000    0.000    0.000 
#
# Total GULP energy -178464.965005 kJ/mol
# GULP energy per Si atom -5577.030156 kJ/mol
# Density = 1.764078 g / cm^3
# Si number density = 17.681025 Si / 1000 Ang^3
#
#
#
# Elastic Constant Matrix: (Units=GPa)
#
#
# Indices 1 2 3 4 5 6 
#
# 1 129.2823 -3.7160 84.9507 0.0000 7.5575 0.0000
# 2 -3.7160 41.4031 -3.9052 0.0000 -2.9621 0.0000
# 3 84.9507 -3.9052 125.7486 0.0000 9.8142 0.0000
# 4 0.0000 0.0000 0.0000 4.0984 0.0000 7.8753
# 5 7.5575 -2.9621 9.8142 0.0000 27.8956 0.0000
# 6 0.0000 0.0000 0.0000 7.8753 0.0000 9.8751
#
#
#
# Elastic Compliance Matrix: (Units=1/GPa)
#
#
# Indices 1 2 3 4 5 6 
#
# 1 0.013920 0.000335 -0.009359 0.000000 -0.000443 0.000000
# 2 0.000335 0.024386 0.000346 0.000000 0.002377 0.000000
# 3 -0.009359 0.000346 0.014483 0.000000 -0.002523 0.000000
# 4 0.000000 0.000000 0.000000 -0.458276 0.000000 0.365471
# 5 -0.000443 0.002377 -0.002523 0.000000 0.037108 0.000000
# 6 0.000000 0.000000 0.000000 0.365471 0.000000 -0.190195
#
#
# Mechanical properties :
#
#
# Convention : Reuss Voigt Hill
#
# Bulk Modulus (GPa) = 28.22365 50.12144 39.17255
# Shear Modulus (GPa) = -9.44453 22.98080 6.76814
#
# Velocity S-wave (km/s) = -2.31370 3.60911 1.95863
# Velocity P-wave (km/s) = 2.97653 6.76585 5.22668
#
# Compressibility (1/GPa) = 0.03543127
#
# Stress axis : x y z
#
# Youngs Moduli (GPa) = 71.83766 41.00795 69.04854
#
# Poissons Ratio (x) = -0.01373 0.64622
# Poissons Ratio (y) = -0.02406 -0.02386
# Poissons Ratio (z) = 0.67233 -0.01417
#
# Static dielectric constant tensor:
#      x y z
#    x 1.594600 0.000000 0.008560 
#    y 0.000000 1.663230 0.000000 
#    z 0.008560 0.000000 1.611920 
# 
# From -- ./inp_files/51371.got.cif
#   From: 2010.05.17/outbox.cif.g08.bks.cpg/sg11_26_cif.got.tgz:51371.got - 2010.06.03 12:22:45.
