data_PCOD9156492
_publ_section_title
;
Structure prediction by ZEFSAII (Michael W. Deem and Ramdas Pophale) SiO2 
 PCOD9156492
Probable space group: P 21/M
;
_chemical_formula_sum "Si O2"
_cell_formula_units_Z 28
_cell_length_a 13.999608
_cell_length_b 8.810512
_cell_length_c 16.680076
_cell_angle_alpha 90.000000
_cell_angle_beta 115.082080
_cell_angle_gamma 90.000000
_cell_volume 1863.374295
_symmetry_space_group_name_H-M "P 21/M"
_symmetry_group_IT_number 11
_symmetry_cell_setting 'monoclinic'
loop_
_space_group_symop_operation_xyz
x,y,z
-x,1/2+y,-z
-x,-y,-z
x,1/2-y,z
loop_
_atom_site_type_symbol
_atom_site_label
_atom_site_fract_x
_atom_site_fract_y
_atom_site_fract_z
Si Si1 0.290040 0.567663 0.808696
Si Si2 0.663387 0.067765 0.549976
Si Si3 0.129842 0.932742 0.469561
Si Si4 0.112305 0.068661 0.637110
Si Si5 0.395208 0.567722 0.002649
Si Si6 0.527786 0.930880 0.637871
Si Si7 0.498705 0.932297 0.196911
O O1 0.291787 0.750000 0.802766
O O2 0.185852 0.503691 0.730508
O O3 0.391882 0.502003 0.797707
O O4 0.303555 0.523873 0.907617
O O5 0.660693 0.250000 0.560487
O O6 0.778611 0.023462 0.559547
O O7 0.578507 0.030810 0.450018
O O8 0.623083 0.988541 0.616071
O O9 0.134851 0.750000 0.481800
O O10 0.011583 0.971664 0.399330
O O11 0.147141 0.008340 0.562178
O O12 0.121995 0.250000 0.642687
O O13 0.400879 0.750000 0.002033
O O14 0.406644 0.524930 0.099947
O O15 0.500000 0.500000 0.000000
O O16 0.531816 0.750000 0.648113
O O17 0.524432 0.007143 0.723190
O O18 0.508753 0.750000 0.201742
#
# Coordination Sequence:
#
# PCOD9156492 Si02
#       7
#     4   4   4   4   4   4   4
#     4  10  18  29  44  63  90 120 147 177 216 258
#     4   9  18  32  46  60  84 117 148 178 211 250
#     4   9  18  32  47  63  87 118 150 183 216 252
#     4  10  19  29  44  67  90 115 149 182 215 256
#     4   8  16  28  42  61  85 114 145 176 212 256
#     4  10  19  29  44  67  90 113 143 176 215 261
#     4  10  18  29  45  65  89 116 147 180 214 255
#
# _framework density 15.026503999999999
#
# number of rings (size 3 to 8) (size 9 to 14) (size 15 to 20)
#    0.000    2.571    0.000    2.571    0.000    4.000 
#    0.000    0.000    0.000    0.000    0.000    1.000 
#    0.000    0.000    0.000    0.000    0.000    0.000 
#
# Total GULP energy -155993.536996 kJ/mol
# GULP energy per Si atom -5571.197750 kJ/mol
# Density = 1.499230 g / cm^3
# Si number density = 15.026504 Si / 1000 Ang^3
#
#
#
# Elastic Constant Matrix: (Units=GPa)
#
#
# Indices 1 2 3 4 5 6 
#
# 1 72.1977 23.8801 41.1204 0.0000 -6.1380 0.0000
# 2 23.8801 29.7859 39.4368 0.0000 -1.7179 0.0000
# 3 41.1204 39.4368 130.5441 0.0000 -2.8672 0.0000
# 4 0.0000 0.0000 0.0000 19.7870 0.0000 -2.2631
# 5 -6.1380 -1.7179 -2.8672 0.0000 21.6580 0.0000
# 6 0.0000 0.0000 0.0000 -2.2631 0.0000 21.0741
#
#
#
# Elastic Compliance Matrix: (Units=1/GPa)
#
#
# Indices 1 2 3 4 5 6 
#
# 1 0.019654 -0.012397 -0.002352 0.000000 0.004275 0.000000
# 2 -0.012397 0.063877 -0.015403 0.000000 -0.000486 0.000000
# 3 -0.002352 -0.015403 0.013051 0.000000 -0.000161 0.000000
# 4 0.000000 0.000000 0.000000 0.051167 0.000000 0.005495
# 5 0.004275 -0.000486 -0.000161 0.000000 0.047324 0.000000
# 6 0.000000 0.000000 0.000000 0.005495 0.000000 0.048042
#
#
# Mechanical properties :
#
#
# Convention : Reuss Voigt Hill
#
# Bulk Modulus (GPa) = 27.56405 49.04469 38.30437
# Shear Modulus (GPa) = 15.84732 21.04318 18.44525
#
# Velocity S-wave (km/s) = 3.25102 3.74626 3.50739
# Velocity P-wave (km/s) = 5.69874 7.17093 6.47680
#
# Compressibility (1/GPa) = 0.03627914
#
# Stress axis : x y z
#
# Youngs Moduli (GPa) = 50.87953 15.65506 76.62392
#
# Poissons Ratio (x) = 0.19407 0.18023
# Poissons Ratio (y) = 0.63073 1.18023
# Poissons Ratio (z) = 0.11967 0.24113
#
# Static dielectric constant tensor:
#      x y z
#    x 1.474240 0.000000 0.011550 
#    y 0.000000 1.502140 0.000000 
#    z 0.011550 0.000000 1.516630 
# 
# From -- ./inp_files/37487.got.cif
#   From: 2010.05.17/outbox.cif.g08.bks.cpg/sg11_19_cif.got.tgz:37487.got - 2010.06.03 12:22:45.
