data_PCOD9156694
_publ_section_title
;
Structure prediction by ZEFSAII (Michael W. Deem and Ramdas Pophale) SiO2 
 PCOD9156694
Probable space group: P 21/M
;
_chemical_formula_sum "Si O2"
_cell_formula_units_Z 32
_cell_length_a 29.087375
_cell_length_b 9.093576
_cell_length_c 22.641535
_cell_angle_alpha 90.000000
_cell_angle_beta 18.708511
_cell_angle_gamma 90.000000
_cell_volume 1920.953090
_symmetry_space_group_name_H-M "P 21/M"
_symmetry_group_IT_number 11
_symmetry_cell_setting 'monoclinic'
loop_
_space_group_symop_operation_xyz
x,y,z
-x,1/2+y,-z
-x,-y,-z
x,1/2-y,z
loop_
_atom_site_type_symbol
_atom_site_label
_atom_site_fract_x
_atom_site_fract_y
_atom_site_fract_z
Si Si1 0.554297 0.073438 0.740985
Si Si2 0.573251 0.571226 0.353498
Si Si3 0.144864 0.926563 0.559855
Si Si4 0.596421 0.071461 0.557754
Si Si5 0.927979 0.427783 0.144045
Si Si6 0.412834 0.580823 0.019888
Si Si7 0.721726 0.580824 0.710994
Si Si8 0.904768 0.571462 0.941059
O O1 0.537373 0.250000 0.764370
O O2 0.716257 0.042212 0.567483
O O3 0.540142 0.023560 0.690458
O O4 0.444548 0.999157 0.919718
O O5 0.500000 0.500000 0.500000
O O6 0.566759 0.750000 0.366478
O O7 0.491316 0.526373 0.393215
O O8 0.739621 0.526370 0.144908
O O9 0.140860 0.750000 0.557399
O O10 0.001345 0.976439 0.768057
O O11 0.173082 0.000838 0.462653
O O12 0.593330 0.250000 0.562819
O O13 0.762162 0.027983 0.350287
O O14 0.933538 0.250000 0.132927
O O15 0.012948 0.472024 0.099499
O O16 0.000000 0.500000 0.000000
O O17 0.372988 0.750000 0.059800
O O18 0.566225 0.577630 0.867550
O O19 0.302287 0.500003 0.197714
O O20 0.761440 0.750000 0.671346
O O21 0.905626 0.750000 0.938227
#
# Coordination Sequence:
#
# PCOD9156694 Si02
#       8
#     4   4   4   4   4   4   4   4
#     4   9  15  26  44  63  85 117 153 188 225 268
#     4  10  20  34  50  68  91 120 155 194 233 278
#     4   9  15  26  44  63  85 117 153 188 225 268
#     4   9  17  30  48  67  89 119 154 189 230 278
#     4  10  18  30  46  66  89 116 149 186 229 278
#     4   9  16  25  38  61  93 125 153 183 221 267
#     4   9  16  25  38  61  93 125 153 183 221 267
#     4   9  17  30  48  67  89 119 154 189 230 278
#
# _framework density 16.658397000000001
#
# number of rings (size 3 to 8) (size 9 to 14) (size 15 to 20)
#    0.000    2.750    1.250    1.500    0.000    3.000 
#    0.000    2.500    0.000    0.000    0.000    0.875 
#    0.000    0.000    0.000    0.000    0.000    0.000 
#
# Total GULP energy -178299.672333 kJ/mol
# GULP energy per Si atom -5571.864760 kJ/mol
# Density = 1.662048 g / cm^3
# Si number density = 16.658397 Si / 1000 Ang^3
#
#
#
# Elastic Constant Matrix: (Units=GPa)
#
#
# Indices 1 2 3 4 5 6 
#
# 1 130.4931 41.3593 95.6739 0.0000 28.2742 0.0000
# 2 41.3593 36.5647 43.8341 0.0000 16.3110 0.0000
# 3 95.6739 43.8341 139.5251 0.0000 31.2998 0.0000
# 4 0.0000 0.0000 0.0000 19.9149 0.0000 14.8065
# 5 28.2742 16.3110 31.2998 0.0000 39.4912 0.0000
# 6 0.0000 0.0000 0.0000 14.8065 0.0000 17.6679
#
#
#
# Elastic Compliance Matrix: (Units=1/GPa)
#
#
# Indices 1 2 3 4 5 6 
#
# 1 0.016989 -0.007856 -0.008733 0.000000 -0.001997 0.000000
# 2 -0.007856 0.050142 -0.008491 0.000000 -0.008355 0.000000
# 3 -0.008733 -0.008491 0.016582 0.000000 -0.003383 0.000000
# 4 0.000000 0.000000 0.000000 0.133223 0.000000 -0.111647
# 5 -0.001997 -0.008355 -0.003383 0.000000 0.032884 0.000000
# 6 0.000000 0.000000 0.000000 -0.111647 0.000000 0.150166
#
#
# Mechanical properties :
#
#
# Convention : Reuss Voigt Hill
#
# Bulk Modulus (GPa) = 29.80540 74.25752 52.03146
# Shear Modulus (GPa) = 10.83820 23.79583 17.31701
#
# Velocity S-wave (km/s) = 2.55348 3.78360 3.22768
# Velocity P-wave (km/s) = 5.15991 7.98504 6.72256
#
# Compressibility (1/GPa) = 0.03355097
#
# Stress axis : x y z
#
# Youngs Moduli (GPa) = 58.86162 19.94339 60.30494
#
# Poissons Ratio (x) = 0.15668 0.52667
# Poissons Ratio (y) = 0.46243 0.51208
# Poissons Ratio (z) = 0.51407 0.16935
#
# Static dielectric constant tensor:
#      x y z
#    x 1.554160 0.000000 0.001030 
#    y 0.000000 1.558060 0.000000 
#    z 0.001030 0.000000 1.554310 
# 
# From -- ./inp_files/64177.got.cif
#   From: 2010.05.17/outbox.cif.g08.bks.cpg/sg11_33_cif.got.tgz:64177.got - 2010.06.03 12:22:45.
