data_PCOD9156155
_publ_section_title
;
Structure prediction by ZEFSAII (Michael W. Deem and Ramdas Pophale) SiO2 
 PCOD9156155
Probable space group: P 21/M
;
_chemical_formula_sum "Si O2"
_cell_formula_units_Z 32
_cell_length_a 16.787270
_cell_length_b 18.296371
_cell_length_c 10.485822
_cell_angle_alpha 90.000000
_cell_angle_beta 35.204810
_cell_angle_gamma 90.000000
_cell_volume 1856.724699
_symmetry_space_group_name_H-M "P 21/M"
_symmetry_group_IT_number 11
_symmetry_cell_setting 'monoclinic'
loop_
_space_group_symop_operation_xyz
x,y,z
-x,1/2+y,-z
-x,-y,-z
x,1/2-y,z
loop_
_atom_site_type_symbol
_atom_site_label
_atom_site_fract_x
_atom_site_fract_y
_atom_site_fract_z
Si Si1 0.469431 0.086670 0.042453
Si Si2 0.771762 0.337290 0.261212
Si Si3 0.472008 0.337385 0.762888
Si Si4 0.136540 0.919472 0.111054
Si Si5 0.063573 0.834033 0.701201
Si Si6 0.757060 0.387506 0.758888
Si Si7 0.194295 0.084905 0.075145
Si Si8 0.829630 0.556684 0.599068
O O1 0.306563 0.091901 0.286838
O O2 0.485854 0.122380 0.881320
O O3 0.591212 0.119430 0.969339
O O4 0.500000 0.000000 0.000000
O O5 0.788243 0.250000 0.224069
O O6 0.610993 0.351203 0.501941
O O7 0.858345 0.359425 0.273547
O O8 0.823086 0.378462 0.069515
O O9 0.457456 0.250000 0.800449
O O10 0.336481 0.371324 0.875018
O O11 0.186550 0.877441 0.172854
O O12 0.972000 0.931810 0.339875
O O13 0.206663 0.999524 0.025893
O O14 0.022422 0.750000 0.772338
O O15 0.169590 0.839102 0.444003
O O16 0.930090 0.881026 0.841595
O O17 0.799367 0.470583 0.661316
O O18 0.156254 0.088294 0.275853
#
# Coordination Sequence:
#
# PCOD9156155 Si02
#       8
#     4   4   4   4   4   4   4   4
#     4   9  18  31  57  85 111 143 185 233 276 322
#     4  10  24  40  53  77 115 152 183 227 287 343
#     4  10  20  37  57  80 116 151 184 230 286 334
#     4  11  20  36  57  80 120 147 177 234 284 335
#     4  11  20  34  55  80 108 142 191 234 268 329
#     4  10  17  33  55  82 108 139 186 228 271 322
#     4  10  19  35  57  85 107 142 192 235 275 329
#     4   9  17  33  54  83 116 139 170 235 284 318
#
# _framework density 17.234649999999998
#
# number of rings (size 3 to 8) (size 9 to 14) (size 15 to 20)
#    0.000    2.000    3.750    1.875    0.000    1.500 
#    0.000    1.875    0.000    0.000    0.000    0.000 
#    0.000    0.000    0.000    0.000    0.000    0.000 
#
# Total GULP energy -178439.263563 kJ/mol
# GULP energy per Si atom -5576.226986 kJ/mol
# Density = 1.719542 g / cm^3
# Si number density = 17.234650 Si / 1000 Ang^3
#
#
#
# Elastic Constant Matrix: (Units=GPa)
#
#
# Indices 1 2 3 4 5 6 
#
# 1 113.3931 39.6114 66.6177 0.0000 -12.6009 0.0000
# 2 39.6114 42.6673 50.8950 0.0000 1.0981 0.0000
# 3 66.6177 50.8950 99.0359 0.0000 -8.2204 0.0000
# 4 0.0000 0.0000 0.0000 27.0589 0.0000 4.0830
# 5 -12.6009 1.0981 -8.2204 0.0000 28.1208 0.0000
# 6 0.0000 0.0000 0.0000 4.0830 0.0000 25.7459
#
#
#
# Elastic Compliance Matrix: (Units=1/GPa)
#
#
# Indices 1 2 3 4 5 6 
#
# 1 0.015670 -0.006831 -0.006585 0.000000 0.005363 0.000000
# 2 -0.006831 0.067579 -0.031368 0.000000 -0.014870 0.000000
# 3 -0.006585 -0.031368 0.031262 0.000000 0.007413 0.000000
# 4 0.000000 0.000000 0.000000 0.037862 0.000000 -0.006005
# 5 0.005363 -0.014870 0.007413 0.000000 0.040712 0.000000
# 6 0.000000 0.000000 0.000000 -0.006005 0.000000 0.039793
#
#
# Mechanical properties :
#
#
# Convention : Reuss Voigt Hill
#
# Bulk Modulus (GPa) = 40.09190 63.26049 51.67619
# Shear Modulus (GPa) = 15.11668 22.71662 18.91665
#
# Velocity S-wave (km/s) = 2.96482 3.63447 3.31659
# Velocity P-wave (km/s) = 5.91887 7.37547 6.68695
#
# Compressibility (1/GPa) = 0.02494269
#
# Stress axis : x y z
#
# Youngs Moduli (GPa) = 63.81791 14.79756 31.98734
#
# Poissons Ratio (x) = 0.10108 0.21063
# Poissons Ratio (y) = 0.43592 1.00339
# Poissons Ratio (z) = 0.42023 0.46418
#
# Static dielectric constant tensor:
#      x y z
#    x 1.596110 0.000000 -0.027850 
#    y 0.000000 1.587710 0.000000 
#    z -0.027850 0.000000 1.566950 
# 
# From -- ./inp_files/23073.got.cif
#   From: 2010.05.17/outbox.cif.g08.bks.cpg/sg11_12_cif.got.tgz:23073.got - 2010.06.03 12:22:45.
