data_PCOD9156727
_publ_section_title
;
Structure prediction by ZEFSAII (Michael W. Deem and Ramdas Pophale) SiO2 
 PCOD9156727
Probable space group: P 21/M
;
_chemical_formula_sum "Si O2"
_cell_formula_units_Z 32
_cell_length_a 15.020172
_cell_length_b 8.697376
_cell_length_c 27.122564
_cell_angle_alpha 90.000000
_cell_angle_beta 145.291338
_cell_angle_gamma 90.000000
_cell_volume 2017.503339
_symmetry_space_group_name_H-M "P 21/M"
_symmetry_group_IT_number 11
_symmetry_cell_setting 'monoclinic'
loop_
_space_group_symop_operation_xyz
x,y,z
-x,1/2+y,-z
-x,-y,-z
x,1/2-y,z
loop_
_atom_site_type_symbol
_atom_site_label
_atom_site_fract_x
_atom_site_fract_y
_atom_site_fract_z
Si Si1 0.335062 0.930946 0.554657
Si Si2 0.719934 0.931584 0.268915
Si Si3 0.935975 0.569981 0.741784
Si Si4 0.741268 0.567007 0.096404
Si Si5 0.176901 0.934750 0.581966
Si Si6 0.552550 0.066141 0.102107
Si Si7 0.967615 0.072986 0.652113
Si Si8 0.421836 0.437442 0.414106
O O1 0.368770 0.750000 0.578231
O O2 0.277696 0.993712 0.581037
O O3 0.186099 0.940916 0.450853
O O4 0.479610 0.992565 0.588536
O O5 0.700176 0.750000 0.268218
O O6 0.883253 0.954358 0.314125
O O7 0.739092 0.016914 0.329349
O O8 0.590623 0.993989 0.172250
O O9 0.946207 0.750000 0.757373
O O10 0.958411 0.539342 0.693818
O O11 0.759672 0.516551 0.672745
O O12 0.082542 0.485688 0.833280
O O13 0.735535 0.750000 0.099970
O O14 0.676526 0.493037 0.117644
O O15 0.616841 0.524023 0.997401
O O16 0.164514 0.750000 0.572871
O O17 0.000000 0.000000 0.500000
O O18 0.564148 0.250000 0.110401
O O19 0.976949 0.250000 0.674949
O O20 0.500000 0.500000 0.500000
O O21 0.428984 0.250000 0.419668
#
# Coordination Sequence:
#
# PCOD9156727 Si02
#       8
#     4   4   4   4   4   4   4   4
#     4   9  18  34  50  65  94 133 168 203 244 287
#     4  11  21  33  49  73 101 133 166 200 250 298
#     4  11  21  30  46  74 101 129 169 208 243 288
#     4  10  20  33  49  70 100 134 163 198 248 298
#     4  11  21  34  51  71  97 132 171 209 247 291
#     4  10  20  33  50  73  98 128 167 205 241 291
#     4  10  18  30  48  67  96 135 168 196 239 293
#     4  10  20  33  49  71  97 129 169 208 245 290
#
# _framework density 15.861186999999999
#
# number of rings (size 3 to 8) (size 9 to 14) (size 15 to 20)
#    0.000    1.750    3.750    1.875    0.000    2.500 
#    0.000    1.250    0.000    0.000    0.000    0.875 
#    0.000    0.000    0.000    0.000    0.000    0.000 
#
# Total GULP energy -178497.849669 kJ/mol
# GULP energy per Si atom -5578.057802 kJ/mol
# Density = 1.582509 g / cm^3
# Si number density = 15.861187 Si / 1000 Ang^3
#
#
#
# Elastic Constant Matrix: (Units=GPa)
#
#
# Indices 1 2 3 4 5 6 
#
# 1 96.5994 28.8619 61.6961 0.0000 4.4251 0.0000
# 2 28.8619 26.1860 19.4789 0.0000 3.5199 0.0000
# 3 61.6961 19.4789 99.4544 0.0000 7.8241 0.0000
# 4 0.0000 0.0000 0.0000 26.3158 0.0000 -1.1309
# 5 4.4251 3.5199 7.8241 0.0000 24.2129 0.0000
# 6 0.0000 0.0000 0.0000 -1.1309 0.0000 15.1522
#
#
#
# Elastic Compliance Matrix: (Units=1/GPa)
#
#
# Indices 1 2 3 4 5 6 
#
# 1 0.021937 -0.016612 -0.010496 0.000000 0.001798 0.000000
# 2 -0.016612 0.057618 -0.000574 0.000000 -0.005154 0.000000
# 3 -0.010496 -0.000574 0.016952 0.000000 -0.003476 0.000000
# 4 0.000000 0.000000 0.000000 0.038122 0.000000 0.002845
# 5 0.001798 -0.005154 -0.003476 0.000000 0.042844 0.000000
# 6 0.000000 0.000000 0.000000 0.002845 0.000000 0.066209
#
#
# Mechanical properties :
#
#
# Convention : Reuss Voigt Hill
#
# Bulk Modulus (GPa) = 24.30619 49.14595 36.72607
# Shear Modulus (GPa) = 15.98661 20.61637 18.30149
#
# Velocity S-wave (km/s) = 3.17820 3.60919 3.40053
# Velocity P-wave (km/s) = 5.36894 6.95849 6.21475
#
# Compressibility (1/GPa) = 0.04114179
#
# Stress axis : x y z
#
# Youngs Moduli (GPa) = 45.58552 17.35566 58.99011
#
# Poissons Ratio (x) = 0.28832 0.61917
# Poissons Ratio (y) = 0.75728 0.03386
# Poissons Ratio (z) = 0.47847 0.00996
#
# Static dielectric constant tensor:
#      x y z
#    x 1.524690 0.000000 0.011010 
#    y 0.000000 1.600280 0.000000 
#    z 0.011010 0.000000 1.537830 
# 
# From -- ./inp_files/71643.got.cif
#   From: 2010.05.17/outbox.cif.g08.bks.cpg/sg11_36_cif.got.tgz:71643.got - 2010.06.03 12:22:45.
