data_PCOD9156896
_publ_section_title
;
Structure prediction by ZEFSAII (Michael W. Deem and Ramdas Pophale) SiO2 
 PCOD9156896
Probable space group: P 21/M
;
_chemical_formula_sum "Si O2"
_cell_formula_units_Z 28
_cell_length_a 30.586411
_cell_length_b 8.212520
_cell_length_c 9.470376
_cell_angle_alpha 90.000000
_cell_angle_beta 38.605717
_cell_angle_gamma 90.000000
_cell_volume 1484.318988
_symmetry_space_group_name_H-M "P 21/M"
_symmetry_group_IT_number 11
_symmetry_cell_setting 'monoclinic'
loop_
_space_group_symop_operation_xyz
x,y,z
-x,1/2+y,-z
-x,-y,-z
x,1/2-y,z
loop_
_atom_site_type_symbol
_atom_site_label
_atom_site_fract_x
_atom_site_fract_y
_atom_site_fract_z
Si Si1 0.860797 0.555721 0.517461
Si Si2 0.718380 0.560190 0.526257
Si Si3 0.432634 0.444734 0.755882
Si Si4 0.713925 0.439428 0.852893
Si Si5 0.129402 0.050730 0.834415
Si Si6 0.004909 0.554918 0.648727
Si Si7 0.567028 0.553267 0.918197
O O1 0.853438 0.750000 0.535783
O O2 0.786099 0.479904 0.748980
O O3 0.875980 0.502290 0.316780
O O4 0.924588 0.506889 0.455436
O O5 0.719325 0.750000 0.483607
O O6 0.715784 0.545207 0.703914
O O7 0.795149 0.491905 0.296562
O O8 0.642911 0.491582 0.670358
O O9 0.500000 0.500000 0.500000
O O10 0.427828 0.250000 0.764890
O O11 0.358797 0.516648 0.888497
O O12 0.440023 0.498951 0.900722
O O13 0.713324 0.250000 0.815167
O O14 0.130828 0.250000 0.832750
O O15 0.062932 0.996039 0.091853
O O16 0.004863 0.750000 0.654262
O O17 0.000000 0.500000 0.500000
O O18 0.570087 0.750000 0.909773
O O19 0.500000 0.500000 0.000000
#
# Coordination Sequence:
#
# PCOD9156896 Si02
#       7
#     4   4   4   4   4   4   4
#     4  10  19  35  57  79 101 131 170 215 259 306
#     4   8  15  31  51  73  99 130 168 214 259 303
#     4  10  20  35  53  76 105 140 177 216 258 305
#     4  10  18  30  51  79 105 132 167 212 259 307
#     4   8  16  32  56  78  98 127 171 218 259 304
#     4  11  22  36  52  75 106 140 172 210 260 315
#     4   9  18  31  50  74 103 134 169 211 258 308
#
# _framework density 18.863869000000001
#
# number of rings (size 3 to 8) (size 9 to 14) (size 15 to 20)
#    0.000    2.571    0.000    4.714    0.000    2.857 
#    0.000    7.857    0.000    5.143    0.000    0.000 
#    0.000    0.000    0.000    0.000    0.000    0.000 
#
# Total GULP energy -156063.453577 kJ/mol
# GULP energy per Si atom -5573.694771 kJ/mol
# Density = 1.882093 g / cm^3
# Si number density = 18.863869 Si / 1000 Ang^3
#
#
#
# Elastic Constant Matrix: (Units=GPa)
#
#
# Indices 1 2 3 4 5 6 
#
# 1 136.9224 14.4214 82.4239 0.0000 -42.7617 0.0000
# 2 14.4214 35.8743 19.5307 0.0000 -3.2458 0.0000
# 3 82.4239 19.5307 135.0097 0.0000 -41.2143 0.0000
# 4 0.0000 0.0000 0.0000 21.3111 0.0000 -5.2052
# 5 -42.7617 -3.2458 -41.2143 0.0000 35.2964 0.0000
# 6 0.0000 0.0000 0.0000 -5.2052 0.0000 28.8389
#
#
#
# Elastic Compliance Matrix: (Units=1/GPa)
#
#
# Indices 1 2 3 4 5 6 
#
# 1 0.013828 -0.001945 -0.004819 0.000000 0.010947 0.000000
# 2 -0.001945 0.030832 -0.004858 0.000000 -0.005194 0.000000
# 3 -0.004819 -0.004858 0.014192 0.000000 0.010286 0.000000
# 4 0.000000 0.000000 0.000000 0.049088 0.000000 0.008860
# 5 0.010947 -0.005194 0.010286 0.000000 0.053127 0.000000
# 6 0.000000 0.000000 0.000000 0.008860 0.000000 0.036275
#
#
# Mechanical properties :
#
#
# Convention : Reuss Voigt Hill
#
# Bulk Modulus (GPa) = 28.08405 60.06204 44.07305
# Shear Modulus (GPa) = 21.50958 29.85130 25.68044
#
# Velocity S-wave (km/s) = 3.38043 3.98233 3.69366
# Velocity P-wave (km/s) = 5.49149 7.28383 6.45022
#
# Compressibility (1/GPa) = 0.03560740
#
# Stress axis : x y z
#
# Youngs Moduli (GPa) = 72.31776 32.43379 70.46349
#
# Poissons Ratio (x) = 0.06308 0.33956
# Poissons Ratio (y) = 0.14065 0.34234
# Poissons Ratio (z) = 0.34849 0.15758
#
# Static dielectric constant tensor:
#      x y z
#    x 1.664690 0.000000 -0.022100 
#    y 0.000000 1.665080 0.000000 
#    z -0.022100 0.000000 1.702730 
# 
# From -- ./inp_files/28983.got.cif
#   From: 2010.05.17/outbox.cif.g08.bks.cpg/sg11_15_cif.got.tgz:28983.got - 2010.06.03 12:22:45.
