data_PCOD9156852
_publ_section_title
;
Structure prediction by ZEFSAII (Michael W. Deem and Ramdas Pophale) SiO2 
 PCOD9156852
Probable space group: P 21/M
;
_chemical_formula_sum "Si O2"
_cell_formula_units_Z 32
_cell_length_a 21.871198
_cell_length_b 8.621042
_cell_length_c 12.639660
_cell_angle_alpha 90.000000
_cell_angle_beta 51.664448
_cell_angle_gamma 90.000000
_cell_volume 1869.393314
_symmetry_space_group_name_H-M "P 21/M"
_symmetry_group_IT_number 11
_symmetry_cell_setting 'monoclinic'
loop_
_space_group_symop_operation_xyz
x,y,z
-x,1/2+y,-z
-x,-y,-z
x,1/2-y,z
loop_
_atom_site_type_symbol
_atom_site_label
_atom_site_fract_x
_atom_site_fract_y
_atom_site_fract_z
Si Si1 0.457090 0.563371 0.257798
Si Si2 0.101062 0.562890 0.984433
Si Si3 0.668654 0.062477 0.441237
Si Si4 0.060758 0.935203 0.785945
Si Si5 0.323305 0.562706 0.234534
Si Si6 0.630264 0.062705 0.048627
Si Si7 0.792591 0.565874 0.475627
Si Si8 0.276070 0.560735 0.846287
O O1 0.464527 0.750000 0.249045
O O2 0.411246 0.517250 0.414227
O O3 0.398960 0.519717 0.224103
O O4 0.541314 0.490012 0.155946
O O5 0.097001 0.750000 0.993738
O O6 0.027824 0.493361 0.125194
O O7 0.090385 0.518602 0.872308
O O8 0.185825 0.512950 0.933793
O O9 0.673255 0.250000 0.439518
O O10 0.679787 0.012135 0.308569
O O11 0.738932 0.000358 0.438041
O O12 0.063518 0.750000 0.776639
O O13 0.120377 0.006283 0.638260
O O14 0.317737 0.750000 0.243718
O O15 0.248297 0.494553 0.373919
O O16 0.335842 0.511205 0.100878
O O17 0.631802 0.250000 0.046795
O O18 0.680970 0.007551 0.094004
O O19 0.790567 0.750000 0.475043
O O20 0.276408 0.750000 0.846515
#
# Coordination Sequence:
#
# PCOD9156852 Si02
#       8
#     4   4   4   4   4   4   4   4
#     4   9  18  31  49  70  98 132 166 209 256 293
#     4   9  17  30  49  73 102 134 163 196 238 290
#     4   9  17  33  51  70 100 137 165 195 251 304
#     4  10  18  30  50  75 104 134 160 195 245 295
#     4   9  19  35  52  71  97 131 168 209 255 295
#     4  10  20  33  52  74  96 130 174 208 242 297
#     4  11  20  30  50  78 102 126 163 210 250 291
#     4   9  17  32  52  72 100 136 167 199 243 296
#
# _framework density 17.117851999999999
#
# number of rings (size 3 to 8) (size 9 to 14) (size 15 to 20)
#    0.000    2.500    1.250    2.625    0.000    3.500 
#    0.000    1.250    0.000    0.750    0.000    0.000 
#    0.000    0.000    0.000    0.000    0.000    0.000 
#
# Total GULP energy -178472.310905 kJ/mol
# GULP energy per Si atom -5577.259716 kJ/mol
# Density = 1.707889 g / cm^3
# Si number density = 17.117852 Si / 1000 Ang^3
#
#
#
# Elastic Constant Matrix: (Units=GPa)
#
#
# Indices 1 2 3 4 5 6 
#
# 1 67.1658 19.6298 91.2928 0.0000 13.5851 0.0000
# 2 19.6298 12.7060 32.4833 0.0000 -0.2133 0.0000
# 3 91.2928 32.4833 185.0000 0.0000 -2.8242 0.0000
# 4 0.0000 0.0000 0.0000 20.2170 0.0000 -11.0801
# 5 13.5851 -0.2133 -2.8242 0.0000 18.1231 0.0000
# 6 0.0000 0.0000 0.0000 -11.0801 0.0000 16.7469
#
#
#
# Elastic Compliance Matrix: (Units=1/GPa)
#
#
# Indices 1 2 3 4 5 6 
#
# 1 0.123661 -0.059481 -0.052130 0.000000 -0.101521 0.000000
# 2 -0.059481 0.171509 -0.000051 0.000000 0.046598 0.000000
# 3 -0.052130 -0.000051 0.031811 0.000000 0.044033 0.000000
# 4 0.000000 0.000000 0.000000 0.077603 0.000000 0.051344
# 5 -0.101521 0.046598 0.044033 0.000000 0.138689 0.000000
# 6 0.000000 0.000000 0.000000 0.051344 0.000000 0.093683
#
#
# Mechanical properties :
#
#
# Convention : Reuss Voigt Hill
#
# Bulk Modulus (GPa) = 9.64701 61.29818 35.47259
# Shear Modulus (GPa) = 5.58764 19.11512 12.35138
#
# Velocity S-wave (km/s) = 1.80868 3.34530 2.68908
# Velocity P-wave (km/s) = 3.16380 7.12802 5.51445
#
# Compressibility (1/GPa) = 0.10365910
#
# Stress axis : x y z
#
# Youngs Moduli (GPa) = 8.08660 5.83061 31.43547
#
# Poissons Ratio (x) = 0.34681 1.63872
# Poissons Ratio (y) = 0.48100 0.00160
# Poissons Ratio (z) = 0.42155 0.00030
#
# Static dielectric constant tensor:
#      x y z
#    x 1.558490 0.000000 0.005360 
#    y 0.000000 1.575960 0.000000 
#    z 0.005360 0.000000 1.586530 
# 
# From -- ./inp_files/42845.got.cif
#   From: 2010.05.17/outbox.cif.g08.bks.cpg/sg11_22_cif.got.tgz:42845.got - 2010.06.03 12:22:45.
