data_PCOD9156237
_publ_section_title
;
Structure prediction by ZEFSAII (Michael W. Deem and Ramdas Pophale) SiO2 
 PCOD9156237
Probable space group: P 21/M
;
_chemical_formula_sum "Si O2"
_cell_formula_units_Z 32
_cell_length_a 20.479774
_cell_length_b 7.821677
_cell_length_c 14.125237
_cell_angle_alpha 90.000000
_cell_angle_beta 59.454360
_cell_angle_gamma 90.000000
_cell_volume 1948.665096
_symmetry_space_group_name_H-M "P 21/M"
_symmetry_group_IT_number 11
_symmetry_cell_setting 'monoclinic'
loop_
_space_group_symop_operation_xyz
x,y,z
-x,1/2+y,-z
-x,-y,-z
x,1/2-y,z
loop_
_atom_site_type_symbol
_atom_site_label
_atom_site_fract_x
_atom_site_fract_y
_atom_site_fract_z
Si Si1 0.319060 0.954310 0.562899
Si Si2 0.475129 0.452937 0.913386
Si Si3 0.327330 0.043293 0.918899
Si Si4 0.437328 0.452671 0.337489
Si Si5 0.836078 0.043284 0.235000
Si Si6 0.001228 0.044327 0.110424
Si Si7 0.583764 0.044896 0.335204
Si Si8 0.833848 0.956339 0.013530
O O1 0.315924 0.750000 0.577481
O O2 0.235540 0.019564 0.651464
O O3 0.378699 0.024038 0.597025
O O4 0.355861 0.987799 0.434050
O O5 0.470313 0.250000 0.912060
O O6 0.391773 0.520998 0.943992
O O7 0.535120 0.506336 0.788498
O O8 0.500000 0.500000 0.000000
O O9 0.325446 0.250000 0.926277
O O10 0.359010 0.993260 0.792569
O O11 0.240715 0.980982 0.986576
O O12 0.438412 0.250000 0.345529
O O13 0.502986 0.525735 0.359284
O O14 0.837275 0.250000 0.238977
O O15 0.919417 0.980988 0.206618
O O16 0.825990 0.998743 0.131262
O O17 0.001500 0.250000 0.120699
O O18 0.083773 0.980327 0.082641
O O19 0.000000 0.000000 0.000000
O O20 0.576335 0.250000 0.350018
O O21 0.834769 0.750000 0.006691
#
# Coordination Sequence:
#
# PCOD9156237 Si02
#       8
#     4   4   4   4   4   4   4   4
#     4  10  18  27  39  57  84 115 145 175 204 237
#     4  10  20  35  51  65  83 106 133 169 213 257
#     4   9  17  27  42  63  84 108 138 172 209 246
#     4  10  20  31  44  62  81 106 141 175 209 247
#     4   9  16  25  37  54  80 115 147 173 203 236
#     4   8  14  23  35  52  76 108 143 174 202 234
#     4   9  17  28  40  56  81 112 143 174 205 239
#     4   9  15  24  38  57  81 108 141 176 205 237
#
# _framework density 16.421498
#
# number of rings (size 3 to 8) (size 9 to 14) (size 15 to 20)
#    0.000    2.750    1.250    1.125    0.000    2.000 
#    0.000    0.000    0.000    0.000    0.000    0.000 
#    0.000    1.000    0.000    1.750    0.000    2.500 
#
# Total GULP energy -178137.093063 kJ/mol
# GULP energy per Si atom -5566.784158 kJ/mol
# Density = 1.638412 g / cm^3
# Si number density = 16.421498 Si / 1000 Ang^3
#
#
#
# Elastic Constant Matrix: (Units=GPa)
#
#
# Indices 1 2 3 4 5 6 
#
# 1 108.5015 4.2246 78.4298 0.0000 -21.7949 0.0000
# 2 4.2246 20.6729 2.4995 0.0000 -4.5874 0.0000
# 3 78.4298 2.4995 85.6781 0.0000 -26.3311 0.0000
# 4 0.0000 0.0000 0.0000 17.8689 0.0000 0.1772
# 5 -21.7949 -4.5874 -26.3311 0.0000 23.6166 0.0000
# 6 0.0000 0.0000 0.0000 0.1772 0.0000 7.9113
#
#
#
# Elastic Compliance Matrix: (Units=1/GPa)
#
#
# Indices 1 2 3 4 5 6 
#
# 1 0.027743 -0.003534 -0.026828 0.000000 -0.004995 0.000000
# 2 -0.003534 0.051314 0.005780 0.000000 0.013150 0.000000
# 3 -0.026828 0.005780 0.043809 0.000000 0.025208 0.000000
# 4 0.000000 0.000000 0.000000 0.055976 0.000000 -0.001254
# 5 -0.004995 0.013150 0.025208 0.000000 0.068393 0.000000
# 6 0.000000 0.000000 0.000000 -0.001254 0.000000 0.126430
#
#
# Mechanical properties :
#
#
# Convention : Reuss Voigt Hill
#
# Bulk Modulus (GPa) = 13.56854 42.79559 28.18207
# Shear Modulus (GPa) = 11.17574 18.52594 14.85084
#
# Velocity S-wave (km/s) = 2.61158 3.36244 3.01051
# Velocity P-wave (km/s) = 4.16826 6.41810 5.41139
#
# Compressibility (1/GPa) = 0.07369988
#
# Stress axis : x y z
#
# Youngs Moduli (GPa) = 36.04452 19.48788 22.82643
#
# Poissons Ratio (x) = 0.06888 0.61240
# Poissons Ratio (y) = 0.12739 -0.13193
# Poissons Ratio (z) = 0.96702 -0.11263
#
# Static dielectric constant tensor:
#      x y z
#    x 1.623450 0.000000 -0.056970 
#    y 0.000000 1.577480 0.000000 
#    z -0.056970 0.000000 1.523260 
# 
# From -- ./inp_files/40609.got.cif
#   From: 2010.05.17/outbox.cif.g08.bks.cpg/sg11_21_cif.got.tgz:40609.got - 2010.06.03 12:22:45.
