data_PCOD9156801
_publ_section_title
;
Structure prediction by ZEFSAII (Michael W. Deem and Ramdas Pophale) SiO2 
 PCOD9156801
Probable space group: P 21/M
;
_chemical_formula_sum "Si O2"
_cell_formula_units_Z 32
_cell_length_a 19.780779
_cell_length_b 13.209687
_cell_length_c 11.875800
_cell_angle_alpha 90.000000
_cell_angle_beta 156.376083
_cell_angle_gamma 90.000000
_cell_volume 1243.518618
_symmetry_space_group_name_H-M "P 21/M"
_symmetry_group_IT_number 11
_symmetry_cell_setting 'monoclinic'
loop_
_space_group_symop_operation_xyz
x,y,z
-x,1/2+y,-z
-x,-y,-z
x,1/2-y,z
loop_
_atom_site_type_symbol
_atom_site_label
_atom_site_fract_x
_atom_site_fract_y
_atom_site_fract_z
Si Si1 0.360653 0.871262 0.713447
Si Si2 0.826039 0.943212 0.935826
Si Si3 0.235476 0.634352 0.282071
Si Si4 0.605980 0.867258 0.403214
Si Si5 0.919576 0.871007 0.427738
Si Si6 0.727267 0.872478 0.338394
Si Si7 0.599713 0.549492 0.805370
Si Si8 0.129464 0.630238 0.549363
O O1 0.357895 0.750000 0.714035
O O2 0.246781 0.892598 0.431429
O O3 0.286021 0.909579 0.716835
O O4 0.556118 0.896743 0.008231
O O5 0.748806 0.876407 0.717296
O O6 0.680023 0.966266 0.804853
O O7 0.869314 0.050127 0.943096
O O8 0.972545 0.887261 0.226060
O O9 0.181015 0.750000 0.182277
O O10 0.431820 0.619165 0.545486
O O11 0.548221 0.750000 0.305790
O O12 0.684663 0.899621 0.402487
O O13 0.464439 0.945969 0.232059
O O14 0.939750 0.750000 0.464424
O O15 0.884380 0.907669 0.500797
O O16 0.076477 0.908940 0.591645
O O17 0.749434 0.894114 0.099576
O O18 0.742757 0.750000 0.366018
O O19 0.155257 0.750000 0.602157
#
# Coordination Sequence:
#
# PCOD9156801 Si02
#       8
#     4   4   4   4   4   4   4   4
#     4   9  17  31  51  77 102 132 178 217 253 300
#     4  10  21  33  48  77 108 136 176 208 257 322
#     4  10  18  30  49  74 102 133 171 218 261 297
#     4  10  20  32  48  76 109 138 164 212 268 310
#     4   9  16  30  51  76 101 130 170 217 258 290
#     4   9  17  31  52  78 103 130 174 218 255 306
#     4  10  19  31  49  76 103 132 174 214 251 309
#     4   9  18  32  53  77 105 139 171 213 257 301
#
# _framework density 25.733433000000002
#
# number of rings (size 3 to 8) (size 9 to 14) (size 15 to 20)
#    0.000    2.500    1.250    2.250    0.000    4.000 
#    0.000    0.000    0.000    3.000    6.500    0.000 
#    0.000    0.000    0.000    0.000    0.000    0.000 
#
# Total GULP energy -179077.535687 kJ/mol
# GULP energy per Si atom -5596.172990 kJ/mol
# Density = 2.567486 g / cm^3
# Si number density = 25.733433 Si / 1000 Ang^3
#
#
#
# Elastic Constant Matrix: (Units=GPa)
#
#
# Indices 1 2 3 4 5 6 
#
# 1 224.7323 22.8997 27.3023 0.0000 6.3675 0.0000
# 2 22.8997 86.1494 -10.3747 0.0000 -5.7657 0.0000
# 3 27.3023 -10.3747 61.7409 0.0000 -6.3907 0.0000
# 4 0.0000 0.0000 0.0000 15.5212 0.0000 -14.0402
# 5 6.3675 -5.7657 -6.3907 0.0000 32.8702 0.0000
# 6 0.0000 0.0000 0.0000 -14.0402 0.0000 34.5059
#
#
#
# Elastic Compliance Matrix: (Units=1/GPa)
#
#
# Indices 1 2 3 4 5 6 
#
# 1 0.005010 -0.001778 -0.002702 0.000000 -0.001808 0.000000
# 2 -0.001778 0.012686 0.003249 0.000000 0.003201 0.000000
# 3 -0.002702 0.003249 0.018421 0.000000 0.004675 0.000000
# 4 0.000000 0.000000 0.000000 0.101954 0.000000 0.041484
# 5 -0.001808 0.003201 0.004675 0.000000 0.032243 0.000000
# 6 0.000000 0.000000 0.000000 0.041484 0.000000 0.045860
#
#
# Mechanical properties :
#
#
# Convention : Reuss Voigt Hill
#
# Bulk Modulus (GPa) = 29.71150 50.25303 39.98226
# Shear Modulus (GPa) = 21.75286 38.76580 30.25933
#
# Velocity S-wave (km/s) = 2.91058 3.88550 3.43283
# Velocity P-wave (km/s) = 4.78187 6.30080 5.59314
#
# Compressibility (1/GPa) = 0.03365700
#
# Stress axis : x y z
#
# Youngs Moduli (GPa) = 199.58695 78.82721 54.28516
#
# Poissons Ratio (x) = 0.14017 0.14665
# Poissons Ratio (y) = 0.35489 -0.17639
# Poissons Ratio (z) = 0.53919 -0.25614
#
# Static dielectric constant tensor:
#      x y z
#    x 2.053300 0.000000 0.003710 
#    y 0.000000 2.038720 0.000000 
#    z 0.003710 0.000000 1.981430 
# 
# From -- ./inp_files/41736.got.cif
#   From: 2010.05.17/outbox.cif.g08.bks.cpg/sg11_21_cif.got.tgz:41736.got - 2010.06.03 12:22:45.
