data_PCOD9156287
_publ_section_title
;
Structure prediction by ZEFSAII (Michael W. Deem and Ramdas Pophale) SiO2 
 PCOD9156287
Probable space group: P 21/M
;
_chemical_formula_sum "Si O2"
_cell_formula_units_Z 32
_cell_length_a 15.179542
_cell_length_b 8.056183
_cell_length_c 14.704765
_cell_angle_alpha 90.000000
_cell_angle_beta 88.057332
_cell_angle_gamma 90.000000
_cell_volume 1797.199943
_symmetry_space_group_name_H-M "P 21/M"
_symmetry_group_IT_number 11
_symmetry_cell_setting 'monoclinic'
loop_
_space_group_symop_operation_xyz
x,y,z
-x,1/2+y,-z
-x,-y,-z
x,1/2-y,z
loop_
_atom_site_type_symbol
_atom_site_label
_atom_site_fract_x
_atom_site_fract_y
_atom_site_fract_z
Si Si1 0.163306 0.941594 0.792397
Si Si2 0.102111 0.054085 0.989979
Si Si3 0.884244 0.443611 0.532055
Si Si4 0.006297 0.551907 0.308104
Si Si5 0.243014 0.545626 0.613568
Si Si6 0.597990 0.051953 0.521951
Si Si7 0.275430 0.446680 0.337490
Si Si8 0.170051 0.451112 0.177032
O O1 0.183575 0.750000 0.807086
O O2 0.234788 0.010522 0.718091
O O3 0.144859 0.016031 0.891287
O O4 0.073597 0.959429 0.737241
O O5 0.100084 0.250000 0.998957
O O6 0.157219 0.987757 0.074601
O O7 0.000000 0.000000 0.000000
O O8 0.903412 0.250000 0.517127
O O9 0.962902 0.512025 0.592937
O O10 0.842426 0.515935 0.441293
O O11 0.798445 0.457668 0.601195
O O12 0.989460 0.750000 0.313114
O O13 0.089000 0.521443 0.238497
O O14 0.239675 0.750000 0.612762
O O15 0.330506 0.494520 0.556422
O O16 0.602776 0.250000 0.524552
O O17 0.500000 0.000000 0.500000
O O18 0.632483 0.985567 0.617755
O O19 0.258106 0.250000 0.348544
O O20 0.257183 0.491223 0.233032
O O21 0.163069 0.250000 0.177269
#
# Coordination Sequence:
#
# PCOD9156287 Si02
#       8
#     4   4   4   4   4   4   4   4
#     4  11  21  32  45  63  91 129 167 203 241 285
#     4  11  21  33  48  68  92 126 169 215 253 285
#     4   8  15  29  45  62  88 124 162 199 237 281
#     4  10  18  27  43  65  89 121 164 208 245 279
#     4   8  17  33  49  65  93 128 158 190 236 290
#     4  10  19  34  55  79 103 127 153 187 232 290
#     4   9  16  28  47  73  98 123 154 192 237 289
#     4   9  18  31  47  65  92 126 163 204 248 289
#
# _framework density 17.805475999999999
#
# number of rings (size 3 to 8) (size 9 to 14) (size 15 to 20)
#    0.000    2.500    1.250    2.625    0.000    2.000 
#    0.000    6.250    0.000    0.000    0.000    0.875 
#    0.000    0.000    0.000    0.000    0.000    0.000 
#
# Total GULP energy -178298.472372 kJ/mol
# GULP energy per Si atom -5571.827262 kJ/mol
# Density = 1.776495 g / cm^3
# Si number density = 17.805476 Si / 1000 Ang^3
#
#
#
# Elastic Constant Matrix: (Units=GPa)
#
#
# Indices 1 2 3 4 5 6 
#
# 1 81.6887 7.2880 47.7925 0.0000 13.3241 0.0000
# 2 7.2880 27.3543 17.7050 0.0000 2.9178 0.0000
# 3 47.7925 17.7050 167.3637 0.0000 13.9502 0.0000
# 4 0.0000 0.0000 0.0000 20.6221 0.0000 1.8835
# 5 13.3241 2.9178 13.9502 0.0000 20.1038 0.0000
# 6 0.0000 0.0000 0.0000 1.8835 0.0000 16.0217
#
#
#
# Elastic Compliance Matrix: (Units=1/GPa)
#
#
# Indices 1 2 3 4 5 6 
#
# 1 0.015787 -0.000946 -0.003765 0.000000 -0.007713 0.000000
# 2 -0.000946 0.039471 -0.003694 0.000000 -0.002538 0.000000
# 3 -0.003765 -0.003694 0.007630 0.000000 -0.002263 0.000000
# 4 0.000000 0.000000 0.000000 0.049018 0.000000 -0.005763
# 5 -0.007713 -0.002538 -0.002263 0.000000 0.056792 0.000000
# 6 0.000000 0.000000 0.000000 -0.005763 0.000000 0.063093
#
#
# Mechanical properties :
#
#
# Convention : Reuss Voigt Hill
#
# Bulk Modulus (GPa) = 21.70287 46.88640 34.29464
# Shear Modulus (GPa) = 18.94228 24.92427 21.93327
#
# Velocity S-wave (km/s) = 3.26520 3.74546 3.51355
# Velocity P-wave (km/s) = 5.14108 6.71524 5.98018
#
# Compressibility (1/GPa) = 0.04607685
#
# Stress axis : x y z
#
# Youngs Moduli (GPa) = 63.34383 25.33512 131.06974
#
# Poissons Ratio (x) = 0.02398 0.49349
# Poissons Ratio (y) = 0.05995 0.48413
# Poissons Ratio (z) = 0.23849 0.09358
#
# Static dielectric constant tensor:
#      x y z
#    x 1.641310 0.000000 0.004410 
#    y 0.000000 1.622910 0.000000 
#    z 0.004410 0.000000 1.679450 
# 
# From -- ./inp_files/51282.got.cif
#   From: 2010.05.17/outbox.cif.g08.bks.cpg/sg11_26_cif.got.tgz:51282.got - 2010.06.03 12:22:45.
