data_PCOD9156148
_publ_section_title
;
Structure prediction by ZEFSAII (Michael W. Deem and Ramdas Pophale) SiO2 
 PCOD9156148
Probable space group: P 21/M
;
_chemical_formula_sum "Si O2"
_cell_formula_units_Z 26
_cell_length_a 13.442124
_cell_length_b 18.987681
_cell_length_c 10.843118
_cell_angle_alpha 90.000000
_cell_angle_beta 33.124300
_cell_angle_gamma 90.000000
_cell_volume 1512.342516
_symmetry_space_group_name_H-M "P 21/M"
_symmetry_group_IT_number 11
_symmetry_cell_setting 'monoclinic'
loop_
_space_group_symop_operation_xyz
x,y,z
-x,1/2+y,-z
-x,-y,-z
x,1/2-y,z
loop_
_atom_site_type_symbol
_atom_site_label
_atom_site_fract_x
_atom_site_fract_y
_atom_site_fract_z
Si Si1 0.805801 0.250000 0.038075
Si Si2 0.013968 0.100737 0.571620
Si Si3 0.898144 0.750000 0.481402
Si Si4 0.681587 0.595977 0.368978
Si Si5 0.930592 0.401022 0.949279
Si Si6 0.699088 0.002819 0.852239
Si Si7 0.608357 0.504123 0.227908
Si Si8 0.382326 0.250000 0.450934
O O1 0.856904 0.322406 0.052723
O O2 0.928587 0.250000 0.789193
O O3 0.598230 0.250000 0.212780
O O4 0.080733 0.178292 0.466245
O O5 0.004587 0.098201 0.730670
O O6 0.812120 0.076637 0.738133
O O7 0.163510 0.047893 0.362977
O O8 0.726776 0.750000 0.565287
O O9 0.599007 0.573233 0.322793
O O10 0.573454 0.543746 0.574645
O O11 0.662534 0.677280 0.430528
O O12 0.896616 0.581529 0.147597
O O13 0.764257 0.454599 0.125816
O O14 0.500000 0.000000 0.000000
O O15 0.669009 0.981712 0.025997
#
# Coordination Sequence:
#
# PCOD9156148 Si02
#       8
#     2   4   2   4   4   4   4   2
#     4  10  18  28  50  79 105 135 175 212 265 313
#     4   9  19  33  54  81 105 134 181 223 268 320
#     4  10  20  34  55  83 107 134 177 231 272 319
#     4  11  20  34  52  80 108 143 172 220 268 323
#     4  10  17  33  52  78 108 135 171 222 268 317
#     4  10  20  35  55  77 109 146 179 225 268 316
#     4  10  22  33  52  80 109 140 182 217 265 320
#     4  12  20  32  57  76 114 141 172 223 275 314
#
# _framework density 17.191873999999999
#
# number of rings (size 3 to 8) (size 9 to 14) (size 15 to 20)
#    0.000    1.846    4.615    1.385    0.000    0.000 
#    0.000    0.769    0.000    0.000    0.000    0.000 
#    0.000    0.000    0.000    0.000    0.000    0.000 
#
# Total GULP energy -144811.238543 kJ/mol
# GULP energy per Si atom -5569.663021 kJ/mol
# Density = 1.715274 g / cm^3
# Si number density = 17.191874 Si / 1000 Ang^3
#
#
#
# Elastic Constant Matrix: (Units=GPa)
#
#
# Indices 1 2 3 4 5 6 
#
# 1 67.2506 41.6149 26.9384 0.0000 -23.5625 0.0000
# 2 41.6149 90.3991 2.6658 0.0000 -10.4005 0.0000
# 3 26.9384 2.6658 59.1584 0.0000 -25.4426 0.0000
# 4 0.0000 0.0000 0.0000 21.3009 0.0000 -0.0050
# 5 -23.5625 -10.4005 -25.4426 0.0000 34.8082 0.0000
# 6 0.0000 0.0000 0.0000 -0.0050 0.0000 21.8495
#
#
#
# Elastic Compliance Matrix: (Units=1/GPa)
#
#
# Indices 1 2 3 4 5 6 
#
# 1 0.029219 -0.012052 -0.008465 0.000000 0.009990 0.000000
# 2 -0.012052 0.016506 0.004896 0.000000 0.000352 0.000000
# 3 -0.008465 0.004896 0.027277 0.000000 0.015670 0.000000
# 4 0.000000 0.000000 0.000000 0.046946 0.000000 0.000011
# 5 0.009990 0.000352 0.015670 0.000000 0.047051 0.000000
# 6 0.000000 0.000000 0.000000 0.000011 0.000000 0.045768
#
#
# Mechanical properties :
#
#
# Convention : Reuss Voigt Hill
#
# Bulk Modulus (GPa) = 23.94694 39.91627 31.93161
# Shear Modulus (GPa) = 19.38514 25.29765 22.34140
#
# Velocity S-wave (km/s) = 3.36158 3.84016 3.60881
# Velocity P-wave (km/s) = 5.38762 6.55217 5.99822
#
# Compressibility (1/GPa) = 0.04175899
#
# Stress axis : x y z
#
# Youngs Moduli (GPa) = 34.22486 60.58355 36.66036
#
# Poissons Ratio (x) = 0.73013 0.31035
# Poissons Ratio (y) = 0.41247 -0.17947
# Poissons Ratio (z) = 0.28973 -0.29659
#
# Static dielectric constant tensor:
#      x y z
#    x 1.572190 0.000000 -0.012920 
#    y 0.000000 1.654610 0.000000 
#    z -0.012920 0.000000 1.586330 
# 
# From -- ./inp_files/39838.got.cif
#   From: 2010.05.17/outbox.cif.g08.bks.cpg/sg11_20_cif.got.tgz:39838.got - 2010.06.03 12:22:45.
