data_PCOD9156811
_publ_section_title
;
Structure prediction by ZEFSAII (Michael W. Deem and Ramdas Pophale) SiO2 
 PCOD9156811
Probable space group: P 21/M
;
_chemical_formula_sum "Si O2"
_cell_formula_units_Z 28
_cell_length_a 9.899687
_cell_length_b 8.844328
_cell_length_c 32.518483
_cell_angle_alpha 90.000000
_cell_angle_beta 145.787574
_cell_angle_gamma 90.000000
_cell_volume 1600.869329
_symmetry_space_group_name_H-M "P 21/M"
_symmetry_group_IT_number 11
_symmetry_cell_setting 'monoclinic'
loop_
_space_group_symop_operation_xyz
x,y,z
-x,1/2+y,-z
-x,-y,-z
x,1/2-y,z
loop_
_atom_site_type_symbol
_atom_site_label
_atom_site_fract_x
_atom_site_fract_y
_atom_site_fract_z
Si Si1 0.289686 0.432104 0.190109
Si Si2 0.874364 0.931842 0.761606
Si Si3 0.943621 0.929968 0.551736
Si Si4 0.627356 0.068420 0.404482
Si Si5 0.194678 0.931686 0.079660
Si Si6 0.252683 0.069238 0.797578
Si Si7 0.817389 0.931359 0.312625
O O1 0.298347 0.250000 0.189765
O O2 0.156333 0.476389 0.198565
O O3 0.171441 0.500556 0.119530
O O4 0.561506 0.494994 0.260153
O O5 0.878381 0.750000 0.761518
O O6 0.633854 0.980828 0.676674
O O7 0.105899 0.994420 0.797063
O O8 0.931269 0.750000 0.553450
O O9 0.177095 0.965740 0.581971
O O10 0.719558 0.990653 0.469171
O O11 0.986563 0.008101 0.606231
O O12 0.628164 0.250000 0.410077
O O13 0.177452 0.750000 0.076907
O O14 0.465648 0.971397 0.133293
O O15 0.000000 0.000000 0.000000
O O16 0.237849 0.250000 0.797710
O O17 0.143243 0.027752 0.725288
O O18 0.797257 0.750000 0.310199
#
# Coordination Sequence:
#
# PCOD9156811 Si02
#       7
#     4   4   4   4   4   4   4
#     4  10  19  34  56  83 110 139 178 222 261 313
#     4  10  20  35  54  79 110 142 178 219 268 319
#     4  10  18  30  49  75 103 136 182 230 275 318
#     4   9  18  32  47  72 107 138 175 226 273 317
#     4  10  21  39  61  87 112 140 176 216 260 311
#     4   9  21  37  54  79 110 139 175 218 263 316
#     4  10  19  33  52  76 105 141 183 228 270 315
#
# _framework density 17.490497999999999
#
# number of rings (size 3 to 8) (size 9 to 14) (size 15 to 20)
#    0.000    2.286    1.429    2.571    0.000    5.714 
#    0.000    1.429    0.000    0.000    0.000    0.000 
#    0.000    0.000    0.000    0.000    0.000    0.000 
#
# Total GULP energy -156239.710085 kJ/mol
# GULP energy per Si atom -5579.989646 kJ/mol
# Density = 1.745069 g / cm^3
# Si number density = 17.490498 Si / 1000 Ang^3
#
#
#
# Elastic Constant Matrix: (Units=GPa)
#
#
# Indices 1 2 3 4 5 6 
#
# 1 120.9065 40.0060 61.8110 0.0000 -18.3529 0.0000
# 2 40.0060 43.1017 43.2367 0.0000 -8.8586 0.0000
# 3 61.8110 43.2367 140.2770 0.0000 -23.1542 0.0000
# 4 0.0000 0.0000 0.0000 28.2341 0.0000 -1.9237
# 5 -18.3529 -8.8586 -23.1542 0.0000 18.8330 0.0000
# 6 0.0000 0.0000 0.0000 -1.9237 0.0000 27.4849
#
#
#
# Elastic Compliance Matrix: (Units=1/GPa)
#
#
# Indices 1 2 3 4 5 6 
#
# 1 0.013211 -0.008942 -0.002050 0.000000 0.006147 0.000000
# 2 -0.008942 0.039862 -0.008393 0.000000 -0.000282 0.000000
# 3 -0.002050 -0.008393 0.012091 0.000000 0.008920 0.000000
# 4 0.000000 0.000000 0.000000 0.035588 0.000000 0.002491
# 5 0.006147 -0.000282 0.008920 0.000000 0.069923 0.000000
# 6 0.000000 0.000000 0.000000 0.002491 0.000000 0.036558
#
#
# Mechanical properties :
#
#
# Convention : Reuss Voigt Hill
#
# Bulk Modulus (GPa) = 37.88772 66.04364 51.96568
# Shear Modulus (GPa) = 19.62320 25.52581 22.57450
#
# Velocity S-wave (km/s) = 3.35316 3.82437 3.59649
# Velocity P-wave (km/s) = 6.05810 7.57250 6.85723
#
# Compressibility (1/GPa) = 0.02639377
#
# Stress axis : x y z
#
# Youngs Moduli (GPa) = 75.69501 25.08682 82.70299
#
# Poissons Ratio (x) = 0.22432 0.16958
# Poissons Ratio (y) = 0.67685 0.69411
# Poissons Ratio (z) = 0.15521 0.21055
#
# Static dielectric constant tensor:
#      x y z
#    x 1.581910 0.000000 -0.009770 
#    y 0.000000 1.593270 0.000000 
#    z -0.009770 0.000000 1.588860 
# 
# From -- ./inp_files/28222.got.cif
#   From: 2010.05.17/outbox.cif.g08.bks.cpg/sg11_15_cif.got.tgz:28222.got - 2010.06.03 12:22:45.
