data_PCOD9156916
_publ_section_title
;
Structure prediction by ZEFSAII (Michael W. Deem and Ramdas Pophale) SiO2 
 PCOD9156916
Probable space group: P 21/M
;
_chemical_formula_sum "Si O2"
_cell_formula_units_Z 28
_cell_length_a 27.152044
_cell_length_b 8.232346
_cell_length_c 9.469142
_cell_angle_alpha 90.000000
_cell_angle_beta 142.277791
_cell_angle_gamma 90.000000
_cell_volume 1295.001166
_symmetry_space_group_name_H-M "P 21/M"
_symmetry_group_IT_number 11
_symmetry_cell_setting 'monoclinic'
loop_
_space_group_symop_operation_xyz
x,y,z
-x,1/2+y,-z
-x,-y,-z
x,1/2-y,z
loop_
_atom_site_type_symbol
_atom_site_label
_atom_site_fract_x
_atom_site_fract_y
_atom_site_fract_z
Si Si1 0.791838 0.060186 0.081046
Si Si2 0.305202 0.443894 0.638770
Si Si3 0.915234 0.562551 0.569276
Si Si4 0.355093 0.552329 0.437183
Si Si5 0.077914 0.436170 0.836967
Si Si6 0.524848 0.945375 0.898982
Si Si7 0.869960 0.066684 0.755443
O O1 0.786520 0.250000 0.105497
O O2 0.830816 0.965936 0.299480
O O3 0.856879 0.036432 0.103203
O O4 0.706524 0.003017 0.825209
O O5 0.294182 0.250000 0.630085
O O6 0.325394 0.481069 0.519796
O O7 0.223556 0.534937 0.488962
O O8 0.382821 0.499795 0.906266
O O9 0.925672 0.750000 0.626704
O O10 0.916961 0.463549 0.717875
O O11 0.987529 0.504263 0.632917
O O12 0.350781 0.750000 0.438374
O O13 0.448832 0.503854 0.631267
O O14 0.079538 0.250000 0.791651
O O15 0.105017 0.449056 0.061555
O O16 0.527287 0.750000 0.901712
O O17 0.500000 0.000000 0.000000
O O18 0.882300 0.250000 0.833961
#
# Coordination Sequence:
#
# PCOD9156916 Si02
#       7
#     4   4   4   4   4   4   4
#     4  11  22  38  60  87 118 153 191 233 281 334
#     4  10  18  30  52  82 115 147 187 231 279 331
#     4  12  26  43  60  82 113 150 191 236 288 340
#     4   9  17  31  53  80 114 150 187 228 277 330
#     4  12  24  41  63  87 114 146 189 236 284 336
#     4   8  15  27  46  77 112 146 181 227 276 325
#     4  12  24  40  60  84 115 150 190 235 286 341
#
# _framework density 21.621600999999998
#
# number of rings (size 3 to 8) (size 9 to 14) (size 15 to 20)
#    0.000    1.429    1.429    5.571    0.000    1.143 
#    0.000    0.000    0.000    0.857    0.000    0.000 
#    0.000    0.000    0.000    0.000    0.000    0.000 
#
# Total GULP energy -156478.324202 kJ/mol
# GULP energy per Si atom -5588.511579 kJ/mol
# Density = 2.157239 g / cm^3
# Si number density = 21.621601 Si / 1000 Ang^3
#
#
#
# Elastic Constant Matrix: (Units=GPa)
#
#
# Indices 1 2 3 4 5 6 
#
# 1 23.1312 -5.9918 9.6520 0.0000 3.3329 0.0000
# 2 -5.9918 56.9032 3.2876 0.0000 9.5770 0.0000
# 3 9.6520 3.2876 135.1548 0.0000 31.3274 0.0000
# 4 0.0000 0.0000 0.0000 23.8225 0.0000 0.9305
# 5 3.3329 9.5770 31.3274 0.0000 32.1957 0.0000
# 6 0.0000 0.0000 0.0000 0.9305 0.0000 20.8123
#
#
#
# Elastic Compliance Matrix: (Units=1/GPa)
#
#
# Indices 1 2 3 4 5 6 
#
# 1 0.046341 0.005707 -0.002509 0.000000 -0.004054 0.000000
# 2 0.005707 0.019322 0.000764 0.000000 -0.007082 0.000000
# 3 -0.002509 0.000764 0.009751 0.000000 -0.009456 0.000000
# 4 0.000000 0.000000 0.000000 0.042051 0.000000 -0.001880
# 5 -0.004054 -0.007082 -0.009456 0.000000 0.042787 0.000000
# 6 0.000000 0.000000 0.000000 -0.001880 0.000000 0.048133
#
#
# Mechanical properties :
#
#
# Convention : Reuss Voigt Hill
#
# Bulk Modulus (GPa) = 11.99927 25.45390 18.72659
# Shear Modulus (GPa) = 21.90678 29.24884 25.57781
#
# Velocity S-wave (km/s) = 3.18652 3.68198 3.44317
# Velocity P-wave (km/s) = 4.37038 5.46571 4.94844
#
# Compressibility (1/GPa) = 0.08333840
#
# Stress axis : x y z
#
# Youngs Moduli (GPa) = 21.57931 51.75352 102.55113
#
# Poissons Ratio (x) = -0.29534 0.25726
# Poissons Ratio (y) = -0.12315 -0.07834
# Poissons Ratio (z) = 0.05413 -0.03953
#
# Static dielectric constant tensor:
#      x y z
#    x 1.753740 0.000000 0.030420 
#    y 0.000000 1.742880 0.000000 
#    z 0.030420 0.000000 1.850140 
# 
# From -- ./inp_files/28613.got.cif
#   From: 2010.05.17/outbox.cif.g08.bks.cpg/sg11_15_cif.got.tgz:28613.got - 2010.06.03 12:22:45.
