data_PCOD9156924
_publ_section_title
;
Structure prediction by ZEFSAII (Michael W. Deem and Ramdas Pophale) SiO2 
 PCOD9156924
Probable space group: P 21/M
;
_chemical_formula_sum "Si O2"
_cell_formula_units_Z 32
_cell_length_a 12.349151
_cell_length_b 8.901851
_cell_length_c 20.438941
_cell_angle_alpha 90.000000
_cell_angle_beta 128.326396
_cell_angle_gamma 90.000000
_cell_volume 1762.640086
_symmetry_space_group_name_H-M "P 21/M"
_symmetry_group_IT_number 11
_symmetry_cell_setting 'monoclinic'
loop_
_space_group_symop_operation_xyz
x,y,z
-x,1/2+y,-z
-x,-y,-z
x,1/2-y,z
loop_
_atom_site_type_symbol
_atom_site_label
_atom_site_fract_x
_atom_site_fract_y
_atom_site_fract_z
Si Si1 0.810612 0.930033 0.791569
Si Si2 0.120607 0.572403 0.953614
Si Si3 0.194397 0.571682 0.625687
Si Si4 0.106514 0.571175 0.306980
Si Si5 0.608163 0.928475 0.194819
Si Si6 0.323593 0.428974 0.127355
Si Si7 0.192029 0.928344 0.833933
Si Si8 0.901063 0.429230 0.550078
O O1 0.807628 0.750000 0.781671
O O2 0.701023 0.971981 0.806048
O O3 0.962281 0.966533 0.877887
O O4 0.802827 0.006540 0.718149
O O5 0.126401 0.750000 0.972051
O O6 0.201492 0.548954 0.915466
O O7 0.189153 0.475973 0.035828
O O8 0.211292 0.750000 0.642202
O O9 0.305603 0.483994 0.709822
O O10 0.195796 0.539782 0.548443
O O11 0.042674 0.519954 0.592531
O O12 0.094773 0.750000 0.295404
O O13 0.156135 0.537772 0.399282
O O14 0.953802 0.499795 0.242615
O O15 0.610635 0.750000 0.191147
O O16 0.453941 0.988630 0.145268
O O17 0.685881 0.998668 0.161531
O O18 0.342328 0.250000 0.131510
O O19 0.186761 0.750000 0.819733
O O20 0.933897 0.250000 0.559997
#
# Coordination Sequence:
#
# PCOD9156924 Si02
#       8
#     4   4   4   4   4   4   4   4
#     4   9  20  37  56  79 107 138 177 222 264 313
#     4   9  19  36  57  81 107 132 168 222 272 315
#     4  10  19  32  52  77 109 145 175 212 260 312
#     4  10  18  30  53  83 112 139 171 216 264 311
#     4  12  24  37  53  75 108 144 180 221 264 318
#     4  11  23  38  56  77 102 140 184 221 265 317
#     4  10  20  35  54  78 108 142 176 213 264 319
#     4   9  18  31  50  81 113 139 173 214 259 311
#
# _framework density 18.154585999999998
#
# number of rings (size 3 to 8) (size 9 to 14) (size 15 to 20)
#    0.000    2.000    1.250    3.750    0.000    5.000 
#    0.000    0.000    0.000    0.750    0.000    0.000 
#    0.000    0.000    0.000    0.000    0.000    0.000 
#
# Total GULP energy -178627.175455 kJ/mol
# GULP energy per Si atom -5582.099233 kJ/mol
# Density = 1.811327 g / cm^3
# Si number density = 18.154586 Si / 1000 Ang^3
#
#
#
# Elastic Constant Matrix: (Units=GPa)
#
#
# Indices 1 2 3 4 5 6 
#
# 1 72.9477 29.0287 5.8446 0.0000 -22.1377 0.0000
# 2 29.0287 57.6690 14.4829 0.0000 -14.8213 0.0000
# 3 5.8446 14.4829 27.9214 0.0000 -20.3970 0.0000
# 4 0.0000 0.0000 0.0000 25.6258 0.0000 -5.4643
# 5 -22.1377 -14.8213 -20.3970 0.0000 25.6315 0.0000
# 6 0.0000 0.0000 0.0000 -5.4643 0.0000 21.2963
#
#
#
# Elastic Compliance Matrix: (Units=1/GPa)
#
#
# Indices 1 2 3 4 5 6 
#
# 1 0.028921 -0.011296 0.031722 0.000000 0.043690 0.000000
# 2 -0.011296 0.025039 -0.017133 0.000000 -0.008912 0.000000
# 3 0.031722 -0.017133 0.121429 0.000000 0.114121 0.000000
# 4 0.000000 0.000000 0.000000 0.041282 0.000000 0.010592
# 5 0.043690 -0.008912 0.114121 0.000000 0.162412 0.000000
# 6 0.000000 0.000000 0.000000 0.010592 0.000000 0.049674
#
#
# Mechanical properties :
#
#
# Convention : Reuss Voigt Hill
#
# Bulk Modulus (GPa) = 5.49528 28.58340 17.03934
# Shear Modulus (GPa) = 10.35564 21.78949 16.07256
#
# Velocity S-wave (km/s) = 2.39093 3.46818 2.97866
# Velocity P-wave (km/s) = 3.26428 5.64059 4.60825
#
# Compressibility (1/GPa) = 0.18197432
#
# Stress axis : x y z
#
# Youngs Moduli (GPa) = 34.57730 39.93831 8.23527
#
# Poissons Ratio (x) = 0.45113 -0.26124
# Poissons Ratio (y) = 0.39057 0.14110
# Poissons Ratio (z) = -1.09685 0.68427
#
# Static dielectric constant tensor:
#      x y z
#    x 1.629060 0.000000 -0.029050 
#    y 0.000000 1.600820 0.000000 
#    z -0.029050 0.000000 1.625090 
# 
# From -- ./inp_files/64437.got.cif
#   From: 2010.05.17/outbox.cif.g08.bks.cpg/sg11_33_cif.got.tgz:64437.got - 2010.06.03 12:22:45.
