data_PCOD9156054
_publ_section_title
;
Structure prediction by ZEFSAII (Michael W. Deem and Ramdas Pophale) SiO2 
 PCOD9156054
Probable space group: P 21/M
;
_chemical_formula_sum "Si O2"
_cell_formula_units_Z 32
_cell_length_a 11.081442
_cell_length_b 13.762295
_cell_length_c 11.636460
_cell_angle_alpha 90.000000
_cell_angle_beta 64.743567
_cell_angle_gamma 90.000000
_cell_volume 1604.988979
_symmetry_space_group_name_H-M "P 21/M"
_symmetry_group_IT_number 11
_symmetry_cell_setting 'monoclinic'
loop_
_space_group_symop_operation_xyz
x,y,z
-x,1/2+y,-z
-x,-y,-z
x,1/2-y,z
loop_
_atom_site_type_symbol
_atom_site_label
_atom_site_fract_x
_atom_site_fract_y
_atom_site_fract_z
Si Si1 0.936601 0.364047 0.270659
Si Si2 0.557702 0.137363 0.233675
Si Si3 0.616846 0.636299 0.377079
Si Si4 0.162734 0.002158 0.142841
Si Si5 0.571330 0.469385 0.852893
Si Si6 0.859728 0.138779 0.037700
Si Si7 0.344869 0.570206 0.553158
Si Si8 0.322317 0.359937 0.902371
O O1 0.966558 0.250000 0.266391
O O2 0.907340 0.386849 0.146876
O O3 0.802229 0.387194 0.394871
O O4 0.058421 0.432552 0.253445
O O5 0.513419 0.250000 0.249721
O O6 0.456822 0.059437 0.221595
O O7 0.697666 0.131635 0.107025
O O8 0.599440 0.106398 0.344967
O O9 0.630650 0.750000 0.405941
O O10 0.458706 0.612715 0.424277
O O11 0.659829 0.547256 0.442058
O O12 0.696334 0.621377 0.225586
O O13 0.274423 0.956307 0.180256
O O14 0.239160 0.071712 0.019951
O O15 0.092701 0.924556 0.088019
O O16 0.480175 0.378814 0.854589
O O17 0.500000 0.500000 0.000000
O O18 0.897484 0.250000 0.004645
O O19 0.286744 0.250000 0.942965
#
# Coordination Sequence:
#
# PCOD9156054 Si02
#       8
#     4   4   4   4   4   4   4   4
#     4  10  20  33  50  72 102 137 172 206 252 305
#     4  10  17  30  49  70  99 132 170 212 257 299
#     4  10  19  32  56  83 104 131 167 212 266 302
#     4  11  20  33  48  72 106 139 171 207 248 308
#     4  10  19  31  45  70 103 135 171 211 253 298
#     4   9  17  29  46  67  95 133 167 204 251 302
#     4  10  19  35  55  79 107 129 168 217 255 302
#     4  10  19  32  49  74 105 133 168 212 261 306
#
# _framework density 19.937830999999999
#
# number of rings (size 3 to 8) (size 9 to 14) (size 15 to 20)
#    0.000    2.000    3.750    3.375    0.000    3.000 
#    0.000    1.875    0.000    0.750    0.000    0.000 
#    0.000    0.000    0.000    0.000    0.000    0.000 
#
# Total GULP energy -178436.075506 kJ/mol
# GULP energy per Si atom -5576.127360 kJ/mol
# Density = 1.989245 g / cm^3
# Si number density = 19.937831 Si / 1000 Ang^3
#
#
#
# Elastic Constant Matrix: (Units=GPa)
#
#
# Indices 1 2 3 4 5 6 
#
# 1 29.1214 -12.5164 -6.4191 0.0000 -9.6440 0.0000
# 2 -12.5164 65.2451 -2.8147 0.0000 -0.9888 0.0000
# 3 -6.4191 -2.8147 36.5604 0.0000 -6.8597 0.0000
# 4 0.0000 0.0000 0.0000 18.0397 0.0000 -5.0185
# 5 -9.6440 -0.9888 -6.8597 0.0000 15.9768 0.0000
# 6 0.0000 0.0000 0.0000 -5.0185 0.0000 17.4431
#
#
#
# Elastic Compliance Matrix: (Units=1/GPa)
#
#
# Indices 1 2 3 4 5 6 
#
# 1 0.059155 0.012886 0.019825 0.000000 0.045017 0.000000
# 2 0.012886 0.018222 0.005804 0.000000 0.011398 0.000000
# 3 0.019825 0.005804 0.036535 0.000000 0.028012 0.000000
# 4 0.000000 0.000000 0.000000 0.060256 0.000000 0.017336
# 5 0.045017 0.011398 0.028012 0.000000 0.102496 0.000000
# 6 0.000000 0.000000 0.000000 0.017336 0.000000 0.062317
#
#
# Mechanical properties :
#
#
# Convention : Reuss Voigt Hill
#
# Bulk Modulus (GPa) = 5.23725 9.71405 7.47565
# Shear Modulus (GPa) = 15.35625 20.47041 17.91333
#
# Velocity S-wave (km/s) = 2.77827 3.20771 3.00068
# Velocity P-wave (km/s) = 3.59503 4.31300 3.97027
#
# Compressibility (1/GPa) = 0.19094004
#
# Stress axis : x y z
#
# Youngs Moduli (GPa) = 16.90472 54.87916 27.37072
#
# Poissons Ratio (x) = -0.70715 -0.54261
# Poissons Ratio (y) = -0.21783 -0.15885
# Poissons Ratio (z) = -0.33513 -0.31850
#
# Static dielectric constant tensor:
#      x y z
#    x 1.736210 0.000000 -0.009510 
#    y 0.000000 1.722110 0.000000 
#    z -0.009510 0.000000 1.747040 
# 
# From -- ./inp_files/35475.got.cif
#   From: 2010.05.17/outbox.cif.g08.bks.cpg/sg11_18_cif.got.tgz:35475.got - 2010.06.03 12:22:45.
