data_PCOD9156572
_publ_section_title
;
Structure prediction by ZEFSAII (Michael W. Deem and Ramdas Pophale) SiO2 
 PCOD9156572
Probable space group: P 21/M
;
_chemical_formula_sum "Si O2"
_cell_formula_units_Z 32
_cell_length_a 31.166202
_cell_length_b 8.685848
_cell_length_c 21.649532
_cell_angle_alpha 90.000000
_cell_angle_beta 160.415140
_cell_angle_gamma 90.000000
_cell_volume 1964.499991
_symmetry_space_group_name_H-M "P 21/M"
_symmetry_group_IT_number 11
_symmetry_cell_setting 'monoclinic'
loop_
_space_group_symop_operation_xyz
x,y,z
-x,1/2+y,-z
-x,-y,-z
x,1/2-y,z
loop_
_atom_site_type_symbol
_atom_site_label
_atom_site_fract_x
_atom_site_fract_y
_atom_site_fract_z
Si Si1 0.039311 0.066066 0.699037
Si Si2 0.863361 0.435016 0.044639
Si Si3 0.965329 0.065001 0.047403
Si Si4 0.524263 0.933139 0.347266
Si Si5 0.423285 0.433664 0.337703
Si Si6 0.116453 0.434036 0.616230
Si Si7 0.730122 0.065708 0.071984
Si Si8 0.201831 0.566422 0.298079
O O1 0.038157 0.250000 0.694473
O O2 0.052914 0.006618 0.786959
O O3 0.165341 0.004357 0.833603
O O4 0.917195 0.998363 0.496853
O O5 0.861493 0.250000 0.048033
O O6 0.917083 0.475931 0.049980
O O7 0.719332 0.497238 0.856019
O O8 0.782450 0.250000 0.679003
O O9 0.860261 0.023759 0.852746
O O10 0.097311 0.986266 0.206333
O O11 0.522920 0.750000 0.356254
O O12 0.662064 0.985891 0.510496
O O13 0.492800 0.017024 0.368880
O O14 0.409908 0.968651 0.144405
O O15 0.500000 0.500000 0.500000
O O16 0.417214 0.250000 0.333419
O O17 0.113550 0.250000 0.612587
O O18 0.239847 0.496070 0.819969
O O19 0.000000 0.500000 0.500000
O O20 0.748539 0.250000 0.098634
O O21 0.981724 0.250000 0.066880
#
# Coordination Sequence:
#
# PCOD9156572 Si02
#       8
#     4   4   4   4   4   4   4   4
#     4  11  20  31  48  72 103 137 172 211 254 306
#     4  11  21  35  53  75 104 137 174 214 259 308
#     4   9  20  37  55  74  99 133 172 218 265 307
#     4  11  22  35  53  75 105 139 173 212 257 307
#     4  12  24  36  51  72 103 139 175 210 254 310
#     4  10  18  29  47  69  98 134 171 209 251 302
#     4  10  19  32  49  71 102 137 172 210 253 304
#     4  10  20  35  56  78 101 131 173 221 263 306
#
# _framework density 16.289133
#
# number of rings (size 3 to 8) (size 9 to 14) (size 15 to 20)
#    0.000    1.500    1.250    7.125    0.000    4.000 
#    0.000    0.000    0.000    0.000    0.000    0.875 
#    0.000    0.000    0.000    0.000    0.000    0.000 
#
# Total GULP energy -178714.582029 kJ/mol
# GULP energy per Si atom -5584.830688 kJ/mol
# Density = 1.625206 g / cm^3
# Si number density = 16.289133 Si / 1000 Ang^3
#
#
#
# Elastic Constant Matrix: (Units=GPa)
#
#
# Indices 1 2 3 4 5 6 
#
# 1 32.0894 17.1958 23.4820 0.0000 -1.1467 0.0000
# 2 17.1958 89.7642 41.1086 0.0000 -4.1455 0.0000
# 3 23.4820 41.1086 90.6648 0.0000 -8.9511 0.0000
# 4 0.0000 0.0000 0.0000 23.9582 0.0000 -4.3485
# 5 -1.1467 -4.1455 -8.9511 0.0000 21.7101 0.0000
# 6 0.0000 0.0000 0.0000 -4.3485 0.0000 25.6409
#
#
#
# Elastic Compliance Matrix: (Units=1/GPa)
#
#
# Indices 1 2 3 4 5 6 
#
# 1 0.039467 -0.003637 -0.008794 0.000000 -0.002235 0.000000
# 2 -0.003637 0.014395 -0.005559 0.000000 0.000265 0.000000
# 3 -0.008794 -0.005559 0.016342 0.000000 0.005212 0.000000
# 4 0.000000 0.000000 0.000000 0.043065 0.000000 0.007304
# 5 -0.002235 0.000265 0.005212 0.000000 0.048143 0.000000
# 6 0.000000 0.000000 0.000000 0.007304 0.000000 0.040239
#
#
# Mechanical properties :
#
#
# Convention : Reuss Voigt Hill
#
# Bulk Modulus (GPa) = 29.21779 41.78790 35.50284
# Shear Modulus (GPa) = 20.07731 22.97730 21.52731
#
# Velocity S-wave (km/s) = 3.51459 3.75986 3.63929
# Velocity P-wave (km/s) = 5.86905 6.67520 6.28506
#
# Compressibility (1/GPa) = 0.03422573
#
# Stress axis : x y z
#
# Youngs Moduli (GPa) = 25.33779 69.46904 61.19131
#
# Poissons Ratio (x) = 0.25263 0.53810
# Poissons Ratio (y) = 0.09214 0.34015
# Poissons Ratio (z) = 0.22281 0.38617
#
# Static dielectric constant tensor:
#      x y z
#    x 1.533380 0.000000 -0.028620 
#    y 0.000000 1.543150 0.000000 
#    z -0.028620 0.000000 1.554300 
# 
# From -- ./inp_files/67452.got.cif
#   From: 2010.05.17/outbox.cif.g08.bks.cpg/sg11_34_cif.got.tgz:67452.got - 2010.06.03 12:22:45.
