data_PCOD9156818
_publ_section_title
;
Structure prediction by ZEFSAII (Michael W. Deem and Ramdas Pophale) SiO2 
 PCOD9156818
Probable space group: P 21/M
;
_chemical_formula_sum "Si O2"
_cell_formula_units_Z 32
_cell_length_a 21.701627
_cell_length_b 8.261287
_cell_length_c 16.121297
_cell_angle_alpha 90.000000
_cell_angle_beta 148.562030
_cell_angle_gamma 90.000000
_cell_volume 1507.498502
_symmetry_space_group_name_H-M "P 21/M"
_symmetry_group_IT_number 11
_symmetry_cell_setting 'monoclinic'
loop_
_space_group_symop_operation_xyz
x,y,z
-x,1/2+y,-z
-x,-y,-z
x,1/2-y,z
loop_
_atom_site_type_symbol
_atom_site_label
_atom_site_fract_x
_atom_site_fract_y
_atom_site_fract_z
Si Si1 0.939990 0.064579 0.013674
Si Si2 0.884706 0.562310 0.120427
Si Si3 0.398937 0.945368 0.772201
Si Si4 0.337328 0.945942 0.881713
Si Si5 0.624871 0.441868 0.792476
Si Si6 0.910458 0.055854 0.326333
Si Si7 0.661835 0.439655 0.654857
Si Si8 0.605719 0.439709 0.410881
O O1 0.974044 0.250000 0.065618
O O2 0.958432 0.973335 0.121702
O O3 0.800592 0.056256 0.834385
O O4 0.000000 0.000000 0.000000
O O5 0.854070 0.750000 0.085978
O O6 0.943268 0.513836 0.274145
O O7 0.761234 0.465185 0.972167
O O8 0.393830 0.750000 0.763657
O O9 0.331571 0.997670 0.778191
O O10 0.353596 0.007303 0.630961
O O11 0.536074 0.993683 0.940966
O O12 0.339959 0.750000 0.887443
O O13 0.222443 0.998996 0.800779
O O14 0.599083 0.250000 0.766427
O O15 0.606049 0.505415 0.676185
O O16 0.535719 0.537606 0.748222
O O17 0.909998 0.250000 0.321370
O O18 0.000000 0.000000 0.500000
O O19 0.626719 0.250000 0.610460
O O20 0.644536 0.513875 0.543854
O O21 0.638389 0.250000 0.450620
#
# Coordination Sequence:
#
# PCOD9156818 Si02
#       8
#     4   4   4   4   4   4   4   4
#     4  10  20  38  60  84 113 148 190 235 284 338
#     4  11  22  38  60  85 109 145 194 236 284 341
#     4   9  18  32  53  79 105 139 182 227 273 332
#     4   9  19  36  55  76 106 144 183 225 280 339
#     4  10  19  32  51  76 110 146 180 224 278 332
#     4  11  23  40  60  85 118 151 189 242 297 350
#     4   8  17  32  49  73 106 143 179 222 273 327
#     4  10  18  30  49  76 107 139 180 222 268 329
#
# _framework density 21.227218000000001
#
# number of rings (size 3 to 8) (size 9 to 14) (size 15 to 20)
#    0.000    2.250    0.000    4.125    0.000    3.500 
#    2.250    3.125    0.000    0.000    0.000    0.000 
#    0.000    0.000    0.000    0.000    0.000    0.000 
#
# Total GULP energy -178539.330946 kJ/mol
# GULP energy per Si atom -5579.354092 kJ/mol
# Density = 2.117890 g / cm^3
# Si number density = 21.227218 Si / 1000 Ang^3
#
#
#
# Elastic Constant Matrix: (Units=GPa)
#
#
# Indices 1 2 3 4 5 6 
#
# 1 113.5956 17.9983 27.2359 0.0000 -43.6161 0.0000
# 2 17.9983 34.4180 5.6830 0.0000 -2.8083 0.0000
# 3 27.2359 5.6830 53.4259 0.0000 -39.1292 0.0000
# 4 0.0000 0.0000 0.0000 22.2914 0.0000 -2.0705
# 5 -43.6161 -2.8083 -39.1292 0.0000 42.9134 0.0000
# 6 0.0000 0.0000 0.0000 -2.0705 0.0000 23.2274
#
#
#
# Elastic Compliance Matrix: (Units=1/GPa)
#
#
# Indices 1 2 3 4 5 6 
#
# 1 0.019426 -0.010005 0.015480 0.000000 0.033205 0.000000
# 2 -0.010005 0.034840 -0.013196 0.000000 -0.019922 0.000000
# 3 0.015480 -0.013196 0.069602 0.000000 0.078335 0.000000
# 4 0.000000 0.000000 0.000000 0.045235 0.000000 0.004032
# 5 0.033205 -0.019922 0.078335 0.000000 0.127174 0.000000
# 6 0.000000 0.000000 0.000000 0.004032 0.000000 0.043412
#
#
# Mechanical properties :
#
#
# Convention : Reuss Voigt Hill
#
# Bulk Modulus (GPa) = 9.22291 33.69712 21.46001
# Shear Modulus (GPa) = 12.77877 27.72124 20.25000
#
# Velocity S-wave (km/s) = 2.45623 3.61768 3.09198
# Velocity P-wave (km/s) = 3.52113 5.77574 4.78317
#
# Compressibility (1/GPa) = 0.10842568
#
# Stress axis : x y z
#
# Youngs Moduli (GPa) = 51.47715 28.70251 14.36741
#
# Poissons Ratio (x) = 0.28718 -0.22241
# Poissons Ratio (y) = 0.51505 0.18959
# Poissons Ratio (z) = -0.79688 0.37876
#
# Static dielectric constant tensor:
#      x y z
#    x 1.825300 0.000000 -0.037740 
#    y 0.000000 1.755450 0.000000 
#    z -0.037740 0.000000 1.792530 
# 
# From -- ./inp_files/54340.got.cif
#   From: 2010.05.17/outbox.cif.g08.bks.cpg/sg11_28_cif.got.tgz:54340.got - 2010.06.03 12:22:45.
