data_PCOD9156989
_publ_section_title
;
Structure prediction by ZEFSAII (Michael W. Deem and Ramdas Pophale) SiO2 
 PCOD9156989
Probable space group: P 21/M
;
_chemical_formula_sum "Si O2"
_cell_formula_units_Z 28
_cell_length_a 9.927500
_cell_length_b 8.589908
_cell_length_c 30.945009
_cell_angle_alpha 90.000000
_cell_angle_beta 142.915936
_cell_angle_gamma 90.000000
_cell_volume 1591.205761
_symmetry_space_group_name_H-M "P 21/M"
_symmetry_group_IT_number 11
_symmetry_cell_setting 'monoclinic'
loop_
_space_group_symop_operation_xyz
x,y,z
-x,1/2+y,-z
-x,-y,-z
x,1/2-y,z
loop_
_atom_site_type_symbol
_atom_site_label
_atom_site_fract_x
_atom_site_fract_y
_atom_site_fract_z
Si Si1 0.528659 0.562556 0.149039
Si Si2 0.849783 0.935831 0.001169
Si Si3 0.649287 0.061560 0.724603
Si Si4 0.440512 0.937895 0.437969
Si Si5 0.041144 0.939210 0.276676
Si Si6 0.248612 0.062672 0.561679
Si Si7 0.228720 0.064845 0.150838
O O1 0.519193 0.750000 0.146615
O O2 0.399680 0.502456 0.158649
O O3 0.785721 0.509718 0.214567
O O4 0.394052 0.500096 0.072868
O O5 0.849532 0.750000 0.000651
O O6 0.982791 0.997435 0.076712
O O7 0.000000 0.000000 0.000000
O O8 0.653558 0.250000 0.729957
O O9 0.834872 0.017316 0.736165
O O10 0.410261 0.016596 0.642715
O O11 0.696065 0.986173 0.782508
O O12 0.438675 0.750000 0.438776
O O13 0.201487 0.989198 0.357150
O O14 0.624960 0.986433 0.449790
O O15 0.500000 0.000000 0.500000
O O16 0.039293 0.750000 0.276868
O O17 0.242408 0.250000 0.560110
O O18 0.000000 0.000000 0.500000
O O19 0.223197 0.250000 0.145037
#
# Coordination Sequence:
#
# PCOD9156989 Si02
#       7
#     4   4   4   4   4   4   4
#     4  10  18  32  54  78 100 129 166 207 250 297
#     4  10  18  31  50  73 101 133 165 204 248 293
#     4   9  18  36  55  72  97 134 170 206 249 295
#     4   9  18  34  52  74 100 131 166 204 246 294
#     4   8  17  34  55  73  97 131 168 204 247 297
#     4   9  19  34  53  74 101 132 167 206 249 296
#     4  11  21  33  50  76 104 132 166 207 247 294
#
# _framework density 17.596717999999999
#
# number of rings (size 3 to 8) (size 9 to 14) (size 15 to 20)
#    0.000    2.571    0.000    6.429    0.000    2.286 
#    0.000   10.000    0.000    0.000    0.000    0.000 
#    0.000    0.000    0.000    0.000    0.000    0.000 
#
# Total GULP energy -156108.435402 kJ/mol
# GULP energy per Si atom -5575.301264 kJ/mol
# Density = 1.755667 g / cm^3
# Si number density = 17.596718 Si / 1000 Ang^3
#
#
#
# Elastic Constant Matrix: (Units=GPa)
#
#
# Indices 1 2 3 4 5 6 
#
# 1 71.6695 29.3503 101.0415 0.0000 2.4730 0.0000
# 2 29.3503 71.0637 51.5858 0.0000 -0.6859 0.0000
# 3 101.0415 51.5858 206.5894 0.0000 5.7765 0.0000
# 4 0.0000 0.0000 0.0000 32.8643 0.0000 -3.0256
# 5 2.4730 -0.6859 5.7765 0.0000 35.2234 0.0000
# 6 0.0000 0.0000 0.0000 -3.0256 0.0000 20.0572
#
#
#
# Elastic Compliance Matrix: (Units=1/GPa)
#
#
# Indices 1 2 3 4 5 6 
#
# 1 0.045542 -0.003215 -0.021479 0.000000 0.000262 0.000000
# 2 -0.003215 0.017453 -0.002814 0.000000 0.001027 0.000000
# 3 -0.021479 -0.002814 0.016081 0.000000 -0.001184 0.000000
# 4 0.000000 0.000000 0.000000 0.030857 0.000000 0.004655
# 5 0.000262 0.001027 -0.001184 0.000000 0.028586 0.000000
# 6 0.000000 0.000000 0.000000 0.004655 0.000000 0.050559
#
#
# Mechanical properties :
#
#
# Convention : Reuss Voigt Hill
#
# Bulk Modulus (GPa) = 41.56342 79.25310 60.40826
# Shear Modulus (GPa) = 19.83233 28.78532 24.30882
#
# Velocity S-wave (km/s) = 3.36079 4.04893 3.72081
# Velocity P-wave (km/s) = 6.22344 8.18504 7.27069
#
# Compressibility (1/GPa) = 0.02405962
#
# Stress axis : x y z
#
# Youngs Moduli (GPa) = 21.95788 57.29828 62.18379
#
# Poissons Ratio (x) = 0.18423 1.33562
# Poissons Ratio (y) = 0.07060 0.17499
# Poissons Ratio (z) = 0.47163 0.16124
#
# Static dielectric constant tensor:
#      x y z
#    x 1.672740 0.000000 0.001780 
#    y 0.000000 1.600100 0.000000 
#    z 0.001780 0.000000 1.620670 
# 
# From -- ./inp_files/49020.got.cif
#   From: 2010.05.17/outbox.cif.g08.bks.cpg/sg11_25_cif.got.tgz:49020.got - 2010.06.03 12:22:45.
