data_PCOD9156656
_publ_section_title
;
Structure prediction by ZEFSAII (Michael W. Deem and Ramdas Pophale) SiO2 
 PCOD9156656
Probable space group: P 21/M
;
_chemical_formula_sum "Si O2"
_cell_formula_units_Z 28
_cell_length_a 21.756149
_cell_length_b 7.699156
_cell_length_c 19.542773
_cell_angle_alpha 90.000000
_cell_angle_beta 19.475673
_cell_angle_gamma 90.000000
_cell_volume 1091.403946
_symmetry_space_group_name_H-M "P 21/M"
_symmetry_group_IT_number 11
_symmetry_cell_setting 'monoclinic'
loop_
_space_group_symop_operation_xyz
x,y,z
-x,1/2+y,-z
-x,-y,-z
x,1/2-y,z
loop_
_atom_site_type_symbol
_atom_site_label
_atom_site_fract_x
_atom_site_fract_y
_atom_site_fract_z
Si Si1 0.020109 0.543185 0.742087
Si Si2 0.579051 0.961253 0.615456
Si Si3 0.975501 0.447710 0.632300
Si Si4 0.365484 0.946583 0.201605
Si Si5 0.115546 0.461745 0.975070
Si Si6 0.392624 0.549614 0.940172
Si Si7 0.289737 0.454615 0.660398
O O1 0.998865 0.750000 0.754634
O O2 0.223194 0.508733 0.559410
O O3 0.002481 0.457770 0.686625
O O4 0.883561 0.482265 0.946686
O O5 0.567959 0.750000 0.625383
O O6 0.432423 0.029628 0.824518
O O7 0.581357 0.028708 0.535123
O O8 0.976692 0.250000 0.606708
O O9 0.149597 0.535057 0.414390
O O10 0.771657 0.527793 0.841813
O O11 0.402221 0.750000 0.181796
O O12 0.423935 0.051142 0.207323
O O13 0.500000 0.000000 0.000000
O O14 0.113358 0.250000 0.976550
O O15 0.917638 0.523630 0.152929
O O16 0.268703 0.524831 0.759677
O O17 0.339817 0.750000 0.984701
O O18 0.328538 0.250000 0.625328
#
# Coordination Sequence:
#
# PCOD9156656 Si02
#       7
#     4   4   4   4   4   4   4
#     4  10  18  29  49  78 111 152 197 246 300 349
#     4   9  16  29  52  78 108 148 195 245 297 349
#     4  11  23  40  62  89 123 161 200 242 288 345
#     4  12  26  45  70  96 124 156 189 233 287 346
#     4   8  14  23  37  64 103 141 186 240 294 348
#     4  10  22  40  63  91 123 159 199 244 291 343
#     4   8  13  22  39  66  99 140 187 238 294 347
#
# _framework density 25.655028999999999
#
# number of rings (size 3 to 8) (size 9 to 14) (size 15 to 20)
#    0.000    2.286    1.429    2.143    0.000    2.286 
#    0.000    0.000    0.000    0.857    0.000    0.000 
#    0.000    0.000    0.000    0.000    0.000    1.143 
#
# Total GULP energy -156445.981407 kJ/mol
# GULP energy per Si atom -5587.356479 kJ/mol
# Density = 2.559664 g / cm^3
# Si number density = 25.655029 Si / 1000 Ang^3
#
#
#
# Elastic Constant Matrix: (Units=GPa)
#
#
# Indices 1 2 3 4 5 6 
#
# 1 75.3034 -4.2037 33.9371 0.0000 9.7884 0.0000
# 2 -4.2037 80.0156 15.4259 0.0000 2.4944 0.0000
# 3 33.9371 15.4259 150.1436 0.0000 40.2615 0.0000
# 4 0.0000 0.0000 0.0000 19.2249 0.0000 -1.8894
# 5 9.7884 2.4944 40.2615 0.0000 47.4403 0.0000
# 6 0.0000 0.0000 0.0000 -1.8894 0.0000 4.5937
#
#
#
# Elastic Compliance Matrix: (Units=1/GPa)
#
#
# Indices 1 2 3 4 5 6 
#
# 1 0.014954 0.001462 -0.003473 0.000000 -0.000215 0.000000
# 2 0.001462 0.012905 -0.001804 0.000000 0.000551 0.000000
# 3 -0.003473 -0.001804 0.009597 0.000000 -0.007333 0.000000
# 4 0.000000 0.000000 0.000000 0.054207 0.000000 0.022296
# 5 -0.000215 0.000551 -0.007333 0.000000 0.027318 0.000000
# 6 0.000000 0.000000 0.000000 0.022296 0.000000 0.226859
#
#
# Mechanical properties :
#
#
# Convention : Reuss Voigt Hill
#
# Bulk Modulus (GPa) = 33.52702 43.97567 38.75135
# Shear Modulus (GPa) = 13.75848 31.60533 22.68191
#
# Velocity S-wave (km/s) = 2.31830 3.51370 2.97663
# Velocity P-wave (km/s) = 4.50142 5.79998 5.19147
#
# Compressibility (1/GPa) = 0.02982669
#
# Stress axis : x y z
#
# Youngs Moduli (GPa) = 66.87089 77.48948 104.19893
#
# Poissons Ratio (x) = -0.11328 0.36184
# Poissons Ratio (y) = -0.09775 0.18797
# Poissons Ratio (z) = 0.23221 0.13979
#
# Static dielectric constant tensor:
#      x y z
#    x 2.011320 0.000000 0.028560 
#    y 0.000000 1.907390 0.000000 
#    z 0.028560 0.000000 2.103350 
# 
# From -- ./inp_files/66684.got.cif
#   From: 2010.05.17/outbox.cif.g08.bks.cpg/sg11_34_cif.got.tgz:66684.got - 2010.06.03 12:22:45.
