data_PCOD9156483
_publ_section_title
;
Structure prediction by ZEFSAII (Michael W. Deem and Ramdas Pophale) SiO2 
 PCOD9156483
Probable space group: P 21/M
;
_chemical_formula_sum "Si O2"
_cell_formula_units_Z 32
_cell_length_a 17.378101
_cell_length_b 9.153028
_cell_length_c 19.914842
_cell_angle_alpha 90.000000
_cell_angle_beta 43.302415
_cell_angle_gamma 90.000000
_cell_volume 2172.563607
_symmetry_space_group_name_H-M "P 21/M"
_symmetry_group_IT_number 11
_symmetry_cell_setting 'monoclinic'
loop_
_space_group_symop_operation_xyz
x,y,z
-x,1/2+y,-z
-x,-y,-z
x,1/2-y,z
loop_
_atom_site_type_symbol
_atom_site_label
_atom_site_fract_x
_atom_site_fract_y
_atom_site_fract_z
Si Si1 0.768685 0.925130 0.069248
Si Si2 0.922675 0.076798 0.754808
Si Si3 0.311201 0.080578 0.093023
Si Si4 0.324649 0.079425 0.242290
Si Si5 0.913825 0.074318 0.605460
Si Si6 0.108020 0.575034 0.897232
Si Si7 0.453222 0.423880 0.873729
Si Si8 0.989904 0.923919 0.840617
O O1 0.775756 0.750000 0.074839
O O2 0.650052 0.959094 0.110190
O O3 0.789806 0.007428 0.125877
O O4 0.871981 0.963449 0.953121
O O5 0.928011 0.250000 0.757738
O O6 0.946692 0.037957 0.661952
O O7 0.796406 0.020619 0.848006
O O8 0.996778 0.003024 0.765269
O O9 0.277115 0.250000 0.102094
O O10 0.346318 0.068925 0.148096
O O11 0.405653 0.045880 0.978768
O O12 0.691391 0.750000 0.731329
O O13 0.210634 0.990169 0.327277
O O14 0.432981 0.012029 0.209294
O O15 0.913014 0.250000 0.599249
O O16 0.000000 0.000000 0.500000
O O17 0.103525 0.750000 0.908533
O O18 0.089492 0.543366 0.830195
O O19 0.000000 0.500000 0.000000
O O20 0.475208 0.250000 0.855366
O O21 0.986540 0.750000 0.832390
#
# Coordination Sequence:
#
# PCOD9156483 Si02
#       8
#     4   4   4   4   4   4   4   4
#     4   9  17  28  41  58  84 121 157 187 222 258
#     4  10  19  28  44  69  90 111 147 189 224 262
#     4   9  17  30  43  57  86 122 151 182 221 260
#     4  10  20  31  46  67  87 114 150 185 223 266
#     4  10  21  37  53  69  89 114 144 183 230 274
#     4   9  17  27  39  56  81 115 153 190 223 258
#     4  10  18  29  43  60  89 123 153 187 220 257
#     4   9  16  28  42  58  85 119 152 184 223 266
#
# _framework density 14.729143000000001
#
# number of rings (size 3 to 8) (size 9 to 14) (size 15 to 20)
#    0.000    2.500    1.250    2.625    0.000    5.500 
#    0.000    0.000    0.000    0.000    0.000    0.000 
#    0.000    1.000    0.000    3.250    0.000    4.750 
#
# Total GULP energy -178279.236556 kJ/mol
# GULP energy per Si atom -5571.226142 kJ/mol
# Density = 1.469562 g / cm^3
# Si number density = 14.729143 Si / 1000 Ang^3
#
#
#
# Elastic Constant Matrix: (Units=GPa)
#
#
# Indices 1 2 3 4 5 6 
#
# 1 98.4617 52.8206 49.0462 0.0000 3.2586 0.0000
# 2 52.8206 53.7047 42.6749 0.0000 4.8980 0.0000
# 3 49.0462 42.6749 65.9349 0.0000 3.0759 0.0000
# 4 0.0000 0.0000 0.0000 19.2728 0.0000 0.9983
# 5 3.2586 4.8980 3.0759 0.0000 11.5596 0.0000
# 6 0.0000 0.0000 0.0000 0.9983 0.0000 29.0983
#
#
#
# Elastic Compliance Matrix: (Units=1/GPa)
#
#
# Indices 1 2 3 4 5 6 
#
# 1 0.022333 -0.018355 -0.004862 0.000000 0.002775 0.000000
# 2 -0.018355 0.054542 -0.021073 0.000000 -0.012329 0.000000
# 3 -0.004862 -0.021073 0.032343 0.000000 0.001693 0.000000
# 4 0.000000 0.000000 0.000000 0.051979 0.000000 -0.001783
# 5 0.002775 -0.012329 0.001693 0.000000 0.090499 0.000000
# 6 0.000000 0.000000 0.000000 -0.001783 0.000000 0.034427
#
#
# Mechanical properties :
#
#
# Convention : Reuss Voigt Hill
#
# Bulk Modulus (GPa) = 48.45254 56.35384 52.40319
# Shear Modulus (GPa) = 13.10333 16.89013 14.99673
#
# Velocity S-wave (km/s) = 2.98588 3.38999 3.19433
# Velocity P-wave (km/s) = 6.69735 7.32570 7.01856
#
# Compressibility (1/GPa) = 0.02063875
#
# Stress axis : x y z
#
# Youngs Moduli (GPa) = 44.77695 18.33451 30.91846
#
# Poissons Ratio (x) = 0.33652 0.15034
# Poissons Ratio (y) = 0.82186 0.65153
# Poissons Ratio (z) = 0.21772 0.38636
#
# Static dielectric constant tensor:
#      x y z
#    x 1.518290 0.000000 0.023630 
#    y 0.000000 1.492180 0.000000 
#    z 0.023630 0.000000 1.459420 
# 
# From -- ./inp_files/60670.got.cif
#   From: 2010.05.17/outbox.cif.g08.bks.cpg/sg11_31_cif.got.tgz:60670.got - 2010.06.03 12:22:45.
