data_PCOD9156024
_publ_section_title
;
Structure prediction by ZEFSAII (Michael W. Deem and Ramdas Pophale) SiO2 
 PCOD9156024
Probable space group: P 21/M
;
_chemical_formula_sum "Si O2"
_cell_formula_units_Z 28
_cell_length_a 16.668792
_cell_length_b 20.709391
_cell_length_c 8.307125
_cell_angle_alpha 90.000000
_cell_angle_beta 30.314715
_cell_angle_gamma 90.000000
_cell_volume 1447.431327
_symmetry_space_group_name_H-M "P 21/M"
_symmetry_group_IT_number 11
_symmetry_cell_setting 'monoclinic'
loop_
_space_group_symop_operation_xyz
x,y,z
-x,1/2+y,-z
-x,-y,-z
x,1/2-y,z
loop_
_atom_site_type_symbol
_atom_site_label
_atom_site_fract_x
_atom_site_fract_y
_atom_site_fract_z
Si Si1 0.569446 0.572076 0.402404
Si Si2 0.129011 0.567605 0.513148
Si Si3 0.367960 0.899658 0.327912
Si Si4 0.337658 0.823478 0.708268
Si Si5 0.710707 0.570119 0.810180
Si Si6 0.951961 0.103084 0.703960
Si Si7 0.179143 0.490366 0.845427
O O1 0.500000 0.500000 0.500000
O O2 0.436950 0.626459 0.646427
O O3 0.697960 0.564995 0.317645
O O4 0.655898 0.586083 0.085139
O O5 0.254788 0.616648 0.374171
O O6 0.235705 0.504467 0.288934
O O7 0.046707 0.590454 0.490075
O O8 0.990117 0.545755 0.879466
O O9 0.358506 0.847911 0.488161
O O10 0.279388 0.964219 0.551326
O O11 0.554015 0.915089 0.976490
O O12 0.386938 0.750000 0.641475
O O13 0.155669 0.835905 0.070081
O O14 0.877859 0.606659 0.503074
O O15 0.864042 0.040467 0.935019
#
# Coordination Sequence:
#
# PCOD9156024 Si02
#       7
#     4   4   4   4   4   4   4
#     4  11  15  31  57  81 103 133 181 222 257 307
#     4  11  18  29  49  87 113 135 163 221 271 309
#     4  10  21  31  51  79 113 142 169 210 267 324
#     4  10  22  38  55  71 101 148 187 215 267 333
#     4  10  17  29  49  80 109 139 166 215 262 313
#     4  10  18  31  54  74 105 137 178 217 260 303
#     4  10  17  30  51  79 112 141 167 209 260 321
#
# _framework density 19.344612999999999
#
# number of rings (size 3 to 8) (size 9 to 14) (size 15 to 20)
#    0.000    1.714    7.143    1.714    0.000    0.000 
#    0.000    3.571    0.000    0.857    0.000    0.000 
#    0.000    0.000    0.000    0.000    0.000    0.000 
#
# Total GULP energy -155952.154892 kJ/mol
# GULP energy per Si atom -5569.719818 kJ/mol
# Density = 1.930058 g / cm^3
# Si number density = 19.344613 Si / 1000 Ang^3
#
#
#
# Elastic Constant Matrix: (Units=GPa)
#
#
# Indices 1 2 3 4 5 6 
#
# 1 73.0807 17.1951 31.4776 0.0000 -30.0290 0.0000
# 2 17.1951 71.4838 19.5168 0.0000 -18.9876 0.0000
# 3 31.4776 19.5168 86.5618 0.0000 -29.7352 0.0000
# 4 0.0000 0.0000 0.0000 11.0999 0.0000 -2.4796
# 5 -30.0290 -18.9876 -29.7352 0.0000 40.2883 0.0000
# 6 0.0000 0.0000 0.0000 -2.4796 0.0000 12.5037
#
#
#
# Elastic Compliance Matrix: (Units=1/GPa)
#
#
# Indices 1 2 3 4 5 6 
#
# 1 0.020295 -0.000735 -0.002863 0.000000 0.012667 0.000000
# 2 -0.000735 0.016138 -0.001268 0.000000 0.006122 0.000000
# 3 -0.002863 -0.001268 0.015997 0.000000 0.009075 0.000000
# 4 0.000000 0.000000 0.000000 0.094267 0.000000 0.018694
# 5 0.012667 0.006122 0.009075 0.000000 0.043845 0.000000
# 6 0.000000 0.000000 0.000000 0.018694 0.000000 0.083683
#
#
# Mechanical properties :
#
#
# Convention : Reuss Voigt Hill
#
# Bulk Modulus (GPa) = 23.42119 40.83393 32.12756
# Shear Modulus (GPa) = 16.76777 23.64084 20.20430
#
# Velocity S-wave (km/s) = 2.94733 3.49963 3.23529
# Velocity P-wave (km/s) = 4.86990 6.12245 5.53174
#
# Compressibility (1/GPa) = 0.04269638
#
# Stress axis : x y z
#
# Youngs Moduli (GPa) = 49.27434 61.96386 62.51221
#
# Poissons Ratio (x) = 0.04557 0.17896
# Poissons Ratio (y) = 0.03624 0.07929
# Poissons Ratio (z) = 0.14107 0.07859
#
# Static dielectric constant tensor:
#      x y z
#    x 1.807180 0.000000 -0.015510 
#    y 0.000000 1.647810 0.000000 
#    z -0.015510 0.000000 1.754410 
# 
# From -- ./inp_files/25262.got.cif
#   From: 2010.05.17/outbox.cif.g08.bks.cpg/sg11_13_cif.got.tgz:25262.got - 2010.06.03 12:22:45.
