data_PCOD9156751
_publ_section_title
;
Structure prediction by ZEFSAII (Michael W. Deem and Ramdas Pophale) SiO2 
 PCOD9156751
Probable space group: P 21/M
;
_chemical_formula_sum "Si O2"
_cell_formula_units_Z 32
_cell_length_a 21.013073
_cell_length_b 7.510843
_cell_length_c 27.328263
_cell_angle_alpha 90.000000
_cell_angle_beta 160.227487
_cell_angle_gamma 90.000000
_cell_volume 1459.066056
_symmetry_space_group_name_H-M "P 21/M"
_symmetry_group_IT_number 11
_symmetry_cell_setting 'monoclinic'
loop_
_space_group_symop_operation_xyz
x,y,z
-x,1/2+y,-z
-x,-y,-z
x,1/2-y,z
loop_
_atom_site_type_symbol
_atom_site_label
_atom_site_fract_x
_atom_site_fract_y
_atom_site_fract_z
Si Si1 0.398860 0.955775 0.856102
Si Si2 0.809126 0.963665 0.148107
Si Si3 0.982437 0.036930 0.371410
Si Si4 0.283253 0.034208 0.226708
Si Si5 0.609777 0.462869 0.529412
Si Si6 0.103630 0.039263 0.998677
Si Si7 0.961328 0.531206 0.154890
Si Si8 0.800698 0.961094 0.382660
O O1 0.404532 0.750000 0.875477
O O2 0.215101 0.036230 0.749250
O O3 0.355715 0.960176 0.766528
O O4 0.603337 0.034652 0.014584
O O5 0.793557 0.750000 0.134122
O O6 0.859444 0.027472 0.130447
O O7 0.967179 0.002467 0.302967
O O8 0.981273 0.250000 0.377789
O O9 0.156101 0.973285 0.530825
O O10 0.286078 0.250000 0.227364
O O11 0.478377 0.969807 0.390476
O O12 0.231407 0.966830 0.135135
O O13 0.110956 0.984600 0.137930
O O14 0.500000 0.500000 0.500000
O O15 0.622516 0.250000 0.533154
O O16 0.821964 0.528746 0.685480
O O17 0.139676 0.250000 0.022395
O O18 0.123145 0.969336 0.957915
O O19 0.959819 0.750000 0.153101
O O20 0.767461 0.750000 0.359153
O O21 0.000000 0.000000 0.500000
#
# Coordination Sequence:
#
# PCOD9156751 Si02
#       8
#     4   4   4   4   4   4   4   4
#     4   9  18  32  50  74 101 129 168 211 247 291
#     4  10  20  33  49  71  99 132 169 206 245 296
#     4   9  18  32  49  72 100 128 162 206 251 292
#     4   9  17  27  45  72  93 113 151 193 228 277
#     4  10  18  30  48  71  96 121 154 194 236 285
#     4   9  16  29  47  66  92 122 148 187 240 283
#     4   9  18  32  48  67  96 129 159 196 244 290
#     4   9  17  30  50  75 101 127 160 204 250 294
#
# _framework density 21.931839
#
# number of rings (size 3 to 8) (size 9 to 14) (size 15 to 20)
#    0.000    2.750    1.250    1.500    0.000    3.000 
#    0.000    2.500    0.000    4.500    0.000    3.500 
#    0.000    0.000    0.000    0.000    0.000    0.000 
#
# Total GULP energy -178479.626938 kJ/mol
# GULP energy per Si atom -5577.488342 kJ/mol
# Density = 2.188192 g / cm^3
# Si number density = 21.931839 Si / 1000 Ang^3
#
#
#
# Elastic Constant Matrix: (Units=GPa)
#
#
# Indices 1 2 3 4 5 6 
#
# 1 100.7414 0.3549 20.4164 0.0000 -39.4386 0.0000
# 2 0.3549 58.8678 -2.7455 0.0000 1.8266 0.0000
# 3 20.4164 -2.7455 61.0715 0.0000 -33.9099 0.0000
# 4 0.0000 0.0000 0.0000 10.8529 0.0000 -4.5924
# 5 -39.4386 1.8266 -33.9099 0.0000 38.9348 0.0000
# 6 0.0000 0.0000 0.0000 -4.5924 0.0000 15.0301
#
#
#
# Elastic Compliance Matrix: (Units=1/GPa)
#
#
# Indices 1 2 3 4 5 6 
#
# 1 0.018319 -0.000529 0.008073 0.000000 0.025612 0.000000
# 2 -0.000529 0.017039 0.000390 0.000000 -0.000995 0.000000
# 3 0.008073 0.000390 0.035289 0.000000 0.038894 0.000000
# 4 0.000000 0.000000 0.000000 0.105823 0.000000 0.032334
# 5 0.025612 -0.000995 0.038894 0.000000 0.085548 0.000000
# 6 0.000000 0.000000 0.000000 0.032334 0.000000 0.076413
#
#
# Mechanical properties :
#
#
# Convention : Reuss Voigt Hill
#
# Bulk Modulus (GPa) = 11.55849 28.52581 20.04215
# Shear Modulus (GPa) = 14.22880 26.47389 20.35134
#
# Velocity S-wave (km/s) = 2.54987 3.47810 3.04951
# Velocity P-wave (km/s) = 3.73507 5.40041 4.64301
#
# Compressibility (1/GPa) = 0.08651646
#
# Stress axis : x y z
#
# Youngs Moduli (GPa) = 54.58876 58.68721 28.33781
#
# Poissons Ratio (x) = 0.03103 -0.22878
# Poissons Ratio (y) = 0.02886 -0.01106
# Poissons Ratio (z) = -0.44071 -0.02290
#
# Static dielectric constant tensor:
#      x y z
#    x 1.817080 0.000000 -0.039640 
#    y 0.000000 1.846780 0.000000 
#    z -0.039640 0.000000 1.820110 
# 
# From -- ./inp_files/68303.got.cif
#   From: 2010.05.17/outbox.cif.g08.bks.cpg/sg11_35_cif.got.tgz:68303.got - 2010.06.03 12:22:45.
