data_PCOD9156517
_publ_section_title
;
Structure prediction by ZEFSAII (Michael W. Deem and Ramdas Pophale) SiO2 
 PCOD9156517
Probable space group: P 21/M
;
_chemical_formula_sum "Si O2"
_cell_formula_units_Z 32
_cell_length_a 22.177107
_cell_length_b 9.268480
_cell_length_c 21.061496
_cell_angle_alpha 90.000000
_cell_angle_beta 152.870593
_cell_angle_gamma 90.000000
_cell_volume 1974.099927
_symmetry_space_group_name_H-M "P 21/M"
_symmetry_group_IT_number 11
_symmetry_cell_setting 'monoclinic'
loop_
_space_group_symop_operation_xyz
x,y,z
-x,1/2+y,-z
-x,-y,-z
x,1/2-y,z
loop_
_atom_site_type_symbol
_atom_site_label
_atom_site_fract_x
_atom_site_fract_y
_atom_site_fract_z
Si Si1 0.111613 0.915230 0.815616
Si Si2 0.207300 0.083503 0.506650
Si Si3 0.120649 0.921694 0.077646
Si Si4 0.881437 0.422056 0.316276
Si Si5 0.837190 0.079271 0.412147
Si Si6 0.234679 0.578511 0.405393
Si Si7 0.370390 0.578321 0.402799
Si Si8 0.920172 0.920127 0.089637
O O1 0.142598 0.750000 0.862496
O O2 0.176524 0.949018 0.808093
O O3 0.952968 0.921160 0.653274
O O4 0.137094 0.021307 0.897615
O O5 0.246333 0.250000 0.545861
O O6 0.235726 0.003878 0.599628
O O7 0.263586 0.004446 0.497526
O O8 0.096267 0.750000 0.051008
O O9 0.250735 0.945620 0.241641
O O10 0.132706 0.990475 0.019429
O O11 0.000000 0.000000 0.000000
O O12 0.918947 0.250000 0.352334
O O13 0.797054 0.446773 0.301029
O O14 0.011849 0.520644 0.443720
O O15 0.834437 0.250000 0.421832
O O16 0.251701 0.750000 0.430939
O O17 0.321798 0.530989 0.427131
O O18 0.079619 0.557213 0.242463
O O19 0.500000 0.500000 0.500000
O O20 0.393260 0.750000 0.427472
O O21 0.896893 0.750000 0.059943
#
# Coordination Sequence:
#
# PCOD9156517 Si02
#       8
#     4   4   4   4   4   4   4   4
#     4   8  14  24  35  52  78 109 144 184 226 269
#     4   9  16  24  35  54  77 105 145 185 223 271
#     4  11  21  35  53  74  97 122 156 197 237 281
#     4   8  14  22  31  45  69 102 143 181 218 268
#     4   9  14  20  31  47  69 102 140 181 224 264
#     4   9  17  31  46  63  89 116 148 191 231 274
#     4  10  22  38  53  73  98 124 156 194 238 289
#     4  10  18  29  45  67  91 116 151 193 234 277
#
# _framework density 16.209917999999998
#
# number of rings (size 3 to 8) (size 9 to 14) (size 15 to 20)
#    0.000    2.750    1.250    2.250    0.000    5.500 
#    0.000    0.000    0.000    0.000    0.000    0.000 
#    0.000    0.000    0.000    1.125    0.000   13.750 
#
# Total GULP energy -178160.260299 kJ/mol
# GULP energy per Si atom -5567.508134 kJ/mol
# Density = 1.617302 g / cm^3
# Si number density = 16.209918 Si / 1000 Ang^3
#
#
#
# Elastic Constant Matrix: (Units=GPa)
#
#
# Indices 1 2 3 4 5 6 
#
# 1 168.0350 80.1580 43.9754 0.0000 -34.2900 0.0000
# 2 80.1580 80.3037 35.3114 0.0000 -14.1768 0.0000
# 3 43.9754 35.3114 25.9811 0.0000 -6.2236 0.0000
# 4 0.0000 0.0000 0.0000 15.5388 0.0000 -5.3795
# 5 -34.2900 -14.1768 -6.2236 0.0000 17.6688 0.0000
# 6 0.0000 0.0000 0.0000 -5.3795 0.0000 31.9100
#
#
#
# Elastic Compliance Matrix: (Units=1/GPa)
#
#
# Indices 1 2 3 4 5 6 
#
# 1 0.018529 -0.007337 -0.015494 0.000000 0.024615 0.000000
# 2 -0.007337 0.035919 -0.035940 0.000000 0.001923 0.000000
# 3 -0.015494 -0.035940 0.108615 0.000000 -0.020648 0.000000
# 4 0.000000 0.000000 0.000000 0.068344 0.000000 0.011522
# 5 0.024615 0.001923 -0.020648 0.000000 0.098637 0.000000
# 6 0.000000 0.000000 0.000000 0.011522 0.000000 0.033280
#
#
# Mechanical properties :
#
#
# Convention : Reuss Voigt Hill
#
# Bulk Modulus (GPa) = 21.96745 65.91217 43.93981
# Shear Modulus (GPa) = 10.07987 20.68186 15.38086
#
# Velocity S-wave (km/s) = 2.49636 3.57582 3.08369
# Velocity P-wave (km/s) = 4.67872 7.60253 6.31225
#
# Compressibility (1/GPa) = 0.04552189
#
# Stress axis : x y z
#
# Youngs Moduli (GPa) = 53.97009 27.84046 9.20683
#
# Poissons Ratio (x) = 0.20425 0.14265
# Poissons Ratio (y) = 0.39595 0.33089
# Poissons Ratio (z) = 0.83622 1.00058
#
# Static dielectric constant tensor:
#      x y z
#    x 1.585190 0.000000 -0.025080 
#    y 0.000000 1.542990 0.000000 
#    z -0.025080 0.000000 1.512410 
# 
# From -- ./inp_files/66468.got.cif
#   From: 2010.05.17/outbox.cif.g08.bks.cpg/sg11_34_cif.got.tgz:66468.got - 2010.06.03 12:22:45.
