data_PCOD9156272
_publ_section_title
;
Structure prediction by ZEFSAII (Michael W. Deem and Ramdas Pophale) SiO2 
 PCOD9156272
Probable space group: P 21/M
;
_chemical_formula_sum "Si O2"
_cell_formula_units_Z 28
_cell_length_a 15.121939
_cell_length_b 8.381820
_cell_length_c 14.036794
_cell_angle_alpha 90.000000
_cell_angle_beta 76.771804
_cell_angle_gamma 90.000000
_cell_volume 1731.947444
_symmetry_space_group_name_H-M "P 21/M"
_symmetry_group_IT_number 11
_symmetry_cell_setting 'monoclinic'
loop_
_space_group_symop_operation_xyz
x,y,z
-x,1/2+y,-z
-x,-y,-z
x,1/2-y,z
loop_
_atom_site_type_symbol
_atom_site_label
_atom_site_fract_x
_atom_site_fract_y
_atom_site_fract_z
Si Si1 0.208463 0.559374 0.746900
Si Si2 0.965317 0.559692 0.109636
Si Si3 0.889461 0.943240 0.419459
Si Si4 0.931433 0.058050 0.726169
Si Si5 0.603143 0.057073 0.367974
Si Si6 0.399320 0.442952 0.414934
Si Si7 0.216223 0.442244 0.366468
O O1 0.206537 0.750000 0.754597
O O2 0.137542 0.491805 0.840653
O O3 0.169220 0.506798 0.654164
O O4 0.313425 0.504876 0.719267
O O5 0.968359 0.750000 0.110366
O O6 0.029668 0.502255 0.181368
O O7 0.000000 0.500000 0.000000
O O8 0.886488 0.750000 0.418176
O O9 0.845530 0.997545 0.528773
O O10 0.992337 0.993653 0.370281
O O11 0.930324 0.250000 0.727742
O O12 0.833871 0.998971 0.716119
O O13 0.603531 0.250000 0.369652
O O14 0.501657 0.004081 0.364470
O O15 0.618895 0.999033 0.472422
O O16 0.398303 0.250000 0.416194
O O17 0.318537 0.496475 0.365190
O O18 0.216197 0.250000 0.366248
#
# Coordination Sequence:
#
# PCOD9156272 Si02
#       7
#     4   4   4   4   4   4   4
#     4  10  18  28  46  70  94 122 155 190 228 273
#     4  10  21  37  54  72  92 115 145 186 235 281
#     4   9  17  29  41  60  90 125 159 190 223 262
#     4   9  19  31  44  63  90 118 148 185 225 273
#     4   9  17  28  42  64  91 123 161 194 227 264
#     4   9  17  28  42  61  91 127 161 196 226 258
#     4  10  18  27  42  63  90 126 161 189 223 263
#
# _framework density 16.166774
#
# number of rings (size 3 to 8) (size 9 to 14) (size 15 to 20)
#    0.000    2.571    1.429    2.143    0.000    4.571 
#    0.000    0.000    0.000    0.000    0.000    1.000 
#    0.000    0.000    0.000    0.000    0.000    0.000 
#
# Total GULP energy -155993.414601 kJ/mol
# GULP energy per Si atom -5571.193379 kJ/mol
# Density = 1.612998 g / cm^3
# Si number density = 16.166774 Si / 1000 Ang^3
#
#
#
# Elastic Constant Matrix: (Units=GPa)
#
#
# Indices 1 2 3 4 5 6 
#
# 1 158.7126 20.5379 61.6001 0.0000 -6.3180 0.0000
# 2 20.5379 0.6735 8.7237 0.0000 -3.5249 0.0000
# 3 61.6001 8.7237 75.8689 0.0000 -13.9983 0.0000
# 4 0.0000 0.0000 0.0000 19.9976 0.0000 2.5504
# 5 -6.3180 -3.5249 -13.9983 0.0000 16.7312 0.0000
# 6 0.0000 0.0000 0.0000 2.5504 0.0000 19.4936
#
#
#
# Elastic Compliance Matrix: (Units=1/GPa)
#
#
# Indices 1 2 3 4 5 6 
#
# 1 0.002241 0.053790 -0.006808 0.000000 0.006482 0.000000
# 2 0.053790 -0.406699 -0.010608 0.000000 -0.074245 0.000000
# 3 -0.006808 -0.010608 0.022517 0.000000 0.014034 0.000000
# 4 0.000000 0.000000 0.000000 0.050855 0.000000 -0.006653
# 5 0.006482 -0.074245 0.014034 0.000000 0.058316 0.000000
# 6 0.000000 0.000000 0.000000 -0.006653 0.000000 0.052169
#
#
# Mechanical properties :
#
#
# Convention : Reuss Voigt Hill
#
# Bulk Modulus (GPa) = -3.23422 46.33094 21.54836
# Shear Modulus (GPa) = -12.61314 20.87069 4.12877
#
# Velocity S-wave (km/s) = -2.79622 3.59689 1.59981
# Velocity P-wave (km/s) = 3.52562 6.78016 4.09515
#
# Compressibility (1/GPa) = -0.30919338
#
# Stress axis : x y z
#
# Youngs Moduli (GPa) = 446.31990 -2.45882 44.40993
#
# Poissons Ratio (x) = 0.13226 0.30235
# Poissons Ratio (y) = -24.00753 0.47111
# Poissons Ratio (z) = 3.03862 -0.02608
#
# Static dielectric constant tensor:
#      x y z
#    x 1.591530 0.000000 -0.014510 
#    y 0.000000 1.546450 0.000000 
#    z -0.014510 0.000000 1.519000 
# 
# From -- ./inp_files/50994.got.cif
#   From: 2010.05.17/outbox.cif.g08.bks.cpg/sg11_26_cif.got.tgz:50994.got - 2010.06.03 12:22:45.
