data_PCOD9156709
_publ_section_title
;
Structure prediction by ZEFSAII (Michael W. Deem and Ramdas Pophale) SiO2 
 PCOD9156709
Probable space group: P 21/M
;
_chemical_formula_sum "Si O2"
_cell_formula_units_Z 32
_cell_length_a 27.559576
_cell_length_b 8.848038
_cell_length_c 22.521771
_cell_angle_alpha 90.000000
_cell_angle_beta 19.371880
_cell_angle_gamma 90.000000
_cell_volume 1821.650787
_symmetry_space_group_name_H-M "P 21/M"
_symmetry_group_IT_number 11
_symmetry_cell_setting 'monoclinic'
loop_
_space_group_symop_operation_xyz
x,y,z
-x,1/2+y,-z
-x,-y,-z
x,1/2-y,z
loop_
_atom_site_type_symbol
_atom_site_label
_atom_site_fract_x
_atom_site_fract_y
_atom_site_fract_z
Si Si1 0.153918 0.433106 0.953958
Si Si2 0.836022 0.568124 0.187458
Si Si3 0.782909 0.570094 0.990337
Si Si4 0.669814 0.429871 0.003436
Si Si5 0.896704 0.428510 0.436246
Si Si6 0.811603 0.069022 0.336949
Si Si7 0.337567 0.429451 0.376548
Si Si8 0.047748 0.068941 0.382660
O O1 0.154377 0.250000 0.956270
O O2 0.220704 0.475113 0.812845
O O3 0.229089 0.485049 0.927959
O O4 0.981843 0.477040 0.151779
O O5 0.842492 0.750000 0.183519
O O6 0.761715 0.501493 0.331847
O O7 0.000000 0.500000 0.000000
O O8 0.750970 0.750000 0.023909
O O9 0.690069 0.484556 0.047992
O O10 0.953025 0.551657 0.774577
O O11 0.691121 0.250000 0.975981
O O12 0.506861 0.467308 0.170391
O O13 0.794721 0.509678 0.820613
O O14 0.862070 0.250000 0.474252
O O15 0.767366 0.519926 0.555499
O O16 0.936596 0.472256 0.457454
O O17 0.808212 0.250000 0.336815
O O18 0.718093 0.012137 0.499967
O O19 0.326450 0.250000 0.398474
O O20 0.051417 0.250000 0.381656
O O21 0.000000 0.000000 0.500000
#
# Coordination Sequence:
#
# PCOD9156709 Si02
#       8
#     4   4   4   4   4   4   4   4
#     4   8  14  26  45  69  98 129 166 217 267 311
#     4   9  16  26  41  66  99 134 171 215 268 320
#     4   9  16  31  52  75 101 135 176 218 265 315
#     4  10  22  37  52  78 112 141 173 216 258 305
#     4   9  18  33  55  81 108 136 172 214 256 304
#     4  10  18  30  47  68 100 137 173 219 270 316
#     4  11  22  34  51  77 109 141 176 218 263 309
#     4  10  21  39  63  87 110 140 173 209 251 302
#
# _framework density 17.566485
#
# number of rings (size 3 to 8) (size 9 to 14) (size 15 to 20)
#    0.000    2.500    1.250    3.375    0.000    4.500 
#    0.000    1.875    0.000    0.750    0.000    0.000 
#    0.000    0.000    0.000    0.000    0.000    0.000 
#
# Total GULP energy -178397.067924 kJ/mol
# GULP energy per Si atom -5574.908373 kJ/mol
# Density = 1.752650 g / cm^3
# Si number density = 17.566485 Si / 1000 Ang^3
#
#
#
# Elastic Constant Matrix: (Units=GPa)
#
#
# Indices 1 2 3 4 5 6 
#
# 1 117.5687 46.9567 52.1994 0.0000 24.2175 0.0000
# 2 46.9567 51.7195 36.6156 0.0000 1.7916 0.0000
# 3 52.1994 36.6156 55.2627 0.0000 6.3244 0.0000
# 4 0.0000 0.0000 0.0000 21.6896 0.0000 2.3747
# 5 24.2175 1.7916 6.3244 0.0000 28.2803 0.0000
# 6 0.0000 0.0000 0.0000 2.3747 0.0000 30.2438
#
#
#
# Elastic Compliance Matrix: (Units=1/GPa)
#
#
# Indices 1 2 3 4 5 6 
#
# 1 0.020394 -0.010447 -0.010692 0.000000 -0.014411 0.000000
# 2 -0.010447 0.042048 -0.019203 0.000000 0.010576 0.000000
# 3 -0.010692 -0.019203 0.040775 0.000000 0.001254 0.000000
# 4 0.000000 0.000000 0.000000 0.046505 0.000000 -0.003651
# 5 -0.014411 0.010576 0.001254 0.000000 0.046750 0.000000
# 6 0.000000 0.000000 0.000000 -0.003651 0.000000 0.033351
#
#
# Mechanical properties :
#
#
# Convention : Reuss Voigt Hill
#
# Bulk Modulus (GPa) = 44.37932 55.12158 49.75045
# Shear Modulus (GPa) = 15.72235 21.96136 18.84185
#
# Velocity S-wave (km/s) = 2.99493 3.53963 3.27861
# Velocity P-wave (km/s) = 6.10557 6.93918 6.53568
#
# Compressibility (1/GPa) = 0.02253302
#
# Stress axis : x y z
#
# Youngs Moduli (GPa) = 49.03437 23.78216 24.52492
#
# Poissons Ratio (x) = 0.24845 0.26223
# Poissons Ratio (y) = 0.51225 0.47095
# Poissons Ratio (z) = 0.52430 0.45669
#
# Static dielectric constant tensor:
#      x y z
#    x 1.622350 0.000000 0.010790 
#    y 0.000000 1.585310 0.000000 
#    z 0.010790 0.000000 1.580260 
# 
# From -- ./inp_files/66978.got.cif
#   From: 2010.05.17/outbox.cif.g08.bks.cpg/sg11_34_cif.got.tgz:66978.got - 2010.06.03 12:22:45.
