data_PCOD9156923
_publ_section_title
;
Structure prediction by ZEFSAII (Michael W. Deem and Ramdas Pophale) SiO2 
 PCOD9156923
Probable space group: P 21/M
;
_chemical_formula_sum "Si O2"
_cell_formula_units_Z 28
_cell_length_a 23.082793
_cell_length_b 8.678228
_cell_length_c 19.115760
_cell_angle_alpha 90.000000
_cell_angle_beta 22.632705
_cell_angle_gamma 90.000000
_cell_volume 1473.571260
_symmetry_space_group_name_H-M "P 21/M"
_symmetry_group_IT_number 11
_symmetry_cell_setting 'monoclinic'
loop_
_space_group_symop_operation_xyz
x,y,z
-x,1/2+y,-z
-x,-y,-z
x,1/2-y,z
loop_
_atom_site_type_symbol
_atom_site_label
_atom_site_fract_x
_atom_site_fract_y
_atom_site_fract_z
Si Si1 0.689384 0.565096 0.605476
Si Si2 0.334368 0.566303 0.665647
Si Si3 0.410366 0.065875 0.440890
Si Si4 0.261762 0.065878 0.887006
Si Si5 0.879229 0.065516 0.689391
Si Si6 0.984055 0.934891 0.721037
Si Si7 0.551992 0.565505 0.016671
O O1 0.687074 0.750000 0.616732
O O2 0.650359 0.529577 0.568327
O O3 0.565074 0.490864 0.794312
O O4 0.851948 0.499842 0.444260
O O5 0.500000 0.500000 0.500000
O O6 0.337882 0.750000 0.662142
O O7 0.308470 0.504498 0.616466
O O8 0.233448 0.504461 0.841653
O O9 0.416667 0.250000 0.442640
O O10 0.579252 0.000040 0.262119
O O11 0.276175 0.250000 0.864542
O O12 0.131105 0.029613 0.087614
O O13 0.877599 0.250000 0.688135
O O14 0.924412 0.009437 0.716184
O O15 0.000000 0.000000 0.500000
O O16 0.715951 0.999861 0.852113
O O17 0.990428 0.750000 0.705639
O O18 0.556179 0.750000 0.009689
O O19 0.500000 0.500000 0.000000
#
# Coordination Sequence:
#
# PCOD9156923 Si02
#       7
#     4   4   4   4   4   4   4
#     4  11  24  41  61  87 119 157 198 243 294 349
#     4  10  18  30  53  82 113 148 190 238 290 346
#     4  10  20  35  57  84 115 150 192 240 292 348
#     4  10  20  35  57  84 115 150 192 240 292 348
#     4  12  25  43  66  92 123 157 196 241 290 346
#     4  11  24  41  61  87 119 157 198 243 294 349
#     4  12  25  43  66  92 123 157 196 241 290 346
#
# _framework density 19.001455
#
# number of rings (size 3 to 8) (size 9 to 14) (size 15 to 20)
#    0.000    1.143    0.000    9.000    0.000    6.857 
#    0.000    0.714    0.000    0.000    0.000    0.000 
#    0.000    0.000    0.000    0.000    0.000    0.000 
#
# Total GULP energy -156603.563064 kJ/mol
# GULP energy per Si atom -5592.984395 kJ/mol
# Density = 1.895821 g / cm^3
# Si number density = 19.001455 Si / 1000 Ang^3
#
#
#
# Elastic Constant Matrix: (Units=GPa)
#
#
# Indices 1 2 3 4 5 6 
#
# 1 190.1187 104.6566 114.0142 0.0000 21.0092 0.0000
# 2 104.6566 152.5117 85.3289 0.0000 18.3277 0.0000
# 3 114.0142 85.3289 156.2295 0.0000 11.0711 0.0000
# 4 0.0000 0.0000 0.0000 34.0043 0.0000 1.9077
# 5 21.0092 18.3277 11.0711 0.0000 36.3617 0.0000
# 6 0.0000 0.0000 0.0000 1.9077 0.0000 36.0334
#
#
#
# Elastic Compliance Matrix: (Units=1/GPa)
#
#
# Indices 1 2 3 4 5 6 
#
# 1 0.011355 -0.004235 -0.005784 0.000000 -0.002665 0.000000
# 2 -0.004235 0.011416 -0.002974 0.000000 -0.002401 0.000000
# 3 -0.005784 -0.002974 0.012166 0.000000 0.001137 0.000000
# 4 0.000000 0.000000 0.000000 0.029496 0.000000 -0.001562
# 5 -0.002665 -0.002401 0.001137 0.000000 0.029905 0.000000
# 6 0.000000 0.000000 0.000000 -0.001562 0.000000 0.027835
#
#
# Mechanical properties :
#
#
# Convention : Reuss Voigt Hill
#
# Bulk Modulus (GPa) = 111.74454 122.98438 117.36446
# Shear Modulus (GPa) = 33.08138 34.27057 33.67597
#
# Velocity S-wave (km/s) = 4.17705 4.25146 4.21442
# Velocity P-wave (km/s) = 9.06640 9.43208 9.25105
#
# Compressibility (1/GPa) = 0.00894898
#
# Stress axis : x y z
#
# Youngs Moduli (GPa) = 88.06929 87.59882 82.19610
#
# Poissons Ratio (x) = 0.37100 0.47546
# Poissons Ratio (y) = 0.37299 0.24445
# Poissons Ratio (z) = 0.50944 0.26052
#
# Static dielectric constant tensor:
#      x y z
#    x 1.669520 0.000000 -0.000260 
#    y 0.000000 1.635630 0.000000 
#    z -0.000260 0.000000 1.669760 
# 
# From -- ./inp_files/66690.got.cif
#   From: 2010.05.17/outbox.cif.g08.bks.cpg/sg11_34_cif.got.tgz:66690.got - 2010.06.03 12:22:45.
