data_PCOD9156160
_publ_section_title
;
Structure prediction by ZEFSAII (Michael W. Deem and Ramdas Pophale) SiO2 
 PCOD9156160
Probable space group: P 21/M
;
_chemical_formula_sum "Si O2"
_cell_formula_units_Z 32
_cell_length_a 20.096756
_cell_length_b 18.806693
_cell_length_c 11.802434
_cell_angle_alpha 90.000000
_cell_angle_beta 22.532069
_cell_angle_gamma 90.000000
_cell_volume 1709.369757
_symmetry_space_group_name_H-M "P 21/M"
_symmetry_group_IT_number 11
_symmetry_cell_setting 'monoclinic'
loop_
_space_group_symop_operation_xyz
x,y,z
-x,1/2+y,-z
-x,-y,-z
x,1/2-y,z
loop_
_atom_site_type_symbol
_atom_site_label
_atom_site_fract_x
_atom_site_fract_y
_atom_site_fract_z
Si Si1 0.212949 0.045022 0.435866
Si Si2 0.823769 0.073843 0.133581
Si Si3 0.570472 0.426473 0.339105
Si Si4 0.758738 0.327297 0.708436
Si Si5 0.769787 0.906253 0.239898
Si Si6 0.824042 0.465090 0.731868
Si Si7 0.833276 0.396956 0.376221
Si Si8 0.360353 0.331591 0.335024
O O1 0.331522 0.111710 0.280661
O O2 0.243745 0.017589 0.260172
O O3 0.237474 0.975141 0.476591
O O4 0.013360 0.068134 0.776498
O O5 0.690850 0.104677 0.249710
O O6 0.828209 0.111140 0.249143
O O7 0.768549 0.992270 0.249820
O O8 0.500000 0.500000 0.500000
O O9 0.395982 0.385646 0.575739
O O10 0.690633 0.447240 0.042567
O O11 0.832515 0.250000 0.616660
O O12 0.857499 0.391015 0.614221
O O13 0.742678 0.340204 0.598991
O O14 0.559607 0.331182 0.061306
O O15 0.746839 0.866144 0.394123
O O16 0.966863 0.891933 0.895101
O O17 0.000000 0.500000 0.500000
O O18 0.310784 0.250000 0.387596
#
# Coordination Sequence:
#
# PCOD9156160 Si02
#       8
#     4   4   4   4   4   4   4   4
#     4  10  19  34  58  86 115 144 206 243 285 348
#     4  10  17  33  56  87 121 144 182 255 293 335
#     4  10  21  32  55  90 123 146 187 246 300 342
#     4  10  24  40  58  86 121 154 196 248 299 358
#     4  10  18  34  54  85 115 151 193 243 289 349
#     4  11  21  37  63  88 113 160 200 240 298 359
#     4  10  19  34  63  81 117 154 195 245 296 340
#     4  11  21  35  55  83 118 153 196 248 299 352
#
# _framework density 18.720348999999999
#
# number of rings (size 3 to 8) (size 9 to 14) (size 15 to 20)
#    0.000    1.750    5.000    0.750    1.750    4.500 
#    0.000    0.625    0.000    2.250    0.000    0.000 
#    0.000    0.000    0.000    0.000    0.000    0.000 
#
# Total GULP energy -178235.239013 kJ/mol
# GULP energy per Si atom -5569.851219 kJ/mol
# Density = 1.867774 g / cm^3
# Si number density = 18.720349 Si / 1000 Ang^3
#
#
#
# Elastic Constant Matrix: (Units=GPa)
#
#
# Indices 1 2 3 4 5 6 
#
# 1 106.1592 32.4148 28.6973 0.0000 6.3116 0.0000
# 2 32.4148 86.7119 14.2116 0.0000 -5.4900 0.0000
# 3 28.6973 14.2116 53.9715 0.0000 11.9420 0.0000
# 4 0.0000 0.0000 0.0000 10.6532 0.0000 -2.7646
# 5 6.3116 -5.4900 11.9420 0.0000 32.7918 0.0000
# 6 0.0000 0.0000 0.0000 -2.7646 0.0000 16.6976
#
#
#
# Elastic Compliance Matrix: (Units=1/GPa)
#
#
# Indices 1 2 3 4 5 6 
#
# 1 0.012015 -0.003709 -0.005180 0.000000 -0.001047 0.000000
# 2 -0.003709 0.013568 -0.002459 0.000000 0.003881 0.000000
# 3 -0.005180 -0.002459 0.023711 0.000000 -0.008050 0.000000
# 4 0.000000 0.000000 0.000000 0.098083 0.000000 0.016239
# 5 -0.001047 0.003881 -0.008050 0.000000 0.034278 0.000000
# 6 0.000000 0.000000 0.000000 0.016239 0.000000 0.062578
#
#
# Mechanical properties :
#
#
# Convention : Reuss Voigt Hill
#
# Bulk Modulus (GPa) = 37.59773 44.16556 40.88164
# Shear Modulus (GPa) = 18.12942 23.46310 20.79626
#
# Velocity S-wave (km/s) = 3.11534 3.54411 3.33662
# Velocity P-wave (km/s) = 5.75048 6.35540 6.06049
#
# Compressibility (1/GPa) = 0.02659735
#
# Stress axis : x y z
#
# Youngs Moduli (GPa) = 83.23075 73.70491 42.17379
#
# Poissons Ratio (x) = 0.27335 0.21847
# Poissons Ratio (y) = 0.30868 0.10372
# Poissons Ratio (z) = 0.43115 0.18127
#
# Static dielectric constant tensor:
#      x y z
#    x 1.708710 0.000000 -0.017860 
#    y 0.000000 1.639000 0.000000 
#    z -0.017860 0.000000 1.672620 
# 
# From -- ./inp_files/43561.got.cif
#   From: 2010.05.17/outbox.cif.g08.bks.cpg/sg11_22_cif.got.tgz:43561.got - 2010.06.03 12:22:45.
