data_PCOD9156123
_publ_section_title
;
Structure prediction by ZEFSAII (Michael W. Deem and Ramdas Pophale) SiO2 
 PCOD9156123
Probable space group: P 21/M
;
_chemical_formula_sum "Si O2"
_cell_formula_units_Z 20
_cell_length_a 9.071598
_cell_length_b 24.941443
_cell_length_c 10.438911
_cell_angle_alpha 90.000000
_cell_angle_beta 150.461990
_cell_angle_gamma 90.000000
_cell_volume 1164.416180
_symmetry_space_group_name_H-M "P 21/M"
_symmetry_group_IT_number 11
_symmetry_cell_setting 'monoclinic'
loop_
_space_group_symop_operation_xyz
x,y,z
-x,1/2+y,-z
-x,-y,-z
x,1/2-y,z
loop_
_atom_site_type_symbol
_atom_site_label
_atom_site_fract_x
_atom_site_fract_y
_atom_site_fract_z
Si Si1 0.768305 0.867465 0.466601
Si Si2 0.335875 0.025330 0.998831
Si Si3 0.558425 0.750000 0.059889
Si Si4 0.478322 0.634026 0.966778
Si Si5 0.137216 0.250000 0.440750
Si Si6 0.333666 0.018562 0.501744
O O1 0.581877 0.871344 0.193549
O O2 0.732540 0.807903 0.500186
O O3 0.684447 0.917177 0.492902
O O4 0.119337 0.871972 0.693826
O O5 0.368697 0.088666 0.002076
O O6 0.999359 0.004856 0.748450
O O7 0.500000 0.000000 0.000000
O O8 0.498629 0.005437 0.248767
O O9 0.572911 0.693941 0.997781
O O10 0.797807 0.750000 0.356220
O O11 0.216659 0.750000 0.856890
O O12 0.500000 0.000000 0.500000
#
# Coordination Sequence:
#
# PCOD9156123 Si02
#       6
#     4   4   2   4   2   4
#     4  10  17  32  49  76 102 133 172 219 254 311
#     4  12  21  36  57  80 103 143 177 218 259 317
#     4   8  16  28  44  78 102 126 158 226 266 288
#     4  10  18  30  54  76 104 129 177 217 259 305
#     4   8  16  26  48  70  98 130 170 212 258 292
#     4  12  24  36  52  79 115 142 172 218 272 313
#
# _framework density 17.175991
#
# number of rings (size 3 to 8) (size 9 to 14) (size 15 to 20)
#    0.000    1.600    4.000    2.400    0.000    0.000 
#    0.000    0.000    0.000    2.400    0.000    0.000 
#    0.000    0.000    0.000    0.000    0.000    0.000 
#
# Total GULP energy -111531.948340 kJ/mol
# GULP energy per Si atom -5576.597417 kJ/mol
# Density = 1.713690 g / cm^3
# Si number density = 17.175991 Si / 1000 Ang^3
#
#
#
# Elastic Constant Matrix: (Units=GPa)
#
#
# Indices 1 2 3 4 5 6 
#
# 1 89.8857 50.6929 40.6655 0.0000 -1.7931 0.0000
# 2 50.6929 205.6955 19.0960 0.0000 -5.8292 0.0000
# 3 40.6655 19.0960 123.5804 0.0000 4.5990 0.0000
# 4 0.0000 0.0000 0.0000 24.2376 0.0000 1.7470
# 5 -1.7931 -5.8292 4.5990 0.0000 20.4153 0.0000
# 6 0.0000 0.0000 0.0000 1.7470 0.0000 13.9329
#
#
#
# Elastic Compliance Matrix: (Units=1/GPa)
#
#
# Indices 1 2 3 4 5 6 
#
# 1 0.015015 -0.003243 -0.004492 0.000000 0.001405 0.000000
# 2 -0.003243 0.005685 0.000140 0.000000 0.001307 0.000000
# 3 -0.004492 0.000140 0.009642 0.000000 -0.002527 0.000000
# 4 0.000000 0.000000 0.000000 0.041634 0.000000 -0.005220
# 5 0.001405 0.001307 -0.002527 0.000000 0.050048 0.000000
# 6 0.000000 0.000000 0.000000 -0.005220 0.000000 0.072427
#
#
# Mechanical properties :
#
#
# Convention : Reuss Voigt Hill
#
# Bulk Modulus (GPa) = 65.99902 71.11894 68.55898
# Shear Modulus (GPa) = 23.28907 32.29764 27.79335
#
# Velocity S-wave (km/s) = 3.68626 4.34106 4.02699
# Velocity P-wave (km/s) = 7.52507 8.16225 7.85012
#
# Compressibility (1/GPa) = 0.01515174
#
# Stress axis : x y z
#
# Youngs Moduli (GPa) = 66.60161 175.90409 103.70924
#
# Poissons Ratio (x) = 0.57054 0.46584
# Poissons Ratio (y) = 0.21602 -0.01454
# Poissons Ratio (z) = 0.29916 -0.02467
#
# Static dielectric constant tensor:
#      x y z
#    x 1.509080 0.000000 0.008960 
#    y 0.000000 1.664650 0.000000 
#    z 0.008960 0.000000 1.577760 
# 
# From -- ./inp_files/2531.got.cif
#   From: 2010.05.17/outbox.cif.g08.bks.cpg/sg11_2_cif.got.tgz:2531.got - 2010.06.03 12:22:45.
