data_PCOD9156400
_publ_section_title
;
Structure prediction by ZEFSAII (Michael W. Deem and Ramdas Pophale) SiO2 
 PCOD9156400
Probable space group: P 21/M
;
_chemical_formula_sum "Si O2"
_cell_formula_units_Z 32
_cell_length_a 11.120788
_cell_length_b 9.112673
_cell_length_c 21.286590
_cell_angle_alpha 90.000000
_cell_angle_beta 114.299956
_cell_angle_gamma 90.000000
_cell_volume 1966.066392
_symmetry_space_group_name_H-M "P 21/M"
_symmetry_group_IT_number 11
_symmetry_cell_setting 'monoclinic'
loop_
_space_group_symop_operation_xyz
x,y,z
-x,1/2+y,-z
-x,-y,-z
x,1/2-y,z
loop_
_atom_site_type_symbol
_atom_site_label
_atom_site_fract_x
_atom_site_fract_y
_atom_site_fract_z
Si Si1 0.207159 0.922401 0.527642
Si Si2 0.013120 0.076198 0.731288
Si Si3 0.712834 0.424514 0.709083
Si Si4 0.141542 0.926211 0.016441
Si Si5 0.775664 0.920063 0.846756
Si Si6 0.478676 0.074002 0.562835
Si Si7 0.083410 0.919613 0.868588
Si Si8 0.991343 0.077798 0.398776
O O1 0.230535 0.750000 0.520439
O O2 0.122590 0.936687 0.573274
O O3 0.342822 0.009896 0.560463
O O4 0.117043 0.990453 0.453111
O O5 0.028172 0.250000 0.726265
O O6 0.857934 0.044706 0.711800
O O7 0.091522 0.020487 0.809378
O O8 0.049762 0.990355 0.676262
O O9 0.707847 0.250000 0.720300
O O10 0.699619 0.509111 0.771956
O O11 0.600028 0.462112 0.635049
O O12 0.131117 0.750000 0.020192
O O13 0.235086 0.991756 0.090326
O O14 0.167931 0.959363 0.948667
O O15 0.000000 0.000000 0.000000
O O16 0.742489 0.750000 0.848607
O O17 0.930338 0.927094 0.858845
O O18 0.471982 0.250000 0.555101
O O19 0.500000 0.000000 0.500000
O O20 0.109424 0.750000 0.857561
O O21 0.023044 0.250000 0.399172
#
# Coordination Sequence:
#
# PCOD9156400 Si02
#       8
#     4   4   4   4   4   4   4   4
#     4  10  21  36  52  71  93 118 153 193 232 276
#     4  10  18  28  45  67  92 121 153 191 230 270
#     4   9  19  32  44  63  91 122 154 187 225 270
#     4   9  15  23  36  54  80 114 149 185 222 264
#     4   9  16  25  39  58  81 114 152 187 223 264
#     4  11  22  35  52  72  96 125 155 190 231 274
#     4   8  15  25  36  55  84 117 151 183 220 268
#     4  10  20  34  52  70  91 120 152 190 234 279
#
# _framework density 16.276153999999998
#
# number of rings (size 3 to 8) (size 9 to 14) (size 15 to 20)
#    0.000    2.500    0.000    3.750    0.000    7.500 
#    0.000    0.000    0.000    0.000    0.000    0.000 
#    0.000    1.000    0.000    3.250    0.000    4.875 
#
# Total GULP energy -178363.277963 kJ/mol
# GULP energy per Si atom -5573.852436 kJ/mol
# Density = 1.623911 g / cm^3
# Si number density = 16.276154 Si / 1000 Ang^3
#
#
#
# Elastic Constant Matrix: (Units=GPa)
#
#
# Indices 1 2 3 4 5 6 
#
# 1 15.4435 21.7470 21.5344 0.0000 -0.4921 0.0000
# 2 21.7470 83.1995 74.5407 0.0000 -11.1688 0.0000
# 3 21.5344 74.5407 145.6907 0.0000 -16.7310 0.0000
# 4 0.0000 0.0000 0.0000 33.6284 0.0000 -3.8989
# 5 -0.4921 -11.1688 -16.7310 0.0000 16.6088 0.0000
# 6 0.0000 0.0000 0.0000 -3.8989 0.0000 19.2113
#
#
#
# Elastic Compliance Matrix: (Units=1/GPa)
#
#
# Indices 1 2 3 4 5 6 
#
# 1 0.108224 -0.026890 -0.004463 0.000000 -0.019372 0.000000
# 2 -0.026890 0.029103 -0.009906 0.000000 0.008796 0.000000
# 3 -0.004463 -0.009906 0.013357 0.000000 0.006661 0.000000
# 4 0.000000 0.000000 0.000000 0.030453 0.000000 0.006181
# 5 -0.019372 0.008796 0.006661 0.000000 0.072260 0.000000
# 6 0.000000 0.000000 0.000000 0.006181 0.000000 0.053307
#
#
# Mechanical properties :
#
#
# Convention : Reuss Voigt Hill
#
# Bulk Modulus (GPa) = 14.66997 53.33088 34.00043
# Shear Modulus (GPa) = 12.13756 22.32382 17.23069
#
# Velocity S-wave (km/s) = 2.73376 3.70748 3.25721
# Velocity P-wave (km/s) = 4.35859 7.15295 5.92292
#
# Compressibility (1/GPa) = 0.06816647
#
# Stress axis : x y z
#
# Youngs Moduli (GPa) = 9.24009 34.36028 74.86858
#
# Poissons Ratio (x) = 0.92393 0.33418
# Poissons Ratio (y) = 0.24846 0.74163
# Poissons Ratio (z) = 0.04124 0.34036
#
# Static dielectric constant tensor:
#      x y z
#    x 1.527860 0.000000 -0.006330 
#    y 0.000000 1.541210 0.000000 
#    z -0.006330 0.000000 1.565640 
# 
# From -- ./inp_files/64240.got.cif
#   From: 2010.05.17/outbox.cif.g08.bks.cpg/sg11_33_cif.got.tgz:64240.got - 2010.06.03 12:22:45.
