data_PCOD9156992
_publ_section_title
;
Structure prediction by ZEFSAII (Michael W. Deem and Ramdas Pophale) SiO2 
 PCOD9156992
Probable space group: P 21/M
;
_chemical_formula_sum "Si O2"
_cell_formula_units_Z 24
_cell_length_a 9.438482
_cell_length_b 8.553088
_cell_length_c 18.942509
_cell_angle_alpha 90.000000
_cell_angle_beta 119.779100
_cell_angle_gamma 90.000000
_cell_volume 1327.258882
_symmetry_space_group_name_H-M "P 21/M"
_symmetry_group_IT_number 11
_symmetry_cell_setting 'monoclinic'
loop_
_space_group_symop_operation_xyz
x,y,z
-x,1/2+y,-z
-x,-y,-z
x,1/2-y,z
loop_
_atom_site_type_symbol
_atom_site_label
_atom_site_fract_x
_atom_site_fract_y
_atom_site_fract_z
Si Si1 0.502800 0.563157 0.420059
Si Si2 0.150001 0.560034 0.830457
Si Si3 0.845838 0.436904 0.504854
Si Si4 0.152845 0.937012 0.995061
Si Si5 0.160773 0.438539 0.336596
Si Si6 0.505867 0.937549 0.921073
O O1 0.500000 0.500000 0.500000
O O2 0.495502 0.250000 0.579031
O O3 0.672676 0.498873 0.431606
O O4 0.331936 0.500644 0.347485
O O5 0.146814 0.750000 0.829565
O O6 0.138643 0.510596 0.909526
O O7 0.329639 0.514453 0.846330
O O8 0.995519 0.508336 0.747034
O O9 0.843766 0.250000 0.504456
O O10 0.856256 0.498775 0.587857
O O11 0.000000 0.500000 0.500000
O O12 0.153968 0.750000 0.995875
O O13 0.326217 0.996500 0.067913
O O14 0.000000 0.000000 0.000000
O O15 0.166685 0.250000 0.340196
O O16 0.513993 0.750000 0.923782
O O17 0.500000 0.000000 0.000000
#
# Coordination Sequence:
#
# PCOD9156992 Si02
#       6
#     4   4   4   4   4   4
#     4  10  18  31  50  74 100 131 166 203 242 292
#     4   8  17  32  52  74 100 131 167 202 245 299
#     4  11  21  35  53  76 101 130 165 206 248 295
#     4  10  19  33  51  75 101 132 169 208 248 294
#     4  10  18  33  54  76 100 133 168 203 244 294
#     4   9  16  30  50  73  98 131 168 204 242 294
#
# _framework density 18.082380000000001
#
# number of rings (size 3 to 8) (size 9 to 14) (size 15 to 20)
#    0.000    2.333    0.000    7.500    0.000    0.000 
#    0.000   11.667    0.000    4.000    0.000    0.000 
#    0.000    0.000    0.000    0.000    0.000    0.000 
#
# Total GULP energy -133770.453258 kJ/mol
# GULP energy per Si atom -5573.768886 kJ/mol
# Density = 1.804122 g / cm^3
# Si number density = 18.082380 Si / 1000 Ang^3
#
#
#
# Elastic Constant Matrix: (Units=GPa)
#
#
# Indices 1 2 3 4 5 6 
#
# 1 177.7326 51.8173 63.2313 0.0000 48.6079 0.0000
# 2 51.8173 111.0515 29.0148 0.0000 18.6002 0.0000
# 3 63.2313 29.0148 90.6648 0.0000 44.0307 0.0000
# 4 0.0000 0.0000 0.0000 18.8851 0.0000 5.5992
# 5 48.6079 18.6002 44.0307 0.0000 37.6931 0.0000
# 6 0.0000 0.0000 0.0000 5.5992 0.0000 34.6620
#
#
#
# Elastic Compliance Matrix: (Units=1/GPa)
#
#
# Indices 1 2 3 4 5 6 
#
# 1 0.009352 -0.002478 -0.001077 0.000000 -0.009578 0.000000
# 2 -0.002478 0.010605 -0.001562 0.000000 -0.000213 0.000000
# 3 -0.001077 -0.001562 0.025958 0.000000 -0.028162 0.000000
# 4 0.000000 0.000000 0.000000 0.055615 0.000000 -0.008984
# 5 -0.009578 -0.000213 -0.028162 0.000000 0.071884 0.000000
# 6 0.000000 0.000000 0.000000 -0.008984 0.000000 0.030301
#
#
# Mechanical properties :
#
#
# Convention : Reuss Voigt Hill
#
# Bulk Modulus (GPa) = 28.02786 74.17508 51.10147
# Shear Modulus (GPa) = 22.13932 33.94042 28.03987
#
# Velocity S-wave (km/s) = 3.50288 4.33712 3.94213
# Velocity P-wave (km/s) = 5.64747 8.13576 7.00302
#
# Compressibility (1/GPa) = 0.03567878
#
# Stress axis : x y z
#
# Youngs Moduli (GPa) = 106.93213 94.29670 38.52448
#
# Poissons Ratio (x) = 0.23365 0.04151
# Poissons Ratio (y) = 0.26495 0.06019
# Poissons Ratio (z) = 0.11521 0.14734
#
# Static dielectric constant tensor:
#      x y z
#    x 1.643680 0.000000 0.037840 
#    y 0.000000 1.608910 0.000000 
#    z 0.037840 0.000000 1.640290 
# 
# From -- ./inp_files/23768.got.cif
#   From: 2010.05.17/outbox.cif.g08.bks.cpg/sg11_12_cif.got.tgz:23768.got - 2010.06.03 12:22:45.
