data_PCOD9156523
_publ_section_title
;
Structure prediction by ZEFSAII (Michael W. Deem and Ramdas Pophale) SiO2 
 PCOD9156523
Probable space group: P 21/M
;
_chemical_formula_sum "Si O2"
_cell_formula_units_Z 28
_cell_length_a 30.601604
_cell_length_b 8.534062
_cell_length_c 14.410642
_cell_angle_alpha 90.000000
_cell_angle_beta 152.134289
_cell_angle_gamma 90.000000
_cell_volume 1759.028185
_symmetry_space_group_name_H-M "P 21/M"
_symmetry_group_IT_number 11
_symmetry_cell_setting 'monoclinic'
loop_
_space_group_symop_operation_xyz
x,y,z
-x,1/2+y,-z
-x,-y,-z
x,1/2-y,z
loop_
_atom_site_type_symbol
_atom_site_label
_atom_site_fract_x
_atom_site_fract_y
_atom_site_fract_z
Si Si1 0.401038 0.938612 0.776553
Si Si2 0.328014 0.561702 0.829337
Si Si3 0.526792 0.061519 0.278377
Si Si4 0.978476 0.562058 0.356189
Si Si5 0.778927 0.940520 0.028479
Si Si6 0.830911 0.562456 0.335858
Si Si7 0.421464 0.061857 0.422473
O O1 0.402003 0.750000 0.778101
O O2 0.329206 0.987116 0.722486
O O3 0.401692 0.987733 0.670173
O O4 0.500000 0.000000 0.000000
O O5 0.331042 0.750000 0.839605
O O6 0.239390 0.500927 0.719208
O O7 0.423333 0.496676 0.054833
O O8 0.524301 0.250000 0.278568
O O9 0.555997 0.994408 0.431841
O O10 0.983766 0.750000 0.364976
O O11 0.062337 0.494517 0.452376
O O12 0.000000 0.500000 0.500000
O O13 0.870208 0.514696 0.139422
O O14 0.777231 0.750000 0.027057
O O15 0.795317 0.990617 0.166287
O O16 0.680568 0.994500 0.803240
O O17 0.829600 0.750000 0.333607
O O18 0.421947 0.250000 0.420970
O O19 0.500000 0.000000 0.500000
#
# Coordination Sequence:
#
# PCOD9156523 Si02
#       7
#     4   4   4   4   4   4   4
#     4   8  16  29  45  63  87 116 149 185 225 269
#     4  10  18  29  46  69  91 118 153 187 223 271
#     4  10  19  32  46  64  92 124 152 187 229 268
#     4   9  16  29  46  64  86 116 150 186 225 269
#     4   8  17  31  45  60  86 120 152 182 217 258
#     4  10  18  29  45  68  94 119 144 182 232 276
#     4  11  21  33  47  66  91 123 159 191 219 259
#
# _framework density 15.91788
#
# number of rings (size 3 to 8) (size 9 to 14) (size 15 to 20)
#    0.000    2.571    0.000    3.857    0.000    2.286 
#    0.000    7.857    0.000    0.000    0.000    1.000 
#    0.000    0.000    0.000    0.000    0.000    0.000 
#
# Total GULP energy -155918.215508 kJ/mol
# GULP energy per Si atom -5568.507697 kJ/mol
# Density = 1.588165 g / cm^3
# Si number density = 15.917880 Si / 1000 Ang^3
#
#
#
# Elastic Constant Matrix: (Units=GPa)
#
#
# Indices 1 2 3 4 5 6 
#
# 1 165.8632 34.1450 74.0665 0.0000 16.5756 0.0000
# 2 34.1450 42.0886 23.3198 0.0000 4.8856 0.0000
# 3 74.0665 23.3198 94.6535 0.0000 18.1311 0.0000
# 4 0.0000 0.0000 0.0000 18.8609 0.0000 4.3641
# 5 16.5756 4.8856 18.1311 0.0000 28.4142 0.0000
# 6 0.0000 0.0000 0.0000 4.3641 0.0000 23.3874
#
#
#
# Elastic Compliance Matrix: (Units=1/GPa)
#
#
# Indices 1 2 3 4 5 6 
#
# 1 0.009925 -0.004331 -0.006531 0.000000 -0.000878 0.000000
# 2 -0.004331 0.029411 -0.003842 0.000000 -0.000079 0.000000
# 3 -0.006531 -0.003842 0.017961 0.000000 -0.006990 0.000000
# 4 0.000000 0.000000 0.000000 0.055412 0.000000 -0.010340
# 5 -0.000878 -0.000079 -0.006990 0.000000 0.040180 0.000000
# 6 0.000000 0.000000 0.000000 -0.010340 0.000000 0.044688
#
#
# Mechanical properties :
#
#
# Convention : Reuss Voigt Hill
#
# Bulk Modulus (GPa) = 35.85669 62.85198 49.35434
# Shear Modulus (GPa) = 21.16134 25.53743 23.34939
#
# Velocity S-wave (km/s) = 3.65006 4.00975 3.83412
# Velocity P-wave (km/s) = 6.35129 7.81078 7.11854
#
# Compressibility (1/GPa) = 0.02788879
#
# Stress axis : x y z
#
# Youngs Moduli (GPa) = 100.75739 34.00111 55.67657
#
# Poissons Ratio (x) = 0.14727 0.36362
# Poissons Ratio (y) = 0.43640 0.21389
# Poissons Ratio (z) = 0.65805 0.13062
#
# Static dielectric constant tensor:
#      x y z
#    x 1.558860 0.000000 0.014240 
#    y 0.000000 1.544450 0.000000 
#    z 0.014240 0.000000 1.520540 
# 
# From -- ./inp_files/51456.got.cif
#   From: 2010.05.17/outbox.cif.g08.bks.cpg/sg11_26_cif.got.tgz:51456.got - 2010.06.03 12:22:45.
