data_PCOD9156189
_publ_section_title
;
Structure prediction by ZEFSAII (Michael W. Deem and Ramdas Pophale) SiO2 
 PCOD9156189
Probable space group: P 21/M
;
_chemical_formula_sum "Si O2"
_cell_formula_units_Z 24
_cell_length_a 8.654534
_cell_length_b 14.326710
_cell_length_c 14.317004
_cell_angle_alpha 90.000000
_cell_angle_beta 138.998789
_cell_angle_gamma 90.000000
_cell_volume 1164.650938
_symmetry_space_group_name_H-M "P 21/M"
_symmetry_group_IT_number 11
_symmetry_cell_setting 'monoclinic'
loop_
_space_group_symop_operation_xyz
x,y,z
-x,1/2+y,-z
-x,-y,-z
x,1/2-y,z
loop_
_atom_site_type_symbol
_atom_site_label
_atom_site_fract_x
_atom_site_fract_y
_atom_site_fract_z
Si Si1 0.698630 0.354756 0.991511
Si Si2 0.571959 0.006012 0.258901
Si Si3 0.576442 0.581086 0.464469
Si Si4 0.063107 0.649160 0.240133
Si Si5 0.076485 0.949923 0.733116
Si Si6 0.103486 0.395662 0.042287
O O1 0.602396 0.250000 0.955270
O O2 0.747451 0.402477 0.113092
O O3 0.950958 0.348698 0.053399
O O4 0.538723 0.424759 0.857675
O O5 0.609023 0.961939 0.376730
O O6 0.801226 0.042049 0.311036
O O7 0.380252 0.089110 0.181536
O O8 0.500000 0.500000 0.500000
O O9 0.347090 0.645748 0.358728
O O10 0.835230 0.609264 0.617085
O O11 0.997021 0.750000 0.251763
O O12 0.982653 0.555346 0.257312
O O13 0.955766 0.642462 0.086978
O O14 0.000000 0.500000 0.000000
#
# Coordination Sequence:
#
# PCOD9156189 Si02
#       6
#     4   4   4   4   4   4
#     4  11  22  38  62  92 126 164 209 256 301 360
#     4  11  21  39  63  90 126 162 204 251 316 370
#     4  10  21  39  63  87 116 162 208 252 301 365
#     4  11  21  37  62  90 119 163 211 252 298 361
#     4  11  23  40  60  94 130 162 197 253 317 370
#     4  10  17  35  60  86 118 157 210 254 294 352
#
# _framework density 20.607033000000001
#
# number of rings (size 3 to 8) (size 9 to 14) (size 15 to 20)
#    0.000    1.333    6.667    2.500    0.000    1.333 
#    0.000    0.833    0.000    9.000    0.000    0.000 
#    0.000    0.000    0.000    0.000    0.000    0.000 
#
# Total GULP energy -133907.928232 kJ/mol
# GULP energy per Si atom -5579.497010 kJ/mol
# Density = 2.056013 g / cm^3
# Si number density = 20.607033 Si / 1000 Ang^3
#
#
#
# Elastic Constant Matrix: (Units=GPa)
#
#
# Indices 1 2 3 4 5 6 
#
# 1 71.5250 -7.7940 -4.8850 0.0000 1.9880 0.0000
# 2 -7.7940 62.9112 -1.6374 0.0000 5.1473 0.0000
# 3 -4.8850 -1.6374 63.8584 0.0000 -13.7567 0.0000
# 4 0.0000 0.0000 0.0000 -9.2438 0.0000 -3.2273
# 5 1.9880 5.1473 -13.7567 0.0000 31.0710 0.0000
# 6 0.0000 0.0000 0.0000 -3.2273 0.0000 -3.9461
#
#
#
# Elastic Compliance Matrix: (Units=1/GPa)
#
#
# Indices 1 2 3 4 5 6 
#
# 1 0.014272 0.001858 0.000969 0.000000 -0.000792 0.000000
# 2 0.001858 0.016358 -0.000053 0.000000 -0.002852 0.000000
# 3 0.000969 -0.000053 0.017378 0.000000 0.007641 0.000000
# 4 0.000000 0.000000 0.000000 -0.151413 0.000000 0.123832
# 5 -0.000792 -0.002852 0.007641 0.000000 0.036091 0.000000
# 6 0.000000 0.000000 0.000000 0.123832 0.000000 -0.354692
#
#
# Mechanical properties :
#
#
# Convention : Reuss Voigt Hill
#
# Bulk Modulus (GPa) = 18.67207 18.85133 18.76170
# Shear Modulus (GPa) = -12.20397 17.75029 2.77316
#
# Velocity S-wave (km/s) = -2.43620 2.93809 1.16132
# Velocity P-wave (km/s) = 1.08039 4.54728 3.30492
#
# Compressibility (1/GPa) = 0.05355593
#
# Stress axis : x y z
#
# Youngs Moduli (GPa) = 70.06839 61.13369 57.54240
#
# Poissons Ratio (x) = -0.11359 -0.05574
# Poissons Ratio (y) = -0.13020 0.00304
# Poissons Ratio (z) = -0.06788 0.00323
#
# Static dielectric constant tensor:
#      x y z
#    x 1.746690 0.000000 0.049250 
#    y 0.000000 1.741260 0.000000 
#    z 0.049250 0.000000 1.765540 
# 
# From -- ./inp_files/22017.got.cif
#   From: 2010.05.17/outbox.cif.g08.bks.cpg/sg11_12_cif.got.tgz:22017.got - 2010.06.03 12:22:45.
