data_PCOD9156094
_publ_section_title
;
Structure prediction by ZEFSAII (Michael W. Deem and Ramdas Pophale) SiO2 
 PCOD9156094
Probable space group: P 21/M
;
_chemical_formula_sum "Si O2"
_cell_formula_units_Z 32
_cell_length_a 15.543367
_cell_length_b 8.717370
_cell_length_c 31.977840
_cell_angle_alpha 90.000000
_cell_angle_beta 28.349836
_cell_angle_gamma 90.000000
_cell_volume 2057.499265
_symmetry_space_group_name_H-M "P 21/M"
_symmetry_group_IT_number 11
_symmetry_cell_setting 'monoclinic'
loop_
_space_group_symop_operation_xyz
x,y,z
-x,1/2+y,-z
-x,-y,-z
x,1/2-y,z
loop_
_atom_site_type_symbol
_atom_site_label
_atom_site_fract_x
_atom_site_fract_y
_atom_site_fract_z
Si Si1 0.049060 0.066243 0.579204
Si Si2 0.962082 0.933187 0.082590
Si Si3 0.314228 0.435408 0.303932
Si Si4 0.357827 0.436475 0.381575
Si Si5 0.741546 0.066699 0.435032
Si Si6 0.344357 0.565016 0.620784
Si Si7 0.281654 0.935002 0.887267
Si Si8 0.753271 0.434848 0.245992
O O1 0.049324 0.250000 0.579200
O O2 0.202533 0.013289 0.480176
O O3 0.110186 0.006121 0.598210
O O4 0.855847 0.005314 0.647000
O O5 0.953061 0.750000 0.087134
O O6 0.815587 0.996015 0.111919
O O7 0.909025 0.997868 0.150242
O O8 0.157519 0.978618 0.979953
O O9 0.300896 0.250000 0.308615
O O10 0.317432 0.483963 0.351372
O O11 0.508633 0.479925 0.201405
O O12 0.359470 0.250000 0.381273
O O13 0.557291 0.484939 0.311394
O O14 0.748553 0.250000 0.435327
O O15 0.753327 0.024157 0.380896
O O16 0.543920 0.008203 0.534231
O O17 0.368316 0.750000 0.611148
O O18 0.244400 0.521144 0.706259
O O19 0.275270 0.750000 0.885745
O O20 0.759972 0.250000 0.240452
#
# Coordination Sequence:
#
# PCOD9156094 Si02
#       8
#     4   4   4   4   4   4   4   4
#     4  11  21  33  47  67  95 128 161 198 236 273
#     4  10  19  29  46  73  97 119 156 200 236 277
#     4  10  19  33  49  65  88 127 168 196 226 272
#     4   9  17  30  47  64  91 129 163 187 221 273
#     4  10  19  31  48  71  94 122 159 198 235 277
#     4   9  18  32  50  69  94 125 158 193 235 283
#     4   9  18  33  49  65  93 129 158 192 240 283
#     4  10  17  31  50  68  94 131 159 184 233 288
#
# _framework density 15.552861
#
# number of rings (size 3 to 8) (size 9 to 14) (size 15 to 20)
#    0.000    2.250    2.500    1.500    0.000    2.000 
#    0.000    0.625    0.000    0.000    0.000    0.875 
#    0.000    0.000    0.000    0.000    0.000    0.000 
#
# Total GULP energy -178458.217309 kJ/mol
# GULP energy per Si atom -5576.819291 kJ/mol
# Density = 1.551746 g / cm^3
# Si number density = 15.552861 Si / 1000 Ang^3
#
#
#
# Elastic Constant Matrix: (Units=GPa)
#
#
# Indices 1 2 3 4 5 6 
#
# 1 118.3141 28.9351 70.6745 0.0000 12.5871 0.0000
# 2 28.9351 15.5201 28.9412 0.0000 4.5048 0.0000
# 3 70.6745 28.9412 112.4738 0.0000 16.9708 0.0000
# 4 0.0000 0.0000 0.0000 21.9143 0.0000 0.8002
# 5 12.5871 4.5048 16.9708 0.0000 25.4232 0.0000
# 6 0.0000 0.0000 0.0000 0.8002 0.0000 20.6335
#
#
#
# Elastic Compliance Matrix: (Units=1/GPa)
#
#
# Indices 1 2 3 4 5 6 
#
# 1 0.016818 -0.022372 -0.004618 0.000000 -0.001280 0.000000
# 2 -0.022372 0.153641 -0.025620 0.000000 0.000955 0.000000
# 3 -0.004618 -0.025620 0.019299 0.000000 -0.006057 0.000000
# 4 0.000000 0.000000 0.000000 0.045697 0.000000 -0.001772
# 5 -0.001280 0.000955 -0.006057 0.000000 0.043842 0.000000
# 6 0.000000 0.000000 0.000000 -0.001772 0.000000 0.048534
#
#
# Mechanical properties :
#
#
# Convention : Reuss Voigt Hill
#
# Bulk Modulus (GPa) = 11.82913 55.93441 33.88177
# Shear Modulus (GPa) = 10.84055 21.44469 16.14262
#
# Velocity S-wave (km/s) = 2.64297 3.71728 3.22517
# Velocity P-wave (km/s) = 4.11533 7.38014 5.97505
#
# Compressibility (1/GPa) = 0.08453710
#
# Stress axis : x y z
#
# Youngs Moduli (GPa) = 59.45908 6.50868 51.81543
#
# Poissons Ratio (x) = 0.14561 0.23930
# Poissons Ratio (y) = 1.33023 1.32753
# Poissons Ratio (z) = 0.27460 0.16675
#
# Static dielectric constant tensor:
#      x y z
#    x 1.504960 0.000000 0.021490 
#    y 0.000000 1.525420 0.000000 
#    z 0.021490 0.000000 1.520390 
# 
# From -- ./inp_files/51197.got.cif
#   From: 2010.05.17/outbox.cif.g08.bks.cpg/sg11_26_cif.got.tgz:51197.got - 2010.06.03 12:22:45.
