data_PCOD9156594
_publ_section_title
;
Structure prediction by ZEFSAII (Michael W. Deem and Ramdas Pophale) SiO2 
 PCOD9156594
Probable space group: P 21/M
;
_chemical_formula_sum "Si O2"
_cell_formula_units_Z 32
_cell_length_a 12.593533
_cell_length_b 7.346668
_cell_length_c 14.282117
_cell_angle_alpha 90.000000
_cell_angle_beta 82.924865
_cell_angle_gamma 90.000000
_cell_volume 1311.326956
_symmetry_space_group_name_H-M "P 21/M"
_symmetry_group_IT_number 11
_symmetry_cell_setting 'monoclinic'
loop_
_space_group_symop_operation_xyz
x,y,z
-x,1/2+y,-z
-x,-y,-z
x,1/2-y,z
loop_
_atom_site_type_symbol
_atom_site_label
_atom_site_fract_x
_atom_site_fract_y
_atom_site_fract_z
Si Si1 0.426919 0.468919 0.148823
Si Si2 0.671995 0.029741 0.335713
Si Si3 0.663101 0.028008 0.118811
Si Si4 0.792018 0.529168 0.587161
Si Si5 0.920726 0.037389 0.753506
Si Si6 0.560863 0.530412 0.630562
Si Si7 0.101943 0.041649 0.601570
Si Si8 0.788997 0.041700 0.935721
O O1 0.420120 0.250000 0.141736
O O2 0.543806 0.529303 0.100316
O O3 0.428603 0.510390 0.259553
O O4 0.323629 0.544614 0.108477
O O5 0.674121 0.250000 0.340181
O O6 0.676697 0.978339 0.225441
O O7 0.556517 0.966236 0.387349
O O8 0.777693 0.958454 0.372373
O O9 0.663005 0.250000 0.115639
O O10 0.755013 0.961070 0.039153
O O11 0.792018 0.750000 0.584167
O O12 0.826020 0.475535 0.687410
O O13 0.672387 0.464828 0.575607
O O14 0.879834 0.461732 0.503611
O O15 0.943699 0.250000 0.769039
O O16 0.876558 0.959230 0.855785
O O17 0.022014 0.957489 0.686416
O O18 0.559435 0.750000 0.622434
O O19 0.066708 0.250000 0.593966
O O20 0.821943 0.250000 0.949729
#
# Coordination Sequence:
#
# PCOD9156594 Si02
#       8
#     4   4   4   4   4   4   4   4
#     4   9  15  27  47  71 101 130 158 196 242 293
#     4   9  18  35  55  72  96 131 170 204 240 295
#     4   8  16  30  49  72  98 131 164 196 242 295
#     4  10  19  34  56  76  98 129 165 204 251 305
#     4  10  21  35  50  73 106 134 161 205 252 292
#     4   8  15  29  50  75 100 126 155 199 251 292
#     4  10  22  37  51  71 100 134 168 208 255 289
#     4  10  18  29  47  72 101 131 162 197 244 296
#
# _framework density 24.402761999999999
#
# number of rings (size 3 to 8) (size 9 to 14) (size 15 to 20)
#    0.000    2.750    1.250    2.250    0.000    1.500 
#    0.000    4.375    0.000    0.000    0.000    0.000 
#    0.000    0.000    0.000    0.000    0.000    0.000 
#
# Total GULP energy -178743.470949 kJ/mol
# GULP energy per Si atom -5585.733467 kJ/mol
# Density = 2.434722 g / cm^3
# Si number density = 24.402762 Si / 1000 Ang^3
#
#
#
# Elastic Constant Matrix: (Units=GPa)
#
#
# Indices 1 2 3 4 5 6 
#
# 1 117.2614 2.8400 34.1080 0.0000 -37.8348 0.0000
# 2 2.8400 99.9832 4.1576 0.0000 -8.1504 0.0000
# 3 34.1080 4.1576 82.5314 0.0000 -45.1529 0.0000
# 4 0.0000 0.0000 0.0000 -7.4545 0.0000 16.3492
# 5 -37.8348 -8.1504 -45.1529 0.0000 58.9641 0.0000
# 6 0.0000 0.0000 0.0000 16.3492 0.0000 5.8554
#
#
#
# Elastic Compliance Matrix: (Units=1/GPa)
#
#
# Indices 1 2 3 4 5 6 
#
# 1 0.010824 0.000237 -0.001149 0.000000 0.006098 0.000000
# 2 0.000237 0.010130 0.000415 0.000000 0.001870 0.000000
# 3 -0.001149 0.000415 0.020994 0.000000 0.015397 0.000000
# 4 0.000000 0.000000 0.000000 -0.018831 0.000000 0.052579
# 5 0.006098 0.001870 0.015397 0.000000 0.032922 0.000000
# 6 0.000000 0.000000 0.000000 0.052579 0.000000 0.023974
#
#
# Mechanical properties :
#
#
# Convention : Reuss Voigt Hill
#
# Bulk Modulus (GPa) = 24.41702 42.44303 33.43002
# Shear Modulus (GPa) = 52.82226 28.71770 40.76998
#
# Velocity S-wave (km/s) = 4.65758 3.43420 4.09187
# Velocity P-wave (km/s) = 6.24112 5.75808 6.00446
#
# Compressibility (1/GPa) = 0.04095504
#
# Stress axis : x y z
#
# Youngs Moduli (GPa) = 92.38689 98.71523 47.63258
#
# Poissons Ratio (x) = -0.02344 0.05472
# Poissons Ratio (y) = -0.02194 -0.01976
# Poissons Ratio (z) = 0.10613 -0.04094
#
# Static dielectric constant tensor:
#      x y z
#    x 1.940020 0.000000 -0.054860 
#    y 0.000000 1.913330 0.000000 
#    z -0.054860 0.000000 1.959800 
# 
# From -- ./inp_files/45131.got.cif
#   From: 2010.05.17/outbox.cif.g08.bks.cpg/sg11_23_cif.got.tgz:45131.got - 2010.06.03 12:22:45.
