data_PCOD9156971
_publ_section_title
;
Structure prediction by ZEFSAII (Michael W. Deem and Ramdas Pophale) SiO2 
 PCOD9156971
Probable space group: P 21/M
;
_chemical_formula_sum "Si O2"
_cell_formula_units_Z 28
_cell_length_a 11.806618
_cell_length_b 14.830945
_cell_length_c 9.684251
_cell_angle_alpha 90.000000
_cell_angle_beta 76.258744
_cell_angle_gamma 90.000000
_cell_volume 1647.209298
_symmetry_space_group_name_H-M "P 21/M"
_symmetry_group_IT_number 11
_symmetry_cell_setting 'monoclinic'
loop_
_space_group_symop_operation_xyz
x,y,z
-x,1/2+y,-z
-x,-y,-z
x,1/2-y,z
loop_
_atom_site_type_symbol
_atom_site_label
_atom_site_fract_x
_atom_site_fract_y
_atom_site_fract_z
Si Si1 0.237807 0.642197 0.366716
Si Si2 0.635388 0.008716 0.490934
Si Si3 0.806818 0.645183 0.533707
Si Si4 0.187097 0.646241 0.077444
Si Si5 0.090585 0.349189 0.804259
Si Si6 0.030377 0.858484 0.640054
Si Si7 0.813126 0.464373 0.191930
O O1 0.248874 0.750000 0.363669
O O2 0.339951 0.593327 0.417930
O O3 0.232503 0.611013 0.210694
O O4 0.119425 0.621998 0.487234
O O5 0.699304 0.922668 0.544060
O O6 0.500000 0.000000 0.500000
O O7 0.707099 0.026840 0.329636
O O8 0.772703 0.750000 0.564901
O O9 0.877489 0.642553 0.367492
O O10 0.900407 0.619008 0.624916
O O11 0.224637 0.750000 0.049565
O O12 0.047109 0.646761 0.134145
O O13 0.218694 0.590538 0.934103
O O14 0.131817 0.250000 0.838372
O O15 0.147039 0.435233 0.858892
O O16 0.035183 0.750000 0.665147
O O17 0.082140 0.913943 0.754036
#
# Coordination Sequence:
#
# PCOD9156971 Si02
#       7
#     4   4   4   4   4   4   4
#     4   9  18  32  54  76 102 133 165 204 254 309
#     4  10  22  36  51  73  99 134 181 217 246 283
#     4   9  17  31  52  74 100 132 164 205 255 307
#     4  10  18  31  49  77 106 130 158 200 257 315
#     4   9  17  29  46  71 104 134 163 194 245 314
#     4   9  16  29  49  78 105 127 158 202 256 312
#     4  10  20  30  51  76 104 132 167 207 255 289
#
# _framework density 16.998446000000001
#
# number of rings (size 3 to 8) (size 9 to 14) (size 15 to 20)
#    0.000    2.571    1.429    0.857    2.000    2.857 
#    0.000    0.714    0.000    0.000    0.000    0.000 
#    0.000    0.000    0.000    0.000    0.000    0.000 
#
# Total GULP energy -156101.290191 kJ/mol
# GULP energy per Si atom -5575.046078 kJ/mol
# Density = 1.695976 g / cm^3
# Si number density = 16.998446 Si / 1000 Ang^3
#
#
#
# Elastic Constant Matrix: (Units=GPa)
#
#
# Indices 1 2 3 4 5 6 
#
# 1 103.2620 37.4867 32.3332 0.0000 7.0994 0.0000
# 2 37.4867 59.9388 36.3123 0.0000 10.7484 0.0000
# 3 32.3332 36.3123 56.9383 0.0000 18.0029 0.0000
# 4 0.0000 0.0000 0.0000 15.9113 0.0000 7.1611
# 5 7.0994 10.7484 18.0029 0.0000 14.2170 0.0000
# 6 0.0000 0.0000 0.0000 7.1611 0.0000 19.2091
#
#
#
# Elastic Compliance Matrix: (Units=1/GPa)
#
#
# Indices 1 2 3 4 5 6 
#
# 1 0.013114 -0.005928 -0.005025 0.000000 0.004296 0.000000
# 2 -0.005928 0.029914 -0.015838 0.000000 0.000400 0.000000
# 3 -0.005025 -0.015838 0.043257 0.000000 -0.040293 0.000000
# 4 0.000000 0.000000 0.000000 0.075519 0.000000 -0.028153
# 5 0.004296 0.000400 -0.040293 0.000000 0.118914 0.000000
# 6 0.000000 0.000000 0.000000 -0.028153 0.000000 0.062554
#
#
# Mechanical properties :
#
#
# Convention : Reuss Voigt Hill
#
# Bulk Modulus (GPa) = 30.57731 48.04481 39.31106
# Shear Modulus (GPa) = 12.26228 17.46796 14.86512
#
# Velocity S-wave (km/s) = 2.68876 3.20913 2.96040
# Velocity P-wave (km/s) = 5.25990 6.48513 5.90439
#
# Compressibility (1/GPa) = 0.03270399
#
# Stress axis : x y z
#
# Youngs Moduli (GPa) = 76.25383 33.42866 23.11784
#
# Poissons Ratio (x) = 0.19817 0.11616
# Poissons Ratio (y) = 0.45203 0.36614
# Poissons Ratio (z) = 0.38315 0.52944
#
# Static dielectric constant tensor:
#      x y z
#    x 1.542320 0.000000 0.008520 
#    y 0.000000 1.615430 0.000000 
#    z 0.008520 0.000000 1.567580 
# 
# From -- ./inp_files/17666.got.cif
#   From: 2010.05.17/outbox.cif.g08.bks.cpg/sg11_9_cif.got.tgz:17666.got - 2010.06.03 12:22:45.
