data_PCOD9156571
_publ_section_title
;
Structure prediction by ZEFSAII (Michael W. Deem and Ramdas Pophale) SiO2 
 PCOD9156571
Probable space group: P 21/M
;
_chemical_formula_sum "Si O2"
_cell_formula_units_Z 32
_cell_length_a 11.971247
_cell_length_b 8.972160
_cell_length_c 18.580303
_cell_angle_alpha 90.000000
_cell_angle_beta 91.255726
_cell_angle_gamma 90.000000
_cell_volume 1995.192858
_symmetry_space_group_name_H-M "P 21/M"
_symmetry_group_IT_number 11
_symmetry_cell_setting 'monoclinic'
loop_
_space_group_symop_operation_xyz
x,y,z
-x,1/2+y,-z
-x,-y,-z
x,1/2-y,z
loop_
_atom_site_type_symbol
_atom_site_label
_atom_site_fract_x
_atom_site_fract_y
_atom_site_fract_z
Si Si1 0.865159 0.078967 0.925976
Si Si2 0.730032 0.068996 0.355655
Si Si3 0.495263 0.429534 0.420011
Si Si4 0.866963 0.071190 0.219676
Si Si5 0.136937 0.420091 0.929485
Si Si6 0.732204 0.428945 0.630477
Si Si7 0.120799 0.571083 0.507946
Si Si8 0.111418 0.569663 0.232533
O O1 0.828555 0.250000 0.933646
O O2 0.839141 0.025266 0.844891
O O3 0.000988 0.078507 0.929668
O O4 0.824994 0.984929 0.993430
O O5 0.730228 0.250000 0.355794
O O6 0.605755 0.024067 0.377111
O O7 0.779049 0.022392 0.279489
O O8 0.814702 0.020238 0.419662
O O9 0.500000 0.500000 0.500000
O O10 0.494942 0.250000 0.426633
O O11 0.384431 0.486833 0.378939
O O12 0.875579 0.250000 0.220091
O O13 0.832673 0.015574 0.139994
O O14 0.989400 0.003542 0.238766
O O15 0.172669 0.250000 0.920779
O O16 0.712810 0.250000 0.630877
O O17 0.804790 0.464245 0.560636
O O18 0.805646 0.467594 0.701414
O O19 0.109721 0.750000 0.510956
O O20 0.000000 0.500000 0.500000
O O21 0.096603 0.750000 0.230588
#
# Coordination Sequence:
#
# PCOD9156571 Si02
#       8
#     4   4   4   4   4   4   4   4
#     4   8  14  25  41  63  92 128 162 187 225 283
#     4   9  19  34  49  67  95 126 156 198 244 281
#     4  11  21  37  56  72  92 122 164 208 247 287
#     4  10  18  29  47  69  97 130 162 195 236 288
#     4   9  16  26  41  64  95 127 159 195 234 277
#     4  10  20  35  52  71  98 128 158 200 248 284
#     4  10  19  32  48  68  97 127 156 191 233 284
#     4   9  18  31  47  70 102 131 156 195 241 284
#
# _framework density 16.038549
#
# number of rings (size 3 to 8) (size 9 to 14) (size 15 to 20)
#    0.000    2.500    1.250    2.625    0.000    4.000 
#    0.000    3.125    0.000    0.000    0.000    0.875 
#    0.000    0.000    0.000    0.000    0.000    0.000 
#
# Total GULP energy -178355.720722 kJ/mol
# GULP energy per Si atom -5573.616273 kJ/mol
# Density = 1.600204 g / cm^3
# Si number density = 16.038549 Si / 1000 Ang^3
#
#
#
# Elastic Constant Matrix: (Units=GPa)
#
#
# Indices 1 2 3 4 5 6 
#
# 1 92.6842 34.4264 54.2511 0.0000 -17.9930 0.0000
# 2 34.4264 39.6127 44.5660 0.0000 -5.8824 0.0000
# 3 54.2511 44.5660 141.3457 0.0000 -18.7993 0.0000
# 4 0.0000 0.0000 0.0000 20.0612 0.0000 1.4689
# 5 -17.9930 -5.8824 -18.7993 0.0000 7.2964 0.0000
# 6 0.0000 0.0000 0.0000 1.4689 0.0000 22.1717
#
#
#
# Elastic Compliance Matrix: (Units=1/GPa)
#
#
# Indices 1 2 3 4 5 6 
#
# 1 0.027958 -0.019056 0.003657 0.000000 0.063004 0.000000
# 2 -0.019056 0.052111 -0.014877 0.000000 -0.043311 0.000000
# 3 0.003657 -0.014877 0.015162 0.000000 0.036090 0.000000
# 4 0.000000 0.000000 0.000000 0.050091 0.000000 -0.003319
# 5 0.063004 -0.043311 0.036090 0.000000 0.350492 0.000000
# 6 0.000000 0.000000 0.000000 -0.003319 0.000000 0.045322
#
#
# Mechanical properties :
#
#
# Convention : Reuss Voigt Hill
#
# Bulk Modulus (GPa) = 28.83551 60.01441 44.42496
# Shear Modulus (GPa) = 8.15332 19.26579 13.70955
#
# Velocity S-wave (km/s) = 2.25712 3.46962 2.92685
# Velocity P-wave (km/s) = 4.98104 7.31786 6.25947
#
# Compressibility (1/GPa) = 0.03467946
#
# Stress axis : x y z
#
# Youngs Moduli (GPa) = 35.76807 19.18974 65.95538
#
# Poissons Ratio (x) = 0.36568 -0.24122
# Poissons Ratio (y) = 0.68160 0.98121
# Poissons Ratio (z) = -0.13081 0.28548
#
# Static dielectric constant tensor:
#      x y z
#    x 1.503820 0.000000 -0.001970 
#    y 0.000000 1.541560 0.000000 
#    z -0.001970 0.000000 1.551820 
# 
# From -- ./inp_files/42543.got.cif
#   From: 2010.05.17/outbox.cif.g08.bks.cpg/sg11_22_cif.got.tgz:42543.got - 2010.06.03 12:22:45.
