data_PCOD9156793
_publ_section_title
;
Structure prediction by ZEFSAII (Michael W. Deem and Ramdas Pophale) SiO2 
 PCOD9156793
Probable space group: P 21/M
;
_chemical_formula_sum "Si O2"
_cell_formula_units_Z 28
_cell_length_a 10.414669
_cell_length_b 8.687509
_cell_length_c 33.127039
_cell_angle_alpha 90.000000
_cell_angle_beta 146.349726
_cell_angle_gamma 90.000000
_cell_volume 1660.844194
_symmetry_space_group_name_H-M "P 21/M"
_symmetry_group_IT_number 11
_symmetry_cell_setting 'monoclinic'
loop_
_space_group_symop_operation_xyz
x,y,z
-x,1/2+y,-z
-x,-y,-z
x,1/2-y,z
loop_
_atom_site_type_symbol
_atom_site_label
_atom_site_fract_x
_atom_site_fract_y
_atom_site_fract_z
Si Si1 0.551971 0.934150 0.969757
Si Si2 0.769780 0.433396 0.188828
Si Si3 0.206007 0.930895 0.339644
Si Si4 0.501357 0.064305 0.805047
Si Si5 0.379699 0.564158 0.509185
Si Si6 0.008794 0.066314 0.047671
Si Si7 0.932652 0.932091 0.353647
O O1 0.577235 0.750000 0.977977
O O2 0.345074 0.969288 0.884137
O O3 0.500000 0.000000 0.000000
O O4 0.785437 0.006450 0.012904
O O5 0.758035 0.250000 0.192429
O O6 0.616280 0.514839 0.183340
O O7 0.033581 0.489258 0.263061
O O8 0.224932 0.750000 0.336523
O O9 0.070757 0.948623 0.347255
O O10 0.459163 0.003196 0.412659
O O11 0.513971 0.250000 0.807300
O O12 0.323520 0.007921 0.723497
O O13 0.754967 0.993087 0.870134
O O14 0.500000 0.500000 0.500000
O O15 0.386326 0.750000 0.510081
O O16 0.111569 0.510819 0.434601
O O17 0.009271 0.250000 0.045805
O O18 0.000000 0.000000 0.000000
O O19 0.906095 0.750000 0.353991
#
# Coordination Sequence:
#
# PCOD9156793 Si02
#       7
#     4   4   4   4   4   4   4
#     4  11  24  40  57  78 104 135 172 215 266 316
#     4  10  19  31  48  70  96 127 168 210 252 304
#     4   9  16  25  38  58  86 122 162 201 246 295
#     4  10  18  30  49  72  99 130 167 210 255 302
#     4   9  14  22  35  54  83 120 160 197 241 295
#     4  12  23  36  55  78 104 136 175 217 260 308
#     4   7  13  23  36  57  86 121 157 196 242 292
#
# _framework density 16.858896999999999
#
# number of rings (size 3 to 8) (size 9 to 14) (size 15 to 20)
#    0.000    2.286    1.429    5.143    0.000    1.714 
#    0.000    2.143    0.000    0.000    0.000    0.000 
#    0.000    1.143    0.000    3.429    0.000    6.571 
#
# Total GULP energy -155974.273353 kJ/mol
# GULP energy per Si atom -5570.509763 kJ/mol
# Density = 1.682053 g / cm^3
# Si number density = 16.858897 Si / 1000 Ang^3
#
#
#
# Elastic Constant Matrix: (Units=GPa)
#
#
# Indices 1 2 3 4 5 6 
#
# 1 55.0204 27.5418 50.8627 0.0000 2.4368 0.0000
# 2 27.5418 82.8082 68.7631 0.0000 2.4292 0.0000
# 3 50.8627 68.7631 205.6214 0.0000 18.7735 0.0000
# 4 0.0000 0.0000 0.0000 29.8793 0.0000 3.1021
# 5 2.4368 2.4292 18.7735 0.0000 10.8167 0.0000
# 6 0.0000 0.0000 0.0000 3.1021 0.0000 16.8311
#
#
#
# Elastic Compliance Matrix: (Units=1/GPa)
#
#
# Indices 1 2 3 4 5 6 
#
# 1 0.024801 -0.004092 -0.005158 0.000000 0.004283 0.000000
# 2 -0.004092 0.017862 -0.005560 0.000000 0.006561 0.000000
# 3 -0.005158 -0.005560 0.009243 0.000000 -0.013632 0.000000
# 4 0.000000 0.000000 0.000000 0.034121 0.000000 -0.006289
# 5 0.004283 0.006561 -0.013632 0.000000 0.113671 0.000000
# 6 0.000000 0.000000 0.000000 -0.006289 0.000000 0.060573
#
#
# Mechanical properties :
#
#
# Convention : Reuss Voigt Hill
#
# Bulk Modulus (GPa) = 44.86857 70.86502 57.86680
# Shear Modulus (GPa) = 16.81696 24.59091 20.70393
#
# Velocity S-wave (km/s) = 3.16177 3.82335 3.50819
# Velocity P-wave (km/s) = 6.32463 7.84959 7.12801
#
# Compressibility (1/GPa) = 0.02228732
#
# Stress axis : x y z
#
# Youngs Moduli (GPa) = 40.32015 55.98622 108.18891
#
# Poissons Ratio (x) = 0.22908 0.55800
# Poissons Ratio (y) = 0.16498 0.60154
# Poissons Ratio (z) = 0.20796 0.31129
#
# Static dielectric constant tensor:
#      x y z
#    x 1.527840 0.000000 0.005860 
#    y 0.000000 1.565940 0.000000 
#    z 0.005860 0.000000 1.644220 
# 
# From -- ./inp_files/72767.got.cif
#   From: 2010.05.17/outbox.cif.g08.bks.cpg/sg11_37_cif.got.tgz:72767.got - 2010.06.03 12:22:45.
