data_PCOD9156006
_publ_section_title
;
Structure prediction by ZEFSAII (Michael W. Deem and Ramdas Pophale) SiO2 
 PCOD9156006
Probable space group: P 21/M
;
_chemical_formula_sum "Si O2"
_cell_formula_units_Z 32
_cell_length_a 12.584951
_cell_length_b 7.573058
_cell_length_c 24.103916
_cell_angle_alpha 90.000000
_cell_angle_beta 136.767670
_cell_angle_gamma 90.000000
_cell_volume 1573.528335
_symmetry_space_group_name_H-M "P 21/M"
_symmetry_group_IT_number 11
_symmetry_cell_setting 'monoclinic'
loop_
_space_group_symop_operation_xyz
x,y,z
-x,1/2+y,-z
-x,-y,-z
x,1/2-y,z
loop_
_atom_site_type_symbol
_atom_site_label
_atom_site_fract_x
_atom_site_fract_y
_atom_site_fract_z
Si Si1 0.874747 0.037658 0.903428
Si Si2 0.243502 0.036282 0.592517
Si Si3 0.403054 0.038109 0.836175
Si Si4 0.980723 0.966829 0.157784
Si Si5 0.478081 0.964658 0.234826
Si Si6 0.991971 0.458525 0.587481
Si Si7 0.938052 0.534309 0.263101
Si Si8 0.638727 0.950810 0.012439
O O1 0.867992 0.250000 0.899603
O O2 0.697122 0.972402 0.842278
O O3 0.928184 0.975969 0.862503
O O4 0.000000 0.000000 0.000000
O O5 0.241025 0.250000 0.593174
O O6 0.418778 0.978824 0.673322
O O7 0.123364 0.971250 0.594807
O O8 0.169609 0.982396 0.506023
O O9 0.405474 0.250000 0.841695
O O10 0.413714 0.989744 0.776320
O O11 0.244098 0.979309 0.804638
O O12 0.560495 0.971293 0.923405
O O13 0.989655 0.750000 0.160223
O O14 0.017131 0.020417 0.235229
O O15 0.805113 0.035739 0.081466
O O16 0.469092 0.750000 0.233202
O O17 0.025031 0.250000 0.604812
O O18 0.996577 0.526154 0.652406
O O19 0.939866 0.750000 0.263312
O O20 0.671280 0.750000 0.037958
O O21 0.500000 0.000000 0.000000
#
# Coordination Sequence:
#
# PCOD9156006 Si02
#       8
#     4   4   4   4   4   4   4   4
#     4  10  20  35  53  72  95 125 165 203 237 277
#     4   9  16  28  46  69  97 125 154 191 237 285
#     4  10  17  29  47  67  93 123 156 191 233 280
#     4   9  18  31  48  68  91 123 160 197 234 279
#     4   9  17  30  51  73  93 127 166 196 232 288
#     4   9  16  27  46  70  95 123 156 192 236 286
#     4   9  15  27  47  67  91 124 155 186 230 284
#     4  11  20  30  44  65  93 123 155 192 237 283
#
# _framework density 20.336461
#
# number of rings (size 3 to 8) (size 9 to 14) (size 15 to 20)
#    0.000    2.500    2.500    1.125    0.000    0.000 
#    0.000    2.500    0.000    0.750    0.000    0.000 
#    0.000    0.000    0.000    0.000    0.000    0.000 
#
# Total GULP energy -178247.439901 kJ/mol
# GULP energy per Si atom -5570.232497 kJ/mol
# Density = 2.029017 g / cm^3
# Si number density = 20.336461 Si / 1000 Ang^3
#
#
#
# Elastic Constant Matrix: (Units=GPa)
#
#
# Indices 1 2 3 4 5 6 
#
# 1 98.1412 3.8401 38.7751 0.0000 -13.8993 0.0000
# 2 3.8401 37.8963 -10.6197 0.0000 -0.5378 0.0000
# 3 38.7751 -10.6197 112.6961 0.0000 -9.9811 0.0000
# 4 0.0000 0.0000 0.0000 20.0561 0.0000 -2.4641
# 5 -13.8993 -0.5378 -9.9811 0.0000 25.4183 0.0000
# 6 0.0000 0.0000 0.0000 -2.4641 0.0000 4.6689
#
#
#
# Elastic Compliance Matrix: (Units=1/GPa)
#
#
# Indices 1 2 3 4 5 6 
#
# 1 0.012649 -0.002359 -0.004109 0.000000 0.005253 0.000000
# 2 -0.002359 0.027609 0.003471 0.000000 0.000657 0.000000
# 3 -0.004109 0.003471 0.010797 0.000000 0.002066 0.000000
# 4 0.000000 0.000000 0.000000 0.053317 0.000000 0.028139
# 5 0.005253 0.000657 0.002066 0.000000 0.043040 0.000000
# 6 0.000000 0.000000 0.000000 0.028139 0.000000 0.229033
#
#
# Mechanical properties :
#
#
# Convention : Reuss Voigt Hill
#
# Bulk Modulus (GPa) = 22.19130 34.74716 28.46923
# Shear Modulus (GPa) = 12.57991 24.47789 18.52890
#
# Velocity S-wave (km/s) = 2.48984 3.47312 3.02175
# Velocity P-wave (km/s) = 4.38195 5.76252 5.11899
#
# Compressibility (1/GPa) = 0.04506271
#
# Stress axis : x y z
#
# Youngs Moduli (GPa) = 79.05619 36.22011 92.61491
#
# Poissons Ratio (x) = 0.08543 0.38057
# Poissons Ratio (y) = 0.18647 -0.32151
# Poissons Ratio (z) = 0.32486 -0.12574
#
# Static dielectric constant tensor:
#      x y z
#    x 1.735640 0.000000 -0.032370 
#    y 0.000000 1.779640 0.000000 
#    z -0.032370 0.000000 1.778190 
# 
# From -- ./inp_files/38985.got.cif
#   From: 2010.05.17/outbox.cif.g08.bks.cpg/sg11_20_cif.got.tgz:38985.got - 2010.06.03 12:22:45.
