data_PCOD9156937
_publ_section_title
;
Structure prediction by ZEFSAII (Michael W. Deem and Ramdas Pophale) SiO2 
 PCOD9156937
Probable space group: P 21/M
;
_chemical_formula_sum "Si O2"
_cell_formula_units_Z 30
_cell_length_a 7.153809
_cell_length_b 16.196245
_cell_length_c 11.492453
_cell_angle_alpha 90.000000
_cell_angle_beta 106.134047
_cell_angle_gamma 90.000000
_cell_volume 1279.126259
_symmetry_space_group_name_H-M "P 21/M"
_symmetry_group_IT_number 11
_symmetry_cell_setting 'monoclinic'
loop_
_space_group_symop_operation_xyz
x,y,z
-x,1/2+y,-z
-x,-y,-z
x,1/2-y,z
loop_
_atom_site_type_symbol
_atom_site_label
_atom_site_fract_x
_atom_site_fract_y
_atom_site_fract_z
Si Si1 0.073090 0.651563 0.394652
Si Si2 0.650467 0.401678 0.734747
Si Si3 0.297610 0.750000 0.081665
Si Si4 0.251694 0.155628 0.265037
Si Si5 0.269886 0.594966 0.911882
Si Si6 0.723501 0.154010 0.333704
Si Si7 0.303626 0.045026 0.079780
Si Si8 0.695110 0.651643 0.470363
O O1 0.112347 0.750000 0.381794
O O2 0.141097 0.603529 0.292840
O O3 0.193500 0.624582 0.529442
O O4 0.851726 0.643153 0.395238
O O5 0.634076 0.322103 0.813416
O O6 0.622487 0.480501 0.809892
O O7 0.494504 0.395121 0.604878
O O8 0.233509 0.676814 0.978756
O O9 0.186906 0.250000 0.248438
O O10 0.488779 0.153949 0.296064
O O11 0.219934 0.123372 0.390598
O O12 0.182530 0.108276 0.137791
O O13 0.207018 0.605653 0.767883
O O14 0.508658 0.587893 0.945700
O O15 0.204730 0.511393 0.964936
O O16 0.785189 0.250000 0.333352
O O17 0.651404 0.750000 0.477881
#
# Coordination Sequence:
#
# PCOD9156937 Si02
#       8
#     4   4   2   4   4   4   4   4
#     4  10  19  32  55  89 115 150 188 230 282 341
#     4  11  19  35  56  89 117 146 184 230 292 341
#     4  10  18  30  60  84 108 150 188 226 280 342
#     4   9  17  32  54  78 109 151 185 232 280 335
#     4   9  17  33  50  88 109 144 200 230 272 333
#     4   9  15  28  54  81 109 144 189 227 271 335
#     4   9  20  31  54  84 113 149 192 238 279 333
#     4  10  19  33  55  85 119 147 187 232 281 343
#
# _framework density 23.453510999999999
#
# number of rings (size 3 to 8) (size 9 to 14) (size 15 to 20)
#    0.000    2.400    3.333    0.000    0.933    0.533 
#    0.000    0.667    0.000    0.800   38.133    0.000 
#    0.000    0.000    0.000    0.000    0.000    0.000 
#
# Total GULP energy -167177.404942 kJ/mol
# GULP energy per Si atom -5572.580165 kJ/mol
# Density = 2.340013 g / cm^3
# Si number density = 23.453511 Si / 1000 Ang^3
#
#
#
# Elastic Constant Matrix: (Units=GPa)
#
#
# Indices 1 2 3 4 5 6 
#
# 1 56.0424 12.9823 23.1379 0.0000 -6.4411 0.0000
# 2 12.9823 67.0922 26.3930 0.0000 -0.0431 0.0000
# 3 23.1379 26.3930 80.0075 0.0000 -8.4961 0.0000
# 4 0.0000 0.0000 0.0000 25.6301 0.0000 -1.1504
# 5 -6.4411 -0.0431 -8.4961 0.0000 13.8091 0.0000
# 6 0.0000 0.0000 0.0000 -1.1504 0.0000 9.8569
#
#
#
# Elastic Compliance Matrix: (Units=1/GPa)
#
#
# Indices 1 2 3 4 5 6 
#
# 1 0.021072 -0.002261 -0.004606 0.000000 0.006988 0.000000
# 2 -0.002261 0.017545 -0.005606 0.000000 -0.004449 0.000000
# 3 -0.004606 -0.005606 0.016530 0.000000 0.008004 0.000000
# 4 0.000000 0.000000 0.000000 0.039222 0.000000 0.004578
# 5 0.006988 -0.004449 0.008004 0.000000 0.080586 0.000000
# 6 0.000000 0.000000 0.000000 0.004578 0.000000 0.101986
#
#
# Mechanical properties :
#
#
# Convention : Reuss Voigt Hill
#
# Bulk Modulus (GPa) = 33.11195 36.46320 34.78757
# Shear Modulus (GPa) = 16.02790 19.23447 17.63119
#
# Velocity S-wave (km/s) = 2.61701 2.86686 2.74478
# Velocity P-wave (km/s) = 4.82498 5.15163 4.99098
#
# Compressibility (1/GPa) = 0.03020058
#
# Stress axis : x y z
#
# Youngs Moduli (GPa) = 47.45585 56.99643 60.49483
#
# Poissons Ratio (x) = 0.12887 0.27865
# Poissons Ratio (y) = 0.10730 0.33916
# Poissons Ratio (z) = 0.21859 0.31954
#
# Static dielectric constant tensor:
#      x y z
#    x 1.957000 0.000000 -0.006390 
#    y 0.000000 1.886470 0.000000 
#    z -0.006390 0.000000 1.862790 
# 
# From -- ./inp_files/32254.got.cif
#   From: 2010.05.17/outbox.cif.g08.bks.cpg/sg11_17_cif.got.tgz:32254.got - 2010.06.03 12:22:45.
