data_PCOD9156227
_publ_section_title
;
Structure prediction by ZEFSAII (Michael W. Deem and Ramdas Pophale) SiO2 
 PCOD9156227
Probable space group: P 21/M
;
_chemical_formula_sum "Si O2"
_cell_formula_units_Z 28
_cell_length_a 14.042727
_cell_length_b 8.706558
_cell_length_c 28.561031
_cell_angle_alpha 90.000000
_cell_angle_beta 149.308224
_cell_angle_gamma 90.000000
_cell_volume 1782.375003
_symmetry_space_group_name_H-M "P 21/M"
_symmetry_group_IT_number 11
_symmetry_cell_setting 'monoclinic'
loop_
_space_group_symop_operation_xyz
x,y,z
-x,1/2+y,-z
-x,-y,-z
x,1/2-y,z
loop_
_atom_site_type_symbol
_atom_site_label
_atom_site_fract_x
_atom_site_fract_y
_atom_site_fract_z
Si Si1 0.217992 0.068813 0.400509
Si Si2 0.042296 0.434361 0.467054
Si Si3 0.821125 0.069755 0.283913
Si Si4 0.419244 0.066896 0.894911
Si Si5 0.601759 0.432763 0.433897
Si Si6 0.201741 0.437083 0.285559
Si Si7 0.786126 0.064476 0.101390
O O1 0.268548 0.250000 0.424577
O O2 0.222841 0.017611 0.348960
O O3 0.006915 0.055619 0.330471
O O4 0.343605 0.973640 0.489454
O O5 0.038925 0.250000 0.466215
O O6 0.243395 0.487767 0.532825
O O7 0.000000 0.500000 0.500000
O O8 0.888618 0.485958 0.363416
O O9 0.775762 0.250000 0.267898
O O10 0.656513 0.985432 0.187218
O O11 0.407799 0.250000 0.893564
O O12 0.289477 0.995516 0.880778
O O13 0.630593 0.019208 0.997454
O O14 0.613688 0.250000 0.432278
O O15 0.387798 0.485000 0.336863
O O16 0.201402 0.250000 0.285075
O O17 0.997912 0.488220 0.182329
O O18 0.788435 0.250000 0.104865
#
# Coordination Sequence:
#
# PCOD9156227 Si02
#       7
#     4   4   4   4   4   4   4
#     4   9  16  28  43  60  88 128 161 186 221 264
#     4  10  21  37  54  71  91 117 146 185 235 281
#     4   9  17  30  48  65  91 125 150 179 229 280
#     4  10  18  26  42  67  90 119 161 200 227 255
#     4  10  19  29  45  68  91 118 153 190 225 271
#     4   9  16  28  44  61  88 129 163 184 220 269
#     4   9  17  30  43  58  90 130 162 192 225 262
#
# _framework density 15.709377
#
# number of rings (size 3 to 8) (size 9 to 14) (size 15 to 20)
#    0.000    2.571    1.429    2.571    0.000    3.429 
#    0.000    2.143    0.000    0.000    0.000    1.000 
#    0.000    0.000    0.000    0.000    0.000    0.000 
#
# Total GULP energy -156017.496418 kJ/mol
# GULP energy per Si atom -5572.053443 kJ/mol
# Density = 1.567362 g / cm^3
# Si number density = 15.709377 Si / 1000 Ang^3
#
#
#
# Elastic Constant Matrix: (Units=GPa)
#
#
# Indices 1 2 3 4 5 6 
#
# 1 70.0423 17.9162 64.6328 0.0000 -6.1595 0.0000
# 2 17.9162 21.8194 29.3412 0.0000 -0.9042 0.0000
# 3 64.6328 29.3412 139.4733 0.0000 7.7274 0.0000
# 4 0.0000 0.0000 0.0000 22.0524 0.0000 -2.9758
# 5 -6.1595 -0.9042 7.7274 0.0000 19.6770 0.0000
# 6 0.0000 0.0000 0.0000 -2.9758 0.0000 18.4338
#
#
#
# Elastic Compliance Matrix: (Units=1/GPa)
#
#
# Indices 1 2 3 4 5 6 
#
# 1 0.028936 -0.005742 -0.012971 0.000000 0.013888 0.000000
# 2 -0.005742 0.066438 -0.011638 0.000000 0.005826 0.000000
# 3 -0.012971 -0.011638 0.016237 0.000000 -0.010971 0.000000
# 4 0.000000 0.000000 0.000000 0.046356 0.000000 0.007483
# 5 0.013888 0.005826 -0.010971 0.000000 0.059744 0.000000
# 6 0.000000 0.000000 0.000000 0.007483 0.000000 0.055456
#
#
# Mechanical properties :
#
#
# Convention : Reuss Voigt Hill
#
# Bulk Modulus (GPa) = 19.64327 50.56837 35.10582
# Shear Modulus (GPa) = 14.25153 19.99561 17.12357
#
# Velocity S-wave (km/s) = 3.01524 3.57157 3.30513
# Velocity P-wave (km/s) = 4.96524 7.01911 6.07953
#
# Compressibility (1/GPa) = 0.05090801
#
# Stress axis : x y z
#
# Youngs Moduli (GPa) = 34.55903 15.05166 61.58899
#
# Poissons Ratio (x) = 0.08643 0.79884
# Poissons Ratio (y) = 0.19845 0.71679
# Poissons Ratio (z) = 0.44825 0.17518
#
# Static dielectric constant tensor:
#      x y z
#    x 1.500000 0.000000 0.013400 
#    y 0.000000 1.529570 0.000000 
#    z 0.013400 0.000000 1.561120 
# 
# From -- ./inp_files/73276.got.cif
#   From: 2010.05.17/outbox.cif.g08.bks.cpg/sg11_37_cif.got.tgz:73276.got - 2010.06.03 12:22:45.
