data_PCOD9156963
_publ_section_title
;
Structure prediction by ZEFSAII (Michael W. Deem and Ramdas Pophale) SiO2 
 PCOD9156963
Probable space group: P 21/M
;
_chemical_formula_sum "Si O2"
_cell_formula_units_Z 24
_cell_length_a 12.110461
_cell_length_b 7.730693
_cell_length_c 14.334693
_cell_angle_alpha 90.000000
_cell_angle_beta 137.927227
_cell_angle_gamma 90.000000
_cell_volume 899.270272
_symmetry_space_group_name_H-M "P 21/M"
_symmetry_group_IT_number 11
_symmetry_cell_setting 'monoclinic'
loop_
_space_group_symop_operation_xyz
x,y,z
-x,1/2+y,-z
-x,-y,-z
x,1/2-y,z
loop_
_atom_site_type_symbol
_atom_site_label
_atom_site_fract_x
_atom_site_fract_y
_atom_site_fract_z
Si Si1 0.844770 0.038096 0.511922
Si Si2 0.253446 0.957907 0.355534
Si Si3 0.101044 0.045136 0.930525
Si Si4 0.790774 0.950756 0.264976
Si Si5 0.361397 0.456182 0.230122
Si Si6 0.554609 0.452954 0.915160
O O1 0.840742 0.250000 0.500253
O O2 0.730216 0.985655 0.526962
O O3 0.031978 0.984480 0.657566
O O4 0.813574 0.960002 0.391785
O O5 0.248364 0.750000 0.357421
O O6 0.073534 0.027447 0.209387
O O7 0.373822 0.000673 0.345967
O O8 0.078069 0.250000 0.924683
O O9 0.182419 0.978971 0.078075
O O10 0.257775 0.021317 0.958238
O O11 0.780791 0.750000 0.232043
O O12 0.608181 0.031892 0.138119
O O13 0.368689 0.250000 0.228225
O O14 0.472267 0.520793 0.214201
O O15 0.558357 0.250000 0.933349
#
# Coordination Sequence:
#
# PCOD9156963 Si02
#       6
#     4   4   4   4   4   4
#     4   9  19  33  53  74  93 123 158 197 240 282
#     4  10  18  31  49  72 100 126 157 193 235 284
#     4   8  17  30  46  71  99 128 156 191 234 277
#     4   9  18  35  53  71  94 122 160 200 238 279
#     4   9  18  30  47  72  99 128 158 192 233 278
#     4   9  17  30  50  70  93 128 162 192 230 282
#
# _framework density 26.688307999999999
#
# number of rings (size 3 to 8) (size 9 to 14) (size 15 to 20)
#    1.000    2.000    0.000    1.000    0.000    2.667 
#    0.000    1.667    0.000    0.000    0.000    0.000 
#    0.000    0.000    0.000    0.000    0.000    0.000 
#
# Total GULP energy -133932.271800 kJ/mol
# GULP energy per Si atom -5580.511325 kJ/mol
# Density = 2.662756 g / cm^3
# Si number density = 26.688308 Si / 1000 Ang^3
#
#
#
# Elastic Constant Matrix: (Units=GPa)
#
#
# Indices 1 2 3 4 5 6 
#
# 1 163.1858 7.4378 19.5536 0.0000 5.6138 0.0000
# 2 7.4378 66.4930 1.5370 0.0000 -19.2751 0.0000
# 3 19.5536 1.5370 84.0016 0.0000 8.9107 0.0000
# 4 0.0000 0.0000 0.0000 6.8348 0.0000 -16.4664
# 5 5.6138 -19.2751 8.9107 0.0000 47.3468 0.0000
# 6 0.0000 0.0000 0.0000 -16.4664 0.0000 29.3769
#
#
#
# Elastic Compliance Matrix: (Units=1/GPa)
#
#
# Indices 1 2 3 4 5 6 
#
# 1 0.006365 -0.000935 -0.001372 0.000000 -0.000877 0.000000
# 2 -0.000935 0.017283 -0.000874 0.000000 0.007311 0.000000
# 3 -0.001372 -0.000874 0.012510 0.000000 -0.002548 0.000000
# 4 0.000000 0.000000 0.000000 -0.417549 0.000000 -0.234045
# 5 -0.000877 0.007311 -0.002548 0.000000 0.024681 0.000000
# 6 0.000000 0.000000 0.000000 -0.234045 0.000000 -0.097147
#
#
# Mechanical properties :
#
#
# Convention : Reuss Voigt Hill
#
# Bulk Modulus (GPa) = 33.55943 41.19302 37.37623
# Shear Modulus (GPa) = -11.42691 35.72185 12.14747
#
# Velocity S-wave (km/s) = -2.07145 3.66250 2.13576
# Velocity P-wave (km/s) = 2.62310 5.77525 4.48521
#
# Compressibility (1/GPa) = 0.02979788
#
# Stress axis : x y z
#
# Youngs Moduli (GPa) = 157.10700 57.85903 79.93583
#
# Poissons Ratio (x) = 0.05407 0.10963
# Poissons Ratio (y) = 0.14682 0.06989
# Poissons Ratio (z) = 0.21547 0.05059
#
# Static dielectric constant tensor:
#      x y z
#    x 2.164890 0.000000 0.007310 
#    y 0.000000 1.951990 0.000000 
#    z 0.007310 0.000000 2.279310 
# 
# From -- ./inp_files/58778.got.cif
#   From: 2010.05.17/outbox.cif.g08.bks.cpg/sg11_30_cif.got.tgz:58778.got - 2010.06.03 12:22:45.
