data_PCOD9156274
_publ_section_title
;
Structure prediction by ZEFSAII (Michael W. Deem and Ramdas Pophale) SiO2 
 PCOD9156274
Probable space group: P 21/M
;
_chemical_formula_sum "Si O2"
_cell_formula_units_Z 28
_cell_length_a 16.659663
_cell_length_b 9.125012
_cell_length_c 18.156433
_cell_angle_alpha 90.000000
_cell_angle_beta 138.340749
_cell_angle_gamma 90.000000
_cell_volume 1834.658878
_symmetry_space_group_name_H-M "P 21/M"
_symmetry_group_IT_number 11
_symmetry_cell_setting 'monoclinic'
loop_
_space_group_symop_operation_xyz
x,y,z
-x,1/2+y,-z
-x,-y,-z
x,1/2-y,z
loop_
_atom_site_type_symbol
_atom_site_label
_atom_site_fract_x
_atom_site_fract_y
_atom_site_fract_z
Si Si1 0.175184 0.424448 0.159613
Si Si2 0.937374 0.926443 0.212287
Si Si3 0.807116 0.574534 0.574258
Si Si4 0.370650 0.425820 0.415302
Si Si5 0.873695 0.918306 0.328061
Si Si6 0.092567 0.923627 0.958769
Si Si7 0.835438 0.081980 0.445768
O O1 0.182775 0.250000 0.149891
O O2 0.284193 0.467972 0.287781
O O3 0.048307 0.448021 0.115425
O O4 0.167808 0.512790 0.078720
O O5 0.948484 0.750000 0.216828
O O6 0.862346 0.963122 0.235013
O O7 0.884211 0.991557 0.101041
O O8 0.069641 0.997804 0.313910
O O9 0.824929 0.750000 0.586050
O O10 0.701483 0.538309 0.559233
O O11 0.782732 0.515507 0.475507
O O12 0.500000 0.500000 0.500000
O O13 0.383728 0.250000 0.421928
O O14 0.834358 0.750000 0.310000
O O15 0.018889 0.920637 0.441820
O O16 0.815118 0.017856 0.350572
O O17 0.110296 0.750000 0.962236
O O18 0.796240 0.250000 0.425197
#
# Coordination Sequence:
#
# PCOD9156274 Si02
#       7
#     4   4   4   4   4   4   4
#     4   9  18  33  46  63  89 116 150 187 227 269
#     4  10  18  27  42  64  89 118 151 183 219 266
#     4  10  18  30  44  60  85 116 150 187 226 267
#     4  10  21  35  49  66  89 118 153 193 231 268
#     4   8  15  25  36  55  83 115 146 176 214 259
#     4  10  18  29  46  67  90 117 150 185 225 271
#     4   9  16  25  38  58  81 111 148 181 217 262
#
# _framework density 15.261692999999999
#
# number of rings (size 3 to 8) (size 9 to 14) (size 15 to 20)
#    0.000    2.571    1.429    2.571    0.000    6.286 
#    0.000    0.000    0.000    0.000    0.000    0.000 
#    0.000    1.143    0.000    3.714    0.000    4.857 
#
# Total GULP energy -156011.833157 kJ/mol
# GULP energy per Si atom -5571.851184 kJ/mol
# Density = 1.522696 g / cm^3
# Si number density = 15.261693 Si / 1000 Ang^3
#
#
#
# Elastic Constant Matrix: (Units=GPa)
#
#
# Indices 1 2 3 4 5 6 
#
# 1 96.8306 55.5202 57.9308 0.0000 -34.4824 0.0000
# 2 55.5202 64.6854 39.8080 0.0000 -20.8832 0.0000
# 3 57.9308 39.8080 72.6875 0.0000 -18.5473 0.0000
# 4 0.0000 0.0000 0.0000 21.6607 0.0000 -6.0463
# 5 -34.4824 -20.8832 -18.5473 0.0000 30.0184 0.0000
# 6 0.0000 0.0000 0.0000 -6.0463 0.0000 25.6162
#
#
#
# Elastic Compliance Matrix: (Units=1/GPa)
#
#
# Indices 1 2 3 4 5 6 
#
# 1 0.034370 -0.013841 -0.014478 0.000000 0.020907 0.000000
# 2 -0.013841 0.031660 -0.005633 0.000000 0.002646 0.000000
# 3 -0.014478 -0.005633 0.027468 0.000000 -0.003578 0.000000
# 4 0.000000 0.000000 0.000000 0.049423 0.000000 0.011666
# 5 0.020907 0.002646 -0.003578 0.000000 0.056959 0.000000
# 6 0.000000 0.000000 0.000000 0.011666 0.000000 0.041791
#
#
# Mechanical properties :
#
#
# Convention : Reuss Voigt Hill
#
# Bulk Modulus (GPa) = 39.06955 60.08017 49.57486
# Shear Modulus (GPa) = 15.71808 20.85535 18.28671
#
# Velocity S-wave (km/s) = 3.21269 3.70065 3.46527
# Velocity P-wave (km/s) = 6.27831 7.59683 6.96883
#
# Compressibility (1/GPa) = 0.02559538
#
# Stress axis : x y z
#
# Youngs Moduli (GPa) = 29.09515 31.58586 36.40618
#
# Poissons Ratio (x) = 0.43717 0.52707
# Poissons Ratio (y) = 0.40270 0.20507
# Poissons Ratio (z) = 0.42123 0.17792
#
# Static dielectric constant tensor:
#      x y z
#    x 1.507510 0.000000 -0.031280 
#    y 0.000000 1.511110 0.000000 
#    z -0.031280 0.000000 1.489920 
# 
# From -- ./inp_files/53292.got.cif
#   From: 2010.05.17/outbox.cif.g08.bks.cpg/sg11_27_cif.got.tgz:53292.got - 2010.06.03 12:22:45.
