data_PCOD9156920
_publ_section_title
;
Structure prediction by ZEFSAII (Michael W. Deem and Ramdas Pophale) SiO2 
 PCOD9156920
Probable space group: P 21/M
;
_chemical_formula_sum "Si O2"
_cell_formula_units_Z 32
_cell_length_a 14.109287
_cell_length_b 17.737672
_cell_length_c 13.494705
_cell_angle_alpha 90.000000
_cell_angle_beta 32.603341
_cell_angle_gamma 90.000000
_cell_volume 1819.737381
_symmetry_space_group_name_H-M "P 21/M"
_symmetry_group_IT_number 11
_symmetry_cell_setting 'monoclinic'
loop_
_space_group_symop_operation_xyz
x,y,z
-x,1/2+y,-z
-x,-y,-z
x,1/2-y,z
loop_
_atom_site_type_symbol
_atom_site_label
_atom_site_fract_x
_atom_site_fract_y
_atom_site_fract_z
Si Si1 0.064267 0.664813 0.372926
Si Si2 0.080691 0.045889 0.021149
Si Si3 0.549676 0.003322 0.761280
Si Si4 0.176738 0.966588 0.131748
Si Si5 0.200654 0.838206 0.649078
Si Si6 0.492311 0.049947 0.604420
Si Si7 0.165503 0.445736 0.334052
Si Si8 0.334171 0.835070 0.315049
O O1 0.049059 0.750000 0.351402
O O2 0.094835 0.604949 0.258746
O O3 0.224660 0.659628 0.310063
O O4 0.895216 0.637410 0.584094
O O5 0.957266 0.116398 0.159575
O O6 0.077693 0.993588 0.121745
O O7 0.287796 0.063534 0.815864
O O8 0.000000 0.000000 0.000000
O O9 0.587134 0.004685 0.611196
O O10 0.535802 0.093750 0.794879
O O11 0.688019 0.973056 0.718391
O O12 0.377401 0.953303 0.925332
O O13 0.198580 0.035135 0.191244
O O14 0.193583 0.750000 0.679222
O O15 0.387371 0.876042 0.514804
O O16 0.205150 0.844725 0.524194
O O17 0.500000 0.000000 0.500000
O O18 0.000000 0.500000 0.500000
O O19 0.409051 0.750000 0.256784
#
# Coordination Sequence:
#
# PCOD9156920 Si02
#       8
#     4   4   4   4   4   4   4   4
#     4  10  20  33  51  78 112 148 187 224 273 332
#     4  11  22  37  61  89 112 151 203 236 285 349
#     4  10  19  33  54  83 107 144 186 228 276 340
#     4  10  21  34  56  82 109 146 189 233 280 337
#     4  10  21  37  60  87 120 149 184 246 300 335
#     4  10  21  36  59  86 114 148 192 240 288 343
#     4  10  18  30  53  78 106 145 187 222 267 334
#     4   9  17  31  52  81 114 147 177 226 286 333
#
# _framework density 17.584954
#
# number of rings (size 3 to 8) (size 9 to 14) (size 15 to 20)
#    0.000    2.000    3.750    1.125    5.250    0.500 
#    0.000    3.750    0.000    2.250    0.000    0.000 
#    0.000    0.000    0.000    0.000    0.000    0.000 
#
# Total GULP energy -178135.505244 kJ/mol
# GULP energy per Si atom -5566.734539 kJ/mol
# Density = 1.754493 g / cm^3
# Si number density = 17.584954 Si / 1000 Ang^3
#
#
#
# Elastic Constant Matrix: (Units=GPa)
#
#
# Indices 1 2 3 4 5 6 
#
# 1 124.6874 47.8499 25.6456 0.0000 12.2071 0.0000
# 2 47.8499 113.3485 48.3521 0.0000 11.0960 0.0000
# 3 25.6456 48.3521 66.0245 0.0000 6.8920 0.0000
# 4 0.0000 0.0000 0.0000 22.4033 0.0000 0.7389
# 5 12.2071 11.0960 6.8920 0.0000 24.1335 0.0000
# 6 0.0000 0.0000 0.0000 0.7389 0.0000 20.3815
#
#
#
# Elastic Compliance Matrix: (Units=1/GPa)
#
#
# Indices 1 2 3 4 5 6 
#
# 1 0.009845 -0.003430 -0.000987 0.000000 -0.003121 0.000000
# 2 -0.003430 0.014288 -0.008892 0.000000 -0.002295 0.000000
# 3 -0.000987 -0.008892 0.022225 0.000000 -0.001760 0.000000
# 4 0.000000 0.000000 0.000000 0.044690 0.000000 -0.001620
# 5 -0.003121 -0.002295 -0.001760 0.000000 0.044573 0.000000
# 6 0.000000 0.000000 0.000000 -0.001620 0.000000 0.049123
#
#
# Mechanical properties :
#
#
# Convention : Reuss Voigt Hill
#
# Bulk Modulus (GPa) = 50.65528 60.86174 55.75851
# Shear Modulus (GPa) = 22.94224 25.53117 24.23670
#
# Velocity S-wave (km/s) = 3.61591 3.81448 3.71652
# Velocity P-wave (km/s) = 6.80453 7.35429 7.08475
#
# Compressibility (1/GPa) = 0.01974128
#
# Stress axis : x y z
#
# Youngs Moduli (GPa) = 101.57817 69.98948 44.99523
#
# Poissons Ratio (x) = 0.24003 0.04439
# Poissons Ratio (y) = 0.34836 0.40009
# Poissons Ratio (z) = 0.10021 0.62233
#
# Static dielectric constant tensor:
#      x y z
#    x 2.031940 0.000000 0.368610 
#    y 0.000000 1.995580 0.000000 
#    z 0.368610 0.000000 1.945310 
# 
# From -- ./inp_files/52571.got.cif
#   From: 2010.05.17/outbox.cif.g08.bks.cpg/sg11_27_cif.got.tgz:52571.got - 2010.06.03 12:22:45.
