data_PCOD9156318
_publ_section_title
;
Structure prediction by ZEFSAII (Michael W. Deem and Ramdas Pophale) SiO2 
 PCOD9156318
Probable space group: P 21/M
;
_chemical_formula_sum "Si O2"
_cell_formula_units_Z 32
_cell_length_a 29.597656
_cell_length_b 8.848403
_cell_length_c 13.855122
_cell_angle_alpha 90.000000
_cell_angle_beta 35.856974
_cell_angle_gamma 90.000000
_cell_volume 2125.470912
_symmetry_space_group_name_H-M "P 21/M"
_symmetry_group_IT_number 11
_symmetry_cell_setting 'monoclinic'
loop_
_space_group_symop_operation_xyz
x,y,z
-x,1/2+y,-z
-x,-y,-z
x,1/2-y,z
loop_
_atom_site_type_symbol
_atom_site_label
_atom_site_fract_x
_atom_site_fract_y
_atom_site_fract_z
Si Si1 0.667809 0.431370 0.313149
Si Si2 0.491572 0.068527 0.407545
Si Si3 0.083353 0.425957 0.252559
Si Si4 0.337823 0.568896 0.904610
Si Si5 0.811589 0.932468 0.750002
Si Si6 0.030086 0.931937 0.047367
Si Si7 0.824101 0.926500 0.108640
Si Si8 0.943304 0.568717 0.390968
O O1 0.665861 0.250000 0.319230
O O2 0.587763 0.497984 0.492658
O O3 0.673346 0.477072 0.189261
O O4 0.741515 0.494958 0.241428
O O5 0.514939 0.750000 0.576195
O O6 0.500000 0.000000 0.500000
O O7 0.574306 0.030976 0.217142
O O8 0.063536 0.250000 0.302901
O O9 0.133787 0.480225 0.254998
O O10 0.006385 0.515917 0.360124
O O11 0.136747 0.435481 0.065118
O O12 0.330466 0.750000 0.919280
O O13 0.272346 0.497665 0.084235
O O14 0.806711 0.750000 0.760296
O O15 0.858747 0.980105 0.572928
O O16 0.030401 0.750000 0.043326
O O17 0.974433 0.981910 0.232786
O O18 0.115300 0.991969 0.926034
O O19 0.000000 0.000000 0.000000
O O20 0.816369 0.750000 0.147217
O O21 0.943573 0.750000 0.389496
#
# Coordination Sequence:
#
# PCOD9156318 Si02
#       8
#     4   4   4   4   4   4   4   4
#     4  10  18  28  42  62  87 117 153 188 221 258
#     4   9  17  28  40  57  82 115 154 190 223 258
#     4   9  17  27  40  60  85 114 147 178 212 255
#     4   9  18  28  39  58  85 119 154 185 219 254
#     4  10  18  28  41  60  86 116 149 182 215 255
#     4  10  20  35  51  67  88 114 145 185 229 273
#     4  10  18  29  46  68  90 116 148 184 223 263
#     4   9  19  31  44  62  84 111 144 182 222 261
#
# _framework density 15.055488
#
# number of rings (size 3 to 8) (size 9 to 14) (size 15 to 20)
#    0.000    2.500    1.250    2.625    0.000    4.500 
#    0.000    0.000    0.000    0.000    0.000    0.000 
#    0.000    1.000    0.000    3.000    0.000    4.625 
#
# Total GULP energy -178278.710339 kJ/mol
# GULP energy per Si atom -5571.209698 kJ/mol
# Density = 1.502122 g / cm^3
# Si number density = 15.055488 Si / 1000 Ang^3
#
#
#
# Elastic Constant Matrix: (Units=GPa)
#
#
# Indices 1 2 3 4 5 6 
#
# 1 69.3762 30.6875 51.6695 0.0000 -15.7627 0.0000
# 2 30.6875 40.3557 40.9813 0.0000 -10.3760 0.0000
# 3 51.6695 40.9813 134.2038 0.0000 -28.6441 0.0000
# 4 0.0000 0.0000 0.0000 24.8351 0.0000 -7.6818
# 5 -15.7627 -10.3760 -28.6441 0.0000 18.1465 0.0000
# 6 0.0000 0.0000 0.0000 -7.6818 0.0000 19.7980
#
#
#
# Elastic Compliance Matrix: (Units=1/GPa)
#
#
# Indices 1 2 3 4 5 6 
#
# 1 0.024845 -0.012835 -0.003931 0.000000 0.008038 0.000000
# 2 -0.012835 0.042835 -0.007979 0.000000 0.000749 0.000000
# 3 -0.003931 -0.007979 0.014626 0.000000 0.015111 0.000000
# 4 0.000000 0.000000 0.000000 0.045757 0.000000 0.017754
# 5 0.008038 0.000749 0.015111 0.000000 0.086370 0.000000
# 6 0.000000 0.000000 0.000000 0.017754 0.000000 0.057399
#
#
# Mechanical properties :
#
#
# Convention : Reuss Voigt Hill
#
# Bulk Modulus (GPa) = 30.47116 54.51248 42.49182
# Shear Modulus (GPa) = 15.04844 20.59575 17.82210
#
# Velocity S-wave (km/s) = 3.16497 3.70265 3.44432
# Velocity P-wave (km/s) = 5.79993 7.38687 6.64097
#
# Compressibility (1/GPa) = 0.03281792
#
# Stress axis : x y z
#
# Youngs Moduli (GPa) = 40.24936 23.34561 68.36918
#
# Poissons Ratio (x) = 0.29963 0.26874
# Poissons Ratio (y) = 0.51658 0.54551
# Poissons Ratio (z) = 0.15821 0.18627
#
# Static dielectric constant tensor:
#      x y z
#    x 1.478400 0.000000 -0.011060 
#    y 0.000000 1.513110 0.000000 
#    z -0.011060 0.000000 1.533160 
# 
# From -- ./inp_files/56006.got.cif
#   From: 2010.05.17/outbox.cif.g08.bks.cpg/sg11_29_cif.got.tgz:56006.got - 2010.06.03 12:22:45.
