data_PCOD9156026
_publ_section_title
;
Structure prediction by ZEFSAII (Michael W. Deem and Ramdas Pophale) SiO2 
 PCOD9156026
Probable space group: P 21/M
;
_chemical_formula_sum "Si O2"
_cell_formula_units_Z 28
_cell_length_a 7.875155
_cell_length_b 28.997079
_cell_length_c 5.562832
_cell_angle_alpha 90.000000
_cell_angle_beta 59.133268
_cell_angle_gamma 90.000000
_cell_volume 1090.385998
_symmetry_space_group_name_H-M "P 21/M"
_symmetry_group_IT_number 11
_symmetry_cell_setting 'monoclinic'
loop_
_space_group_symop_operation_xyz
x,y,z
-x,1/2+y,-z
-x,-y,-z
x,1/2-y,z
loop_
_atom_site_type_symbol
_atom_site_label
_atom_site_fract_x
_atom_site_fract_y
_atom_site_fract_z
Si Si1 0.980524 0.696126 0.046133
Si Si2 0.312611 0.502822 0.377666
Si Si3 0.449792 0.199070 0.131823
Si Si4 0.962078 0.850780 0.558163
Si Si5 0.506904 0.676726 0.400874
Si Si6 0.403564 0.428278 0.676866
Si Si7 0.043394 0.052032 0.228479
O O1 0.030778 0.750000 0.020774
O O2 0.039573 0.673067 0.748132
O O3 0.034726 0.669053 0.251360
O O4 0.737683 0.693094 0.224876
O O5 0.407712 0.458560 0.434106
O O6 0.473142 0.542133 0.218502
O O7 0.178035 0.486506 0.258255
O O8 0.161559 0.527155 0.677715
O O9 0.354606 0.250000 0.198957
O O10 0.570842 0.194956 0.289764
O O11 0.275467 0.160886 0.265041
O O12 0.569934 0.193344 0.799683
O O13 0.994267 0.905310 0.563535
O O14 0.507081 0.621774 0.409131
O O15 0.174904 0.426127 0.922817
#
# Coordination Sequence:
#
# PCOD9156026 Si02
#       7
#     4   4   4   4   4   4   4
#     4  10  17  29  49  85 115 149 198 243 293 357
#     4  10  24  38  60  86 114 164 196 254 300 364
#     4  10  17  29  49  85 115 149 198 243 293 357
#     4  10  18  29  52  78 118 149 188 252 288 350
#     4  10  18  29  52  78 118 149 188 252 288 350
#     4  11  21  39  59  85 122 152 207 243 308 353
#     4  11  21  39  59  85 122 152 207 243 308 353
#
# _framework density 25.678979000000002
#
# number of rings (size 3 to 8) (size 9 to 14) (size 15 to 20)
#    0.000    1.714    2.857    6.857    0.000    0.000 
#    0.000    0.000    0.000    0.000    0.000   11.000 
#    0.000    0.000    0.000    0.000    0.000    0.000 
#
# Total GULP energy -156709.238719 kJ/mol
# GULP energy per Si atom -5596.758526 kJ/mol
# Density = 2.562053 g / cm^3
# Si number density = 25.678979 Si / 1000 Ang^3
#
#
#
# Elastic Constant Matrix: (Units=GPa)
#
#
# Indices 1 2 3 4 5 6 
#
# 1 84.1293 13.2602 31.5060 0.0000 13.0564 0.0000
# 2 13.2602 145.3095 21.0179 0.0000 7.1854 0.0000
# 3 31.5060 21.0179 144.5144 0.0000 33.2979 0.0000
# 4 0.0000 0.0000 0.0000 25.2079 0.0000 7.0702
# 5 13.0564 7.1854 33.2979 0.0000 45.4399 0.0000
# 6 0.0000 0.0000 0.0000 7.0702 0.0000 16.1454
#
#
#
# Elastic Compliance Matrix: (Units=1/GPa)
#
#
# Indices 1 2 3 4 5 6 
#
# 1 0.013178 -0.000771 -0.002306 0.000000 -0.001975 0.000000
# 2 -0.000771 0.007082 -0.000788 0.000000 -0.000321 0.000000
# 3 -0.002306 -0.000788 0.008850 0.000000 -0.005698 0.000000
# 4 0.000000 0.000000 0.000000 0.045225 0.000000 -0.019804
# 5 -0.001975 -0.000321 -0.005698 0.000000 0.026801 0.000000
# 6 0.000000 0.000000 0.000000 -0.019804 0.000000 0.070609
#
#
# Mechanical properties :
#
#
# Convention : Reuss Voigt Hill
#
# Bulk Modulus (GPa) = 46.77290 56.16906 51.47098
# Shear Modulus (GPa) = 26.79508 37.90326 32.34917
#
# Velocity S-wave (km/s) = 3.23377 3.84610 3.55315
# Velocity P-wave (km/s) = 5.67425 6.45324 6.07624
#
# Compressibility (1/GPa) = 0.02137990
#
# Stress axis : x y z
#
# Youngs Moduli (GPa) = 75.88384 141.20132 112.99575
#
# Poissons Ratio (x) = 0.10892 0.26054
# Poissons Ratio (y) = 0.05854 0.08903
# Poissons Ratio (z) = 0.17497 0.11125
#
# Static dielectric constant tensor:
#      x y z
#    x 2.059540 0.000000 -0.018570 
#    y 0.000000 1.936380 0.000000 
#    z -0.018570 0.000000 2.154890 
# 
# From -- ./inp_files/3333.got.cif
#   From: 2010.05.17/outbox.cif.g08.bks.cpg/sg11_2_cif.got.tgz:3333.got - 2010.06.03 12:22:45.
