data_PCOD9156898
_publ_section_title
;
Structure prediction by ZEFSAII (Michael W. Deem and Ramdas Pophale) SiO2 
 PCOD9156898
Probable space group: P 21/M
;
_chemical_formula_sum "Si O2"
_cell_formula_units_Z 32
_cell_length_a 26.038111
_cell_length_b 8.579060
_cell_length_c 20.973218
_cell_angle_alpha 90.000000
_cell_angle_beta 22.738703
_cell_angle_gamma 90.000000
_cell_volume 1810.908356
_symmetry_space_group_name_H-M "P 21/M"
_symmetry_group_IT_number 11
_symmetry_cell_setting 'monoclinic'
loop_
_space_group_symop_operation_xyz
x,y,z
-x,1/2+y,-z
-x,-y,-z
x,1/2-y,z
loop_
_atom_site_type_symbol
_atom_site_label
_atom_site_fract_x
_atom_site_fract_y
_atom_site_fract_z
Si Si1 0.087694 0.562623 0.551548
Si Si2 0.680204 0.061603 0.468950
Si Si3 0.124800 0.436627 0.646629
Si Si4 0.853094 0.062385 0.652826
Si Si5 0.145894 0.561626 0.850034
Si Si6 0.169233 0.561698 0.968576
Si Si7 0.791846 0.437438 0.859295
Si Si8 0.376966 0.063265 0.832894
O O1 0.083674 0.750000 0.559330
O O2 0.142542 0.496250 0.554513
O O3 0.170643 0.514333 0.393168
O O4 0.936681 0.501432 0.714625
O O5 0.681620 0.250000 0.467957
O O6 0.750952 0.010098 0.322354
O O7 0.527882 0.009787 0.648782
O O8 0.767484 0.002342 0.427909
O O9 0.129331 0.250000 0.642418
O O10 0.977269 0.485199 0.839087
O O11 0.855934 0.250000 0.649659
O O12 0.769037 0.015154 0.811291
O O13 0.000000 0.000000 0.500000
O O14 0.141001 0.750000 0.855245
O O15 0.183492 0.512945 0.878621
O O16 0.000000 0.500000 0.000000
O O17 0.176014 0.750000 0.964070
O O18 0.280742 0.493217 0.886702
O O19 0.796844 0.250000 0.857480
O O20 0.683047 0.499870 0.032461
O O21 0.375230 0.250000 0.836762
#
# Coordination Sequence:
#
# PCOD9156898 Si02
#       8
#     4   4   4   4   4   4   4   4
#     4  10  18  30  51  79 109 141 177 222 268 316
#     4  10  23  40  57  79 109 143 182 225 270 322
#     4  11  21  34  55  83 111 141 180 224 270 321
#     4   8  16  28  45  73 106 138 175 217 266 314
#     4  10  20  37  59  81 107 138 176 223 271 320
#     4  10  21  36  56  82 110 139 176 223 270 320
#     4  10  18  31  51  76 108 144 179 221 267 316
#     4  11  23  37  54  80 111 146 184 221 267 323
#
# _framework density 17.670688999999999
#
# number of rings (size 3 to 8) (size 9 to 14) (size 15 to 20)
#    0.000    2.000    2.500    1.500    0.000    3.500 
#    0.000    0.000    0.000    0.750    0.000    0.000 
#    0.000    0.000    0.000    0.000    0.000    0.000 
#
# Total GULP energy -178505.758392 kJ/mol
# GULP energy per Si atom -5578.304950 kJ/mol
# Density = 1.763047 g / cm^3
# Si number density = 17.670689 Si / 1000 Ang^3
#
#
#
# Elastic Constant Matrix: (Units=GPa)
#
#
# Indices 1 2 3 4 5 6 
#
# 1 161.6651 26.4609 99.5497 0.0000 29.5929 0.0000
# 2 26.4609 17.6070 26.9435 0.0000 3.1199 0.0000
# 3 99.5497 26.9435 138.3103 0.0000 15.4555 0.0000
# 4 0.0000 0.0000 0.0000 17.7814 0.0000 0.3080
# 5 29.5929 3.1199 15.4555 0.0000 36.4787 0.0000
# 6 0.0000 0.0000 0.0000 0.3080 0.0000 26.9763
#
#
#
# Elastic Compliance Matrix: (Units=1/GPa)
#
#
# Indices 1 2 3 4 5 6 
#
# 1 0.013120 -0.007442 -0.007217 0.000000 -0.006949 0.000000
# 2 -0.007442 0.085141 -0.011641 0.000000 0.003688 0.000000
# 3 -0.007217 -0.011641 0.014619 0.000000 0.000656 0.000000
# 4 0.000000 0.000000 0.000000 0.056250 0.000000 -0.000642
# 5 -0.006949 0.003688 0.000656 0.000000 0.032457 0.000000
# 6 0.000000 0.000000 0.000000 -0.000642 0.000000 0.037077
#
#
# Mechanical properties :
#
#
# Convention : Reuss Voigt Hill
#
# Bulk Modulus (GPa) = 16.58955 69.27673 42.93314
# Shear Modulus (GPa) = 16.05877 27.22251 21.64064
#
# Velocity S-wave (km/s) = 3.01787 3.92924 3.50332
# Velocity P-wave (km/s) = 4.64241 7.73787 6.38070
#
# Compressibility (1/GPa) = 0.06027892
#
# Stress axis : x y z
#
# Youngs Moduli (GPa) = 76.22185 11.74524 68.40522
#
# Poissons Ratio (x) = 0.08741 0.49365
# Poissons Ratio (y) = 0.56726 0.79633
# Poissons Ratio (z) = 0.55006 0.13673
#
# Static dielectric constant tensor:
#      x y z
#    x 1.601130 0.000000 0.042940 
#    y 0.000000 1.598690 0.000000 
#    z 0.042940 0.000000 1.595530 
# 
# From -- ./inp_files/67093.got.cif
#   From: 2010.05.17/outbox.cif.g08.bks.cpg/sg11_34_cif.got.tgz:67093.got - 2010.06.03 12:22:45.
