data_PCOD9156860
_publ_section_title
;
Structure prediction by ZEFSAII (Michael W. Deem and Ramdas Pophale) SiO2 
 PCOD9156860
Probable space group: P 21/M
;
_chemical_formula_sum "Si O2"
_cell_formula_units_Z 32
_cell_length_a 25.584469
_cell_length_b 7.744458
_cell_length_c 18.693106
_cell_angle_alpha 90.000000
_cell_angle_beta 156.250750
_cell_angle_gamma 90.000000
_cell_volume 1491.653546
_symmetry_space_group_name_H-M "P 21/M"
_symmetry_group_IT_number 11
_symmetry_cell_setting 'monoclinic'
loop_
_space_group_symop_operation_xyz
x,y,z
-x,1/2+y,-z
-x,-y,-z
x,1/2-y,z
loop_
_atom_site_type_symbol
_atom_site_label
_atom_site_fract_x
_atom_site_fract_y
_atom_site_fract_z
Si Si1 0.132333 0.447725 0.969772
Si Si2 0.589420 0.542245 0.423278
Si Si3 0.672828 0.956229 0.083127
Si Si4 0.618806 0.452306 0.299894
Si Si5 0.921642 0.053609 0.471950
Si Si6 0.287305 0.955538 0.028638
Si Si7 0.358007 0.458617 0.354057
Si Si8 0.107271 0.535587 0.408894
O O1 0.113319 0.250000 0.969430
O O2 0.990444 0.522815 0.776079
O O3 0.197917 0.450873 0.973592
O O4 0.239490 0.526609 0.157098
O O5 0.600496 0.750000 0.433234
O O6 0.639065 0.469603 0.410585
O O7 0.436260 0.500608 0.234118
O O8 0.650014 0.481904 0.573751
O O9 0.672887 0.750000 0.092840
O O10 0.770017 0.036641 0.261880
O O11 0.524460 0.024031 0.897791
O O12 0.728955 0.994649 0.074298
O O13 0.611239 0.250000 0.272889
O O14 0.745609 0.522852 0.420020
O O15 0.958821 0.250000 0.528877
O O16 0.940296 0.970590 0.573029
O O17 0.000000 0.000000 0.500000
O O18 0.269824 0.750000 0.014261
O O19 0.500000 0.500000 0.500000
O O20 0.351281 0.250000 0.345668
O O21 0.106959 0.750000 0.407733
#
# Coordination Sequence:
#
# PCOD9156860 Si02
#       8
#     4   4   4   4   4   4   4   4
#     4  10  19  32  53  77 105 142 180 219 271 327
#     4   9  18  32  49  75 110 140 170 219 272 317
#     4  10  20  34  54  80 107 138 182 225 263 316
#     4   9  19  37  58  76 100 141 188 225 260 313
#     4  11  22  37  58  83 114 144 173 218 274 325
#     4  10  18  30  50  76 109 142 174 218 271 324
#     4  10  19  31  50  79 112 142 174 218 272 326
#     4   9  20  38  56  76 104 140 181 223 266 318
#
# _framework density 21.452701999999999
#
# number of rings (size 3 to 8) (size 9 to 14) (size 15 to 20)
#    0.000    2.250    1.250    1.875    0.000    3.000 
#    0.000    3.125    0.000    0.000    0.000    0.000 
#    0.000    0.000    0.000    0.000    0.000    0.000 
#
# Total GULP energy -178575.449815 kJ/mol
# GULP energy per Si atom -5580.482807 kJ/mol
# Density = 2.140388 g / cm^3
# Si number density = 21.452702 Si / 1000 Ang^3
#
#
#
# Elastic Constant Matrix: (Units=GPa)
#
#
# Indices 1 2 3 4 5 6 
#
# 1 51.4878 -1.9953 41.2252 0.0000 -2.4806 0.0000
# 2 -1.9953 28.4501 -6.6481 0.0000 4.4531 0.0000
# 3 41.2252 -6.6481 109.2076 0.0000 -17.0729 0.0000
# 4 0.0000 0.0000 0.0000 13.8212 0.0000 -2.4840
# 5 -2.4806 4.4531 -17.0729 0.0000 35.3006 0.0000
# 6 0.0000 0.0000 0.0000 -2.4840 0.0000 13.1533
#
#
#
# Elastic Compliance Matrix: (Units=1/GPa)
#
#
# Indices 1 2 3 4 5 6 
#
# 1 0.028214 -0.000102 -0.011191 0.000000 -0.003417 0.000000
# 2 -0.000102 0.036117 0.001648 0.000000 -0.003766 0.000000
# 3 -0.011191 0.001648 0.014416 0.000000 0.005978 0.000000
# 4 0.000000 0.000000 0.000000 0.074895 0.000000 0.014144
# 5 -0.003417 -0.003766 0.005978 0.000000 0.031454 0.000000
# 6 0.000000 0.000000 0.000000 0.014144 0.000000 0.078698
#
#
# Mechanical properties :
#
#
# Convention : Reuss Voigt Hill
#
# Bulk Modulus (GPa) = 16.81849 28.25658 22.53753
# Shear Modulus (GPa) = 16.50701 22.89258 19.69980
#
# Velocity S-wave (km/s) = 2.77692 3.27022 3.03362
# Velocity P-wave (km/s) = 4.25894 5.24016 4.77482
#
# Compressibility (1/GPa) = 0.05945839
#
# Stress axis : x y z
#
# Youngs Moduli (GPa) = 35.44361 27.68797 69.36603
#
# Poissons Ratio (x) = 0.00281 0.77627
# Poissons Ratio (y) = 0.00360 -0.11433
# Poissons Ratio (z) = 0.39665 -0.04564
#
# Static dielectric constant tensor:
#      x y z
#    x 1.782760 0.000000 -0.008960 
#    y 0.000000 1.792020 0.000000 
#    z -0.008960 0.000000 1.815040 
# 
# From -- ./inp_files/67125.got.cif
#   From: 2010.05.17/outbox.cif.g08.bks.cpg/sg11_34_cif.got.tgz:67125.got - 2010.06.03 12:22:45.
