data_PCOD9156687
_publ_section_title
;
Structure prediction by ZEFSAII (Michael W. Deem and Ramdas Pophale) SiO2 
 PCOD9156687
Probable space group: P 21/M
;
_chemical_formula_sum "Si O2"
_cell_formula_units_Z 32
_cell_length_a 16.021903
_cell_length_b 7.560737
_cell_length_c 14.828442
_cell_angle_alpha 90.000000
_cell_angle_beta 91.940629
_cell_angle_gamma 90.000000
_cell_volume 1795.248585
_symmetry_space_group_name_H-M "P 21/M"
_symmetry_group_IT_number 11
_symmetry_cell_setting 'monoclinic'
loop_
_space_group_symop_operation_xyz
x,y,z
-x,1/2+y,-z
-x,-y,-z
x,1/2-y,z
loop_
_atom_site_type_symbol
_atom_site_label
_atom_site_fract_x
_atom_site_fract_y
_atom_site_fract_z
Si Si1 0.197398 0.456102 0.083420
Si Si2 0.677034 0.956337 0.223378
Si Si3 0.393795 0.457325 0.401119
Si Si4 0.015826 0.540419 0.106156
Si Si5 0.834905 0.532136 0.121430
Si Si6 0.410595 0.465808 0.600095
Si Si7 0.483433 0.539828 0.894854
Si Si8 0.351734 0.032244 0.206360
O O1 0.217140 0.250000 0.071295
O O2 0.272999 0.529660 0.144957
O O3 0.107618 0.467687 0.129095
O O4 0.186777 0.528537 0.981528
O O5 0.693586 0.750000 0.241445
O O6 0.762386 0.029884 0.185274
O O7 0.641333 0.030153 0.315771
O O8 0.603235 0.966816 0.146830
O O9 0.373028 0.250000 0.404296
O O10 0.378046 0.528278 0.501116
O O11 0.493306 0.475503 0.388782
O O12 0.350604 0.529856 0.309833
O O13 0.021057 0.750000 0.118358
O O14 0.929697 0.477191 0.148404
O O15 0.000000 0.500000 0.000000
O O16 0.835229 0.750000 0.119768
O O17 0.411790 0.250000 0.600339
O O18 0.478566 0.750000 0.884059
O O19 0.562127 0.476711 0.838485
O O20 0.500000 0.500000 0.000000
O O21 0.351816 0.250000 0.207618
#
# Coordination Sequence:
#
# PCOD9156687 Si02
#       8
#     4   4   4   4   4   4   4   4
#     4   9  16  28  44  61  80 110 145 177 210 249
#     4  10  18  30  45  64  87 114 146 179 212 255
#     4   9  16  29  45  62  85 114 145 178 217 261
#     4   9  16  28  44  62  82 108 138 174 215 254
#     4   8  15  27  43  59  83 113 139 168 211 259
#     4   9  17  27  44  66  86 108 142 187 221 244
#     4  11  21  32  43  59  85 121 151 176 207 249
#     4   9  17  29  45  61  84 118 149 171 210 263
#
# _framework density 17.824829000000001
#
# number of rings (size 3 to 8) (size 9 to 14) (size 15 to 20)
#    0.000    2.750    1.250    2.250    0.000    2.000 
#    0.000    7.500    0.000    0.000    0.000    0.875 
#    0.000    0.000    0.000    0.000    0.000    0.000 
#
# Total GULP energy -178326.439576 kJ/mol
# GULP energy per Si atom -5572.701237 kJ/mol
# Density = 1.778426 g / cm^3
# Si number density = 17.824829 Si / 1000 Ang^3
#
#
#
# Elastic Constant Matrix: (Units=GPa)
#
#
# Indices 1 2 3 4 5 6 
#
# 1 63.0293 -13.0110 20.7215 0.0000 -24.8533 0.0000
# 2 -13.0110 38.2770 -6.5007 0.0000 1.7168 0.0000
# 3 20.7215 -6.5007 96.9086 0.0000 -18.0333 0.0000
# 4 0.0000 0.0000 0.0000 6.0238 0.0000 -0.3041
# 5 -24.8533 1.7168 -18.0333 0.0000 20.9431 0.0000
# 6 0.0000 0.0000 0.0000 -0.3041 0.0000 15.1299
#
#
#
# Elastic Compliance Matrix: (Units=1/GPa)
#
#
# Indices 1 2 3 4 5 6 
#
# 1 0.032979 0.009604 0.000868 0.000000 0.039097 0.000000
# 2 0.009604 0.029233 0.001884 0.000000 0.010623 0.000000
# 3 0.000868 0.001884 0.012411 0.000000 0.011562 0.000000
# 4 0.000000 0.000000 0.000000 0.166177 0.000000 0.003340
# 5 0.039097 0.010623 0.011562 0.000000 0.103230 0.000000
# 6 0.000000 0.000000 0.000000 0.003340 0.000000 0.066161
#
#
# Mechanical properties :
#
#
# Convention : Reuss Voigt Hill
#
# Bulk Modulus (GPa) = 10.06685 22.29273 16.17979
# Shear Modulus (GPa) = 11.94480 21.55304 16.74892
#
# Velocity S-wave (km/s) = 2.59148 3.48107 3.06868
# Velocity P-wave (km/s) = 3.82286 5.35638 4.65323
#
# Compressibility (1/GPa) = 0.09933596
#
# Stress axis : x y z
#
# Youngs Moduli (GPa) = 30.32216 34.20744 80.57087
#
# Poissons Ratio (x) = -0.32853 -0.06992
# Poissons Ratio (y) = -0.29121 -0.15182
# Poissons Ratio (z) = -0.02631 -0.06446
#
# Static dielectric constant tensor:
#      x y z
#    x 1.615470 0.000000 -0.007270 
#    y 0.000000 1.680440 0.000000 
#    z -0.007270 0.000000 1.628050 
# 
# From -- ./inp_files/51244.got.cif
#   From: 2010.05.17/outbox.cif.g08.bks.cpg/sg11_26_cif.got.tgz:51244.got - 2010.06.03 12:22:45.
