data_PCOD9156039
_publ_section_title
;
Structure prediction by ZEFSAII (Michael W. Deem and Ramdas Pophale) SiO2 
 PCOD9156039
Probable space group: P 21/M
;
_chemical_formula_sum "Si O2"
_cell_formula_units_Z 32
_cell_length_a 10.334679
_cell_length_b 13.686972
_cell_length_c 8.970578
_cell_angle_alpha 90.000000
_cell_angle_beta 97.325278
_cell_angle_gamma 90.000000
_cell_volume 1258.536068
_symmetry_space_group_name_H-M "P 21/M"
_symmetry_group_IT_number 11
_symmetry_cell_setting 'monoclinic'
loop_
_space_group_symop_operation_xyz
x,y,z
-x,1/2+y,-z
-x,-y,-z
x,1/2-y,z
loop_
_atom_site_type_symbol
_atom_site_label
_atom_site_fract_x
_atom_site_fract_y
_atom_site_fract_z
Si Si1 0.746564 0.870568 0.942544
Si Si2 0.391438 0.137776 0.362167
Si Si3 0.675348 0.136585 0.246349
Si Si4 0.031255 0.864993 0.014810
Si Si5 0.133571 0.584206 0.358668
Si Si6 0.518285 0.367021 0.942026
Si Si7 0.430664 0.869616 0.373987
Si Si8 0.939120 0.408791 0.337566
O O1 0.748269 0.750000 0.944632
O O2 0.713245 0.900663 0.768513
O O3 0.885527 0.909982 0.014025
O O4 0.620694 0.901361 0.017919
O O5 0.351955 0.250000 0.382489
O O6 0.533454 0.137265 0.302044
O O7 0.437677 0.095538 0.524131
O O8 0.724178 0.250000 0.271975
O O9 0.785814 0.061377 0.311086
O O10 0.637791 0.119725 0.070265
O O11 0.022054 0.750000 0.032573
O O12 0.110052 0.891755 0.178335
O O13 0.055274 0.873192 0.837388
O O14 0.288069 0.598335 0.404508
O O15 0.065707 0.639376 0.493962
O O16 0.060169 0.481261 0.365222
O O17 0.504698 0.250000 0.925841
O O18 0.551675 0.407947 0.788619
O O19 0.429346 0.750000 0.380099
#
# Coordination Sequence:
#
# PCOD9156039 Si02
#       8
#     4   4   4   4   4   4   4   4
#     4   8  16  33  51  77 112 143 178 225 284 342
#     4   8  14  26  49  76 103 133 173 232 286 323
#     4   9  15  28  52  78 103 134 181 235 276 325
#     4  11  23  39  61  86 117 154 191 233 281 346
#     4  11  24  39  57  85 119 155 192 239 288 343
#     4   8  15  27  49  80 107 134 174 231 294 332
#     4  10  17  29  53  84 108 133 184 246 289 327
#     4  11  23  39  58  82 117 162 192 229 291 349
#
# _framework density 25.426365000000001
#
# number of rings (size 3 to 8) (size 9 to 14) (size 15 to 20)
#    0.000    2.500    1.250    3.375    0.000    2.500 
#    2.250    0.000    0.000    7.500    0.000    0.000 
#    0.000    0.000    0.000    0.000    0.000    0.000 
#
# Total GULP energy -178147.416111 kJ/mol
# GULP energy per Si atom -5567.106753 kJ/mol
# Density = 2.536849 g / cm^3
# Si number density = 25.426365 Si / 1000 Ang^3
#
#
#
# Elastic Constant Matrix: (Units=GPa)
#
#
# Indices 1 2 3 4 5 6 
#
# 1 113.4627 5.5997 39.4986 0.0000 11.4812 0.0000
# 2 5.5997 71.9642 9.4101 0.0000 -3.6161 0.0000
# 3 39.4986 9.4101 155.6317 0.0000 -3.3941 0.0000
# 4 0.0000 0.0000 0.0000 6.9254 0.0000 2.0730
# 5 11.4812 -3.6161 -3.3941 0.0000 43.2781 0.0000
# 6 0.0000 0.0000 0.0000 2.0730 0.0000 28.4447
#
#
#
# Elastic Compliance Matrix: (Units=1/GPa)
#
#
# Indices 1 2 3 4 5 6 
#
# 1 0.010034 -0.000590 -0.002574 0.000000 -0.002913 0.000000
# 2 -0.000590 0.014094 -0.000674 0.000000 0.001281 0.000000
# 3 -0.002574 -0.000674 0.007145 0.000000 0.001187 0.000000
# 4 0.000000 0.000000 0.000000 0.147617 0.000000 -0.010758
# 5 -0.002913 0.001281 0.001187 0.000000 0.024079 0.000000
# 6 0.000000 0.000000 0.000000 -0.010758 0.000000 0.035940
#
#
# Mechanical properties :
#
#
# Convention : Reuss Voigt Hill
#
# Bulk Modulus (GPa) = 42.38198 50.00840 46.19519
# Shear Modulus (GPa) = 19.64999 34.83299 27.24149
#
# Velocity S-wave (km/s) = 2.78298 3.70531 3.27676
# Velocity P-wave (km/s) = 5.19917 6.16574 5.70297
#
# Compressibility (1/GPa) = 0.02359494
#
# Stress axis : x y z
#
# Youngs Moduli (GPa) = 99.66577 70.95063 139.94960
#
# Poissons Ratio (x) = 0.04190 0.36027
# Poissons Ratio (y) = 0.05885 0.09438
# Poissons Ratio (z) = 0.25657 0.04785
#
# Static dielectric constant tensor:
#      x y z
#    x 1.961310 0.000000 -0.016850 
#    y 0.000000 2.116230 0.000000 
#    z -0.016850 0.000000 2.141920 
# 
# From -- ./inp_files/18637.got.cif
#   From: 2010.05.17/outbox.cif.g08.bks.cpg/sg11_10_cif.got.tgz:18637.got - 2010.06.03 12:22:45.
