data_PCOD9156775
_publ_section_title
;
Structure prediction by ZEFSAII (Michael W. Deem and Ramdas Pophale) SiO2 
 PCOD9156775
Probable space group: P 21/M
;
_chemical_formula_sum "Si O2"
_cell_formula_units_Z 24
_cell_length_a 19.067608
_cell_length_b 8.450464
_cell_length_c 25.215740
_cell_angle_alpha 90.000000
_cell_angle_beta 19.102054
_cell_angle_gamma 90.000000
_cell_volume 1329.629061
_symmetry_space_group_name_H-M "P 21/M"
_symmetry_group_IT_number 11
_symmetry_cell_setting 'monoclinic'
loop_
_space_group_symop_operation_xyz
x,y,z
-x,1/2+y,-z
-x,-y,-z
x,1/2-y,z
loop_
_atom_site_type_symbol
_atom_site_label
_atom_site_fract_x
_atom_site_fract_y
_atom_site_fract_z
Si Si1 0.318055 0.439903 0.511397
Si Si2 0.839038 0.440880 0.660786
Si Si3 0.000665 0.439890 0.169501
Si Si4 0.808236 0.558512 0.515632
Si Si5 0.512322 0.558501 0.164167
Si Si6 0.660515 0.938241 0.339289
O O1 0.319255 0.250000 0.511958
O O2 0.145036 0.500080 0.677777
O O3 0.251587 0.495465 0.500432
O O4 0.551191 0.499616 0.363840
O O5 0.837646 0.250000 0.662176
O O6 0.606280 0.492632 0.805832
O O7 0.000000 0.500000 0.500000
O O8 0.956298 0.492648 0.631108
O O9 0.994895 0.250000 0.173462
O O10 0.890642 0.499764 0.193834
O O11 0.244022 0.495470 0.003447
O O12 0.804406 0.750000 0.518296
O O13 0.633875 0.500007 0.682764
O O14 0.513115 0.750000 0.164544
O O15 0.659681 0.750000 0.340081
O O16 0.500000 0.000000 0.500000
#
# Coordination Sequence:
#
# PCOD9156775 Si02
#       6
#     4   4   4   4   4   4
#     4  10  19  32  49  71  96 125 157 193 233 278
#     4   8  14  28  47  68  92 122 156 190 227 274
#     4  10  19  32  49  71  96 125 157 193 233 278
#     4   9  18  31  50  72  96 124 157 194 234 276
#     4   9  18  31  50  72  96 124 157 194 234 276
#     4  10  18  30  49  70  91 122 158 194 232 278
#
# _framework density 18.050148
#
# number of rings (size 3 to 8) (size 9 to 14) (size 15 to 20)
#    0.000    2.667    0.000    4.500    0.000    2.667 
#    0.000    1.667    0.000    0.000    0.000    0.000 
#    0.000    0.000    0.000    0.000    0.000    0.000 
#
# Total GULP energy -133646.663054 kJ/mol
# GULP energy per Si atom -5568.610961 kJ/mol
# Density = 1.800907 g / cm^3
# Si number density = 18.050148 Si / 1000 Ang^3
#
#
#
# Elastic Constant Matrix: (Units=GPa)
#
#
# Indices 1 2 3 4 5 6 
#
# 1 188.6782 27.9314 66.7099 0.0000 -48.0176 0.0000
# 2 27.9314 45.2602 14.8176 0.0000 -11.5763 0.0000
# 3 66.7099 14.8176 85.2425 0.0000 -43.2795 0.0000
# 4 0.0000 0.0000 0.0000 -21.1450 0.0000 67.7704
# 5 -48.0176 -11.5763 -43.2795 0.0000 38.0302 0.0000
# 6 0.0000 0.0000 0.0000 67.7704 0.0000 -98.0612
#
#
#
# Elastic Compliance Matrix: (Units=1/GPa)
#
#
# Indices 1 2 3 4 5 6 
#
# 1 0.008327 -0.002551 -0.002675 0.000000 0.006693 0.000000
# 2 -0.002551 0.024785 -0.000277 0.000000 0.004009 0.000000
# 3 -0.002675 -0.000277 0.028695 0.000000 0.029195 0.000000
# 4 0.000000 0.000000 0.000000 0.038924 0.000000 0.026900
# 5 0.006693 0.004009 0.029195 0.000000 0.069190 0.000000
# 6 0.000000 0.000000 0.000000 0.026900 0.000000 0.008393
#
#
# Mechanical properties :
#
#
# Convention : Reuss Voigt Hill
#
# Bulk Modulus (GPa) = 19.68434 59.78872 39.73653
# Shear Modulus (GPa) = 24.24213 -2.25373 10.99420
#
# Velocity S-wave (km/s) = 3.66873 -1.11862 2.47066
# Velocity P-wave (km/s) = 5.37356 5.61491 5.49556
#
# Compressibility (1/GPa) = 0.05080182
#
# Stress axis : x y z
#
# Youngs Moduli (GPa) = 120.09538 40.34752 34.84885
#
# Poissons Ratio (x) = 0.10293 0.09321
# Poissons Ratio (y) = 0.30638 0.00964
# Poissons Ratio (z) = 0.32123 0.01116
#
# Static dielectric constant tensor:
#      x y z
#    x 1.670450 0.000000 -0.059810 
#    y 0.000000 1.608120 0.000000 
#    z -0.059810 0.000000 1.602420 
# 
# From -- ./inp_files/69497.got.cif
#   From: 2010.05.17/outbox.cif.g08.bks.cpg/sg11_35_cif.got.tgz:69497.got - 2010.06.03 12:22:45.
