data_PCOD9156378
_publ_section_title
;
Structure prediction by ZEFSAII (Michael W. Deem and Ramdas Pophale) SiO2 
 PCOD9156378
Probable space group: P 21/M
;
_chemical_formula_sum "Si O2"
_cell_formula_units_Z 32
_cell_length_a 15.303193
_cell_length_b 8.772406
_cell_length_c 14.418050
_cell_angle_alpha 90.000000
_cell_angle_beta 92.215063
_cell_angle_gamma 90.000000
_cell_volume 1934.116703
_symmetry_space_group_name_H-M "P 21/M"
_symmetry_group_IT_number 11
_symmetry_cell_setting 'monoclinic'
loop_
_space_group_symop_operation_xyz
x,y,z
-x,1/2+y,-z
-x,-y,-z
x,1/2-y,z
loop_
_atom_site_type_symbol
_atom_site_label
_atom_site_fract_x
_atom_site_fract_y
_atom_site_fract_z
Si Si1 0.097098 0.565655 0.520739
Si Si2 0.870712 0.423923 0.963293
Si Si3 0.250625 0.070411 0.894005
Si Si4 0.296486 0.575247 0.183345
Si Si5 0.825765 0.434807 0.669775
Si Si6 0.159357 0.570848 0.725305
Si Si7 0.405856 0.934079 0.020073
Si Si8 0.029590 0.427884 0.189734
O O1 0.089081 0.750000 0.523598
O O2 0.158521 0.524051 0.436207
O O3 0.138496 0.516595 0.620318
O O4 0.000000 0.500000 0.500000
O O5 0.887720 0.250000 0.994152
O O6 0.789778 0.420986 0.886135
O O7 0.949796 0.491472 0.906796
O O8 0.832180 0.521066 0.045734
O O9 0.263199 0.250000 0.900620
O O10 0.229830 0.018611 0.788814
O O11 0.333966 0.986469 0.942044
O O12 0.322573 0.750000 0.203298
O O13 0.260578 0.508861 0.278553
O O14 0.370613 0.508234 0.119430
O O15 0.826309 0.250000 0.676416
O O16 0.908019 0.497720 0.730468
O O17 0.183025 0.750000 0.722984
O O18 0.068030 0.558494 0.777014
O O19 0.407276 0.750000 0.022309
O O20 0.500000 0.000000 0.000000
O O21 0.051961 0.250000 0.181359
#
# Coordination Sequence:
#
# PCOD9156378 Si02
#       8
#     4   4   4   4   4   4   4   4
#     4  10  19  31  48  69  95 130 175 220 258 295
#     4   9  17  31  48  65  92 128 164 203 247 292
#     4  11  22  35  51  72  96 127 166 204 247 299
#     4   7  13  26  45  70  96 123 154 191 237 287
#     4   9  16  28  47  68  94 130 170 210 253 294
#     4  10  21  34  45  64  97 134 169 210 257 297
#     4  10  19  34  56  80 107 132 156 192 240 300
#     4  10  18  28  44  66  93 127 169 211 249 291
#
# _framework density 16.545020000000001
#
# number of rings (size 3 to 8) (size 9 to 14) (size 15 to 20)
#    0.000    2.500    1.250    3.750    0.000    2.000 
#    0.000    0.625    0.000    0.000    0.000    0.875 
#    0.000    0.000    0.000    0.000    0.000    0.000 
#
# Total GULP energy -178353.461167 kJ/mol
# GULP energy per Si atom -5573.545661 kJ/mol
# Density = 1.650736 g / cm^3
# Si number density = 16.545020 Si / 1000 Ang^3
#
#
#
# Elastic Constant Matrix: (Units=GPa)
#
#
# Indices 1 2 3 4 5 6 
#
# 1 59.9257 24.1984 51.9618 0.0000 -14.8012 0.0000
# 2 24.1984 49.1193 30.4636 0.0000 -3.4234 0.0000
# 3 51.9618 30.4636 125.3742 0.0000 -9.4834 0.0000
# 4 0.0000 0.0000 0.0000 19.0955 0.0000 -0.6440
# 5 -14.8012 -3.4234 -9.4834 0.0000 20.3231 0.0000
# 6 0.0000 0.0000 0.0000 -0.6440 0.0000 21.2759
#
#
#
# Elastic Compliance Matrix: (Units=1/GPa)
#
#
# Indices 1 2 3 4 5 6 
#
# 1 0.033918 -0.008918 -0.010506 0.000000 0.018297 0.000000
# 2 -0.008918 0.026353 -0.002967 0.000000 -0.003441 0.000000
# 3 -0.010506 -0.002967 0.012890 0.000000 -0.002137 0.000000
# 4 0.000000 0.000000 0.000000 0.052422 0.000000 0.001587
# 5 0.018297 -0.003441 -0.002137 0.000000 0.060954 0.000000
# 6 0.000000 0.000000 0.000000 0.001587 0.000000 0.047049
#
#
# Mechanical properties :
#
#
# Convention : Reuss Voigt Hill
#
# Bulk Modulus (GPa) = 35.24029 49.74077 42.49053
# Shear Modulus (GPa) = 17.37144 20.65862 19.01503
#
# Velocity S-wave (km/s) = 3.24381 3.53743 3.39380
# Velocity P-wave (km/s) = 5.94774 6.84205 6.41051
#
# Compressibility (1/GPa) = 0.02837661
#
# Stress axis : x y z
#
# Youngs Moduli (GPa) = 29.48282 37.94690 77.57999
#
# Poissons Ratio (x) = 0.33842 0.81509
# Poissons Ratio (y) = 0.26294 0.23020
# Poissons Ratio (z) = 0.30976 0.11260
#
# Static dielectric constant tensor:
#      x y z
#    x 1.549380 0.000000 -0.017860 
#    y 0.000000 1.571650 0.000000 
#    z -0.017860 0.000000 1.595480 
# 
# From -- ./inp_files/51355.got.cif
#   From: 2010.05.17/outbox.cif.g08.bks.cpg/sg11_26_cif.got.tgz:51355.got - 2010.06.03 12:22:45.
