data_PCOD9156725
_publ_section_title
;
Structure prediction by ZEFSAII (Michael W. Deem and Ramdas Pophale) SiO2 
 PCOD9156725
Probable space group: P 21/M
;
_chemical_formula_sum "Si O2"
_cell_formula_units_Z 32
_cell_length_a 21.303932
_cell_length_b 9.263368
_cell_length_c 20.973021
_cell_angle_alpha 90.000000
_cell_angle_beta 152.439970
_cell_angle_gamma 90.000000
_cell_volume 1914.997644
_symmetry_space_group_name_H-M "P 21/M"
_symmetry_group_IT_number 11
_symmetry_cell_setting 'monoclinic'
loop_
_space_group_symop_operation_xyz
x,y,z
-x,1/2+y,-z
-x,-y,-z
x,1/2-y,z
loop_
_atom_site_type_symbol
_atom_site_label
_atom_site_fract_x
_atom_site_fract_y
_atom_site_fract_z
Si Si1 0.625777 0.579153 0.080649
Si Si2 0.322983 0.583177 0.396884
Si Si3 0.726023 0.080326 0.391668
Si Si4 0.137272 0.078620 0.604027
Si Si5 0.399176 0.080846 0.084744
Si Si6 0.298976 0.083081 0.502285
Si Si7 0.347488 0.083429 0.291808
Si Si8 0.628218 0.415959 0.812922
O O1 0.594249 0.750000 0.048934
O O2 0.755375 0.559531 0.241982
O O3 0.500000 0.500000 0.000000
O O4 0.647069 0.530989 0.026859
O O5 0.279932 0.750000 0.358212
O O6 0.267516 0.495661 0.407500
O O7 0.487719 0.582974 0.552634
O O8 0.292759 0.504253 0.303166
O O9 0.761169 0.250000 0.423549
O O10 0.563510 0.069780 0.233659
O O11 0.801172 0.995542 0.403366
O O12 0.753916 0.006282 0.484857
O O13 0.118128 0.250000 0.576822
O O14 0.000000 0.000000 0.500000
O O15 0.365345 0.250000 0.063088
O O16 0.343756 0.989776 0.094008
O O17 0.255351 0.250000 0.463744
O O18 0.463674 0.083112 0.657152
O O19 0.304284 0.250000 0.253518
O O20 0.316434 0.005957 0.197085
O O21 0.672432 0.250000 0.850686
#
# Coordination Sequence:
#
# PCOD9156725 Si02
#       8
#     4   4   4   4   4   4   4   4
#     4  10  20  34  53  75  97 124 159 201 245 291
#     4   9  15  22  32  48  71 103 145 187 226 271
#     4  10  18  30  48  67  90 119 153 194 241 287
#     4  11  23  37  53  73  99 129 162 199 245 296
#     4   9  17  29  45  66  90 116 149 192 238 283
#     4   9  16  25  37  55  80 109 146 188 230 276
#     4   9  15  22  32  46  70 106 144 183 227 273
#     4   9  16  24  35  54  79 109 145 185 227 274
#
# _framework density 16.710203
#
# number of rings (size 3 to 8) (size 9 to 14) (size 15 to 20)
#    0.000    2.500    1.250    2.250    0.000    7.500 
#    0.000    0.000    0.000    0.000    0.000    0.000 
#    0.000    0.000    0.000    1.125    0.000   14.750 
#
# Total GULP energy -178395.702167 kJ/mol
# GULP energy per Si atom -5574.865693 kJ/mol
# Density = 1.667217 g / cm^3
# Si number density = 16.710203 Si / 1000 Ang^3
#
#
#
# Elastic Constant Matrix: (Units=GPa)
#
#
# Indices 1 2 3 4 5 6 
#
# 1 145.1029 96.6907 42.7670 0.0000 -52.7529 0.0000
# 2 96.6907 155.4448 43.6178 0.0000 -29.9465 0.0000
# 3 42.7670 43.6178 27.4641 0.0000 -15.1371 0.0000
# 4 0.0000 0.0000 0.0000 12.2767 0.0000 -7.2324
# 5 -52.7529 -29.9465 -15.1371 0.0000 25.4660 0.0000
# 6 0.0000 0.0000 0.0000 -7.2324 0.0000 35.2837
#
#
#
# Elastic Compliance Matrix: (Units=1/GPa)
#
#
# Indices 1 2 3 4 5 6 
#
# 1 0.040623 -0.009031 -0.012475 0.000000 0.066116 0.000000
# 2 -0.009031 0.013893 -0.013844 0.000000 -0.010599 0.000000
# 3 -0.012475 -0.013844 0.081215 0.000000 0.006153 0.000000
# 4 0.000000 0.000000 0.000000 0.092643 0.000000 0.018990
# 5 0.066116 -0.010599 0.006153 0.000000 0.167421 0.000000
# 6 0.000000 0.000000 0.000000 0.018990 0.000000 0.032234
#
#
# Mechanical properties :
#
#
# Convention : Reuss Voigt Hill
#
# Bulk Modulus (GPa) = 15.37705 77.12921 46.25313
# Shear Modulus (GPa) = 9.60789 24.26770 16.93779
#
# Velocity S-wave (km/s) = 2.40046 3.81500 3.18719
# Velocity P-wave (km/s) = 4.11158 8.10326 6.42526
#
# Compressibility (1/GPa) = 0.06503196
#
# Stress axis : x y z
#
# Youngs Moduli (GPa) = 24.61661 71.97701 12.31304
#
# Poissons Ratio (x) = 0.65002 0.15360
# Poissons Ratio (y) = 0.22231 0.17046
# Poissons Ratio (z) = 0.30709 0.99643
#
# Static dielectric constant tensor:
#      x y z
#    x 1.555820 0.000000 -0.018970 
#    y 0.000000 1.560080 0.000000 
#    z -0.018970 0.000000 1.542950 
# 
# From -- ./inp_files/66419.got.cif
#   From: 2010.05.17/outbox.cif.g08.bks.cpg/sg11_34_cif.got.tgz:66419.got - 2010.06.03 12:22:45.
