data_PCOD9156221
_publ_section_title
;
Structure prediction by ZEFSAII (Michael W. Deem and Ramdas Pophale) SiO2 
 PCOD9156221
Probable space group: P 21/M
;
_chemical_formula_sum "Si O2"
_cell_formula_units_Z 24
_cell_length_a 21.316152
_cell_length_b 7.438611
_cell_length_c 12.598159
_cell_angle_alpha 90.000000
_cell_angle_beta 38.458701
_cell_angle_gamma 90.000000
_cell_volume 1242.405802
_symmetry_space_group_name_H-M "P 21/M"
_symmetry_group_IT_number 11
_symmetry_cell_setting 'monoclinic'
loop_
_space_group_symop_operation_xyz
x,y,z
-x,1/2+y,-z
-x,-y,-z
x,1/2-y,z
loop_
_atom_site_type_symbol
_atom_site_label
_atom_site_fract_x
_atom_site_fract_y
_atom_site_fract_z
Si Si1 0.881974 0.535245 0.660138
Si Si2 0.614499 0.966144 0.386984
Si Si3 0.656593 0.954638 0.565424
Si Si4 0.727782 0.970350 0.685739
Si Si5 0.438024 0.033850 0.929635
Si Si6 0.724655 0.967691 0.035708
O O1 0.868559 0.750000 0.678211
O O2 0.820117 0.471303 0.638447
O O3 0.000000 0.500000 0.500000
O O4 0.824980 0.468566 0.841949
O O5 0.622014 0.750000 0.382033
O O6 0.639912 0.036604 0.471050
O O7 0.692054 0.033034 0.194499
O O8 0.500000 0.000000 0.500000
O O9 0.691830 0.750000 0.502186
O O10 0.725765 0.034600 0.567126
O O11 0.546143 0.951640 0.765474
O O12 0.727612 0.750000 0.683822
O O13 0.625591 0.024221 0.883478
O O14 0.449540 0.250000 0.918652
O O15 0.366703 0.991562 0.923791
O O16 0.730553 0.750000 0.035050
#
# Coordination Sequence:
#
# PCOD9156221 Si02
#       6
#     4   4   4   4   4   4
#     4   9  17  32  52  67  82 108 144 188 228 267
#     4  10  18  28  43  63  90 123 154 179 204 249
#     4  10  18  26  40  64  91 117 147 180 209 246
#     4   8  16  29  43  62  88 117 144 173 220 269
#     4   9  15  26  43  59  85 123 150 170 205 259
#     4   8  15  28  44  62  86 118 149 172 212 265
#
# _framework density 19.317360000000001
#
# number of rings (size 3 to 8) (size 9 to 14) (size 15 to 20)
#    0.000    3.000    1.667    2.500    0.000    0.000 
#    0.000    5.000    0.000    1.000    0.000    0.000 
#    0.000    0.000    0.000    0.000    0.000    0.000 
#
# Total GULP energy -133774.135006 kJ/mol
# GULP energy per Si atom -5573.922292 kJ/mol
# Density = 1.927339 g / cm^3
# Si number density = 19.317360 Si / 1000 Ang^3
#
#
#
# Elastic Constant Matrix: (Units=GPa)
#
#
# Indices 1 2 3 4 5 6 
#
# 1 134.4335 5.7739 101.5342 0.0000 37.7531 0.0000
# 2 5.7739 59.6922 1.1758 0.0000 5.5442 0.0000
# 3 101.5342 1.1758 124.4068 0.0000 17.5439 0.0000
# 4 0.0000 0.0000 0.0000 12.6235 0.0000 -7.4353
# 5 37.7531 5.5442 17.5439 0.0000 39.9065 0.0000
# 6 0.0000 0.0000 0.0000 -7.4353 0.0000 7.4851
#
#
#
# Elastic Compliance Matrix: (Units=1/GPa)
#
#
# Indices 1 2 3 4 5 6 
#
# 1 0.027130 -0.000666 -0.019754 0.000000 -0.016889 0.000000
# 2 -0.000666 0.016992 0.000669 0.000000 -0.002024 0.000000
# 3 -0.019754 0.000669 0.022955 0.000000 0.008504 0.000000
# 4 0.000000 0.000000 0.000000 0.190924 0.000000 0.189654
# 5 -0.016889 -0.002024 0.008504 0.000000 0.037579 0.000000
# 6 0.000000 0.000000 0.000000 0.189654 0.000000 0.321990
#
#
# Mechanical properties :
#
#
# Convention : Reuss Voigt Hill
#
# Bulk Modulus (GPa) = 36.26701 59.50002 47.88352
# Shear Modulus (GPa) = 7.50453 26.00627 16.75540
#
# Velocity S-wave (km/s) = 1.97314 3.67313 2.94832
# Velocity P-wave (km/s) = 4.89961 6.98980 6.03587
#
# Compressibility (1/GPa) = 0.02757327
#
# Stress axis : x y z
#
# Youngs Moduli (GPa) = 36.85974 58.85160 43.56396
#
# Poissons Ratio (x) = 0.03922 0.86056
# Poissons Ratio (y) = 0.02457 -0.02914
# Poissons Ratio (z) = 0.72813 -0.03936
#
# Static dielectric constant tensor:
#      x y z
#    x 1.696690 0.000000 0.042950 
#    y 0.000000 1.751520 0.000000 
#    z 0.042950 0.000000 1.679580 
# 
# From -- ./inp_files/34038.got.cif
#   From: 2010.05.17/outbox.cif.g08.bks.cpg/sg11_18_cif.got.tgz:34038.got - 2010.06.03 12:22:45.
