data_PCOD9156471
_publ_section_title
;
Structure prediction by ZEFSAII (Michael W. Deem and Ramdas Pophale) SiO2 
 PCOD9156471
Probable space group: P 21/M
;
_chemical_formula_sum "Si O2"
_cell_formula_units_Z 32
_cell_length_a 22.005834
_cell_length_b 7.598433
_cell_length_c 15.262578
_cell_angle_alpha 90.000000
_cell_angle_beta 34.423283
_cell_angle_gamma 90.000000
_cell_volume 1442.681572
_symmetry_space_group_name_H-M "P 21/M"
_symmetry_group_IT_number 11
_symmetry_cell_setting 'monoclinic'
loop_
_space_group_symop_operation_xyz
x,y,z
-x,1/2+y,-z
-x,-y,-z
x,1/2-y,z
loop_
_atom_site_type_symbol
_atom_site_label
_atom_site_fract_x
_atom_site_fract_y
_atom_site_fract_z
Si Si1 0.252724 0.455950 0.845321
Si Si2 0.133509 0.951980 0.147313
Si Si3 0.750002 0.467224 0.820911
Si Si4 0.480935 0.951777 0.887427
Si Si5 0.099136 0.954779 0.513419
Si Si6 0.455024 0.461518 0.716361
Si Si7 0.713488 0.964749 0.577092
Si Si8 0.305352 0.040797 0.598755
O O1 0.276637 0.250000 0.805028
O O2 0.354598 0.526557 0.778958
O O3 0.244663 0.529656 0.756809
O O4 0.151730 0.468582 0.030100
O O5 0.163657 0.750000 0.101361
O O6 0.212247 0.028316 0.128054
O O7 0.013347 0.961699 0.326640
O O8 0.748606 0.250000 0.822196
O O9 0.839417 0.524989 0.645202
O O10 0.629165 0.528796 0.942875
O O11 0.486942 0.750000 0.910641
O O12 0.600330 0.029109 0.753650
O O13 0.459915 0.955651 0.807369
O O14 0.076277 0.750000 0.525059
O O15 0.185045 0.975306 0.488698
O O16 0.448374 0.250000 0.735264
O O17 0.568030 0.507621 0.536975
O O18 0.709686 0.750000 0.581931
O O19 0.719358 0.027842 0.469317
O O20 0.286485 0.250000 0.614356
#
# Coordination Sequence:
#
# PCOD9156471 Si02
#       8
#     4   4   4   4   4   4   4   4
#     4  10  20  34  53  82 114 144 180 224 276 324
#     4  11  22  38  60  83 110 143 184 227 272 333
#     4   9  19  36  59  85 110 142 180 222 278 335
#     4   9  17  34  57  80 112 149 182 219 272 330
#     4  11  23  39  58  79 109 146 185 232 279 323
#     4  10  18  28  48  82 118 144 177 222 269 324
#     4   9  19  36  57  80 109 147 189 225 262 321
#     4   9  19  35  55  77 110 152 185 219 267 326
#
# _framework density 22.180914999999999
#
# number of rings (size 3 to 8) (size 9 to 14) (size 15 to 20)
#    0.000    2.250    1.250    2.625    0.000    3.500 
#    0.000    3.750    0.000    0.000    0.000    0.000 
#    0.000    0.000    0.000    0.000    0.000    0.000 
#
# Total GULP energy -178658.494459 kJ/mol
# GULP energy per Si atom -5583.077952 kJ/mol
# Density = 2.213043 g / cm^3
# Si number density = 22.180915 Si / 1000 Ang^3
#
#
#
# Elastic Constant Matrix: (Units=GPa)
#
#
# Indices 1 2 3 4 5 6 
#
# 1 50.7938 0.0617 24.7081 0.0000 -0.4616 0.0000
# 2 0.0617 45.0358 -11.8873 0.0000 6.3793 0.0000
# 3 24.7081 -11.8873 130.8772 0.0000 6.0638 0.0000
# 4 0.0000 0.0000 0.0000 5.4774 0.0000 -2.0426
# 5 -0.4616 6.3793 6.0638 0.0000 36.3609 0.0000
# 6 0.0000 0.0000 0.0000 -2.0426 0.0000 15.0808
#
#
#
# Elastic Compliance Matrix: (Units=1/GPa)
#
#
# Indices 1 2 3 4 5 6 
#
# 1 0.021788 -0.001336 -0.004291 0.000000 0.001227 0.000000
# 2 -0.001336 0.023542 0.002603 0.000000 -0.004581 0.000000
# 3 -0.004291 0.002603 0.008779 0.000000 -0.001975 0.000000
# 4 0.000000 0.000000 0.000000 0.192282 0.000000 0.026044
# 5 0.001227 -0.004581 -0.001975 0.000000 0.028651 0.000000
# 6 0.000000 0.000000 0.000000 0.026044 0.000000 0.069837
#
#
# Mechanical properties :
#
#
# Convention : Reuss Voigt Hill
#
# Bulk Modulus (GPa) = 20.80775 28.05242 24.43009
# Shear Modulus (GPa) = 13.62588 25.63878 19.63233
#
# Velocity S-wave (km/s) = 2.48121 3.40353 2.97829
# Velocity P-wave (km/s) = 4.19641 5.30282 4.78172
#
# Compressibility (1/GPa) = 0.04805902
#
# Stress axis : x y z
#
# Youngs Moduli (GPa) = 45.89729 42.47665 113.91009
#
# Poissons Ratio (x) = 0.05676 0.48884
# Poissons Ratio (y) = 0.06133 -0.29649
# Poissons Ratio (z) = 0.19697 -0.11056
#
# Static dielectric constant tensor:
#      x y z
#    x 1.801180 0.000000 0.032460 
#    y 0.000000 1.797230 0.000000 
#    z 0.032460 0.000000 1.839570 
# 
# From -- ./inp_files/55554.got.cif
#   From: 2010.05.17/outbox.cif.g08.bks.cpg/sg11_28_cif.got.tgz:55554.got - 2010.06.03 12:22:45.
