data_PCOD9156577
_publ_section_title
;
Structure prediction by ZEFSAII (Michael W. Deem and Ramdas Pophale) SiO2 
 PCOD9156577
Probable space group: P 21/M
;
_chemical_formula_sum "Si O2"
_cell_formula_units_Z 32
_cell_length_a 22.789652
_cell_length_b 8.356067
_cell_length_c 31.223211
_cell_angle_alpha 90.000000
_cell_angle_beta 18.175743
_cell_angle_gamma 90.000000
_cell_volume 1854.718841
_symmetry_space_group_name_H-M "P 21/M"
_symmetry_group_IT_number 11
_symmetry_cell_setting 'monoclinic'
loop_
_space_group_symop_operation_xyz
x,y,z
-x,1/2+y,-z
-x,-y,-z
x,1/2-y,z
loop_
_atom_site_type_symbol
_atom_site_label
_atom_site_fract_x
_atom_site_fract_y
_atom_site_fract_z
Si Si1 0.170424 0.558680 0.412066
Si Si2 0.495740 0.940618 0.565377
Si Si3 0.188869 0.936565 0.717516
Si Si4 0.497026 0.056402 0.127129
Si Si5 0.071196 0.561111 0.170614
Si Si6 0.081280 0.945578 0.569966
Si Si7 0.247408 0.559224 0.543619
Si Si8 0.344249 0.442826 0.140954
O O1 0.160413 0.750000 0.419589
O O2 0.367212 0.505052 0.255341
O O3 0.000000 0.500000 0.500000
O O4 0.145827 0.501740 0.478084
O O5 0.518944 0.750000 0.541430
O O6 0.285444 0.983282 0.695632
O O7 0.640062 0.036018 0.434728
O O8 0.570768 0.980019 0.560390
O O9 0.139073 0.750000 0.753303
O O10 0.018752 0.030935 0.813874
O O11 0.496570 0.250000 0.128704
O O12 0.400011 0.004543 0.150007
O O13 0.714118 0.003263 0.976873
O O14 0.068044 0.750000 0.181789
O O15 0.933794 0.480128 0.300744
O O16 0.083055 0.750000 0.568937
O O17 0.864896 0.997429 0.725923
O O18 0.203010 0.996946 0.526331
O O19 0.272780 0.750000 0.526127
O O20 0.342959 0.250000 0.141967
O O21 0.500000 0.500000 0.000000
#
# Coordination Sequence:
#
# PCOD9156577 Si02
#       8
#     4   4   4   4   4   4   4   4
#     4  11  21  37  57  73  92 122 163 207 248 288
#     4   9  16  26  41  64  95 128 160 195 234 276
#     4   9  16  26  42  64  93 129 164 193 228 282
#     4  10  21  36  51  70  98 128 159 202 247 283
#     4  10  19  30  46  70 102 131 157 197 242 282
#     4   9  19  34  50  68  95 126 155 198 244 280
#     4  10  18  29  47  70  98 130 162 194 235 289
#     4  10  19  33  49  67  97 127 156 192 232 284
#
# _framework density 17.253288999999999
#
# number of rings (size 3 to 8) (size 9 to 14) (size 15 to 20)
#    0.000    2.250    1.250    4.125    0.000    3.000 
#    0.000    3.125    0.000    0.000    0.000    0.875 
#    0.000    0.000    0.000    0.000    0.000    0.000 
#
# Total GULP energy -178379.920585 kJ/mol
# GULP energy per Si atom -5574.372518 kJ/mol
# Density = 1.721402 g / cm^3
# Si number density = 17.253289 Si / 1000 Ang^3
#
#
#
# Elastic Constant Matrix: (Units=GPa)
#
#
# Indices 1 2 3 4 5 6 
#
# 1 143.3717 7.8268 27.9264 0.0000 0.8737 0.0000
# 2 7.8268 18.1939 0.6733 0.0000 0.9127 0.0000
# 3 27.9264 0.6733 25.1737 0.0000 16.3700 0.0000
# 4 0.0000 0.0000 0.0000 21.6883 0.0000 -2.1567
# 5 0.8737 0.9127 16.3700 0.0000 23.3450 0.0000
# 6 0.0000 0.0000 0.0000 -2.1567 0.0000 21.8176
#
#
#
# Elastic Compliance Matrix: (Units=1/GPa)
#
#
# Indices 1 2 3 4 5 6 
#
# 1 0.011686 -0.004972 -0.023295 0.000000 0.016092 0.000000
# 2 -0.004972 0.057187 0.009778 0.000000 -0.008906 0.000000
# 3 -0.023295 0.009778 0.119457 0.000000 -0.083276 0.000000
# 4 0.000000 0.000000 0.000000 0.046565 0.000000 0.004603
# 5 0.016092 -0.008906 -0.083276 0.000000 0.100977 0.000000
# 6 0.000000 0.000000 0.000000 0.004603 0.000000 0.046290
#
#
# Mechanical properties :
#
#
# Convention : Reuss Voigt Hill
#
# Bulk Modulus (GPa) = 6.60709 28.84359 17.72534
# Shear Modulus (GPa) = 10.64758 23.39105 17.01931
#
# Velocity S-wave (km/s) = 2.48691 3.68604 3.14417
# Velocity P-wave (km/s) = 3.47622 5.90507 4.84530
#
# Compressibility (1/GPa) = 0.15135260
#
# Stress axis : x y z
#
# Youngs Moduli (GPa) = 85.57514 17.48638 8.37120
#
# Poissons Ratio (x) = 0.08695 0.19500
# Poissons Ratio (y) = 0.42550 -0.08185
# Poissons Ratio (z) = 1.99343 -0.17098
#
# Static dielectric constant tensor:
#      x y z
#    x 1.637130 0.000000 -0.018030 
#    y 0.000000 1.600110 0.000000 
#    z -0.018030 0.000000 1.554670 
# 
# From -- ./inp_files/72046.got.cif
#   From: 2010.05.17/outbox.cif.g08.bks.cpg/sg11_37_cif.got.tgz:72046.got - 2010.06.03 12:22:45.
