data_PCOD9156592
_publ_section_title
;
Structure prediction by ZEFSAII (Michael W. Deem and Ramdas Pophale) SiO2 
 PCOD9156592
Probable space group: P 21/M
;
_chemical_formula_sum "Si O2"
_cell_formula_units_Z 32
_cell_length_a 17.736604
_cell_length_b 8.066833
_cell_length_c 12.220152
_cell_angle_alpha 90.000000
_cell_angle_beta 95.404756
_cell_angle_gamma 90.000000
_cell_volume 1740.664334
_symmetry_space_group_name_H-M "P 21/M"
_symmetry_group_IT_number 11
_symmetry_cell_setting 'monoclinic'
loop_
_space_group_symop_operation_xyz
x,y,z
-x,1/2+y,-z
-x,-y,-z
x,1/2-y,z
loop_
_atom_site_type_symbol
_atom_site_label
_atom_site_fract_x
_atom_site_fract_y
_atom_site_fract_z
Si Si1 0.226337 0.447137 0.131127
Si Si2 0.461659 0.450130 0.380559
Si Si3 0.259283 0.947660 0.604251
Si Si4 0.591458 0.047140 0.239977
Si Si5 0.082672 0.051177 0.973976
Si Si6 0.182854 0.053309 0.797314
Si Si7 0.711130 0.950424 0.634771
Si Si8 0.674162 0.058355 0.045988
O O1 0.216102 0.250000 0.138172
O O2 0.242343 0.512969 0.254187
O O3 0.150813 0.513493 0.061208
O O4 0.298924 0.474571 0.062174
O O5 0.500000 0.500000 0.500000
O O6 0.460394 0.250000 0.376096
O O7 0.514253 0.507416 0.287148
O O8 0.375583 0.510609 0.366889
O O9 0.258547 0.750000 0.610011
O O10 0.338693 0.004920 0.671355
O O11 0.191989 0.015336 0.671272
O O12 0.257350 0.000801 0.478780
O O13 0.592406 0.250000 0.237193
O O14 0.608985 0.990657 0.118233
O O15 0.084597 0.250000 0.979306
O O16 0.107561 0.005556 0.853495
O O17 0.000000 0.000000 0.000000
O O18 0.195587 0.250000 0.816227
O O19 0.251544 0.958049 0.866314
O O20 0.709558 0.750000 0.639337
O O21 0.658707 0.250000 0.020359
#
# Coordination Sequence:
#
# PCOD9156592 Si02
#       8
#     4   4   4   4   4   4   4   4
#     4   9  19  35  49  69 100 131 162 198 241 294
#     4  10  18  30  46  67  94 127 165 208 248 287
#     4  10  18  29  47  71  99 129 163 207 247 280
#     4   8  15  27  43  65  94 121 153 204 251 279
#     4   9  18  32  53  77 101 125 153 195 240 285
#     4   9  17  30  48  73 102 128 157 196 239 287
#     4  10  20  32  49  69  95 134 171 200 244 297
#     4   9  16  28  47  69  92 125 163 203 247 285
#
# _framework density 18.383783999999999
#
# number of rings (size 3 to 8) (size 9 to 14) (size 15 to 20)
#    0.000    2.750    1.250    2.625    0.000    3.000 
#    0.000    1.250    0.000    0.750    0.000    0.000 
#    0.000    0.000    0.000    0.000    0.000    0.000 
#
# Total GULP energy -178255.631939 kJ/mol
# GULP energy per Si atom -5570.488498 kJ/mol
# Density = 1.834194 g / cm^3
# Si number density = 18.383784 Si / 1000 Ang^3
#
#
#
# Elastic Constant Matrix: (Units=GPa)
#
#
# Indices 1 2 3 4 5 6 
#
# 1 96.5161 12.8794 68.8583 0.0000 -32.6138 0.0000
# 2 12.8794 13.2269 8.6273 0.0000 0.1770 0.0000
# 3 68.8583 8.6273 137.6742 0.0000 -27.0093 0.0000
# 4 0.0000 0.0000 0.0000 23.0142 0.0000 -6.8333
# 5 -32.6138 0.1770 -27.0093 0.0000 29.9341 0.0000
# 6 0.0000 0.0000 0.0000 -6.8333 0.0000 14.5422
#
#
#
# Elastic Compliance Matrix: (Units=1/GPa)
#
#
# Indices 1 2 3 4 5 6 
#
# 1 0.025467 -0.020331 -0.007286 0.000000 0.021293 0.000000
# 2 -0.020331 0.095947 -0.000366 0.000000 -0.023048 0.000000
# 3 -0.007286 -0.000366 0.011390 0.000000 0.002341 0.000000
# 4 0.000000 0.000000 0.000000 0.050497 0.000000 0.023728
# 5 0.021293 -0.023048 0.002341 0.000000 0.058854 0.000000
# 6 0.000000 0.000000 0.000000 0.023728 0.000000 0.079915
#
#
# Mechanical properties :
#
#
# Convention : Reuss Voigt Hill
#
# Bulk Modulus (GPa) = 13.01419 47.57192 30.29305
# Shear Modulus (GPa) = 12.38700 23.96823 18.17761
#
# Velocity S-wave (km/s) = 2.59858 3.61469 3.14791
# Velocity P-wave (km/s) = 4.01224 6.58442 5.45219
#
# Compressibility (1/GPa) = 0.07683922
#
# Stress axis : x y z
#
# Youngs Moduli (GPa) = 39.26588 10.42240 87.79725
#
# Poissons Ratio (x) = 0.21190 0.63971
# Poissons Ratio (y) = 0.79831 0.03210
# Poissons Ratio (z) = 0.28610 0.00381
#
# Static dielectric constant tensor:
#      x y z
#    x 1.636660 0.000000 -0.024240 
#    y 0.000000 1.650550 0.000000 
#    z -0.024240 0.000000 1.660200 
# 
# From -- ./inp_files/40692.got.cif
#   From: 2010.05.17/outbox.cif.g08.bks.cpg/sg11_21_cif.got.tgz:40692.got - 2010.06.03 12:22:45.
