data_PCOD9156581
_publ_section_title
;
Structure prediction by ZEFSAII (Michael W. Deem and Ramdas Pophale) SiO2 
 PCOD9156581
Probable space group: P 21/M
;
_chemical_formula_sum "Si O2"
_cell_formula_units_Z 24
_cell_length_a 12.483996
_cell_length_b 8.020760
_cell_length_c 24.704304
_cell_angle_alpha 90.000000
_cell_angle_beta 147.902785
_cell_angle_gamma 90.000000
_cell_volume 1314.402875
_symmetry_space_group_name_H-M "P 21/M"
_symmetry_group_IT_number 11
_symmetry_cell_setting 'monoclinic'
loop_
_space_group_symop_operation_xyz
x,y,z
-x,1/2+y,-z
-x,-y,-z
x,1/2-y,z
loop_
_atom_site_type_symbol
_atom_site_label
_atom_site_fract_x
_atom_site_fract_y
_atom_site_fract_z
Si Si1 0.825518 0.056760 0.787616
Si Si2 0.259943 0.942444 0.944476
Si Si3 0.866068 0.045845 0.226474
Si Si4 0.528994 0.443130 0.155087
Si Si5 0.310620 0.449536 0.383097
Si Si6 0.225385 0.049785 0.115134
O O1 0.885289 0.250000 0.813290
O O2 0.685919 0.022299 0.676091
O O3 0.737994 0.011866 0.808433
O O4 0.028338 0.951062 0.865192
O O5 0.326735 0.750000 0.974181
O O6 0.248860 0.005012 0.878029
O O7 0.390221 0.046377 0.042172
O O8 0.862835 0.250000 0.225182
O O9 0.742190 0.985609 0.225606
O O10 0.098141 0.994405 0.319120
O O11 0.564742 0.250000 0.184439
O O12 0.394222 0.516900 0.145590
O O13 0.500000 0.500000 0.500000
O O14 0.303053 0.250000 0.375385
O O15 0.231274 0.250000 0.116584
O O16 0.000000 0.000000 0.000000
#
# Coordination Sequence:
#
# PCOD9156581 Si02
#       6
#     4   4   4   4   4   4
#     4  11  21  34  52  75 104 139 179 218 256 303
#     4  10  18  29  47  71 103 137 171 213 256 302
#     4   8  17  32  49  73 102 132 167 209 258 310
#     4  10  19  31  48  70 101 141 176 206 250 307
#     4  10  20  37  60  83 105 129 164 215 268 317
#     4  11  21  32  49  73 106 144 181 216 251 300
#
# _framework density 18.259242
#
# number of rings (size 3 to 8) (size 9 to 14) (size 15 to 20)
#    0.000    2.000    1.667    4.500    0.000    0.667 
#    0.000    4.167    0.000    1.000    0.000    0.000 
#    0.000    0.000    0.000    0.000    0.000    0.000 
#
# Total GULP energy -133895.603221 kJ/mol
# GULP energy per Si atom -5578.983468 kJ/mol
# Density = 1.821768 g / cm^3
# Si number density = 18.259242 Si / 1000 Ang^3
#
#
#
# Elastic Constant Matrix: (Units=GPa)
#
#
# Indices 1 2 3 4 5 6 
#
# 1 183.3580 9.7870 58.4629 0.0000 2.0009 0.0000
# 2 9.7870 47.4439 1.0981 0.0000 -0.9186 0.0000
# 3 58.4629 1.0981 84.6340 0.0000 -6.0124 0.0000
# 4 0.0000 0.0000 0.0000 21.8339 0.0000 -4.3938
# 5 2.0009 -0.9186 -6.0124 0.0000 12.2481 0.0000
# 6 0.0000 0.0000 0.0000 -4.3938 0.0000 14.6292
#
#
#
# Elastic Compliance Matrix: (Units=1/GPa)
#
#
# Indices 1 2 3 4 5 6 
#
# 1 0.007253 -0.001449 -0.005267 0.000000 -0.003879 0.000000
# 2 -0.001449 0.021400 0.000885 0.000000 0.002276 0.000000
# 3 -0.005267 0.000885 0.016068 0.000000 0.008815 0.000000
# 4 0.000000 0.000000 0.000000 0.048747 0.000000 0.014641
# 5 -0.003879 0.002276 0.008815 0.000000 0.086776 0.000000
# 6 0.000000 0.000000 0.000000 0.014641 0.000000 0.072754
#
#
# Mechanical properties :
#
#
# Convention : Reuss Voigt Hill
#
# Bulk Modulus (GPa) = 30.24851 50.45909 40.35380
# Shear Modulus (GPa) = 18.13699 26.14811 22.14255
#
# Velocity S-wave (km/s) = 3.15509 3.78835 3.48613
# Velocity P-wave (km/s) = 5.46579 6.84326 6.19295
#
# Compressibility (1/GPa) = 0.03305948
#
# Stress axis : x y z
#
# Youngs Moduli (GPa) = 137.87789 46.72877 62.23378
#
# Poissons Ratio (x) = 0.06773 0.32777
# Poissons Ratio (y) = 0.19983 -0.05509
# Poissons Ratio (z) = 0.72617 -0.04136
#
# Static dielectric constant tensor:
#      x y z
#    x 1.685560 0.000000 0.026330 
#    y 0.000000 1.663190 0.000000 
#    z 0.026330 0.000000 1.598630 
# 
# From -- ./inp_files/36881.got.cif
#   From: 2010.05.17/outbox.cif.g08.bks.cpg/sg11_19_cif.got.tgz:36881.got - 2010.06.03 12:22:45.
