data_PCOD9156717
_publ_section_title
;
Structure prediction by ZEFSAII (Michael W. Deem and Ramdas Pophale) SiO2 
 PCOD9156717
Probable space group: P 21/M
;
_chemical_formula_sum "Si O2"
_cell_formula_units_Z 32
_cell_length_a 24.558186
_cell_length_b 8.667585
_cell_length_c 18.256505
_cell_angle_alpha 90.000000
_cell_angle_beta 149.194529
_cell_angle_gamma 90.000000
_cell_volume 1990.159623
_symmetry_space_group_name_H-M "P 21/M"
_symmetry_group_IT_number 11
_symmetry_cell_setting 'monoclinic'
loop_
_space_group_symop_operation_xyz
x,y,z
-x,1/2+y,-z
-x,-y,-z
x,1/2-y,z
loop_
_atom_site_type_symbol
_atom_site_label
_atom_site_fract_x
_atom_site_fract_y
_atom_site_fract_z
Si Si1 0.884367 0.064404 0.387235
Si Si2 0.520451 0.436284 0.442511
Si Si3 0.175285 0.564685 0.836715
Si Si4 0.304770 0.434793 0.116632
Si Si5 0.092859 0.434613 0.272872
Si Si6 0.857107 0.063715 0.949273
Si Si7 0.057841 0.935429 0.390460
Si Si8 0.241149 0.563776 0.320078
O O1 0.888005 0.250000 0.390709
O O2 0.812286 0.018339 0.234603
O O3 0.870621 0.018516 0.456099
O O4 0.000000 0.000000 0.500000
O O5 0.500000 0.500000 0.500000
O O6 0.520675 0.250000 0.447109
O O7 0.422746 0.483283 0.277727
O O8 0.636264 0.484776 0.547853
O O9 0.171367 0.750000 0.837129
O O10 0.061263 0.500256 0.732948
O O11 0.265360 0.501962 0.994241
O O12 0.300841 0.250000 0.109080
O O13 0.222874 0.492636 0.084021
O O14 0.094705 0.250000 0.278148
O O15 0.100005 0.500970 0.362789
O O16 0.183538 0.494365 0.323656
O O17 0.977556 0.482216 0.107065
O O18 0.849736 0.250000 0.946100
O O19 0.821330 0.018580 0.826361
O O20 0.051428 0.750000 0.380033
O O21 0.238085 0.750000 0.321436
#
# Coordination Sequence:
#
# PCOD9156717 Si02
#       8
#     4   4   4   4   4   4   4   4
#     4   8  16  28  44  67  96 129 163 196 236 289
#     4  10  21  36  54  74  96 126 167 212 252 292
#     4  10  18  30  47  70 101 133 164 200 242 291
#     4  11  21  31  49  76 101 130 167 205 247 293
#     4  11  22  33  48  74 103 132 167 204 243 293
#     4  10  20  34  51  70  98 132 165 202 246 291
#     4  10  18  30  48  71  99 132 165 199 242 291
#     4  10  21  37  53  69  94 132 171 207 249 292
#
# _framework density 16.079111999999999
#
# number of rings (size 3 to 8) (size 9 to 14) (size 15 to 20)
#    0.000    2.000    2.500    1.875    0.000    3.000 
#    0.000    0.000    0.000    0.000    0.000    0.875 
#    0.000    0.000    0.000    0.000    0.000    0.000 
#
# Total GULP energy -178461.254082 kJ/mol
# GULP energy per Si atom -5576.914190 kJ/mol
# Density = 1.604251 g / cm^3
# Si number density = 16.079112 Si / 1000 Ang^3
#
#
#
# Elastic Constant Matrix: (Units=GPa)
#
#
# Indices 1 2 3 4 5 6 
#
# 1 133.5597 33.7741 99.4277 0.0000 -16.5206 0.0000
# 2 33.7741 21.9264 31.3505 0.0000 -5.0911 0.0000
# 3 99.4277 31.3505 120.5354 0.0000 -26.6574 0.0000
# 4 0.0000 0.0000 0.0000 17.5328 0.0000 -4.2976
# 5 -16.5206 -5.0911 -26.6574 0.0000 31.3833 0.0000
# 6 0.0000 0.0000 0.0000 -4.2976 0.0000 19.6876
#
#
#
# Elastic Compliance Matrix: (Units=1/GPa)
#
#
# Indices 1 2 3 4 5 6 
#
# 1 0.021633 -0.011925 -0.015579 0.000000 -0.003780 0.000000
# 2 -0.011925 0.079892 -0.011654 0.000000 -0.003216 0.000000
# 3 -0.015579 -0.011654 0.027023 0.000000 0.012862 0.000000
# 4 0.000000 0.000000 0.000000 0.060260 0.000000 0.013154
# 5 -0.003780 -0.003216 0.012862 0.000000 0.040278 0.000000
# 6 0.000000 0.000000 0.000000 0.013154 0.000000 0.053665
#
#
# Mechanical properties :
#
#
# Convention : Reuss Voigt Hill
#
# Bulk Modulus (GPa) = 19.90770 67.23623 43.57197
# Shear Modulus (GPa) = 13.23416 21.15201 17.19308
#
# Velocity S-wave (km/s) = 2.87202 3.63091 3.27353
# Velocity P-wave (km/s) = 4.83797 7.71263 6.43781
#
# Compressibility (1/GPa) = 0.05023181
#
# Stress axis : x y z
#
# Youngs Moduli (GPa) = 46.22576 12.51694 37.00568
#
# Poissons Ratio (x) = 0.14926 0.57651
# Poissons Ratio (y) = 0.55123 0.43127
# Poissons Ratio (z) = 0.72015 0.14587
#
# Static dielectric constant tensor:
#      x y z
#    x 1.519750 0.000000 -0.032760 
#    y 0.000000 1.542690 0.000000 
#    z -0.032760 0.000000 1.551430 
# 
# From -- ./inp_files/43788.got.cif
#   From: 2010.05.17/outbox.cif.g08.bks.cpg/sg11_22_cif.got.tgz:43788.got - 2010.06.03 12:22:45.
