data_PCOD9156568
_publ_section_title
;
Structure prediction by ZEFSAII (Michael W. Deem and Ramdas Pophale) SiO2 
 PCOD9156568
Probable space group: P 21/M
;
_chemical_formula_sum "Si O2"
_cell_formula_units_Z 32
_cell_length_a 12.270446
_cell_length_b 8.377678
_cell_length_c 22.296205
_cell_angle_alpha 90.000000
_cell_angle_beta 50.805336
_cell_angle_gamma 90.000000
_cell_volume 1776.309094
_symmetry_space_group_name_H-M "P 21/M"
_symmetry_group_IT_number 11
_symmetry_cell_setting 'monoclinic'
loop_
_space_group_symop_operation_xyz
x,y,z
-x,1/2+y,-z
-x,-y,-z
x,1/2-y,z
loop_
_atom_site_type_symbol
_atom_site_label
_atom_site_fract_x
_atom_site_fract_y
_atom_site_fract_z
Si Si1 0.156822 0.059265 0.959703
Si Si2 0.718718 0.062236 0.829874
Si Si3 0.048250 0.941298 0.418638
Si Si4 0.867278 0.439406 0.236021
Si Si5 0.015796 0.939581 0.681647
Si Si6 0.359466 0.945206 0.268917
Si Si7 0.171376 0.941051 0.086242
Si Si8 0.650731 0.557315 0.217872
O O1 0.155223 0.250000 0.959528
O O2 0.258698 0.003156 0.871219
O O3 0.203767 0.004235 0.009119
O O4 0.000000 0.000000 0.000000
O O5 0.687059 0.250000 0.846175
O O6 0.628642 0.999086 0.804922
O O7 0.729181 0.996121 0.893943
O O8 0.877553 0.037366 0.750045
O O9 0.043618 0.750000 0.417943
O O10 0.209120 0.993575 0.348322
O O11 0.955460 0.010874 0.396327
O O12 0.000000 0.000000 0.500000
O O13 0.878214 0.250000 0.224197
O O14 0.731567 0.500181 0.248496
O O15 0.871093 0.473650 0.305883
O O16 0.010107 0.512692 0.158218
O O17 0.984170 0.750000 0.695032
O O18 0.359362 0.750000 0.267079
O O19 0.491347 0.996788 0.262555
O O20 0.179513 0.750000 0.083031
O O21 0.651341 0.750000 0.218124
#
# Coordination Sequence:
#
# PCOD9156568 Si02
#       8
#     4   4   4   4   4   4   4   4
#     4  11  21  31  45  67  96 129 168 215 255 293
#     4   8  15  29  49  69  92 125 164 205 248 294
#     4  10  19  33  56  82 106 130 157 195 239 288
#     4  10  19  30  47  71  99 129 164 209 251 285
#     4   9  17  29  47  74 103 128 159 200 243 287
#     4   8  16  33  53  73  97 128 164 198 239 294
#     4  10  18  29  47  69  93 125 166 211 256 298
#     4  10  20  33  50  69  94 132 171 204 245 298
#
# _framework density 18.014882
#
# number of rings (size 3 to 8) (size 9 to 14) (size 15 to 20)
#    0.000    2.500    1.250    2.625    0.000    2.500 
#    0.000    3.750    0.000    0.750    0.000    0.000 
#    0.000    0.000    0.000    0.000    0.000    0.000 
#
# Total GULP energy -178296.289807 kJ/mol
# GULP energy per Si atom -5571.759056 kJ/mol
# Density = 1.797388 g / cm^3
# Si number density = 18.014882 Si / 1000 Ang^3
#
#
#
# Elastic Constant Matrix: (Units=GPa)
#
#
# Indices 1 2 3 4 5 6 
#
# 1 122.6912 19.3540 49.3627 0.0000 27.1350 0.0000
# 2 19.3540 22.1392 13.8303 0.0000 3.2943 0.0000
# 3 49.3627 13.8303 79.3297 0.0000 28.5413 0.0000
# 4 0.0000 0.0000 0.0000 20.5705 0.0000 11.8868
# 5 27.1350 3.2943 28.5413 0.0000 29.7422 0.0000
# 6 0.0000 0.0000 0.0000 11.8868 0.0000 13.8337
#
#
#
# Elastic Compliance Matrix: (Units=1/GPa)
#
#
# Indices 1 2 3 4 5 6 
#
# 1 0.012401 -0.007319 -0.004065 0.000000 -0.006602 0.000000
# 2 -0.007319 0.055385 -0.008090 0.000000 0.008306 0.000000
# 3 -0.004065 -0.008090 0.022740 0.000000 -0.017217 0.000000
# 4 0.000000 0.000000 0.000000 0.096556 0.000000 -0.082968
# 5 -0.006602 0.008306 -0.017217 0.000000 0.055247 0.000000
# 6 0.000000 0.000000 0.000000 -0.082968 0.000000 0.143579
#
#
# Mechanical properties :
#
#
# Convention : Reuss Voigt Hill
#
# Bulk Modulus (GPa) = 19.38832 43.25044 31.31938
# Shear Modulus (GPa) = 11.31100 22.27017 16.79058
#
# Velocity S-wave (km/s) = 2.50845 3.51979 3.05624
# Velocity P-wave (km/s) = 4.37899 6.37015 5.46600
#
# Compressibility (1/GPa) = 0.05157745
#
# Stress axis : x y z
#
# Youngs Moduli (GPa) = 80.64061 18.05554 43.97583
#
# Poissons Ratio (x) = 0.13215 0.17876
# Poissons Ratio (y) = 0.59019 0.35576
# Poissons Ratio (z) = 0.32781 0.14607
#
# Static dielectric constant tensor:
#      x y z
#    x 1.653920 0.000000 0.035200 
#    y 0.000000 1.627710 0.000000 
#    z 0.035200 0.000000 1.612540 
# 
# From -- ./inp_files/64185.got.cif
#   From: 2010.05.17/outbox.cif.g08.bks.cpg/sg11_33_cif.got.tgz:64185.got - 2010.06.03 12:22:45.
