data_PCOD9156061
_publ_section_title
;
Structure prediction by ZEFSAII (Michael W. Deem and Ramdas Pophale) SiO2 
 PCOD9156061
Probable space group: P 21/M
;
_chemical_formula_sum "Si O2"
_cell_formula_units_Z 24
_cell_length_a 10.365805
_cell_length_b 14.765496
_cell_length_c 8.817120
_cell_angle_alpha 90.000000
_cell_angle_beta 40.875465
_cell_angle_gamma 90.000000
_cell_volume 883.145897
_symmetry_space_group_name_H-M "P 21/M"
_symmetry_group_IT_number 11
_symmetry_cell_setting 'monoclinic'
loop_
_space_group_symop_operation_xyz
x,y,z
-x,1/2+y,-z
-x,-y,-z
x,1/2-y,z
loop_
_atom_site_type_symbol
_atom_site_label
_atom_site_fract_x
_atom_site_fract_y
_atom_site_fract_z
Si Si1 0.025826 0.390361 0.482215
Si Si2 0.596337 0.961331 0.560662
Si Si3 0.549020 0.154759 0.709809
Si Si4 0.026058 0.899456 0.136265
Si Si5 0.510634 0.898072 0.923748
Si Si6 0.079441 0.115427 0.095033
O O1 0.930641 0.362349 0.730359
O O2 0.259549 0.373160 0.291825
O O3 0.994442 0.356085 0.336767
O O4 0.000000 0.500000 0.500000
O O5 0.647559 0.058550 0.587231
O O6 0.500000 0.000000 0.500000
O O7 0.786784 0.904711 0.354001
O O8 0.452215 0.905614 0.799921
O O9 0.607839 0.250000 0.585069
O O10 0.579937 0.159407 0.863317
O O11 0.311182 0.144689 0.891557
O O12 0.045768 0.859946 0.946509
O O13 0.087496 0.005452 0.082497
O O14 0.500000 0.000000 0.000000
#
# Coordination Sequence:
#
# PCOD9156061 Si02
#       6
#     4   4   4   4   4   4
#     4   8  14  24  41  66  91 113 149 198 235 274
#     4  10  17  30  50  73  99 127 169 212 244 294
#     4  10  19  32  48  70 100 131 163 207 263 306
#     4   9  16  27  47  72  94 120 165 207 239 285
#     4   8  16  28  45  65  90 123 162 197 239 288
#     4   9  16  28  46  69  95 123 159 202 249 292
#
# _framework density 27.175578000000002
#
# number of rings (size 3 to 8) (size 9 to 14) (size 15 to 20)
#    0.000    3.000    1.667    0.000    0.000    0.000 
#    0.000    1.667    0.000    0.000    0.000    0.000 
#    0.000    0.000    0.000    0.000    0.000    0.000 
#
# Total GULP energy -133702.829579 kJ/mol
# GULP energy per Si atom -5570.951232 kJ/mol
# Density = 2.711373 g / cm^3
# Si number density = 27.175578 Si / 1000 Ang^3
#
#
#
# Elastic Constant Matrix: (Units=GPa)
#
#
# Indices 1 2 3 4 5 6 
#
# 1 145.1325 -1.4563 48.2655 0.0000 55.2969 0.0000
# 2 -1.4563 72.4894 16.9036 0.0000 20.2712 0.0000
# 3 48.2655 16.9036 140.8520 0.0000 48.8768 0.0000
# 4 0.0000 0.0000 0.0000 -6.3160 0.0000 -2.6316
# 5 55.2969 20.2712 48.8768 0.0000 64.0528 0.0000
# 6 0.0000 0.0000 0.0000 -2.6316 0.0000 -24.1585
#
#
#
# Elastic Compliance Matrix: (Units=1/GPa)
#
#
# Indices 1 2 3 4 5 6 
#
# 1 0.010923 0.003149 -0.000684 0.000000 -0.009904 0.000000
# 2 0.003149 0.016047 -0.000407 0.000000 -0.007486 0.000000
# 3 -0.000684 -0.000407 0.009702 0.000000 -0.006684 0.000000
# 4 0.000000 0.000000 0.000000 -0.165855 0.000000 0.018066
# 5 -0.009904 -0.007486 -0.006684 0.000000 0.031632 0.000000
# 6 0.000000 0.000000 0.000000 0.018066 0.000000 -0.043361
#
#
# Mechanical properties :
#
#
# Convention : Reuss Voigt Hill
#
# Bulk Modulus (GPa) = 24.51726 53.98882 39.25304
# Shear Modulus (GPa) = -38.04280 26.36637 -5.83821
#
# Velocity S-wave (km/s) = -3.74557 3.11822 -1.46731
# Velocity P-wave (km/s) = 3.10875 5.73360 3.40660
#
# Compressibility (1/GPa) = 0.04078760
#
# Stress axis : x y z
#
# Youngs Moduli (GPa) = 91.55009 62.31807 103.06747
#
# Poissons Ratio (x) = -0.19622 0.07049
# Poissons Ratio (y) = -0.28826 0.04194
# Poissons Ratio (z) = 0.06261 0.02536
#
# Static dielectric constant tensor:
#      x y z
#    x 2.408910 0.000000 0.097430 
#    y 0.000000 1.991380 0.000000 
#    z 0.097430 0.000000 2.275050 
# 
# From -- ./inp_files/18421.got.cif
#   From: 2010.05.17/outbox.cif.g08.bks.cpg/sg11_10_cif.got.tgz:18421.got - 2010.06.03 12:22:45.
