data_PCOD9156544
_publ_section_title
;
Structure prediction by ZEFSAII (Michael W. Deem and Ramdas Pophale) SiO2 
 PCOD9156544
Probable space group: P 21/M
;
_chemical_formula_sum "Si O2"
_cell_formula_units_Z 32
_cell_length_a 21.188170
_cell_length_b 8.761808
_cell_length_c 12.911619
_cell_angle_alpha 90.000000
_cell_angle_beta 114.485052
_cell_angle_gamma 90.000000
_cell_volume 2181.435666
_symmetry_space_group_name_H-M "P 21/M"
_symmetry_group_IT_number 11
_symmetry_cell_setting 'monoclinic'
loop_
_space_group_symop_operation_xyz
x,y,z
-x,1/2+y,-z
-x,-y,-z
x,1/2-y,z
loop_
_atom_site_type_symbol
_atom_site_label
_atom_site_fract_x
_atom_site_fract_y
_atom_site_fract_z
Si Si1 0.924593 0.069397 0.961589
Si Si2 0.673202 0.432664 0.998105
Si Si3 0.408410 0.934365 0.269941
Si Si4 0.332719 0.433005 0.420241
Si Si5 0.428889 0.433765 0.904958
Si Si6 0.791655 0.069178 0.761019
Si Si7 0.800386 0.568791 0.983306
Si Si8 0.434595 0.435392 0.670473
O O1 0.928813 0.250000 0.981100
O O2 0.874661 0.044452 0.826531
O O3 0.878618 0.994729 0.022442
O O4 0.000000 0.000000 0.000000
O O5 0.673771 0.250000 0.007051
O O6 0.629399 0.472406 0.864268
O O7 0.750963 0.494766 0.034891
O O8 0.633894 0.505785 0.068021
O O9 0.404814 0.750000 0.278608
O O10 0.488763 0.981917 0.314700
O O11 0.373251 0.008791 0.345963
O O12 0.329525 0.250000 0.416612
O O13 0.255057 0.500272 0.360309
O O14 0.375746 0.484667 0.549978
O O15 0.431726 0.250000 0.910611
O O16 0.422881 0.482564 0.780995
O O17 0.500000 0.500000 0.000000
O O18 0.779164 0.250000 0.761229
O O19 0.768288 0.986486 0.851377
O O20 0.800508 0.750000 0.990867
O O21 0.434775 0.250000 0.670188
#
# Coordination Sequence:
#
# PCOD9156544 Si02
#       8
#     4   4   4   4   4   4   4   4
#     4   9  17  28  45  69 101 133 158 188 226 272
#     4  11  20  32  50  69  93 121 158 203 248 290
#     4  10  18  31  47  62  88 120 146 191 250 287
#     4  11  20  30  47  67  89 119 159 195 232 287
#     4  11  21  36  52  66  88 119 160 207 255 296
#     4   9  18  30  43  63  94 126 151 183 227 266
#     4  10  18  29  46  69  94 125 160 189 228 280
#     4   9  20  35  46  62  88 118 153 202 248 283
#
# _framework density 14.669238
#
# number of rings (size 3 to 8) (size 9 to 14) (size 15 to 20)
#    0.750    1.250    2.500    3.000    0.000    0.500 
#    0.000    3.125    0.000    0.000    0.000    0.000 
#    0.000    1.000    0.000    3.000    0.000    4.625 
#
# Total GULP energy -178173.775830 kJ/mol
# GULP energy per Si atom -5567.930495 kJ/mol
# Density = 1.463585 g / cm^3
# Si number density = 14.669238 Si / 1000 Ang^3
#
#
#
# Elastic Constant Matrix: (Units=GPa)
#
#
# Indices 1 2 3 4 5 6 
#
# 1 122.6218 41.9468 49.0779 0.0000 9.5118 0.0000
# 2 41.9468 61.3663 32.3037 0.0000 3.7654 0.0000
# 3 49.0779 32.3037 79.6207 0.0000 2.1797 0.0000
# 4 0.0000 0.0000 0.0000 16.1859 0.0000 0.6396
# 5 9.5118 3.7654 2.1797 0.0000 16.1743 0.0000
# 6 0.0000 0.0000 0.0000 0.6396 0.0000 26.7668
#
#
#
# Elastic Compliance Matrix: (Units=1/GPa)
#
#
# Indices 1 2 3 4 5 6 
#
# 1 0.012600 -0.005430 -0.005415 0.000000 -0.005416 0.000000
# 2 -0.005430 0.023284 -0.006061 0.000000 -0.001411 0.000000
# 3 -0.005415 -0.006061 0.018299 0.000000 0.002130 0.000000
# 4 0.000000 0.000000 0.000000 0.061840 0.000000 -0.001478
# 5 -0.005416 -0.001411 0.002130 0.000000 0.065053 0.000000
# 6 0.000000 0.000000 0.000000 -0.001478 0.000000 0.037395
#
#
# Mechanical properties :
#
#
# Convention : Reuss Voigt Hill
#
# Bulk Modulus (GPa) = 49.09225 56.69618 52.89422
# Shear Modulus (GPa) = 19.29944 21.17744 20.23844
#
# Velocity S-wave (km/s) = 3.63111 3.80368 3.71840
# Velocity P-wave (km/s) = 7.14974 7.61737 7.38725
#
# Compressibility (1/GPa) = 0.02036982
#
# Stress axis : x y z
#
# Youngs Moduli (GPa) = 79.36393 42.94717 54.64907
#
# Poissons Ratio (x) = 0.23319 0.29595
# Poissons Ratio (y) = 0.43092 0.33125
# Poissons Ratio (z) = 0.42979 0.26032
#
# Static dielectric constant tensor:
#      x y z
#    x 1.499590 0.000000 0.014530 
#    y 0.000000 1.489110 0.000000 
#    z 0.014530 0.000000 1.478590 
# 
# From -- ./inp_files/42190.got.cif
#   From: 2010.05.17/outbox.cif.g08.bks.cpg/sg11_22_cif.got.tgz:42190.got - 2010.06.03 12:22:45.
