data_PCOD9156166
_publ_section_title
;
Structure prediction by ZEFSAII (Michael W. Deem and Ramdas Pophale) SiO2 
 PCOD9156166
Probable space group: P 21/M
;
_chemical_formula_sum "Si O2"
_cell_formula_units_Z 30
_cell_length_a 23.611285
_cell_length_b 16.365935
_cell_length_c 8.716116
_cell_angle_alpha 90.000000
_cell_angle_beta 153.945639
_cell_angle_gamma 90.000000
_cell_volume 1479.344150
_symmetry_space_group_name_H-M "P 21/M"
_symmetry_group_IT_number 11
_symmetry_cell_setting 'monoclinic'
loop_
_space_group_symop_operation_xyz
x,y,z
-x,1/2+y,-z
-x,-y,-z
x,1/2-y,z
loop_
_atom_site_type_symbol
_atom_site_label
_atom_site_fract_x
_atom_site_fract_y
_atom_site_fract_z
Si Si1 0.979210 0.959102 0.734592
Si Si2 0.928360 0.842849 0.321017
Si Si3 0.616208 0.022781 0.567462
Si Si4 0.180854 0.343340 0.473261
Si Si5 0.411487 0.384042 0.244711
Si Si6 0.176310 0.886068 0.736696
Si Si7 0.762743 0.559916 0.682136
Si Si8 0.375793 0.750000 0.137891
O O1 0.959043 0.904731 0.533202
O O2 0.941482 0.899396 0.781287
O O3 0.878121 0.034525 0.483972
O O4 0.121749 0.996462 0.075084
O O5 0.903890 0.750000 0.311966
O O6 0.051813 0.844539 0.509051
O O7 0.814104 0.881547 0.943458
O O8 0.616383 0.950286 0.692658
O O9 0.643383 0.988251 0.465189
O O10 0.485869 0.071394 0.285018
O O11 0.734275 0.080950 0.906201
O O12 0.144947 0.250000 0.355344
O O13 0.251116 0.383391 0.498807
O O14 0.280289 0.348069 0.857308
O O15 0.512080 0.320070 0.558326
O O16 0.263776 0.822582 0.857523
#
# Coordination Sequence:
#
# PCOD9156166 Si02
#       8
#     4   4   4   4   4   4   4   2
#     4  11  21  38  62  85 114 152 199 231 293 348
#     4  11  19  33  58  93 113 145 187 241 291 333
#     4  10  19  38  62  86 110 143 202 242 286 334
#     4  12  24  40  53  83 121 158 192 235 287 346
#     4  10  21  37  62  86 112 152 194 245 283 341
#     4  10  17  33  59  87 113 140 185 248 283 337
#     4  11  22  38  59  84 118 156 189 233 292 356
#     4  10  20  34  58  92 114 146 194 244 294 326
#
# _framework density 20.279257000000001
#
# number of rings (size 3 to 8) (size 9 to 14) (size 15 to 20)
#    0.000    1.333    5.333    2.000    0.000    0.533 
#    2.400    0.000    0.000    0.000    0.000    0.000 
#    0.000    0.000    0.000    0.000    0.000    0.000 
#
# Total GULP energy -167002.997593 kJ/mol
# GULP energy per Si atom -5566.766586 kJ/mol
# Density = 2.023310 g / cm^3
# Si number density = 20.279257 Si / 1000 Ang^3
#
#
#
# Elastic Constant Matrix: (Units=GPa)
#
#
# Indices 1 2 3 4 5 6 
#
# 1 34.2880 14.7325 10.4187 0.0000 11.8214 0.0000
# 2 14.7325 109.8479 17.0300 0.0000 17.4001 0.0000
# 3 10.4187 17.0300 37.6642 0.0000 13.7301 0.0000
# 4 0.0000 0.0000 0.0000 9.6505 0.0000 -1.8344
# 5 11.8214 17.4001 13.7301 0.0000 21.5457 0.0000
# 6 0.0000 0.0000 0.0000 -1.8344 0.0000 13.4961
#
#
#
# Elastic Compliance Matrix: (Units=1/GPa)
#
#
# Indices 1 2 3 4 5 6 
#
# 1 0.036642 -0.001779 -0.003291 0.000000 -0.016570 0.000000
# 2 -0.001779 0.010660 -0.002013 0.000000 -0.006350 0.000000
# 3 -0.003291 -0.002013 0.035327 0.000000 -0.019081 0.000000
# 4 0.000000 0.000000 0.000000 0.106369 0.000000 0.014458
# 5 -0.016570 -0.006350 -0.019081 0.000000 0.072792 0.000000
# 6 0.000000 0.000000 0.000000 0.014458 0.000000 0.076061
#
#
# Mechanical properties :
#
#
# Convention : Reuss Voigt Hill
#
# Bulk Modulus (GPa) = 14.60663 29.57361 22.09012
# Shear Modulus (GPa) = 13.33910 18.24638 15.79274
#
# Velocity S-wave (km/s) = 2.56749 3.00285 2.79366
# Velocity P-wave (km/s) = 4.00096 5.16117 4.61765
#
# Compressibility (1/GPa) = 0.06846206
#
# Stress axis : x y z
#
# Youngs Moduli (GPa) = 27.29106 93.80808 28.30723
#
# Poissons Ratio (x) = 0.16692 0.09316
# Poissons Ratio (y) = 0.04856 0.05698
# Poissons Ratio (z) = 0.08981 0.18883
#
# Static dielectric constant tensor:
#      x y z
#    x 1.751450 0.000000 0.001870 
#    y 0.000000 1.740360 0.000000 
#    z 0.001870 0.000000 1.706740 
# 
# From -- ./inp_files/27754.got.cif
#   From: 2010.05.17/outbox.cif.g08.bks.cpg/sg11_14_cif.got.tgz:27754.got - 2010.06.03 12:22:45.
