data_PCOD9156922
_publ_section_title
;
Structure prediction by ZEFSAII (Michael W. Deem and Ramdas Pophale) SiO2 
 PCOD9156922
Probable space group: P 21/M
;
_chemical_formula_sum "Si O2"
_cell_formula_units_Z 32
_cell_length_a 11.916901
_cell_length_b 17.398037
_cell_length_c 10.732982
_cell_angle_alpha 90.000000
_cell_angle_beta 53.401648
_cell_angle_gamma 90.000000
_cell_volume 1786.529026
_symmetry_space_group_name_H-M "P 21/M"
_symmetry_group_IT_number 11
_symmetry_cell_setting 'monoclinic'
loop_
_space_group_symop_operation_xyz
x,y,z
-x,1/2+y,-z
-x,-y,-z
x,1/2-y,z
loop_
_atom_site_type_symbol
_atom_site_label
_atom_site_fract_x
_atom_site_fract_y
_atom_site_fract_z
Si Si1 0.317253 0.985752 0.747106
Si Si2 0.901160 0.837788 0.711531
Si Si3 0.911063 0.561150 0.926690
Si Si4 0.847140 0.161143 0.102396
Si Si5 0.121229 0.934669 0.434006
Si Si6 0.630272 0.990296 0.577782
Si Si7 0.958542 0.396573 0.777256
Si Si8 0.240236 0.337059 0.463852
O O1 0.283802 0.896209 0.796175
O O2 0.468543 0.012107 0.696259
O O3 0.321118 0.994898 0.595941
O O4 0.197265 0.034641 0.895905
O O5 0.912000 0.750000 0.745645
O O6 0.843156 0.891966 0.858112
O O7 0.809955 0.840573 0.646377
O O8 0.051681 0.871586 0.570361
O O9 0.970468 0.482229 0.827715
O O10 0.030288 0.616883 0.902265
O O11 0.828925 0.250000 0.151192
O O12 0.894103 0.155523 0.927341
O O13 0.135611 0.902482 0.284854
O O14 0.260170 0.969336 0.401895
O O15 0.000000 0.000000 0.500000
O O16 0.641803 0.899309 0.592577
O O17 0.106691 0.364387 0.633164
O O18 0.277364 0.250000 0.470332
#
# Coordination Sequence:
#
# PCOD9156922 Si02
#       8
#     4   4   4   4   4   4   4   4
#     4  10  24  36  57  77 110 145 182 221 264 333
#     4  10  19  31  53  85 112 136 177 230 273 309
#     4  11  19  34  54  77 107 144 183 221 263 322
#     4  11  22  35  55  81 110 142 176 226 276 319
#     4  11  18  33  61  84 106 142 184 228 262 313
#     4  11  20  39  55  80 107 144 184 222 269 319
#     4  10  18  32  52  83 108 134 182 230 262 313
#     4  10  18  30  53  81 109 138 173 225 275 314
#
# _framework density 17.911826999999999
#
# number of rings (size 3 to 8) (size 9 to 14) (size 15 to 20)
#    0.000    1.500    3.750    4.500    0.000    1.000 
#    0.000    6.250    0.000    3.750    0.000    0.000 
#    0.000    0.000    0.000    0.000    0.000    0.000 
#
# Total GULP energy -178568.717054 kJ/mol
# GULP energy per Si atom -5580.272408 kJ/mol
# Density = 1.787106 g / cm^3
# Si number density = 17.911827 Si / 1000 Ang^3
#
#
#
# Elastic Constant Matrix: (Units=GPa)
#
#
# Indices 1 2 3 4 5 6 
#
# 1 66.9326 2.6387 21.1442 0.0000 -1.7881 0.0000
# 2 2.6387 93.7243 16.0885 0.0000 6.7802 0.0000
# 3 21.1442 16.0885 57.9606 0.0000 10.8874 0.0000
# 4 0.0000 0.0000 0.0000 16.8052 0.0000 6.1572
# 5 -1.7881 6.7802 10.8874 0.0000 20.2384 0.0000
# 6 0.0000 0.0000 0.0000 6.1572 0.0000 20.7186
#
#
#
# Elastic Compliance Matrix: (Units=1/GPa)
#
#
# Indices 1 2 3 4 5 6 
#
# 1 0.017437 0.000402 -0.007494 0.000000 0.005437 0.000000
# 2 0.000402 0.011311 -0.002871 0.000000 -0.002209 0.000000
# 3 -0.007494 -0.002871 0.023058 0.000000 -0.012104 0.000000
# 4 0.000000 0.000000 0.000000 0.066776 0.000000 -0.019845
# 5 0.005437 -0.002209 -0.012104 0.000000 0.057143 0.000000
# 6 0.000000 0.000000 0.000000 -0.019845 0.000000 0.054163
#
#
# Mechanical properties :
#
#
# Convention : Reuss Voigt Hill
#
# Bulk Modulus (GPa) = 31.36854 33.15116 32.25985
# Shear Modulus (GPa) = 19.19817 23.46885 21.33351
#
# Velocity S-wave (km/s) = 3.27741 3.62365 3.45487
# Velocity P-wave (km/s) = 5.64559 6.00466 5.82789
#
# Compressibility (1/GPa) = 0.03187907
#
# Stress axis : x y z
#
# Youngs Moduli (GPa) = 57.34849 88.40963 43.36952
#
# Poissons Ratio (x) = -0.03555 0.32502
# Poissons Ratio (y) = -0.02306 0.12453
# Poissons Ratio (z) = 0.42978 0.25386
#
# Static dielectric constant tensor:
#      x y z
#    x 1.635230 0.000000 0.021860 
#    y 0.000000 1.632580 0.000000 
#    z 0.021860 0.000000 1.610630 
# 
# From -- ./inp_files/36038.got.cif
#   From: 2010.05.17/outbox.cif.g08.bks.cpg/sg11_19_cif.got.tgz:36038.got - 2010.06.03 12:22:45.
