data_PCOD9156812
_publ_section_title
;
Structure prediction by ZEFSAII (Michael W. Deem and Ramdas Pophale) SiO2 
 PCOD9156812
Probable space group: P 21/M
;
_chemical_formula_sum "Si O2"
_cell_formula_units_Z 32
_cell_length_a 10.449439
_cell_length_b 9.679280
_cell_length_c 16.926679
_cell_angle_alpha 90.000000
_cell_angle_beta 91.806087
_cell_angle_gamma 90.000000
_cell_volume 1711.165372
_symmetry_space_group_name_H-M "P 21/M"
_symmetry_group_IT_number 11
_symmetry_cell_setting 'monoclinic'
loop_
_space_group_symop_operation_xyz
x,y,z
-x,1/2+y,-z
-x,-y,-z
x,1/2-y,z
loop_
_atom_site_type_symbol
_atom_site_label
_atom_site_fract_x
_atom_site_fract_y
_atom_site_fract_z
Si Si1 0.692035 0.083283 0.151240
Si Si2 0.613008 0.909549 0.822965
Si Si3 0.976604 0.104818 0.397289
Si Si4 0.633577 0.584121 0.001964
Si Si5 0.397642 0.092683 0.589669
Si Si6 0.831108 0.591827 0.287159
Si Si7 0.789827 0.028114 0.533500
Si Si8 0.354034 0.905585 0.318957
O O1 0.710194 0.250000 0.144416
O O2 0.541036 0.062349 0.172109
O O3 0.781464 0.009641 0.217652
O O4 0.711940 0.998103 0.070057
O O5 0.625500 0.750000 0.800215
O O6 0.673999 0.926821 0.911174
O O7 0.674787 0.005143 0.758087
O O8 0.957273 0.250000 0.354340
O O9 0.878605 0.099989 0.469451
O O10 0.945587 0.978564 0.338737
O O11 0.117676 0.094668 0.436311
O O12 0.619165 0.750000 0.018854
O O13 0.500000 0.500000 0.000000
O O14 0.430315 0.250000 0.566366
O O15 0.284127 0.097955 0.651485
O O16 0.519556 0.032059 0.636687
O O17 0.338741 0.013268 0.514781
O O18 0.857161 0.750000 0.262223
O O19 0.750158 0.099215 0.613947
O O20 0.386070 0.750000 0.293955
#
# Coordination Sequence:
#
# PCOD9156812 Si02
#       8
#     4   4   4   4   4   4   4   4
#     4  10  18  30  49  75 105 137 174 210 250 303
#     4   9  19  32  46  71 105 139 171 205 248 302
#     4  10  21  37  55  73  98 132 175 224 266 306
#     4   9  17  29  46  70 102 139 175 209 248 299
#     4   9  18  32  49  73 102 134 169 207 257 310
#     4  10  19  32  52  76 104 136 170 213 260 307
#     4  10  21  35  53  74 100 132 174 218 266 307
#     4  11  21  33  51  75 104 136 173 212 255 311
#
# _framework density 18.700706
#
# number of rings (size 3 to 8) (size 9 to 14) (size 15 to 20)
#    0.000    2.250    1.250    3.000    0.000    7.000 
#    0.000    0.625    0.000    0.000    0.000    0.875 
#    0.000    0.000    0.000    0.000    0.000    0.000 
#
# Total GULP energy -178164.391811 kJ/mol
# GULP energy per Si atom -5567.637244 kJ/mol
# Density = 1.865814 g / cm^3
# Si number density = 18.700706 Si / 1000 Ang^3
#
#
#
# Elastic Constant Matrix: (Units=GPa)
#
#
# Indices 1 2 3 4 5 6 
#
# 1 16.6959 10.5830 9.7453 0.0000 7.1718 0.0000
# 2 10.5830 118.2435 66.3932 0.0000 8.2959 0.0000
# 3 9.7453 66.3932 114.5611 0.0000 11.3147 0.0000
# 4 0.0000 0.0000 0.0000 10.4524 0.0000 4.1386
# 5 7.1718 8.2959 11.3147 0.0000 13.7456 0.0000
# 6 0.0000 0.0000 0.0000 4.1386 0.0000 -15.1566
#
#
#
# Elastic Compliance Matrix: (Units=1/GPa)
#
#
# Indices 1 2 3 4 5 6 
#
# 1 0.079337 -0.004071 -0.000592 0.000000 -0.038450 0.000000
# 2 -0.004071 0.012783 -0.007086 0.000000 0.000242 0.000000
# 3 -0.000592 -0.007086 0.013533 0.000000 -0.006554 0.000000
# 4 0.000000 0.000000 0.000000 0.086337 0.000000 0.023575
# 5 -0.038450 0.000242 -0.006554 0.000000 0.098062 0.000000
# 6 0.000000 0.000000 0.000000 0.023575 0.000000 -0.059541
#
#
# Mechanical properties :
#
#
# Convention : Reuss Voigt Hill
#
# Bulk Modulus (GPa) = 12.17193 46.99374 29.58284
# Shear Modulus (GPa) = 17.76857 12.66022 15.21439
#
# Velocity S-wave (km/s) = 3.08580 2.60473 2.85541
# Velocity P-wave (km/s) = 4.38397 5.85065 5.16959
#
# Compressibility (1/GPa) = 0.08215621
#
# Stress axis : x y z
#
# Youngs Moduli (GPa) = 12.60438 78.22705 73.89138
#
# Poissons Ratio (x) = 0.31844 0.04376
# Poissons Ratio (y) = 0.05131 0.52360
# Poissons Ratio (z) = 0.00746 0.55432
#
# Static dielectric constant tensor:
#      x y z
#    x 1.646540 0.000000 0.003350 
#    y 0.000000 1.686270 0.000000 
#    z 0.003350 0.000000 1.662740 
# 
# From -- ./inp_files/49405.got.cif
#   From: 2010.05.17/outbox.cif.g08.bks.cpg/sg11_25_cif.got.tgz:49405.got - 2010.06.03 12:22:45.
