data_PCOD9156087
_publ_section_title
;
Structure prediction by ZEFSAII (Michael W. Deem and Ramdas Pophale) SiO2 
 PCOD9156087
Probable space group: P 21/M
;
_chemical_formula_sum "Si O2"
_cell_formula_units_Z 28
_cell_length_a 8.787824
_cell_length_b 19.286741
_cell_length_c 12.358281
_cell_angle_alpha 90.000000
_cell_angle_beta 50.387527
_cell_angle_gamma 90.000000
_cell_volume 1613.615814
_symmetry_space_group_name_H-M "P 21/M"
_symmetry_group_IT_number 11
_symmetry_cell_setting 'monoclinic'
loop_
_space_group_symop_operation_xyz
x,y,z
-x,1/2+y,-z
-x,-y,-z
x,1/2-y,z
loop_
_atom_site_type_symbol
_atom_site_label
_atom_site_fract_x
_atom_site_fract_y
_atom_site_fract_z
Si Si1 0.938024 0.671308 0.255017
Si Si2 0.328912 0.553459 0.292173
Si Si3 0.666827 0.406734 0.956392
Si Si4 0.250866 0.056520 0.798512
Si Si5 0.916760 0.544080 0.898068
Si Si6 0.981508 0.170998 0.529152
Si Si7 0.758931 0.904099 0.751345
O O1 0.893789 0.750000 0.245037
O O2 0.160922 0.650262 0.118267
O O3 0.791229 0.616958 0.267313
O O4 0.938194 0.664544 0.384736
O O5 0.386759 0.580510 0.145305
O O6 0.521992 0.544818 0.277298
O O7 0.230054 0.478828 0.314335
O O8 0.184236 0.611478 0.405854
O O9 0.770904 0.477515 0.949610
O O10 0.469376 0.393018 0.112473
O O11 0.144069 0.076970 0.960355
O O12 0.134596 0.988356 0.810240
O O13 0.880240 0.589092 0.808413
O O14 0.907578 0.250000 0.550149
O O15 0.150214 0.153539 0.366659
#
# Coordination Sequence:
#
# PCOD9156087 Si02
#       7
#     4   4   4   4   4   4   4
#     4   9  20  36  51  71 102 145 181 209 255 320
#     4  10  18  33  57  84 101 136 179 217 256 313
#     4   9  16  31  56  80 104 128 170 223 261 303
#     4  10  17  30  56  80 108 133 163 214 265 315
#     4   9  17  30  52  86 111 124 157 215 279 309
#     4  10  23  39  52  70 106 146 182 218 256 304
#     4  11  18  34  57  83 106 133 171 227 265 307
#
# _framework density 17.352333000000002
#
# number of rings (size 3 to 8) (size 9 to 14) (size 15 to 20)
#    0.000    2.286    2.857    2.143    0.000    1.143 
#    0.000    3.571    0.000    0.000    0.000    0.000 
#    0.000    0.000    0.000    0.000    0.000    0.000 
#
# Total GULP energy -156138.824279 kJ/mol
# GULP energy per Si atom -5576.386581 kJ/mol
# Density = 1.731284 g / cm^3
# Si number density = 17.352333 Si / 1000 Ang^3
#
#
#
# Elastic Constant Matrix: (Units=GPa)
#
#
# Indices 1 2 3 4 5 6 
#
# 1 74.7279 -0.2078 8.7394 0.0000 0.8887 0.0000
# 2 -0.2078 25.4150 10.0154 0.0000 9.7988 0.0000
# 3 8.7394 10.0154 66.0541 0.0000 -1.0797 0.0000
# 4 0.0000 0.0000 0.0000 18.1489 0.0000 3.6876
# 5 0.8887 9.7988 -1.0797 0.0000 13.6609 0.0000
# 6 0.0000 0.0000 0.0000 3.6876 0.0000 15.1331
#
#
#
# Elastic Compliance Matrix: (Units=1/GPa)
#
#
# Indices 1 2 3 4 5 6 
#
# 1 0.013665 0.001880 -0.002132 0.000000 -0.002406 0.000000
# 2 0.001880 0.060421 -0.010133 0.000000 -0.044263 0.000000
# 3 -0.002132 -0.010133 0.017101 0.000000 0.008759 0.000000
# 4 0.000000 0.000000 0.000000 0.057970 0.000000 -0.014126
# 5 -0.002406 -0.044263 0.008759 0.000000 0.105799 0.000000
# 6 0.000000 0.000000 0.000000 -0.014126 0.000000 0.069522
#
#
# Mechanical properties :
#
#
# Convention : Reuss Voigt Hill
#
# Bulk Modulus (GPa) = 14.20159 22.58789 18.39474
# Shear Modulus (GPa) = 13.56032 19.23192 16.39612
#
# Velocity S-wave (km/s) = 2.79851 3.33275 3.07725
# Velocity P-wave (km/s) = 4.31790 5.27780 4.82179
#
# Compressibility (1/GPa) = 0.07041464
#
# Stress axis : x y z
#
# Youngs Moduli (GPa) = 73.17918 16.55048 58.47660
#
# Poissons Ratio (x) = -0.03111 0.12469
# Poissons Ratio (y) = -0.13754 0.59257
# Poissons Ratio (z) = 0.15604 0.16771
#
# Static dielectric constant tensor:
#      x y z
#    x 1.595280 0.000000 -0.000070 
#    y 0.000000 1.581400 0.000000 
#    z -0.000070 0.000000 1.603090 
# 
# From -- ./inp_files/13546.got.cif
#   From: 2010.05.17/outbox.cif.g08.bks.cpg/sg11_7_cif.got.tgz:13546.got - 2010.06.03 12:22:45.
