data_PCOD9156162
_publ_section_title
;
Structure prediction by ZEFSAII (Michael W. Deem and Ramdas Pophale) SiO2 
 PCOD9156162
Probable space group: P 21/M
;
_chemical_formula_sum "Si O2"
_cell_formula_units_Z 32
_cell_length_a 12.590050
_cell_length_b 16.785033
_cell_length_c 10.011381
_cell_angle_alpha 90.000000
_cell_angle_beta 52.408080
_cell_angle_gamma 90.000000
_cell_volume 1676.388918
_symmetry_space_group_name_H-M "P 21/M"
_symmetry_group_IT_number 11
_symmetry_cell_setting 'monoclinic'
loop_
_space_group_symop_operation_xyz
x,y,z
-x,1/2+y,-z
-x,-y,-z
x,1/2-y,z
loop_
_atom_site_type_symbol
_atom_site_label
_atom_site_fract_x
_atom_site_fract_y
_atom_site_fract_z
Si Si1 0.024978 0.611231 0.203633
Si Si2 0.231672 0.379151 0.753194
Si Si3 0.475235 0.906312 0.496862
Si Si4 0.024669 0.932592 0.680617
Si Si5 0.178821 0.839715 0.338586
Si Si6 0.805737 0.428505 0.188740
Si Si7 0.237713 0.159012 0.058092
Si Si8 0.467194 0.654698 0.204168
O O1 0.984923 0.527325 0.302114
O O2 0.107850 0.657684 0.250544
O O3 0.888159 0.648005 0.250243
O O4 0.119029 0.592476 0.004607
O O5 0.381703 0.365533 0.582485
O O6 0.212051 0.475169 0.788965
O O7 0.223347 0.343566 0.907807
O O8 0.339977 0.888385 0.681831
O O9 0.448495 0.887773 0.361367
O O10 0.500000 0.000000 0.500000
O O11 0.107547 0.900634 0.492668
O O12 0.100806 0.905617 0.757698
O O13 0.876511 0.895931 0.793611
O O14 0.166432 0.750000 0.404449
O O15 0.336912 0.858952 0.214375
O O16 0.221442 0.250000 0.116530
O O17 0.389849 0.130488 0.966724
O O18 0.478322 0.750000 0.220812
#
# Coordination Sequence:
#
# PCOD9156162 Si02
#       8
#     4   4   4   4   4   4   4   4
#     4  11  21  36  55  83 117 145 177 230 287 324
#     4   9  17  32  53  82 113 137 173 229 282 316
#     4   9  17  30  57  84 108 137 183 226 270 318
#     4  11  19  37  57  83 106 145 191 227 269 331
#     4  11  24  40  55  77 113 152 187 224 275 338
#     4  10  17  33  57  83 110 139 181 229 270 322
#     4  10  18  31  56  82 105 137 183 231 272 320
#     4   9  19  36  54  77 110 146 183 223 272 328
#
# _framework density 19.088647000000002
#
# number of rings (size 3 to 8) (size 9 to 14) (size 15 to 20)
#    0.000    2.000    3.750    1.500    0.000    0.500 
#    0.000    2.500    0.000    0.000    0.000    0.000 
#    0.000    0.000    0.000    0.000    0.000    0.000 
#
# Total GULP energy -178515.878314 kJ/mol
# GULP energy per Si atom -5578.621197 kJ/mol
# Density = 1.904520 g / cm^3
# Si number density = 19.088647 Si / 1000 Ang^3
#
#
#
# Elastic Constant Matrix: (Units=GPa)
#
#
# Indices 1 2 3 4 5 6 
#
# 1 137.9352 14.1266 33.6913 0.0000 -21.8389 0.0000
# 2 14.1266 20.2707 7.0393 0.0000 -7.1694 0.0000
# 3 33.6913 7.0393 38.6837 0.0000 -12.4864 0.0000
# 4 0.0000 0.0000 0.0000 -12.6719 0.0000 -13.2930
# 5 -21.8389 -7.1694 -12.4864 0.0000 32.9927 0.0000
# 6 0.0000 0.0000 0.0000 -13.2930 0.0000 12.3397
#
#
#
# Elastic Compliance Matrix: (Units=1/GPa)
#
#
# Indices 1 2 3 4 5 6 
#
# 1 0.009769 -0.003304 -0.006894 0.000000 0.003140 0.000000
# 2 -0.003304 0.056178 -0.004683 0.000000 0.008249 0.000000
# 3 -0.006894 -0.004683 0.035206 0.000000 0.007743 0.000000
# 4 0.000000 0.000000 0.000000 -0.037048 0.000000 -0.039910
# 5 0.003140 0.008249 0.007743 0.000000 0.037111 0.000000
# 6 0.000000 0.000000 0.000000 -0.039910 0.000000 0.038046
#
#
# Mechanical properties :
#
#
# Convention : Reuss Voigt Hill
#
# Bulk Modulus (GPa) = 14.00702 34.06710 24.03706
# Shear Modulus (GPa) = 25.93088 16.00091 20.96590
#
# Velocity S-wave (km/s) = 3.68971 2.89838 3.31772
# Velocity P-wave (km/s) = 5.05032 5.39318 5.22456
#
# Compressibility (1/GPa) = 0.07139278
#
# Stress axis : x y z
#
# Youngs Moduli (GPa) = 102.36445 17.80048 28.40402
#
# Poissons Ratio (x) = 0.05881 0.19581
# Poissons Ratio (y) = 0.33818 0.13302
# Poissons Ratio (z) = 0.70567 0.08336
#
# Static dielectric constant tensor:
#      x y z
#    x 1.699380 0.000000 -0.028150 
#    y 0.000000 1.663490 0.000000 
#    z -0.028150 0.000000 1.637010 
# 
# From -- ./inp_files/19145.got.cif
#   From: 2010.05.17/outbox.cif.g08.bks.cpg/sg11_10_cif.got.tgz:19145.got - 2010.06.03 12:22:45.
