data_PCOD9156704
_publ_section_title
;
Structure prediction by ZEFSAII (Michael W. Deem and Ramdas Pophale) SiO2 
 PCOD9156704
Probable space group: P 21/M
;
_chemical_formula_sum "Si O2"
_cell_formula_units_Z 32
_cell_length_a 20.896119
_cell_length_b 9.101946
_cell_length_c 19.445969
_cell_angle_alpha 90.000000
_cell_angle_beta 35.769479
_cell_angle_gamma 90.000000
_cell_volume 2161.886910
_symmetry_space_group_name_H-M "P 21/M"
_symmetry_group_IT_number 11
_symmetry_cell_setting 'monoclinic'
loop_
_space_group_symop_operation_xyz
x,y,z
-x,1/2+y,-z
-x,-y,-z
x,1/2-y,z
loop_
_atom_site_type_symbol
_atom_site_label
_atom_site_fract_x
_atom_site_fract_y
_atom_site_fract_z
Si Si1 0.778423 0.920441 0.095948
Si Si2 0.339744 0.424975 0.173766
Si Si3 0.911517 0.926417 0.625880
Si Si4 0.691802 0.425037 0.043697
Si Si5 0.466390 0.075873 0.920095
Si Si6 0.025526 0.580083 0.817279
Si Si7 0.893740 0.574332 0.127274
Si Si8 0.905664 0.927377 0.790204
O O1 0.744124 0.750000 0.120861
O O2 0.794111 0.962132 0.162301
O O3 0.902167 0.927603 0.956726
O O4 0.705679 0.020127 0.110045
O O5 0.349013 0.250000 0.178759
O O6 0.212832 0.467853 0.285547
O O7 0.416527 0.513116 0.158938
O O8 0.387641 0.449599 0.055180
O O9 0.919232 0.750000 0.613753
O O10 0.928234 0.964218 0.691633
O O11 0.000000 0.000000 0.500000
O O12 0.692773 0.250000 0.039042
O O13 0.796851 0.491790 0.911660
O O14 0.586525 0.492221 0.097793
O O15 0.470170 0.250000 0.904445
O O16 0.059697 0.750000 0.791031
O O17 0.103958 0.484222 0.796995
O O18 0.004219 0.536557 0.756904
O O19 0.906360 0.750000 0.114958
O O20 0.000000 0.500000 0.000000
O O21 0.886841 0.750000 0.811731
#
# Coordination Sequence:
#
# PCOD9156704 Si02
#       8
#     4   4   4   4   4   4   4   4
#     4   8  15  25  34  47  73 108 137 163 203 249
#     4   9  18  32  47  64  84 108 139 177 216 253
#     4  10  20  34  49  64  86 113 142 179 219 259
#     4  11  19  25  39  62  83 106 140 179 210 246
#     4  10  18  30  47  63  85 112 138 173 217 261
#     4   8  14  23  37  51  68  98 134 169 205 244
#     4   9  15  22  32  47  70  99 132 167 202 240
#     4   9  17  31  43  55  79 110 140 173 216 257
#
# _framework density 14.801883999999999
#
# number of rings (size 3 to 8) (size 9 to 14) (size 15 to 20)
#    0.000    2.750    1.250    3.375    0.000    6.500 
#    0.000    0.000    0.000    0.000    0.000    0.000 
#    0.000    0.000    0.000    1.125    0.000   14.625 
#
# Total GULP energy -178155.090114 kJ/mol
# GULP energy per Si atom -5567.346566 kJ/mol
# Density = 1.476819 g / cm^3
# Si number density = 14.801884 Si / 1000 Ang^3
#
#
#
# Elastic Constant Matrix: (Units=GPa)
#
#
# Indices 1 2 3 4 5 6 
#
# 1 166.0606 72.3719 39.5280 0.0000 -4.1593 0.0000
# 2 72.3719 59.1780 19.2684 0.0000 -4.3310 0.0000
# 3 39.5280 19.2684 45.6974 0.0000 -3.9817 0.0000
# 4 0.0000 0.0000 0.0000 14.8422 0.0000 -1.2911
# 5 -4.1593 -4.3310 -3.9817 0.0000 7.6674 0.0000
# 6 0.0000 0.0000 0.0000 -1.2911 0.0000 29.0052
#
#
#
# Elastic Compliance Matrix: (Units=1/GPa)
#
#
# Indices 1 2 3 4 5 6 
#
# 1 0.014199 -0.015716 -0.006030 0.000000 -0.004307 0.000000
# 2 -0.015716 0.037359 -0.001112 0.000000 0.011999 0.000000
# 3 -0.006030 -0.001112 0.028519 0.000000 0.010910 0.000000
# 4 0.000000 0.000000 0.000000 0.067637 0.000000 0.003011
# 5 -0.004307 0.011999 0.010910 0.000000 0.140530 0.000000
# 6 0.000000 0.000000 0.000000 0.003011 0.000000 0.034611
#
#
# Mechanical properties :
#
#
# Convention : Reuss Voigt Hill
#
# Bulk Modulus (GPa) = 29.10484 59.25251 44.17867
# Shear Modulus (GPa) = 13.15701 19.62079 16.38890
#
# Velocity S-wave (km/s) = 2.98463 3.64477 3.33110
# Velocity P-wave (km/s) = 5.61987 7.60459 6.68628
#
# Compressibility (1/GPa) = 0.03435855
#
# Stress axis : x y z
#
# Youngs Moduli (GPa) = 70.42822 26.76752 35.06427
#
# Poissons Ratio (x) = 0.42068 0.21145
# Poissons Ratio (y) = 1.10686 0.03901
# Poissons Ratio (z) = 0.42471 0.02978
#
# Static dielectric constant tensor:
#      x y z
#    x 1.543130 0.000000 0.010130 
#    y 0.000000 1.491180 0.000000 
#    z 0.010130 0.000000 1.446130 
# 
# From -- ./inp_files/64979.got.cif
#   From: 2010.05.17/outbox.cif.g08.bks.cpg/sg11_33_cif.got.tgz:64979.got - 2010.06.03 12:22:45.
