data_PCOD9156951
_publ_section_title
;
Structure prediction by ZEFSAII (Michael W. Deem and Ramdas Pophale) SiO2 
 PCOD9156951
Probable space group: P 21/M
;
_chemical_formula_sum "Si O2"
_cell_formula_units_Z 32
_cell_length_a 22.026115
_cell_length_b 8.684412
_cell_length_c 13.002843
_cell_angle_alpha 90.000000
_cell_angle_beta 127.269731
_cell_angle_gamma 90.000000
_cell_volume 1979.324648
_symmetry_space_group_name_H-M "P 21/M"
_symmetry_group_IT_number 11
_symmetry_cell_setting 'monoclinic'
loop_
_space_group_symop_operation_xyz
x,y,z
-x,1/2+y,-z
-x,-y,-z
x,1/2-y,z
loop_
_atom_site_type_symbol
_atom_site_label
_atom_site_fract_x
_atom_site_fract_y
_atom_site_fract_z
Si Si1 0.836610 0.934475 0.214615
Si Si2 0.580414 0.565686 0.706559
Si Si3 0.162306 0.063339 0.544041
Si Si4 0.004578 0.935021 0.620758
Si Si5 0.677691 0.065860 0.993832
Si Si6 0.584425 0.435018 0.104023
Si Si7 0.679900 0.935326 0.391492
Si Si8 0.596519 0.065588 0.499914
O O1 0.838154 0.750000 0.214588
O O2 0.830010 0.985112 0.328337
O O3 0.917010 0.997831 0.255006
O O4 0.762314 0.996337 0.081431
O O5 0.586216 0.750000 0.714221
O O6 0.627639 0.495768 0.848497
O O7 0.490568 0.524201 0.621612
O O8 0.608511 0.502575 0.625598
O O9 0.164009 0.250000 0.546922
O O10 0.235152 0.011653 0.554165
O O11 0.077925 0.019494 0.417760
O O12 0.009147 0.750000 0.622827
O O13 0.000000 0.000000 0.500000
O O14 0.681934 0.250000 0.993617
O O15 0.636229 0.023071 0.058541
O O16 0.581568 0.250000 0.109471
O O17 0.622482 0.504309 0.244919
O O18 0.500000 0.500000 0.000000
O O19 0.678080 0.750000 0.390637
O O20 0.653198 0.999037 0.473327
O O21 0.601660 0.250000 0.508915
#
# Coordination Sequence:
#
# PCOD9156951 Si02
#       8
#     4   4   4   4   4   4   4   4
#     4  10  18  31  48  70 100 135 170 206 250 298
#     4  10  21  37  56  74  96 130 170 214 260 303
#     4   8  16  29  46  69  99 134 167 202 244 293
#     4   9  16  28  45  68  97 132 170 205 246 293
#     4  11  22  34  50  74 102 133 169 211 254 301
#     4  11  23  35  48  70 100 136 172 205 249 302
#     4  11  20  33  52  74 102 136 170 206 250 299
#     4  10  21  37  55  76 100 128 168 216 259 299
#
# _framework density 16.167131000000001
#
# number of rings (size 3 to 8) (size 9 to 14) (size 15 to 20)
#    0.000    2.000    1.250    4.125    0.000    5.000 
#    0.000    1.875    0.000    0.000    0.000    0.875 
#    0.000    0.000    0.000    0.000    0.000    0.000 
#
# Total GULP energy -178542.073641 kJ/mol
# GULP energy per Si atom -5579.439801 kJ/mol
# Density = 1.613033 g / cm^3
# Si number density = 16.167131 Si / 1000 Ang^3
#
#
#
# Elastic Constant Matrix: (Units=GPa)
#
#
# Indices 1 2 3 4 5 6 
#
# 1 89.7056 17.9602 13.8542 0.0000 6.7153 0.0000
# 2 17.9602 41.0261 11.7940 0.0000 1.1893 0.0000
# 3 13.8542 11.7940 26.7235 0.0000 0.8707 0.0000
# 4 0.0000 0.0000 0.0000 28.6002 0.0000 0.7787
# 5 6.7153 1.1893 0.8707 0.0000 24.5405 0.0000
# 6 0.0000 0.0000 0.0000 0.7787 0.0000 24.6393
#
#
#
# Elastic Compliance Matrix: (Units=1/GPa)
#
#
# Indices 1 2 3 4 5 6 
#
# 1 0.012964 -0.004216 -0.004757 0.000000 -0.003174 0.000000
# 2 -0.004216 0.029308 -0.010753 0.000000 0.000115 0.000000
# 3 -0.004757 -0.010753 0.044624 0.000000 0.000239 0.000000
# 4 0.000000 0.000000 0.000000 0.034995 0.000000 -0.001106
# 5 -0.003174 0.000115 0.000239 0.000000 0.041604 0.000000
# 6 0.000000 0.000000 0.000000 -0.001106 0.000000 0.040620
#
#
# Mechanical properties :
#
#
# Convention : Reuss Voigt Hill
#
# Bulk Modulus (GPa) = 21.07694 27.18577 24.13136
# Shear Modulus (GPa) = 19.27663 23.14579 21.21121
#
# Velocity S-wave (km/s) = 3.45677 3.78783 3.62608
# Velocity P-wave (km/s) = 5.38493 5.99851 5.69999
#
# Compressibility (1/GPa) = 0.04744521
#
# Stress axis : x y z
#
# Youngs Moduli (GPa) = 77.13730 34.12015 22.40936
#
# Poissons Ratio (x) = 0.14384 0.10660
# Poissons Ratio (y) = 0.32519 0.24097
# Poissons Ratio (z) = 0.36693 0.36689
#
# Static dielectric constant tensor:
#      x y z
#    x 1.554420 0.000000 0.023320 
#    y 0.000000 1.543020 0.000000 
#    z 0.023320 0.000000 1.524270 
# 
# From -- ./inp_files/42835.got.cif
#   From: 2010.05.17/outbox.cif.g08.bks.cpg/sg11_22_cif.got.tgz:42835.got - 2010.06.03 12:22:45.
