data_PCOD9156250
_publ_section_title
;
Structure prediction by ZEFSAII (Michael W. Deem and Ramdas Pophale) SiO2 
 PCOD9156250
Probable space group: P 21/M
;
_chemical_formula_sum "Si O2"
_cell_formula_units_Z 32
_cell_length_a 31.337897
_cell_length_b 8.625553
_cell_length_c 16.446184
_cell_angle_alpha 90.000000
_cell_angle_beta 150.042734
_cell_angle_gamma 90.000000
_cell_volume 2219.884710
_symmetry_space_group_name_H-M "P 21/M"
_symmetry_group_IT_number 11
_symmetry_cell_setting 'monoclinic'
loop_
_space_group_symop_operation_xyz
x,y,z
-x,1/2+y,-z
-x,-y,-z
x,1/2-y,z
loop_
_atom_site_type_symbol
_atom_site_label
_atom_site_fract_x
_atom_site_fract_y
_atom_site_fract_z
Si Si1 0.025778 0.565521 0.912082
Si Si2 0.911608 0.434960 0.316305
Si Si3 0.504708 0.563587 0.099280
Si Si4 0.308848 0.437847 0.605656
Si Si5 0.837990 0.565317 0.349225
Si Si6 0.317591 0.563600 0.803979
Si Si7 0.867583 0.936637 0.767080
Si Si8 0.014009 0.434055 0.714300
O O1 0.027091 0.750000 0.901456
O O2 0.936874 0.525399 0.811296
O O3 0.031008 0.481207 0.834783
O O4 0.099534 0.515379 0.096455
O O5 0.912568 0.250000 0.318779
O O6 0.841627 0.498023 0.263657
O O7 0.915317 0.496688 0.230644
O O8 0.000000 0.500000 0.500000
O O9 0.503033 0.750000 0.094257
O O10 0.599984 0.518438 0.284585
O O11 0.500000 0.500000 0.000000
O O12 0.414519 0.515964 0.989672
O O13 0.306649 0.250000 0.610980
O O14 0.305219 0.509797 0.689991
O O15 0.226229 0.483513 0.417526
O O16 0.843906 0.750000 0.356069
O O17 0.754429 0.511772 0.259268
O O18 0.921852 0.501934 0.534885
O O19 0.310409 0.750000 0.795817
O O20 0.869508 0.750000 0.780968
O O21 0.011225 0.250000 0.699921
#
# Coordination Sequence:
#
# PCOD9156250 Si02
#       8
#     4   4   4   4   4   4   4   4
#     4  10  19  30  43  61  85 112 142 176 212 247
#     4  10  18  30  45  62  84 109 138 171 207 245
#     4   8  15  26  40  58  81 108 139 175 211 249
#     4   9  16  28  44  60  81 112 146 178 214 252
#     4  11  20  30  43  61  85 113 144 174 207 246
#     4  10  18  27  40  61  86 112 143 176 211 250
#     4   9  18  30  43  59  81 110 144 180 214 247
#     4  11  20  31  46  63  84 111 142 173 208 248
#
# _framework density 14.415163
#
# number of rings (size 3 to 8) (size 9 to 14) (size 15 to 20)
#    0.000    2.250    0.000    6.375    0.000    2.500 
#    0.000    0.000    0.000    0.000    0.000    0.000 
#    0.000    1.000    0.000    2.750    0.000    4.000 
#
# Total GULP energy -178314.382150 kJ/mol
# GULP energy per Si atom -5572.324442 kJ/mol
# Density = 1.438235 g / cm^3
# Si number density = 14.415163 Si / 1000 Ang^3
#
#
#
# Elastic Constant Matrix: (Units=GPa)
#
#
# Indices 1 2 3 4 5 6 
#
# 1 108.3069 46.2708 49.3003 0.0000 4.5394 0.0000
# 2 46.2708 83.1303 31.1710 0.0000 0.1659 0.0000
# 3 49.3003 31.1710 92.0814 0.0000 12.5136 0.0000
# 4 0.0000 0.0000 0.0000 14.8718 0.0000 -4.5210
# 5 4.5394 0.1659 12.5136 0.0000 21.7461 0.0000
# 6 0.0000 0.0000 0.0000 -4.5210 0.0000 22.3219
#
#
#
# Elastic Compliance Matrix: (Units=1/GPa)
#
#
# Indices 1 2 3 4 5 6 
#
# 1 0.014318 -0.005816 -0.005746 0.000000 0.000362 0.000000
# 2 -0.005816 0.016299 -0.002768 0.000000 0.002683 0.000000
# 3 -0.005746 -0.002768 0.015956 0.000000 -0.007961 0.000000
# 4 0.000000 0.000000 0.000000 0.071653 0.000000 0.014513
# 5 0.000362 0.002683 -0.007961 0.000000 0.050470 0.000000
# 6 0.000000 0.000000 0.000000 0.014513 0.000000 0.047738
#
#
# Mechanical properties :
#
#
# Convention : Reuss Voigt Hill
#
# Bulk Modulus (GPa) = 55.82888 59.66698 57.74793
# Shear Modulus (GPa) = 19.91507 22.23971 21.07739
#
# Velocity S-wave (km/s) = 3.72094 3.93211 3.82798
# Velocity P-wave (km/s) = 7.56795 7.88017 7.72563
#
# Compressibility (1/GPa) = 0.01791188
#
# Stress axis : x y z
#
# Youngs Moduli (GPa) = 69.84175 61.35358 62.67378
#
# Poissons Ratio (x) = 0.35680 0.36015
# Poissons Ratio (y) = 0.40617 0.17351
# Poissons Ratio (z) = 0.40134 0.16985
#
# Static dielectric constant tensor:
#      x y z
#    x 1.486290 0.000000 0.028390 
#    y 0.000000 1.481570 0.000000 
#    z 0.028390 0.000000 1.539760 
# 
# From -- ./inp_files/56486.got.cif
#   From: 2010.05.17/outbox.cif.g08.bks.cpg/sg11_29_cif.got.tgz:56486.got - 2010.06.03 12:22:45.
