data_PCOD9156866
_publ_section_title
;
Structure prediction by ZEFSAII (Michael W. Deem and Ramdas Pophale) SiO2 
 PCOD9156866
Probable space group: P 21/M
;
_chemical_formula_sum "Si O2"
_cell_formula_units_Z 26
_cell_length_a 11.297208
_cell_length_b 7.653053
_cell_length_c 13.758496
_cell_angle_alpha 90.000000
_cell_angle_beta 112.334901
_cell_angle_gamma 90.000000
_cell_volume 1100.293131
_symmetry_space_group_name_H-M "P 21/M"
_symmetry_group_IT_number 11
_symmetry_cell_setting 'monoclinic'
loop_
_space_group_symop_operation_xyz
x,y,z
-x,1/2+y,-z
-x,-y,-z
x,1/2-y,z
loop_
_atom_site_type_symbol
_atom_site_label
_atom_site_fract_x
_atom_site_fract_y
_atom_site_fract_z
Si Si1 0.862610 0.458019 0.408136
Si Si2 0.131672 0.049865 0.927382
Si Si3 0.717429 0.050340 0.546103
Si Si4 0.382119 0.250000 0.358487
Si Si5 0.771363 0.750000 0.878345
Si Si6 0.018056 0.450206 0.284639
Si Si7 0.382589 0.042410 0.892279
Si Si8 0.523712 0.250000 0.211542
O O1 0.841297 0.250000 0.400433
O O2 0.754719 0.520813 0.449886
O O3 0.894418 0.517670 0.308471
O O4 0.000000 0.500000 0.500000
O O5 0.109414 0.250000 0.888345
O O6 0.259844 0.984936 0.916147
O O7 0.017612 0.951113 0.839563
O O8 0.160815 0.081503 0.050341
O O9 0.672211 0.250000 0.531673
O O10 0.629351 0.919312 0.578546
O O11 0.854634 0.049132 0.645267
O O12 0.258677 0.250000 0.244870
O O13 0.497409 0.250000 0.317761
O O14 0.624101 0.750000 0.874671
O O15 0.037142 0.250000 0.322350
O O16 0.378438 0.250000 0.870159
O O17 0.404335 0.920387 0.805425
O O18 0.500000 0.000000 0.000000
#
# Coordination Sequence:
#
# PCOD9156866 Si02
#       8
#     4   4   4   2   2   4   4   2
#     4   8  16  28  46  75 101 122 158 206 257 300
#     4   9  18  32  47  72 106 132 159 203 255 302
#     4  10  19  34  55  71 101 138 166 210 252 293
#     4  10  20  38  50  72 102 130 186 210 236 292
#     4   8  18  36  47  65 110 127 162 226 226 289
#     4  10  18  30  50  79 107 132 162 206 255 309
#     4  11  17  30  52  76  99 128 161 208 263 302
#     4  10  20  34  51  71 102 125 164 226 240 291
#
# _framework density 23.630065999999999
#
# number of rings (size 3 to 8) (size 9 to 14) (size 15 to 20)
#    0.923    1.538    3.077    0.462    2.154    1.231 
#    0.000    1.538    0.000    0.000    0.000    1.077 
#    0.000    0.000    0.000    0.000    0.000    0.000 
#
# Total GULP energy -144987.332503 kJ/mol
# GULP energy per Si atom -5576.435865 kJ/mol
# Density = 2.357628 g / cm^3
# Si number density = 23.630066 Si / 1000 Ang^3
#
#
#
# Elastic Constant Matrix: (Units=GPa)
#
#
# Indices 1 2 3 4 5 6 
#
# 1 82.8747 36.4643 57.2784 0.0000 -37.9032 0.0000
# 2 36.4643 116.7089 33.3468 0.0000 -24.9822 0.0000
# 3 57.2784 33.3468 127.6898 0.0000 -13.6478 0.0000
# 4 0.0000 0.0000 0.0000 26.3945 0.0000 -4.9796
# 5 -37.9032 -24.9822 -13.6478 0.0000 60.2263 0.0000
# 6 0.0000 0.0000 0.0000 -4.9796 0.0000 22.9327
#
#
#
# Elastic Compliance Matrix: (Units=1/GPa)
#
#
# Indices 1 2 3 4 5 6 
#
# 1 0.025634 -0.002539 -0.009453 0.000000 0.012937 0.000000
# 2 -0.002539 0.010232 -0.001282 0.000000 0.002356 0.000000
# 3 -0.009453 -0.001282 0.012005 0.000000 -0.003760 0.000000
# 4 0.000000 0.000000 0.000000 0.039505 0.000000 0.008578
# 5 0.012937 0.002356 -0.003760 0.000000 0.024871 0.000000
# 6 0.000000 0.000000 0.000000 0.008578 0.000000 0.045469
#
#
# Mechanical properties :
#
#
# Convention : Reuss Voigt Hill
#
# Bulk Modulus (GPa) = 46.89532 64.60581 55.75057
# Shear Modulus (GPa) = 26.12750 35.25629 30.69189
#
# Velocity S-wave (km/s) = 3.32880 3.86684 3.60786
# Velocity P-wave (km/s) = 5.88755 6.88015 6.40311
#
# Compressibility (1/GPa) = 0.02132409
#
# Stress axis : x y z
#
# Youngs Moduli (GPa) = 39.01128 97.73237 83.30188
#
# Poissons Ratio (x) = 0.24811 0.78744
# Poissons Ratio (y) = 0.09904 0.10675
# Poissons Ratio (z) = 0.36877 0.12524
#
# Static dielectric constant tensor:
#      x y z
#    x 1.953620 0.000000 0.009160 
#    y 0.000000 1.950260 0.000000 
#    z 0.009160 0.000000 1.962180 
# 
# From -- ./inp_files/48821.got.cif
#   From: 2010.05.17/outbox.cif.g08.bks.cpg/sg11_25_cif.got.tgz:48821.got - 2010.06.03 12:22:45.
