data_PCOD9156849
_publ_section_title
;
Structure prediction by ZEFSAII (Michael W. Deem and Ramdas Pophale) SiO2 
 PCOD9156849
Probable space group: P 21/M
;
_chemical_formula_sum "Si O2"
_cell_formula_units_Z 28
_cell_length_a 14.534569
_cell_length_b 13.902763
_cell_length_c 10.629392
_cell_angle_alpha 90.000000
_cell_angle_beta 141.810826
_cell_angle_gamma 90.000000
_cell_volume 1327.953226
_symmetry_space_group_name_H-M "P 21/M"
_symmetry_group_IT_number 11
_symmetry_cell_setting 'monoclinic'
loop_
_space_group_symop_operation_xyz
x,y,z
-x,1/2+y,-z
-x,-y,-z
x,1/2-y,z
loop_
_atom_site_type_symbol
_atom_site_label
_atom_site_fract_x
_atom_site_fract_y
_atom_site_fract_z
Si Si1 0.562499 0.860149 0.094868
Si Si2 0.083836 0.361050 0.033324
Si Si3 0.104860 0.860386 0.913352
Si Si4 0.924924 0.028337 0.634085
Si Si5 0.680498 0.530440 0.830517
Si Si6 0.425686 0.965829 0.721760
Si Si7 0.156298 0.364052 0.757545
O O1 0.545559 0.750000 0.114576
O O2 0.735613 0.879716 0.244683
O O3 0.514517 0.936623 0.147321
O O4 0.473695 0.881986 0.870527
O O5 0.103788 0.250000 0.017830
O O6 0.988680 0.418904 0.828074
O O7 0.243711 0.414315 0.204701
O O8 0.993147 0.362077 0.064540
O O9 0.129569 0.750000 0.902720
O O10 0.002799 0.924156 0.711592
O O11 0.254303 0.922544 0.096309
O O12 0.750436 0.028621 0.465769
O O13 0.992917 0.090192 0.592315
O O14 0.506914 0.540799 0.674525
O O15 0.754360 0.585115 0.031296
O O16 0.148123 0.250000 0.766882
#
# Coordination Sequence:
#
# PCOD9156849 Si02
#       7
#     4   4   4   4   4   4   4
#     4   9  19  36  51  65  95 134 165 195 237 286
#     4   9  17  33  54  72  93 126 165 199 235 280
#     4   9  18  33  52  71  94 129 166 195 231 285
#     4  10  18  30  50  75 100 121 156 205 242 277
#     4   9  16  30  49  70  97 127 159 193 236 288
#     4  10  21  32  49  76 100 126 158 197 244 291
#     4   8  15  30  51  70  90 124 165 200 234 276
#
# _framework density 21.085080000000001
#
# number of rings (size 3 to 8) (size 9 to 14) (size 15 to 20)
#    0.000    3.143    0.000    3.429    0.000    3.429 
#    0.000    2.857    0.000    3.429    0.000    0.000 
#    0.000    0.000    0.000    0.000    0.000    0.000 
#
# Total GULP energy -156077.612226 kJ/mol
# GULP energy per Si atom -5574.200437 kJ/mol
# Density = 2.103709 g / cm^3
# Si number density = 21.085080 Si / 1000 Ang^3
#
#
#
# Elastic Constant Matrix: (Units=GPa)
#
#
# Indices 1 2 3 4 5 6 
#
# 1 57.4216 27.4239 -1.3509 0.0000 8.8827 0.0000
# 2 27.4239 138.3027 13.9584 0.0000 9.6071 0.0000
# 3 -1.3509 13.9584 27.6013 0.0000 15.9816 0.0000
# 4 0.0000 0.0000 0.0000 5.3887 0.0000 5.1655
# 5 8.8827 9.6071 15.9816 0.0000 26.7790 0.0000
# 6 0.0000 0.0000 0.0000 5.1655 0.0000 27.4081
#
#
#
# Elastic Compliance Matrix: (Units=1/GPa)
#
#
# Indices 1 2 3 4 5 6 
#
# 1 0.021573 -0.004486 0.009987 0.000000 -0.011506 0.000000
# 2 -0.004486 0.008560 -0.005550 0.000000 0.001729 0.000000
# 3 0.009987 -0.005550 0.061565 0.000000 -0.038064 0.000000
# 4 0.000000 0.000000 0.000000 0.226492 0.000000 -0.042686
# 5 -0.011506 0.001729 -0.038064 0.000000 0.063255 0.000000
# 6 0.000000 0.000000 0.000000 -0.042686 0.000000 0.044530
#
#
# Mechanical properties :
#
#
# Convention : Reuss Voigt Hill
#
# Bulk Modulus (GPa) = 10.91708 33.70982 22.31345
# Shear Modulus (GPa) = 10.95034 24.13477 17.54256
#
# Velocity S-wave (km/s) = 2.28138 3.38692 2.88755
# Velocity P-wave (km/s) = 3.48259 5.59618 4.66077
#
# Compressibility (1/GPa) = 0.09159963
#
# Stress axis : x y z
#
# Youngs Moduli (GPa) = 46.35528 116.82121 16.24297
#
# Poissons Ratio (x) = 0.52409 -0.16222
# Poissons Ratio (y) = 0.20796 0.09014
# Poissons Ratio (z) = -0.46295 0.64833
#
# Static dielectric constant tensor:
#      x y z
#    x 1.821470 0.000000 0.001340 
#    y 0.000000 1.751990 0.000000 
#    z 0.001340 0.000000 1.822230 
# 
# From -- ./inp_files/39483.got.cif
#   From: 2010.05.17/outbox.cif.g08.bks.cpg/sg11_20_cif.got.tgz:39483.got - 2010.06.03 12:22:45.
