data_PCOD9156394
_publ_section_title
;
Structure prediction by ZEFSAII (Michael W. Deem and Ramdas Pophale) SiO2 
 PCOD9156394
Probable space group: P 21/M
;
_chemical_formula_sum "Si O2"
_cell_formula_units_Z 32
_cell_length_a 31.329790
_cell_length_b 8.733796
_cell_length_c 21.932357
_cell_angle_alpha 90.000000
_cell_angle_beta 160.422104
_cell_angle_gamma 90.000000
_cell_volume 2010.966578
_symmetry_space_group_name_H-M "P 21/M"
_symmetry_group_IT_number 11
_symmetry_cell_setting 'monoclinic'
loop_
_space_group_symop_operation_xyz
x,y,z
-x,1/2+y,-z
-x,-y,-z
x,1/2-y,z
loop_
_atom_site_type_symbol
_atom_site_label
_atom_site_fract_x
_atom_site_fract_y
_atom_site_fract_z
Si Si1 0.956077 0.433053 0.036690
Si Si2 0.420767 0.434606 0.337000
Si Si3 0.275984 0.435206 0.939180
Si Si4 0.885345 0.934193 0.386372
Si Si5 0.875969 0.933441 0.056907
Si Si6 0.527180 0.065254 0.347290
Si Si7 0.802237 0.567120 0.719532
Si Si8 0.045989 0.933786 0.711594
O O1 0.947889 0.250000 0.029808
O O2 0.935929 0.505694 0.075332
O O3 0.091156 0.474246 0.187316
O O4 0.848873 0.493030 0.845670
O O5 0.500000 0.500000 0.500000
O O6 0.423700 0.250000 0.343990
O O7 0.481487 0.479770 0.353856
O O8 0.272822 0.482576 0.140487
O O9 0.266230 0.250000 0.932078
O O10 0.239790 0.477683 0.820749
O O11 0.169411 0.507153 0.840121
O O12 0.415210 0.479469 0.149897
O O13 0.891362 0.750000 0.393487
O O14 0.922002 0.980539 0.504408
O O15 0.000000 0.000000 0.500000
O O16 0.878556 0.750000 0.061442
O O17 0.946474 0.996756 0.211330
O O18 0.538828 0.250000 0.361933
O O19 0.662680 0.991794 0.515827
O O20 0.802558 0.750000 0.726683
O O21 0.050534 0.750000 0.721186
#
# Coordination Sequence:
#
# PCOD9156394 Si02
#       8
#     4   4   4   4   4   4   4   4
#     4  10  21  37  54  72  94 122 161 206 246 284
#     4  10  21  33  44  64  93 126 158 190 230 279
#     4   9  16  30  47  66  96 131 163 199 236 279
#     4   8  15  26  43  65  92 126 162 195 233 278
#     4  11  21  34  50  70  97 129 163 197 240 287
#     4  10  19  32  49  69  96 129 164 197 237 284
#     4  10  21  36  53  73  96 123 159 203 247 287
#     4  10  18  28  44  70  99 129 162 196 236 285
#
# _framework density 15.912746
#
# number of rings (size 3 to 8) (size 9 to 14) (size 15 to 20)
#    0.000    2.250    1.250    2.250    0.000    6.000 
#    0.000    0.000    0.000    0.000    0.000    0.875 
#    0.000    0.000    0.000    0.000    0.000    0.000 
#
# Total GULP energy -178410.056417 kJ/mol
# GULP energy per Si atom -5575.314263 kJ/mol
# Density = 1.587653 g / cm^3
# Si number density = 15.912746 Si / 1000 Ang^3
#
#
#
# Elastic Constant Matrix: (Units=GPa)
#
#
# Indices 1 2 3 4 5 6 
#
# 1 79.3144 27.0930 64.7370 0.0000 -19.0111 0.0000
# 2 27.0930 23.8200 31.3230 0.0000 -5.9647 0.0000
# 3 64.7370 31.3230 134.7740 0.0000 -26.6791 0.0000
# 4 0.0000 0.0000 0.0000 22.5081 0.0000 -0.5650
# 5 -19.0111 -5.9647 -26.6791 0.0000 23.8667 0.0000
# 6 0.0000 0.0000 0.0000 -0.5650 0.0000 24.1870
#
#
#
# Elastic Compliance Matrix: (Units=1/GPa)
#
#
# Indices 1 2 3 4 5 6 
#
# 1 0.026837 -0.019679 -0.006497 0.000000 0.009197 0.000000
# 2 -0.019679 0.074899 -0.009442 0.000000 -0.007511 0.000000
# 3 -0.006497 -0.009442 0.014438 0.000000 0.008605 0.000000
# 4 0.000000 0.000000 0.000000 0.044454 0.000000 0.001038
# 5 0.009197 -0.007511 0.008605 0.000000 0.056967 0.000000
# 6 0.000000 0.000000 0.000000 0.001038 0.000000 0.041369
#
#
# Mechanical properties :
#
#
# Convention : Reuss Voigt Hill
#
# Bulk Modulus (GPa) = 22.25189 53.80161 38.02675
# Shear Modulus (GPa) = 14.48522 21.76273 18.12397
#
# Velocity S-wave (km/s) = 3.02037 3.70216 3.37851
# Velocity P-wave (km/s) = 5.11640 7.22208 6.25844
#
# Compressibility (1/GPa) = 0.04494001
#
# Stress axis : x y z
#
# Youngs Moduli (GPa) = 37.26160 13.35129 69.26034
#
# Poissons Ratio (x) = 0.26273 0.44997
# Poissons Ratio (y) = 0.73326 0.65395
# Poissons Ratio (z) = 0.24208 0.12606
#
# Static dielectric constant tensor:
#      x y z
#    x 1.514960 0.000000 -0.023580 
#    y 0.000000 1.535470 0.000000 
#    z -0.023580 0.000000 1.544960 
# 
# From -- ./inp_files/40645.got.cif
#   From: 2010.05.17/outbox.cif.g08.bks.cpg/sg11_21_cif.got.tgz:40645.got - 2010.06.03 12:22:45.
