data_PCOD9156353
_publ_section_title
;
Structure prediction by ZEFSAII (Michael W. Deem and Ramdas Pophale) SiO2 
 PCOD9156353
Probable space group: P 21/M
;
_chemical_formula_sum "Si O2"
_cell_formula_units_Z 32
_cell_length_a 31.565473
_cell_length_b 8.408798
_cell_length_c 23.740358
_cell_angle_alpha 90.000000
_cell_angle_beta 162.398565
_cell_angle_gamma 90.000000
_cell_volume 1905.488428
_symmetry_space_group_name_H-M "P 21/M"
_symmetry_group_IT_number 11
_symmetry_cell_setting 'monoclinic'
loop_
_space_group_symop_operation_xyz
x,y,z
-x,1/2+y,-z
-x,-y,-z
x,1/2-y,z
loop_
_atom_site_type_symbol
_atom_site_label
_atom_site_fract_x
_atom_site_fract_y
_atom_site_fract_z
Si Si1 0.861452 0.060791 0.389816
Si Si2 0.662771 0.561485 0.537467
Si Si3 0.648687 0.562940 0.210341
Si Si4 0.113000 0.557783 0.268955
Si Si5 0.318083 0.938977 0.622768
Si Si6 0.537748 0.440241 0.808521
Si Si7 0.885514 0.557902 0.900562
Si Si8 0.818140 0.561092 0.213036
O O1 0.861434 0.250000 0.380576
O O2 0.023426 0.008204 0.600514
O O3 0.770391 0.019157 0.328415
O O4 0.798171 0.981422 0.253538
O O5 0.644226 0.750000 0.521789
O O6 0.780904 0.528015 0.639657
O O7 0.522933 0.501670 0.328933
O O8 0.735310 0.498242 0.686851
O O9 0.655827 0.750000 0.209566
O O10 0.664126 0.525741 0.295788
O O11 0.500000 0.500000 0.000000
O O12 0.128897 0.750000 0.281966
O O13 0.172537 0.520393 0.406039
O O14 0.956184 0.514321 0.049944
O O15 0.321987 0.750000 0.637461
O O16 0.441902 0.983844 0.736181
O O17 0.519098 0.250000 0.787783
O O18 0.697487 0.482294 0.023268
O O19 0.880818 0.750000 0.892864
O O20 0.000000 0.500000 0.000000
O O21 0.809316 0.750000 0.194826
#
# Coordination Sequence:
#
# PCOD9156353 Si02
#       8
#     4   4   4   4   4   4   4   4
#     4  10  21  37  54  71  90 113 145 183 222 264
#     4   8  14  22  34  54  82 114 146 180 214 253
#     4  12  24  37  52  69  91 118 148 182 221 263
#     4   8  14  23  37  55  78 111 147 182 216 254
#     4  10  19  31  45  64  91 121 154 188 223 264
#     4  10  18  28  43  65  93 124 155 185 220 260
#     4   8  12  20  33  51  76 108 145 179 213 251
#     4  10  20  34  52  71  91 116 145 180 221 264
#
# _framework density 16.793595
#
# number of rings (size 3 to 8) (size 9 to 14) (size 15 to 20)
#    0.000    2.500    0.000    3.375    0.000    2.500 
#    0.000    0.000    0.000    0.000    0.000    0.000 
#    0.000    1.000    0.000    2.000    0.000    5.250 
#
# Total GULP energy -178151.794403 kJ/mol
# GULP energy per Si atom -5567.243575 kJ/mol
# Density = 1.675537 g / cm^3
# Si number density = 16.793595 Si / 1000 Ang^3
#
#
#
# Elastic Constant Matrix: (Units=GPa)
#
#
# Indices 1 2 3 4 5 6 
#
# 1 32.8790 -4.5489 29.4041 0.0000 -10.8373 0.0000
# 2 -4.5489 8.8026 2.9040 0.0000 0.7094 0.0000
# 3 29.4041 2.9040 123.2532 0.0000 -35.1540 0.0000
# 4 0.0000 0.0000 0.0000 17.2599 0.0000 0.5855
# 5 -10.8373 0.7094 -35.1540 0.0000 25.3445 0.0000
# 6 0.0000 0.0000 0.0000 0.5855 0.0000 17.0541
#
#
#
# Elastic Compliance Matrix: (Units=1/GPa)
#
#
# Indices 1 2 3 4 5 6 
#
# 1 0.044320 0.025806 -0.009898 0.000000 0.004500 0.000000
# 2 0.025806 0.131578 -0.011846 0.000000 -0.009080 0.000000
# 3 -0.009898 -0.011846 0.015952 0.000000 0.018225 0.000000
# 4 0.000000 0.000000 0.000000 0.058005 0.000000 -0.001991
# 5 0.004500 -0.009080 0.018225 0.000000 0.066914 0.000000
# 6 0.000000 0.000000 0.000000 -0.001991 0.000000 0.058705
#
#
# Mechanical properties :
#
#
# Convention : Reuss Voigt Hill
#
# Bulk Modulus (GPa) = 5.00066 24.49479 14.74773
# Shear Modulus (GPa) = 11.52048 21.07674 16.29861
#
# Velocity S-wave (km/s) = 2.62201 3.54651 3.11871
# Velocity P-wave (km/s) = 3.48579 5.60248 4.66575
#
# Compressibility (1/GPa) = 0.19997352
#
# Stress axis : x y z
#
# Youngs Moduli (GPa) = 22.56331 7.60003 62.68816
#
# Poissons Ratio (x) = -0.19612 0.62047
# Poissons Ratio (y) = -0.58226 0.74262
# Poissons Ratio (z) = 0.22332 0.09003
#
# Static dielectric constant tensor:
#      x y z
#    x 1.545180 0.000000 -0.048590 
#    y 0.000000 1.593390 0.000000 
#    z -0.048590 0.000000 1.625520 
# 
# From -- ./inp_files/67239.got.cif
#   From: 2010.05.17/outbox.cif.g08.bks.cpg/sg11_34_cif.got.tgz:67239.got - 2010.06.03 12:22:45.
