data_PCOD9156436
_publ_section_title
;
Structure prediction by ZEFSAII (Michael W. Deem and Ramdas Pophale) SiO2 
 PCOD9156436
Probable space group: P 21/M
;
_chemical_formula_sum "Si O2"
_cell_formula_units_Z 32
_cell_length_a 18.301352
_cell_length_b 8.698332
_cell_length_c 24.578975
_cell_angle_alpha 90.000000
_cell_angle_beta 149.603948
_cell_angle_gamma 90.000000
_cell_volume 1979.754809
_symmetry_space_group_name_H-M "P 21/M"
_symmetry_group_IT_number 11
_symmetry_cell_setting 'monoclinic'
loop_
_space_group_symop_operation_xyz
x,y,z
-x,1/2+y,-z
-x,-y,-z
x,1/2-y,z
loop_
_atom_site_type_symbol
_atom_site_label
_atom_site_fract_x
_atom_site_fract_y
_atom_site_fract_z
Si Si1 0.768605 0.065658 0.588092
Si Si2 0.054117 0.932755 0.977148
Si Si3 0.331590 0.935761 0.669228
Si Si4 0.366288 0.065653 0.185578
Si Si5 0.546284 0.065894 0.640922
Si Si6 0.900014 0.565389 0.565949
Si Si7 0.115532 0.934949 0.617046
Si Si8 0.821748 0.434706 0.745488
O O1 0.758942 0.250000 0.579717
O O2 0.820776 0.020304 0.681727
O O3 0.609863 0.997481 0.475304
O O4 0.871301 0.006881 0.605981
O O5 0.054896 0.750000 0.981689
O O6 0.945090 0.986998 0.860403
O O7 0.215413 0.993639 0.070784
O O8 0.000000 0.000000 0.000000
O O9 0.320181 0.750000 0.656079
O O10 0.496528 0.977970 0.763535
O O11 0.268058 0.979107 0.687824
O O12 0.228294 0.009671 0.556924
O O13 0.353564 0.250000 0.178052
O O14 0.403061 0.007428 0.269802
O O15 0.539188 0.250000 0.642585
O O16 0.666702 0.029122 0.672973
O O17 0.893946 0.750000 0.565804
O O18 0.051245 0.518047 0.634145
O O19 0.109511 0.750000 0.612468
O O20 0.000000 0.000000 0.500000
O O21 0.840428 0.250000 0.761031
#
# Coordination Sequence:
#
# PCOD9156436 Si02
#       8
#     4   4   4   4   4   4   4   4
#     4  11  22  35  51  73 104 138 172 208 251 305
#     4  12  24  38  57  76  99 131 170 215 259 302
#     4   9  17  30  48  70 100 134 168 203 246 302
#     4  11  21  33  53  78 104 136 170 207 254 303
#     4  11  21  34  53  75 102 134 171 212 253 299
#     4  10  18  28  46  71 102 135 167 205 247 295
#     4   8  15  27  43  67  97 131 166 200 242 294
#     4  10  23  40  55  72  97 133 175 216 255 301
#
# _framework density 16.163616999999999
#
# number of rings (size 3 to 8) (size 9 to 14) (size 15 to 20)
#    0.000    1.750    2.500    3.000    0.000    2.500 
#    0.000    0.000    0.000    0.000    0.000    0.875 
#    0.000    0.000    0.000    0.000    0.000    0.000 
#
# Total GULP energy -178528.520161 kJ/mol
# GULP energy per Si atom -5579.016255 kJ/mol
# Density = 1.612683 g / cm^3
# Si number density = 16.163617 Si / 1000 Ang^3
#
#
#
# Elastic Constant Matrix: (Units=GPa)
#
#
# Indices 1 2 3 4 5 6 
#
# 1 173.2887 49.0645 69.5942 0.0000 11.3043 0.0000
# 2 49.0645 43.5200 28.1112 0.0000 -0.3830 0.0000
# 3 69.5942 28.1112 61.4554 0.0000 -6.9192 0.0000
# 4 0.0000 0.0000 0.0000 21.0495 0.0000 -2.0867
# 5 11.3043 -0.3830 -6.9192 0.0000 20.0518 0.0000
# 6 0.0000 0.0000 0.0000 -2.0867 0.0000 19.7230
#
#
#
# Elastic Compliance Matrix: (Units=1/GPa)
#
#
# Indices 1 2 3 4 5 6 
#
# 1 0.014587 -0.006974 -0.014847 0.000000 -0.013480 0.000000
# 2 -0.006974 0.036382 -0.008555 0.000000 0.001675 0.000000
# 3 -0.014847 -0.008555 0.039455 0.000000 0.021821 0.000000
# 4 0.000000 0.000000 0.000000 0.048011 0.000000 0.005079
# 5 -0.013480 0.001675 0.021821 0.000000 0.065032 0.000000
# 6 0.000000 0.000000 0.000000 0.005079 0.000000 0.051240
#
#
# Mechanical properties :
#
#
# Convention : Reuss Voigt Hill
#
# Bulk Modulus (GPa) = 33.70245 63.53379 48.61812
# Shear Modulus (GPa) = 15.36810 20.93114 18.14962
#
# Velocity S-wave (km/s) = 3.08682 3.60245 3.35456
# Velocity P-wave (km/s) = 5.79661 7.52964 6.71924
#
# Compressibility (1/GPa) = 0.02967143
#
# Stress axis : x y z
#
# Youngs Moduli (GPa) = 68.55291 27.48623 25.34537
#
# Poissons Ratio (x) = 0.19170 0.37629
# Poissons Ratio (y) = 0.47812 0.21684
# Poissons Ratio (z) = 1.01777 0.23515
#
# Static dielectric constant tensor:
#      x y z
#    x 1.578590 0.000000 0.021780 
#    y 0.000000 1.543430 0.000000 
#    z 0.021780 0.000000 1.499580 
# 
# From -- ./inp_files/43758.got.cif
#   From: 2010.05.17/outbox.cif.g08.bks.cpg/sg11_22_cif.got.tgz:43758.got - 2010.06.03 12:22:45.
