data_PCOD9156347
_publ_section_title
;
Structure prediction by ZEFSAII (Michael W. Deem and Ramdas Pophale) SiO2 
 PCOD9156347
Probable space group: P 21/M
;
_chemical_formula_sum "Si O2"
_cell_formula_units_Z 28
_cell_length_a 11.779895
_cell_length_b 8.418583
_cell_length_c 22.288661
_cell_angle_alpha 90.000000
_cell_angle_beta 49.591937
_cell_angle_gamma 90.000000
_cell_volume 1683.077558
_symmetry_space_group_name_H-M "P 21/M"
_symmetry_group_IT_number 11
_symmetry_cell_setting 'monoclinic'
loop_
_space_group_symop_operation_xyz
x,y,z
-x,1/2+y,-z
-x,-y,-z
x,1/2-y,z
loop_
_atom_site_type_symbol
_atom_site_label
_atom_site_fract_x
_atom_site_fract_y
_atom_site_fract_z
Si Si1 0.381296 0.441441 0.958095
Si Si2 0.018643 0.061144 0.737652
Si Si3 0.301538 0.060442 0.119166
Si Si4 0.742838 0.438004 0.428280
Si Si5 0.756041 0.556989 0.234086
Si Si6 0.164004 0.442686 0.926619
Si Si7 0.513702 0.942693 0.405644
O O1 0.378682 0.250000 0.959034
O O2 0.552239 0.495779 0.897674
O O3 0.281163 0.496907 0.937010
O O4 0.315044 0.496212 0.045052
O O5 0.010565 0.250000 0.744774
O O6 0.120676 0.003753 0.759145
O O7 0.106402 0.017516 0.646710
O O8 0.854164 0.992386 0.799632
O O9 0.308768 0.250000 0.116280
O O10 0.766885 0.250000 0.422176
O O11 0.655152 0.488080 0.518989
O O12 0.622647 0.480286 0.417689
O O13 0.762349 0.750000 0.231123
O O14 0.791570 0.501006 0.155208
O O15 0.592323 0.514998 0.316019
O O16 0.164560 0.250000 0.926012
O O17 0.000000 0.500000 0.000000
O O18 0.523201 0.750000 0.409003
#
# Coordination Sequence:
#
# PCOD9156347 Si02
#       7
#     4   4   4   4   4   4   4
#     4   9  19  33  47  65  88 115 146 180 218 257
#     4  10  18  28  43  64  91 118 145 177 216 261
#     4  10  19  31  47  65  86 113 147 184 219 256
#     4   9  15  23  38  60  86 114 144 178 214 254
#     4   8  15  27  43  63  87 118 148 173 209 257
#     4  10  19  31  47  66  90 117 146 178 211 252
#     4   8  14  25  39  57  84 116 147 176 211 257
#
# _framework density 16.636189999999999
#
# number of rings (size 3 to 8) (size 9 to 14) (size 15 to 20)
#    0.000    2.857    0.000    3.000    0.000    1.714 
#    0.000    2.857    0.000    0.000    0.000    1.000 
#    0.000    0.000    0.000    0.000    0.000    0.000 
#
# Total GULP energy -155895.360703 kJ/mol
# GULP energy per Si atom -5567.691454 kJ/mol
# Density = 1.659832 g / cm^3
# Si number density = 16.636190 Si / 1000 Ang^3
#
#
#
# Elastic Constant Matrix: (Units=GPa)
#
#
# Indices 1 2 3 4 5 6 
#
# 1 81.5635 12.0287 67.9253 0.0000 -10.8003 0.0000
# 2 12.0287 5.0554 4.8477 0.0000 0.1800 0.0000
# 3 67.9253 4.8477 146.1785 0.0000 -13.5481 0.0000
# 4 0.0000 0.0000 0.0000 23.3100 0.0000 -6.3814
# 5 -10.8003 0.1800 -13.5481 0.0000 22.1634 0.0000
# 6 0.0000 0.0000 0.0000 -6.3814 0.0000 14.1878
#
#
#
# Elastic Compliance Matrix: (Units=1/GPa)
#
#
# Indices 1 2 3 4 5 6 
#
# 1 0.034625 -0.070388 -0.012867 0.000000 0.009579 0.000000
# 2 -0.070388 0.348187 0.018784 0.000000 -0.025645 0.000000
# 3 -0.012867 0.018784 0.012299 0.000000 0.001095 0.000000
# 4 0.000000 0.000000 0.000000 0.048924 0.000000 0.022005
# 5 0.009579 -0.025645 0.001095 0.000000 0.050665 0.000000
# 6 0.000000 0.000000 0.000000 0.022005 0.000000 0.080381
#
#
# Mechanical properties :
#
#
# Convention : Reuss Voigt Hill
#
# Bulk Modulus (GPa) = 3.75703 44.71121 24.23412
# Shear Modulus (GPa) = 6.30718 21.79862 14.05290
#
# Velocity S-wave (km/s) = 1.94922 3.62375 2.90956
# Velocity P-wave (km/s) = 2.70725 6.66656 5.08784
#
# Compressibility (1/GPa) = 0.26616734
#
# Stress axis : x y z
#
# Youngs Moduli (GPa) = 28.88064 2.87202 81.30970
#
# Poissons Ratio (x) = 0.20216 1.04624
# Poissons Ratio (y) = 2.03286 -1.52731
# Poissons Ratio (z) = 0.37162 -0.05395
#
# Static dielectric constant tensor:
#      x y z
#    x 1.534120 0.000000 0.006210 
#    y 0.000000 1.566400 0.000000 
#    z 0.006210 0.000000 1.603810 
# 
# From -- ./inp_files/68240.got.cif
#   From: 2010.05.17/outbox.cif.g08.bks.cpg/sg11_35_cif.got.tgz:68240.got - 2010.06.03 12:22:45.
