data_PCOD9156447
_publ_section_title
;
Structure prediction by ZEFSAII (Michael W. Deem and Ramdas Pophale) SiO2 
 PCOD9156447
Probable space group: P 21/M
;
_chemical_formula_sum "Si O2"
_cell_formula_units_Z 32
_cell_length_a 20.324235
_cell_length_b 7.926720
_cell_length_c 28.708236
_cell_angle_alpha 90.000000
_cell_angle_beta 21.490229
_cell_angle_gamma 90.000000
_cell_volume 1694.344039
_symmetry_space_group_name_H-M "P 21/M"
_symmetry_group_IT_number 11
_symmetry_cell_setting 'monoclinic'
loop_
_space_group_symop_operation_xyz
x,y,z
-x,1/2+y,-z
-x,-y,-z
x,1/2-y,z
loop_
_atom_site_type_symbol
_atom_site_label
_atom_site_fract_x
_atom_site_fract_y
_atom_site_fract_z
Si Si1 0.696621 0.951091 0.887117
Si Si2 0.441147 0.452740 0.648559
Si Si3 0.829971 0.956907 0.900526
Si Si4 0.301589 0.043367 0.914358
Si Si5 0.068932 0.443965 0.618794
Si Si6 0.207907 0.557049 0.624995
Si Si7 0.409787 0.546183 0.348928
Si Si8 0.961974 0.450763 0.078407
O O1 0.710338 0.750000 0.877814
O O2 0.740307 0.010817 0.911054
O O3 0.860015 0.021354 0.748410
O O4 0.500000 0.000000 0.000000
O O5 0.459561 0.250000 0.636456
O O6 0.593137 0.519139 0.512529
O O7 0.492910 0.510261 0.666967
O O8 0.234938 0.493621 0.775708
O O9 0.836736 0.750000 0.895597
O O10 0.038535 0.016686 0.764499
O O11 0.719902 0.009841 0.018221
O O12 0.302805 0.250000 0.913101
O O13 0.475308 0.988150 0.770872
O O14 0.124544 0.985848 0.003163
O O15 0.092444 0.250000 0.617097
O O16 0.132480 0.554438 0.621332
O O17 0.205850 0.484885 0.487329
O O18 0.229312 0.750000 0.627050
O O19 0.409971 0.750000 0.348994
O O20 0.966033 0.250000 0.078048
O O21 0.000000 0.500000 0.000000
#
# Coordination Sequence:
#
# PCOD9156447 Si02
#       8
#     4   4   4   4   4   4   4   4
#     4  10  19  33  55  81 104 127 154 190 236 284
#     4   9  16  28  44  65  92 123 161 205 250 288
#     4   8  15  30  52  74  94 123 162 196 232 287
#     4   9  17  30  48  69  94 127 166 203 241 288
#     4  10  18  28  46  74 102 126 158 199 236 278
#     4   8  15  29  48  67  91 124 161 201 245 290
#     4   9  16  29  47  67  94 128 164 202 242 282
#     4  11  20  30  44  65  93 125 164 208 248 287
#
# _framework density 18.886365999999999
#
# number of rings (size 3 to 8) (size 9 to 14) (size 15 to 20)
#    0.000    2.750    1.250    3.375    0.000    2.000 
#    0.000    0.625    0.000   12.000    0.000    0.000 
#    0.000    0.000    0.000    0.000    0.000    0.000 
#
# Total GULP energy -178308.068940 kJ/mol
# GULP energy per Si atom -5572.127154 kJ/mol
# Density = 1.884338 g / cm^3
# Si number density = 18.886366 Si / 1000 Ang^3
#
#
#
# Elastic Constant Matrix: (Units=GPa)
#
#
# Indices 1 2 3 4 5 6 
#
# 1 50.7618 4.4188 55.8526 0.0000 6.8217 0.0000
# 2 4.4188 30.3454 9.7358 0.0000 1.3158 0.0000
# 3 55.8526 9.7358 185.3087 0.0000 4.7647 0.0000
# 4 0.0000 0.0000 0.0000 22.3158 0.0000 -8.0254
# 5 6.8217 1.3158 4.7647 0.0000 27.7411 0.0000
# 6 0.0000 0.0000 0.0000 -8.0254 0.0000 7.3079
#
#
#
# Elastic Compliance Matrix: (Units=1/GPa)
#
#
# Indices 1 2 3 4 5 6 
#
# 1 0.030467 -0.001306 -0.008963 0.000000 -0.005891 0.000000
# 2 -0.001306 0.033621 -0.001346 0.000000 -0.001042 0.000000
# 3 -0.008963 -0.001346 0.008146 0.000000 0.000869 0.000000
# 4 0.000000 0.000000 0.000000 0.074060 0.000000 0.081331
# 5 -0.005891 -0.001042 0.000869 0.000000 0.037396 0.000000
# 6 0.000000 0.000000 0.000000 0.081331 0.000000 0.226154
#
#
# Mechanical properties :
#
#
# Convention : Reuss Voigt Hill
#
# Bulk Modulus (GPa) = 20.40598 45.15892 32.78245
# Shear Modulus (GPa) = 11.12573 24.56686 17.84629
#
# Velocity S-wave (km/s) = 2.42975 3.61053 3.07731
# Velocity P-wave (km/s) = 4.32431 6.42993 5.47922
#
# Compressibility (1/GPa) = 0.04900525
#
# Stress axis : x y z
#
# Youngs Moduli (GPa) = 32.82282 29.74321 122.75718
#
# Poissons Ratio (x) = 0.03883 1.10023
# Poissons Ratio (y) = 0.04285 0.16524
# Poissons Ratio (z) = 0.29418 0.04004
#
# Static dielectric constant tensor:
#      x y z
#    x 1.629180 0.000000 0.006990 
#    y 0.000000 1.686110 0.000000 
#    z 0.006990 0.000000 1.690770 
# 
# From -- ./inp_files/64173.got.cif
#   From: 2010.05.17/outbox.cif.g08.bks.cpg/sg11_33_cif.got.tgz:64173.got - 2010.06.03 12:22:45.
