data_PCOD9156765
_publ_section_title
;
Structure prediction by ZEFSAII (Michael W. Deem and Ramdas Pophale) SiO2 
 PCOD9156765
Probable space group: P 21/M
;
_chemical_formula_sum "Si O2"
_cell_formula_units_Z 24
_cell_length_a 11.768105
_cell_length_b 11.201916
_cell_length_c 17.226293
_cell_angle_alpha 90.000000
_cell_angle_beta 25.681451
_cell_angle_gamma 90.000000
_cell_volume 984.117287
_symmetry_space_group_name_H-M "P 21/M"
_symmetry_group_IT_number 11
_symmetry_cell_setting 'monoclinic'
loop_
_space_group_symop_operation_xyz
x,y,z
-x,1/2+y,-z
-x,-y,-z
x,1/2-y,z
loop_
_atom_site_type_symbol
_atom_site_label
_atom_site_fract_x
_atom_site_fract_y
_atom_site_fract_z
Si Si1 0.001242 0.891188 0.788453
Si Si2 0.456753 0.387342 0.599515
Si Si3 0.625958 0.945696 0.638706
Si Si4 0.877302 0.381869 0.756938
Si Si5 0.056704 0.880786 0.013759
Si Si6 0.540088 0.115965 0.818825
O O1 0.966462 0.750000 0.784966
O O2 0.319167 0.904564 0.605369
O O3 0.924853 0.997982 0.776734
O O4 0.774456 0.902632 0.992722
O O5 0.505562 0.250000 0.592376
O O6 0.535547 0.471077 0.622303
O O7 0.138939 0.390571 0.791298
O O8 0.369359 0.877939 0.827311
O O9 0.870630 0.875942 0.454892
O O10 0.694964 0.028683 0.668246
O O11 0.856138 0.250000 0.809257
O O12 0.629328 0.396890 0.852824
O O13 0.988517 0.750000 0.019643
O O14 0.000000 0.000000 0.000000
O O15 0.597721 0.250000 0.759079
#
# Coordination Sequence:
#
# PCOD9156765 Si02
#       6
#     4   4   4   4   4   4
#     4   9  18  34  54  74  97 131 171 205 242 296
#     4   8  15  29  50  71  93 124 161 198 240 290
#     4  10  18  30  48  73 101 129 161 204 248 289
#     4  10  20  34  51  73 101 133 168 206 247 294
#     4   9  17  30  49  73  98 126 161 201 244 292
#     4  10  20  33  50  74 103 133 167 206 249 295
#
# _framework density 24.387336000000001
#
# number of rings (size 3 to 8) (size 9 to 14) (size 15 to 20)
#    0.000    2.667    0.000    2.000    0.000    1.333 
#    0.000    4.167    0.000    0.000    0.000    0.000 
#    0.000    0.000    0.000    0.000    0.000    0.000 
#
# Total GULP energy -133681.758480 kJ/mol
# GULP energy per Si atom -5570.073270 kJ/mol
# Density = 2.433183 g / cm^3
# Si number density = 24.387336 Si / 1000 Ang^3
#
#
#
# Elastic Constant Matrix: (Units=GPa)
#
#
# Indices 1 2 3 4 5 6 
#
# 1 55.5450 42.9722 12.9385 0.0000 -6.2485 0.0000
# 2 42.9722 155.7490 35.4239 0.0000 12.0550 0.0000
# 3 12.9385 35.4239 129.9600 0.0000 -17.3871 0.0000
# 4 0.0000 0.0000 0.0000 18.4490 0.0000 1.8224
# 5 -6.2485 12.0550 -17.3871 0.0000 29.4871 0.0000
# 6 0.0000 0.0000 0.0000 1.8224 0.0000 22.1829
#
#
#
# Elastic Compliance Matrix: (Units=1/GPa)
#
#
# Indices 1 2 3 4 5 6 
#
# 1 0.024778 -0.007712 0.000825 0.000000 0.008890 0.000000
# 2 -0.007712 0.009769 -0.002875 0.000000 -0.007323 0.000000
# 3 0.000825 -0.002875 0.009311 0.000000 0.006840 0.000000
# 4 0.000000 0.000000 0.000000 0.054647 0.000000 -0.004489
# 5 0.008890 -0.007323 0.006840 0.000000 0.042824 0.000000
# 6 0.000000 0.000000 0.000000 -0.004489 0.000000 0.045449
#
#
# Mechanical properties :
#
#
# Convention : Reuss Voigt Hill
#
# Bulk Modulus (GPa) = 41.09503 58.21369 49.65436
# Shear Modulus (GPa) = 23.31945 30.68509 27.00227
#
# Velocity S-wave (km/s) = 3.09562 3.55101 3.33111
# Velocity P-wave (km/s) = 5.44653 6.38241 5.93296
#
# Compressibility (1/GPa) = 0.02433384
#
# Stress axis : x y z
#
# Youngs Moduli (GPa) = 40.35894 102.36462 107.39598
#
# Poissons Ratio (x) = 0.78943 -0.08856
# Poissons Ratio (y) = 0.31124 0.30874
# Poissons Ratio (z) = -0.03328 0.29427
#
# Static dielectric constant tensor:
#      x y z
#    x 1.918150 0.000000 -0.012100 
#    y 0.000000 2.046560 0.000000 
#    z -0.012100 0.000000 1.997970 
# 
# From -- ./inp_files/16936.got.cif
#   From: 2010.05.17/outbox.cif.g08.bks.cpg/sg11_9_cif.got.tgz:16936.got - 2010.06.03 12:22:45.
