data_PCOD9156532
_publ_section_title
;
Structure prediction by ZEFSAII (Michael W. Deem and Ramdas Pophale) SiO2 
 PCOD9156532
Probable space group: P 21/M
;
_chemical_formula_sum "Si O2"
_cell_formula_units_Z 32
_cell_length_a 8.507900
_cell_length_b 9.709589
_cell_length_c 20.829592
_cell_angle_alpha 90.000000
_cell_angle_beta 121.753151
_cell_angle_gamma 90.000000
_cell_volume 1463.147327
_symmetry_space_group_name_H-M "P 21/M"
_symmetry_group_IT_number 11
_symmetry_cell_setting 'monoclinic'
loop_
_space_group_symop_operation_xyz
x,y,z
-x,1/2+y,-z
-x,-y,-z
x,1/2-y,z
loop_
_atom_site_type_symbol
_atom_site_label
_atom_site_fract_x
_atom_site_fract_y
_atom_site_fract_z
Si Si1 0.850912 0.091362 0.928397
Si Si2 0.757235 0.590847 0.651633
Si Si3 0.790317 0.408893 0.252848
Si Si4 0.329528 0.594129 0.980852
Si Si5 0.172495 0.097078 0.851777
Si Si6 0.229144 0.410011 0.487795
Si Si7 0.221972 0.909138 0.606429
Si Si8 0.742835 0.403399 0.763920
O O1 0.921866 0.250000 0.932688
O O2 0.693752 0.100061 0.948507
O O3 0.761434 0.045540 0.841643
O O4 0.000000 0.000000 0.000000
O O5 0.701202 0.750000 0.644152
O O6 0.710647 0.538304 0.569872
O O7 0.678015 0.507221 0.694951
O O8 0.983945 0.592435 0.700885
O O9 0.732625 0.250000 0.229041
O O10 0.732144 0.515288 0.185605
O O11 0.725067 0.452446 0.309810
O O12 0.333656 0.750000 0.956773
O O13 0.500000 0.500000 0.000000
O O14 0.171155 0.506164 0.911765
O O15 0.250660 0.250000 0.881267
O O16 0.957871 0.114373 0.790181
O O17 0.284457 0.250000 0.506068
O O18 0.286770 0.499942 0.560902
O O19 0.003720 0.412517 0.440684
O O20 0.274316 0.750000 0.609067
O O21 0.656467 0.250000 0.744597
#
# Coordination Sequence:
#
# PCOD9156532 Si02
#       8
#     4   4   4   4   4   4   4   4
#     4  10  20  34  52  73  95 121 153 193 238 280
#     4   8  14  23  34  51  76 108 143 178 221 268
#     4   8  14  24  36  52  77 107 143 183 223 268
#     4  11  23  37  53  71  95 126 156 191 238 285
#     4  10  18  29  46  66  89 115 148 190 231 276
#     4   8  13  20  29  43  68 101 138 178 215 258
#     4   8  13  20  30  45  67 100 140 179 216 259
#     4   9  17  28  43  65  89 111 144 189 228 269
#
# _framework density 21.870660999999998
#
# number of rings (size 3 to 8) (size 9 to 14) (size 15 to 20)
#    0.000    3.000    1.250    2.250    0.000    2.500 
#    0.000    5.000    0.000    0.000    0.000    0.000 
#    0.000    0.000    0.000    1.125    0.000   14.750 
#
# Total GULP energy -178293.011473 kJ/mol
# GULP energy per Si atom -5571.656609 kJ/mol
# Density = 2.182088 g / cm^3
# Si number density = 21.870661 Si / 1000 Ang^3
#
#
#
# Elastic Constant Matrix: (Units=GPa)
#
#
# Indices 1 2 3 4 5 6 
#
# 1 35.9340 23.2240 38.9823 0.0000 -16.6408 0.0000
# 2 23.2240 114.8048 84.3644 0.0000 -39.0045 0.0000
# 3 38.9823 84.3644 149.5663 0.0000 -59.8251 0.0000
# 4 0.0000 0.0000 0.0000 34.7883 0.0000 -13.0476
# 5 -16.6408 -39.0045 -59.8251 0.0000 50.0825 0.0000
# 6 0.0000 0.0000 0.0000 -13.0476 0.0000 7.9544
#
#
#
# Elastic Compliance Matrix: (Units=1/GPa)
#
#
# Indices 1 2 3 4 5 6 
#
# 1 0.038886 -0.000602 -0.009220 0.000000 0.001437 0.000000
# 2 -0.000602 0.015124 -0.007167 0.000000 0.003017 0.000000
# 3 -0.009220 -0.007167 0.018525 0.000000 0.013483 0.000000
# 4 0.000000 0.000000 0.000000 0.074703 0.000000 0.122535
# 5 0.001437 0.003017 0.013483 0.000000 0.038901 0.000000
# 6 0.000000 0.000000 0.000000 0.122535 0.000000 0.326711
#
#
# Mechanical properties :
#
#
# Convention : Reuss Voigt Hill
#
# Bulk Modulus (GPa) = 25.93633 65.93850 45.93741
# Shear Modulus (GPa) = 8.93364 28.81401 18.87382
#
# Velocity S-wave (km/s) = 2.02327 3.63364 2.94083
# Velocity P-wave (km/s) = 4.16448 6.91514 5.70798
#
# Compressibility (1/GPa) = 0.03855596
#
# Stress axis : x y z
#
# Youngs Moduli (GPa) = 25.71593 66.11958 53.98111
#
# Poissons Ratio (x) = 0.03982 0.49773
# Poissons Ratio (y) = 0.01549 0.38688
# Poissons Ratio (z) = 0.23711 0.47388
#
# Static dielectric constant tensor:
#      x y z
#    x 1.928500 0.000000 0.075090 
#    y 0.000000 1.856660 0.000000 
#    z 0.075090 0.000000 1.892320 
# 
# From -- ./inp_files/64254.got.cif
#   From: 2010.05.17/outbox.cif.g08.bks.cpg/sg11_33_cif.got.tgz:64254.got - 2010.06.03 12:22:45.
