data_PCOD9156005
_publ_section_title
;
Structure prediction by ZEFSAII (Michael W. Deem and Ramdas Pophale) SiO2 
 PCOD9156005
Probable space group: P 21/M
;
_chemical_formula_sum "Si O2"
_cell_formula_units_Z 32
_cell_length_a 21.275171
_cell_length_b 10.348409
_cell_length_c 12.103978
_cell_angle_alpha 90.000000
_cell_angle_beta 137.094259
_cell_angle_gamma 90.000000
_cell_volume 1814.222961
_symmetry_space_group_name_H-M "P 21/M"
_symmetry_group_IT_number 11
_symmetry_cell_setting 'monoclinic'
loop_
_space_group_symop_operation_xyz
x,y,z
-x,1/2+y,-z
-x,-y,-z
x,1/2-y,z
loop_
_atom_site_type_symbol
_atom_site_label
_atom_site_fract_x
_atom_site_fract_y
_atom_site_fract_z
Si Si1 0.316544 0.897608 0.202831
Si Si2 0.681441 0.019077 0.548017
Si Si3 0.886020 0.405496 0.044491
Si Si4 0.480695 0.599243 0.273370
Si Si5 0.761653 0.101989 0.417080
Si Si6 0.865277 0.891246 0.829357
Si Si7 0.082068 0.102440 0.358581
Si Si8 0.573353 0.101182 0.047334
O O1 0.319333 0.750000 0.167340
O O2 0.320000 0.901579 0.339973
O O3 0.408025 0.958502 0.267967
O O4 0.214623 0.945968 0.039082
O O5 0.723413 0.086856 0.493673
O O6 0.578308 0.972007 0.393043
O O7 0.755043 0.905913 0.669286
O O8 0.883245 0.250000 0.017041
O O9 0.973915 0.427406 0.235902
O O10 0.895512 0.491419 0.946226
O O11 0.501104 0.750000 0.325801
O O12 0.432038 0.593914 0.091659
O O13 0.791426 0.250000 0.439292
O O14 0.674522 0.074358 0.226125
O O15 0.844380 0.001326 0.505148
O O16 0.887784 0.750000 0.905731
O O17 0.907418 0.899004 0.761554
O O18 0.102044 0.250000 0.420287
O O19 0.549956 0.250000 0.048894
O O20 0.500000 0.000000 0.000000
#
# Coordination Sequence:
#
# PCOD9156005 Si02
#       8
#     4   4   4   4   4   4   4   4
#     4   9  18  30  46  70  97 131 169 203 236 280
#     4  10  17  29  47  67 102 131 161 196 240 289
#     4   9  17  30  46  65  93 128 165 201 238 283
#     4  10  19  31  49  70  96 131 169 201 237 288
#     4  10  20  32  49  75 100 124 159 202 248 290
#     4   9  17  26  40  66  96 126 161 197 239 290
#     4   9  18  30  46  68  94 126 161 199 245 292
#     4  10  20  35  53  74  98 128 162 201 245 292
#
# _framework density 17.638404999999999
#
# number of rings (size 3 to 8) (size 9 to 14) (size 15 to 20)
#    0.000    2.500    1.250    1.500    0.000    4.500 
#    0.000    0.000    0.000    4.500    0.000    0.000 
#    0.000    0.000    0.000    0.000    0.000    0.000 
#
# Total GULP energy -178152.561736 kJ/mol
# GULP energy per Si atom -5567.267554 kJ/mol
# Density = 1.759826 g / cm^3
# Si number density = 17.638405 Si / 1000 Ang^3
#
#
#
# Elastic Constant Matrix: (Units=GPa)
#
#
# Indices 1 2 3 4 5 6 
#
# 1 30.2456 -0.0747 22.1040 0.0000 15.1610 0.0000
# 2 -0.0747 65.8787 48.0971 0.0000 17.2445 0.0000
# 3 22.1040 48.0971 107.8469 0.0000 29.3027 0.0000
# 4 0.0000 0.0000 0.0000 25.3448 0.0000 3.1248
# 5 15.1610 17.2445 29.3027 0.0000 21.3174 0.0000
# 6 0.0000 0.0000 0.0000 3.1248 0.0000 8.8557
#
#
#
# Elastic Compliance Matrix: (Units=1/GPa)
#
#
# Indices 1 2 3 4 5 6 
#
# 1 0.063928 0.018969 -0.008044 0.000000 -0.049753 0.000000
# 2 0.018969 0.028818 -0.010759 0.000000 -0.022014 0.000000
# 3 -0.008044 -0.010759 0.018834 0.000000 -0.011466 0.000000
# 4 0.000000 0.000000 0.000000 0.041250 0.000000 -0.014556
# 5 -0.049753 -0.022014 -0.011466 0.000000 0.115864 0.000000
# 6 0.000000 0.000000 0.000000 -0.014556 0.000000 0.118058
#
#
# Mechanical properties :
#
#
# Convention : Reuss Voigt Hill
#
# Bulk Modulus (GPa) = 8.93551 38.24712 23.59132
# Shear Modulus (GPa) = 11.80013 20.02657 15.91335
#
# Velocity S-wave (km/s) = 2.58931 3.37322 3.00692
# Velocity P-wave (km/s) = 3.74384 6.07475 5.04573
#
# Compressibility (1/GPa) = 0.11191298
#
# Stress axis : x y z
#
# Youngs Moduli (GPa) = 15.64268 34.70046 53.09421
#
# Poissons Ratio (x) = -0.65822 0.42707
# Poissons Ratio (y) = -0.29672 0.57122
# Poissons Ratio (z) = 0.12583 0.37333
#
# Static dielectric constant tensor:
#      x y z
#    x 1.630040 0.000000 0.029430 
#    y 0.000000 1.615130 0.000000 
#    z 0.029430 0.000000 1.608490 
# 
# From -- ./inp_files/43144.got.cif
#   From: 2010.05.17/outbox.cif.g08.bks.cpg/sg11_22_cif.got.tgz:43144.got - 2010.06.03 12:22:45.
