data_PCOD9156152
_publ_section_title
;
Structure prediction by ZEFSAII (Michael W. Deem and Ramdas Pophale) SiO2 
 PCOD9156152
Probable space group: P 21/M
;
_chemical_formula_sum "Si O2"
_cell_formula_units_Z 14
_cell_length_a 13.658549
_cell_length_b 5.384221
_cell_length_c 16.083380
_cell_angle_alpha 90.000000
_cell_angle_beta 27.631916
_cell_angle_gamma 90.000000
_cell_volume 548.562081
_symmetry_space_group_name_H-M "P 21/M"
_symmetry_group_IT_number 11
_symmetry_cell_setting 'monoclinic'
loop_
_space_group_symop_operation_xyz
x,y,z
-x,1/2+y,-z
-x,-y,-z
x,1/2-y,z
loop_
_atom_site_type_symbol
_atom_site_label
_atom_site_fract_x
_atom_site_fract_y
_atom_site_fract_z
Si Si1 0.862781 0.250000 0.688624
Si Si2 0.141775 0.250000 0.906302
Si Si3 0.263842 0.250000 0.134738
Si Si4 0.336343 0.250000 0.405021
Si Si5 0.611229 0.250000 0.730018
Si Si6 0.720226 0.750000 0.368744
Si Si7 0.014904 0.750000 0.807504
O O1 0.746105 0.499957 0.805622
O O2 0.842231 0.250000 0.603569
O O3 0.086181 0.250000 0.569039
O O4 0.171039 0.250000 0.983627
O O5 0.000000 0.500000 0.000000
O O6 0.325263 0.250000 0.697129
O O7 0.058095 0.250000 0.231355
O O8 0.447909 0.250000 0.928552
O O9 0.412998 0.501103 0.304422
O O10 0.407774 0.250000 0.448327
O O11 0.852592 0.498331 0.278803
#
# Coordination Sequence:
#
# PCOD9156152 Si02
#       7
#     2   2   2   2   2   2   2
#     4  12  23  41  60  79 107 151 196 231 267 325
#     4   8  16  27  50  80 108 130 172 230 265 308
#     4  12  22  39  60  82 112 146 187 233 274 329
#     4  12  22  39  58  81 114 145 188 229 275 333
#     4  12  26  38  55  84 115 148 183 232 285 323
#     4  10  18  33  55  81 108 140 180 222 272 320
#     4  10  17  33  54  83 106 138 182 225 270 316
#
# _framework density 25.521265
#
# number of rings (size 3 to 8) (size 9 to 14) (size 15 to 20)
#    0.000    1.143    2.857    5.143    0.000    0.000 
#    0.000    0.000    0.000    1.714    0.000    0.000 
#    0.000    0.000    0.000    0.000    0.000    0.000 
#
# Total GULP energy -78257.451807 kJ/mol
# GULP energy per Si atom -5589.817986 kJ/mol
# Density = 2.546318 g / cm^3
# Si number density = 25.521265 Si / 1000 Ang^3
#
#
#
# Elastic Constant Matrix: (Units=GPa)
#
#
# Indices 1 2 3 4 5 6 
#
# 1 62.2220 50.6566 19.8553 0.0000 37.3213 0.0000
# 2 50.6566 262.3937 75.9563 0.0000 21.0044 0.0000
# 3 19.8553 75.9563 98.3087 0.0000 28.8003 0.0000
# 4 0.0000 0.0000 0.0000 -78.1409 0.0000 60.2090
# 5 37.3213 21.0044 28.8003 0.0000 58.8779 0.0000
# 6 0.0000 0.0000 0.0000 60.2090 0.0000 -0.1607
#
#
#
# Elastic Compliance Matrix: (Units=1/GPa)
#
#
# Indices 1 2 3 4 5 6 
#
# 1 0.031116 -0.005514 0.003709 0.000000 -0.019571 0.000000
# 2 -0.005514 0.005887 -0.004486 0.000000 0.003590 0.000000
# 3 0.003709 -0.004486 0.015302 0.000000 -0.008236 0.000000
# 4 0.000000 0.000000 0.000000 0.000044 0.000000 0.016667
# 5 -0.019571 0.003590 -0.008236 0.000000 0.032138 0.000000
# 6 0.000000 0.000000 0.000000 0.016667 0.000000 0.021630
#
#
# Mechanical properties :
#
#
# Convention : Reuss Voigt Hill
#
# Bulk Modulus (GPa) = 25.17470 79.54010 52.35740
# Shear Modulus (GPa) = 37.89590 14.54567 26.22078
#
# Velocity S-wave (km/s) = 3.85759 2.38994 3.20880
# Velocity P-wave (km/s) = 5.45224 6.23294 5.85562
#
# Compressibility (1/GPa) = 0.03972241
#
# Stress axis : x y z
#
# Youngs Moduli (GPa) = 32.13793 169.86688 65.35143
#
# Poissons Ratio (x) = 0.93669 -0.24242
# Poissons Ratio (y) = 0.17722 0.29319
# Poissons Ratio (z) = -0.11921 0.76209
#
# Static dielectric constant tensor:
#      x y z
#    x 2.046450 0.000000 -0.034070 
#    y 0.000000 1.915380 0.000000 
#    z -0.034070 0.000000 2.091950 
# 
# From -- ./inp_files/27899.got.cif
#   From: 2010.05.17/outbox.cif.g08.bks.cpg/sg11_14_cif.got.tgz:27899.got - 2010.06.03 12:22:45.
