data_PCOD9156295
_publ_section_title
;
Structure prediction by ZEFSAII (Michael W. Deem and Ramdas Pophale) SiO2 
 PCOD9156295
Probable space group: P 21/M
;
_chemical_formula_sum "Si O2"
_cell_formula_units_Z 32
_cell_length_a 18.027239
_cell_length_b 9.604752
_cell_length_c 11.679520
_cell_angle_alpha 90.000000
_cell_angle_beta 92.918178
_cell_angle_gamma 90.000000
_cell_volume 2019.653341
_symmetry_space_group_name_H-M "P 21/M"
_symmetry_group_IT_number 11
_symmetry_cell_setting 'monoclinic'
loop_
_space_group_symop_operation_xyz
x,y,z
-x,1/2+y,-z
-x,-y,-z
x,1/2-y,z
loop_
_atom_site_type_symbol
_atom_site_label
_atom_site_fract_x
_atom_site_fract_y
_atom_site_fract_z
Si Si1 0.138552 0.407926 0.281653
Si Si2 0.726414 0.084334 0.629762
Si Si3 0.069977 0.095202 0.526568
Si Si4 0.437256 0.409674 0.642949
Si Si5 0.138648 0.910763 0.723791
Si Si6 0.422153 0.089245 0.364921
Si Si7 0.005579 0.585003 0.884318
Si Si8 0.705096 0.409818 0.356752
O O1 0.161532 0.250000 0.248124
O O2 0.205580 0.517261 0.294229
O O3 0.112779 0.397998 0.410910
O O4 0.065400 0.448116 0.202757
O O5 0.720303 0.250000 0.648724
O O6 0.733799 0.066312 0.490795
O O7 0.652355 0.000189 0.657943
O O8 0.047592 0.250000 0.559468
O O9 0.116425 0.021379 0.627325
O O10 0.000000 0.000000 0.500000
O O11 0.444048 0.250000 0.682984
O O12 0.507514 0.505739 0.679159
O O13 0.433841 0.405735 0.503699
O O14 0.360806 0.483462 0.672913
O O15 0.121059 0.750000 0.686996
O O16 0.227878 0.918913 0.729268
O O17 0.084488 0.939215 0.826456
O O18 0.416559 0.250000 0.325600
O O19 0.001590 0.750000 0.906698
O O20 0.000000 0.500000 0.000000
O O21 0.676864 0.250000 0.354582
#
# Coordination Sequence:
#
# PCOD9156295 Si02
#       8
#     4   4   4   4   4   4   4   4
#     4  10  20  33  48  67  95 124 153 195 242 284
#     4  10  18  27  43  67  93 121 157 194 231 279
#     4  11  20  30  47  70  95 121 152 191 239 290
#     4   9  16  25  38  57  86 123 162 195 223 264
#     4  10  19  34  50  69  96 124 156 199 242 284
#     4   9  16  26  39  56  86 126 162 191 226 270
#     4  10  22  39  54  68  91 123 161 202 243 287
#     4   9  17  27  42  64  92 123 154 189 234 280
#
# _framework density 15.844303999999999
#
# number of rings (size 3 to 8) (size 9 to 14) (size 15 to 20)
#    0.000    2.250    2.500    1.500    0.000    5.500 
#    0.000    0.000    0.000    0.000    0.000    0.000 
#    0.000    1.000    0.000    3.000    0.000    4.625 
#
# Total GULP energy -178138.298793 kJ/mol
# GULP energy per Si atom -5566.821837 kJ/mol
# Density = 1.580824 g / cm^3
# Si number density = 15.844304 Si / 1000 Ang^3
#
#
#
# Elastic Constant Matrix: (Units=GPa)
#
#
# Indices 1 2 3 4 5 6 
#
# 1 110.8266 81.7051 27.7954 0.0000 -10.8935 0.0000
# 2 81.7051 125.9175 32.8980 0.0000 -8.4262 0.0000
# 3 27.7954 32.8980 50.2478 0.0000 -6.9304 0.0000
# 4 0.0000 0.0000 0.0000 17.6636 0.0000 -0.1399
# 5 -10.8935 -8.4262 -6.9304 0.0000 5.2471 0.0000
# 6 0.0000 0.0000 0.0000 -0.1399 0.0000 29.5094
#
#
#
# Elastic Compliance Matrix: (Units=1/GPa)
#
#
# Indices 1 2 3 4 5 6 
#
# 1 0.019418 -0.010996 -0.000511 0.000000 0.021982 0.000000
# 2 -0.010996 0.016142 -0.004963 0.000000 -0.003462 0.000000
# 3 -0.000511 -0.004963 0.027130 0.000000 0.026803 0.000000
# 4 0.000000 0.000000 0.000000 0.056616 0.000000 0.000268
# 5 0.021982 -0.003462 0.026803 0.000000 0.266063 0.000000
# 6 0.000000 0.000000 0.000000 0.000268 0.000000 0.033889
#
#
# Mechanical properties :
#
#
# Convention : Reuss Voigt Hill
#
# Bulk Modulus (GPa) = 33.61228 63.53209 48.57219
# Shear Modulus (GPa) = 10.81985 20.12358 15.47172
#
# Velocity S-wave (km/s) = 2.61604 3.56769 3.12827
# Velocity P-wave (km/s) = 5.51227 7.56016 6.61593
#
# Compressibility (1/GPa) = 0.02975104
#
# Stress axis : x y z
#
# Youngs Moduli (GPa) = 51.49794 61.95185 36.85929
#
# Poissons Ratio (x) = 0.68120 0.01882
# Poissons Ratio (y) = 0.56625 0.18294
# Poissons Ratio (z) = 0.02630 0.30748
#
# Static dielectric constant tensor:
#      x y z
#    x 1.562850 0.000000 -0.015590 
#    y 0.000000 1.541260 0.000000 
#    z -0.015590 0.000000 1.474030 
# 
# From -- ./inp_files/40634.got.cif
#   From: 2010.05.17/outbox.cif.g08.bks.cpg/sg11_21_cif.got.tgz:40634.got - 2010.06.03 12:22:45.
