data_PCOD9156733
_publ_section_title
;
Structure prediction by ZEFSAII (Michael W. Deem and Ramdas Pophale) SiO2 
 PCOD9156733
Probable space group: P 21/M
;
_chemical_formula_sum "Si O2"
_cell_formula_units_Z 28
_cell_length_a 19.645415
_cell_length_b 8.463381
_cell_length_c 15.195720
_cell_angle_alpha 90.000000
_cell_angle_beta 142.129165
_cell_angle_gamma 90.000000
_cell_volume 1551.001837
_symmetry_space_group_name_H-M "P 21/M"
_symmetry_group_IT_number 11
_symmetry_cell_setting 'monoclinic'
loop_
_space_group_symop_operation_xyz
x,y,z
-x,1/2+y,-z
-x,-y,-z
x,1/2-y,z
loop_
_atom_site_type_symbol
_atom_site_label
_atom_site_fract_x
_atom_site_fract_y
_atom_site_fract_z
Si Si1 0.886328 0.938070 0.135146
Si Si2 0.336916 0.058809 0.172207
Si Si3 0.040302 0.063040 0.447713
Si Si4 0.253185 0.939326 0.274264
Si Si5 0.213106 0.938763 0.500880
Si Si6 0.938935 0.935174 0.811449
Si Si7 0.585719 0.441187 0.400669
O O1 0.893217 0.750000 0.154818
O O2 0.950196 0.018692 0.280828
O O3 0.759158 0.988315 0.994064
O O4 0.950061 0.980479 0.109284
O O5 0.338691 0.250000 0.175145
O O6 0.460313 0.999488 0.276531
O O7 0.297683 0.001810 0.227632
O O8 0.053987 0.250000 0.464468
O O9 0.000000 0.000000 0.500000
O O10 0.155775 0.985156 0.533272
O O11 0.249333 0.750000 0.269550
O O12 0.341412 0.989957 0.440061
O O13 0.131337 0.999392 0.178429
O O14 0.198686 0.750000 0.471649
O O15 0.340496 0.979348 0.609898
O O16 0.143043 0.030095 0.354867
O O17 0.959305 0.750000 0.842568
O O18 0.579960 0.250000 0.398556
#
# Coordination Sequence:
#
# PCOD9156733 Si02
#       7
#     4   4   4   4   4   4   4
#     4  10  20  34  51  73 102 132 162 199 247 300
#     4  10  20  33  49  70  99 135 171 206 246 292
#     4  11  21  35  57  82 105 126 155 196 242 295
#     4  10  19  31  48  70  97 130 173 219 255 287
#     4   9  16  30  52  77 103 128 159 199 244 291
#     4  10  18  30  48  68  95 130 168 209 251 296
#     4   8  16  31  50  72  99 133 170 207 245 285
#
# _framework density 18.052848000000001
#
# number of rings (size 3 to 8) (size 9 to 14) (size 15 to 20)
#    0.000    2.286    0.000    6.857    0.000    1.714 
#    0.000    3.571    0.000    0.857    0.000    0.000 
#    0.000    0.000    0.000    0.000    0.000    0.000 
#
# Total GULP energy -156171.150134 kJ/mol
# GULP energy per Si atom -5577.541076 kJ/mol
# Density = 1.801176 g / cm^3
# Si number density = 18.052848 Si / 1000 Ang^3
#
#
#
# Elastic Constant Matrix: (Units=GPa)
#
#
# Indices 1 2 3 4 5 6 
#
# 1 132.4401 4.0949 51.4958 0.0000 5.5782 0.0000
# 2 4.0949 31.1231 9.9293 0.0000 -0.6828 0.0000
# 3 51.4958 9.9293 71.2953 0.0000 17.2906 0.0000
# 4 0.0000 0.0000 0.0000 8.5164 0.0000 -6.4270
# 5 5.5782 -0.6828 17.2906 0.0000 24.0243 0.0000
# 6 0.0000 0.0000 0.0000 -6.4270 0.0000 25.5760
#
#
#
# Elastic Compliance Matrix: (Units=1/GPa)
#
#
# Indices 1 2 3 4 5 6 
#
# 1 0.010840 0.001539 -0.009019 0.000000 0.004017 0.000000
# 2 0.001539 0.034397 -0.007332 0.000000 0.005897 0.000000
# 3 -0.009019 -0.007332 0.025567 0.000000 -0.016515 0.000000
# 4 0.000000 0.000000 0.000000 0.144899 0.000000 0.036412
# 5 0.004017 0.005897 -0.016515 0.000000 0.052745 0.000000
# 6 0.000000 0.000000 0.000000 0.036412 0.000000 0.048249
#
#
# Mechanical properties :
#
#
# Convention : Reuss Voigt Hill
#
# Bulk Modulus (GPa) = 24.28366 40.65539 32.46953
# Shear Modulus (GPa) = 13.88704 22.91257 18.39981
#
# Velocity S-wave (km/s) = 2.77653 3.56644 3.19598
# Velocity P-wave (km/s) = 4.87437 6.28716 5.62530
#
# Compressibility (1/GPa) = 0.04117996
#
# Stress axis : x y z
#
# Youngs Moduli (GPa) = 92.24724 29.07262 39.11352
#
# Poissons Ratio (x) = -0.04475 0.35275
# Poissons Ratio (y) = -0.14198 0.28679
# Poissons Ratio (z) = 0.83194 0.21317
#
# Static dielectric constant tensor:
#      x y z
#    x 1.636600 0.000000 0.023230 
#    y 0.000000 1.577740 0.000000 
#    z 0.023230 0.000000 1.645110 
# 
# From -- ./inp_files/53288.got.cif
#   From: 2010.05.17/outbox.cif.g08.bks.cpg/sg11_27_cif.got.tgz:53288.got - 2010.06.03 12:22:45.
