data_PCOD9156052
_publ_section_title
;
Structure prediction by ZEFSAII (Michael W. Deem and Ramdas Pophale) SiO2 
 PCOD9156052
Probable space group: P 21/M
;
_chemical_formula_sum "Si O2"
_cell_formula_units_Z 32
_cell_length_a 15.700257
_cell_length_b 7.677323
_cell_length_c 32.058260
_cell_angle_alpha 90.000000
_cell_angle_beta 151.526539
_cell_angle_gamma 90.000000
_cell_volume 1842.250670
_symmetry_space_group_name_H-M "P 21/M"
_symmetry_group_IT_number 11
_symmetry_cell_setting 'monoclinic'
loop_
_space_group_symop_operation_xyz
x,y,z
-x,1/2+y,-z
-x,-y,-z
x,1/2-y,z
loop_
_atom_site_type_symbol
_atom_site_label
_atom_site_fract_x
_atom_site_fract_y
_atom_site_fract_z
Si Si1 0.722163 0.539499 0.739793
Si Si2 0.956878 0.540794 0.915823
Si Si3 0.661314 0.037192 0.387811
Si Si4 0.634826 0.455750 0.610757
Si Si5 0.951086 0.458191 0.579576
Si Si6 0.280265 0.458793 0.108115
Si Si7 0.238526 0.951141 0.422059
Si Si8 0.327631 0.539713 0.703191
O O1 0.721956 0.750000 0.739359
O O2 0.878438 0.478897 0.838118
O O3 0.531514 0.484146 0.677253
O O4 0.731428 0.480778 0.696147
O O5 0.942042 0.750000 0.909357
O O6 0.828845 0.474933 0.898264
O O7 0.158266 0.498257 0.015685
O O8 0.662334 0.250000 0.387741
O O9 0.818341 0.976289 0.486088
O O10 0.686549 0.979449 0.351014
O O11 0.603257 0.250000 0.590547
O O12 0.739000 0.525459 0.614867
O O13 0.438891 0.541571 0.527389
O O14 0.921717 0.250000 0.568649
O O15 0.890743 0.529754 0.598639
O O16 0.154157 0.488997 0.654429
O O17 0.287312 0.250000 0.115070
O O18 0.483297 0.522546 0.196773
O O19 0.184629 0.750000 0.393104
O O20 0.332304 0.750000 0.704166
#
# Coordination Sequence:
#
# PCOD9156052 Si02
#       8
#     4   4   4   4   4   4   4   4
#     4  10  17  30  49  67  92 128 155 178 225 282
#     4   9  17  29  48  68  88 119 156 186 221 275
#     4   9  16  29  46  62  89 127 160 181 213 268
#     4  10  19  29  46  71  93 115 151 195 231 268
#     4  10  19  31  47  64  87 125 162 189 220 262
#     4   9  17  30  46  65  91 121 150 188 233 268
#     4   9  18  33  48  63  90 125 154 185 232 279
#     4  10  19  31  46  65  91 124 158 191 225 263
#
# _framework density 17.370058
#
# number of rings (size 3 to 8) (size 9 to 14) (size 15 to 20)
#    0.000    2.500    2.500    0.750    0.000    2.000 
#    0.000    0.625    0.000    0.000    0.000    0.875 
#    0.000    0.000    0.000    0.000    0.000    0.000 
#
# Total GULP energy -178437.790323 kJ/mol
# GULP energy per Si atom -5576.180948 kJ/mol
# Density = 1.733052 g / cm^3
# Si number density = 17.370058 Si / 1000 Ang^3
#
#
#
# Elastic Constant Matrix: (Units=GPa)
#
#
# Indices 1 2 3 4 5 6 
#
# 1 137.7173 2.1623 83.3563 0.0000 -6.5521 0.0000
# 2 2.1623 29.3237 -3.8025 0.0000 1.3128 0.0000
# 3 83.3563 -3.8025 120.8238 0.0000 -6.2097 0.0000
# 4 0.0000 0.0000 0.0000 18.7512 0.0000 1.3344
# 5 -6.5521 1.3128 -6.2097 0.0000 24.5578 0.0000
# 6 0.0000 0.0000 0.0000 1.3344 0.0000 8.6801
#
#
#
# Elastic Compliance Matrix: (Units=1/GPa)
#
#
# Indices 1 2 3 4 5 6 
#
# 1 0.012630 -0.002119 -0.008714 0.000000 0.001279 0.000000
# 2 -0.002119 0.034658 0.002460 0.000000 -0.001796 0.000000
# 3 -0.008714 0.002460 0.014427 0.000000 0.001192 0.000000
# 4 0.000000 0.000000 0.000000 0.053920 0.000000 -0.008289
# 5 0.001279 -0.001796 0.001192 0.000000 0.041459 0.000000
# 6 0.000000 0.000000 0.000000 -0.008289 0.000000 0.116481
#
#
# Mechanical properties :
#
#
# Convention : Reuss Voigt Hill
#
# Bulk Modulus (GPa) = 22.23745 50.14412 36.19078
# Shear Modulus (GPa) = 16.37680 24.14106 20.25893
#
# Velocity S-wave (km/s) = 3.07387 3.73206 3.41884
# Velocity P-wave (km/s) = 5.04263 6.89216 6.03862
#
# Compressibility (1/GPa) = 0.04496918
#
# Stress axis : x y z
#
# Youngs Moduli (GPa) = 79.17726 28.85353 69.31376
#
# Poissons Ratio (x) = 0.06113 0.60402
# Poissons Ratio (y) = 0.16775 -0.17052
# Poissons Ratio (z) = 0.68997 -0.07098
#
# Static dielectric constant tensor:
#      x y z
#    x 1.596180 0.000000 -0.017520 
#    y 0.000000 1.659870 0.000000 
#    z -0.017520 0.000000 1.584010 
# 
# From -- ./inp_files/51225.got.cif
#   From: 2010.05.17/outbox.cif.g08.bks.cpg/sg11_26_cif.got.tgz:51225.got - 2010.06.03 12:22:45.
