data_PCOD9156359
_publ_section_title
;
Structure prediction by ZEFSAII (Michael W. Deem and Ramdas Pophale) SiO2 
 PCOD9156359
Probable space group: P 21/M
;
_chemical_formula_sum "Si O2"
_cell_formula_units_Z 32
_cell_length_a 32.061889
_cell_length_b 8.018656
_cell_length_c 22.305833
_cell_angle_alpha 90.000000
_cell_angle_beta 161.083282
_cell_angle_gamma 90.000000
_cell_volume 1859.145505
_symmetry_space_group_name_H-M "P 21/M"
_symmetry_group_IT_number 11
_symmetry_cell_setting 'monoclinic'
loop_
_space_group_symop_operation_xyz
x,y,z
-x,1/2+y,-z
-x,-y,-z
x,1/2-y,z
loop_
_atom_site_type_symbol
_atom_site_label
_atom_site_fract_x
_atom_site_fract_y
_atom_site_fract_z
Si Si1 0.953803 0.953190 0.792040
Si Si2 0.290265 0.551055 0.458338
Si Si3 0.794295 0.451303 0.216217
Si Si4 0.995443 0.951655 0.590204
Si Si5 0.098103 0.446708 0.411150
Si Si6 0.122129 0.549340 0.125369
Si Si7 0.612523 0.057184 0.197662
Si Si8 0.496350 0.946455 0.164346
O O1 0.949327 0.750000 0.785859
O O2 0.944800 0.015304 0.711768
O O3 0.828143 0.012368 0.657580
O O4 0.079740 0.006190 0.001381
O O5 0.308002 0.750000 0.480519
O O6 0.244596 0.489953 0.330351
O O7 0.415849 0.471289 0.657959
O O8 0.790910 0.250000 0.208869
O O9 0.875291 0.501419 0.384757
O O10 0.877110 0.510840 0.271554
O O11 0.648021 0.510497 0.021528
O O12 0.000673 0.750000 0.599580
O O13 0.971091 0.016711 0.623939
O O14 0.068951 0.250000 0.369822
O O15 0.251972 0.465077 0.626500
O O16 0.130568 0.750000 0.135430
O O17 0.000000 0.500000 0.000000
O O18 0.638648 0.250000 0.221715
O O19 0.563241 0.032158 0.198435
O O20 0.500000 0.000000 0.000000
O O21 0.490461 0.750000 0.141883
#
# Coordination Sequence:
#
# PCOD9156359 Si02
#       8
#     4   4   4   4   4   4   4   4
#     4   9  16  28  45  65  93 125 153 184 225 279
#     4  10  18  28  43  66  94 123 155 191 228 271
#     4   9  19  34  50  67  88 117 154 196 235 272
#     4   9  18  33  51  70  90 114 150 195 236 274
#     4  10  19  31  49  71  95 121 151 187 231 280
#     4   8  15  26  41  62  89 121 154 185 222 269
#     4  12  24  35  47  65  94 126 156 187 225 276
#     4  11  21  33  48  67  93 124 158 192 231 275
#
# _framework density 17.212206999999999
#
# number of rings (size 3 to 8) (size 9 to 14) (size 15 to 20)
#    0.000    2.250    1.250    2.625    0.000    4.000 
#    0.000    0.000    0.000    0.000    0.000    0.875 
#    0.000    0.000    0.000    0.000    0.000    0.000 
#
# Total GULP energy -178383.677153 kJ/mol
# GULP energy per Si atom -5574.489911 kJ/mol
# Density = 1.717303 g / cm^3
# Si number density = 17.212207 Si / 1000 Ang^3
#
#
#
# Elastic Constant Matrix: (Units=GPa)
#
#
# Indices 1 2 3 4 5 6 
#
# 1 90.0298 -2.3861 23.9987 0.0000 -14.5625 0.0000
# 2 -2.3861 12.4661 -6.3194 0.0000 1.0316 0.0000
# 3 23.9987 -6.3194 38.1081 0.0000 -12.2259 0.0000
# 4 0.0000 0.0000 0.0000 11.5490 0.0000 -7.3296
# 5 -14.5625 1.0316 -12.2259 0.0000 26.5587 0.0000
# 6 0.0000 0.0000 0.0000 -7.3296 0.0000 9.8911
#
#
#
# Elastic Compliance Matrix: (Units=1/GPa)
#
#
# Indices 1 2 3 4 5 6 
#
# 1 0.013757 -0.001562 -0.007607 0.000000 0.004102 0.000000
# 2 -0.001562 0.088094 0.016684 0.000000 0.003402 0.000000
# 3 -0.007607 0.016684 0.037840 0.000000 0.012600 0.000000
# 4 0.000000 0.000000 0.000000 0.163464 0.000000 0.121132
# 5 0.004102 0.003402 0.012600 0.000000 0.045570 0.000000
# 6 0.000000 0.000000 0.000000 0.121132 0.000000 0.190863
#
#
# Mechanical properties :
#
#
# Convention : Reuss Voigt Hill
#
# Bulk Modulus (GPa) = 6.46320 19.02114 12.74217
# Shear Modulus (GPa) = 8.67854 17.95383 13.31619
#
# Velocity S-wave (km/s) = 2.24789 3.23319 2.78447
# Velocity P-wave (km/s) = 3.24045 5.00130 4.21388
#
# Compressibility (1/GPa) = 0.15472212
#
# Stress axis : x y z
#
# Youngs Moduli (GPa) = 72.68898 11.35145 26.42672
#
# Poissons Ratio (x) = 0.01773 0.20102
# Poissons Ratio (y) = 0.11356 -0.44090
# Poissons Ratio (z) = 0.55291 -0.18938
#
# Static dielectric constant tensor:
#      x y z
#    x 1.600010 0.000000 -0.028360 
#    y 0.000000 1.623030 0.000000 
#    z -0.028360 0.000000 1.617270 
# 
# From -- ./inp_files/64211.got.cif
#   From: 2010.05.17/outbox.cif.g08.bks.cpg/sg11_33_cif.got.tgz:64211.got - 2010.06.03 12:22:45.
