data_PCOD9156545
_publ_section_title
;
Structure prediction by ZEFSAII (Michael W. Deem and Ramdas Pophale) SiO2 
 PCOD9156545
Probable space group: P 21/M
;
_chemical_formula_sum "Si O2"
_cell_formula_units_Z 32
_cell_length_a 12.256868
_cell_length_b 8.557637
_cell_length_c 20.263357
_cell_angle_alpha 90.000000
_cell_angle_beta 58.969265
_cell_angle_gamma 90.000000
_cell_volume 1821.253061
_symmetry_space_group_name_H-M "P 21/M"
_symmetry_group_IT_number 11
_symmetry_cell_setting 'monoclinic'
loop_
_space_group_symop_operation_xyz
x,y,z
-x,1/2+y,-z
-x,-y,-z
x,1/2-y,z
loop_
_atom_site_type_symbol
_atom_site_label
_atom_site_fract_x
_atom_site_fract_y
_atom_site_fract_z
Si Si1 0.585667 0.561570 0.783638
Si Si2 0.397855 0.560297 0.730130
Si Si3 0.604857 0.935883 0.417829
Si Si4 0.157020 0.062163 0.086708
Si Si5 0.879225 0.434575 0.170689
Si Si6 0.578445 0.437187 0.038131
Si Si7 0.883166 0.563028 0.316121
Si Si8 0.836683 0.064375 0.765534
O O1 0.591964 0.750000 0.781576
O O2 0.515071 0.510730 0.739110
O O3 0.496290 0.514188 0.872907
O O4 0.725423 0.497440 0.753970
O O5 0.394233 0.750000 0.729819
O O6 0.409708 0.500894 0.651831
O O7 0.261717 0.505811 0.803808
O O8 0.593309 0.750000 0.418975
O O9 0.500000 0.000000 0.500000
O O10 0.750992 0.973583 0.393439
O O11 0.841944 0.750000 0.915213
O O12 0.173555 0.009870 0.158025
O O13 0.277538 0.997866 0.009970
O O14 0.017776 0.004118 0.105009
O O15 0.879754 0.250000 0.156740
O O16 0.881832 0.466919 0.248481
O O17 0.580050 0.250000 0.034729
O O18 0.500000 0.500000 0.000000
O O19 0.119434 0.250000 0.698927
O O20 0.020297 0.531329 0.305074
O O21 0.823140 0.250000 0.777698
#
# Coordination Sequence:
#
# PCOD9156545 Si02
#       8
#     4   4   4   4   4   4   4   4
#     4  10  21  34  49  69  98 133 168 207 252 298
#     4   9  18  35  54  73  99 132 166 200 245 298
#     4  10  19  33  55  82 108 130 157 195 239 290
#     4  10  18  29  46  69  95 123 163 213 256 293
#     4   8  15  28  48  69  91 123 162 203 245 292
#     4  11  21  32  46  67  96 131 170 214 256 296
#     4   8  16  29  46  72 101 126 156 198 242 283
#     4  10  18  29  48  71  96 128 166 206 247 289
#
# _framework density 17.570321
#
# number of rings (size 3 to 8) (size 9 to 14) (size 15 to 20)
#    0.000    2.500    1.250    1.500    0.000    2.500 
#    0.000    0.625    0.000    0.750    0.000    0.000 
#    0.000    0.000    0.000    0.000    0.000    0.000 
#
# Total GULP energy -178246.651399 kJ/mol
# GULP energy per Si atom -5570.207856 kJ/mol
# Density = 1.753033 g / cm^3
# Si number density = 17.570321 Si / 1000 Ang^3
#
#
#
# Elastic Constant Matrix: (Units=GPa)
#
#
# Indices 1 2 3 4 5 6 
#
# 1 126.8001 26.3580 53.9906 0.0000 -26.0749 0.0000
# 2 26.3580 23.8737 21.8327 0.0000 -7.6368 0.0000
# 3 53.9906 21.8327 83.8764 0.0000 -26.5398 0.0000
# 4 0.0000 0.0000 0.0000 21.5415 0.0000 -6.6263
# 5 -26.0749 -7.6368 -26.5398 0.0000 26.4085 0.0000
# 6 0.0000 0.0000 0.0000 -6.6263 0.0000 17.7096
#
#
#
# Elastic Compliance Matrix: (Units=1/GPa)
#
#
# Indices 1 2 3 4 5 6 
#
# 1 0.012546 -0.008249 -0.004052 0.000000 0.005930 0.000000
# 2 -0.008249 0.060486 -0.010963 0.000000 -0.001671 0.000000
# 3 -0.004052 -0.010963 0.022163 0.000000 0.015101 0.000000
# 4 0.000000 0.000000 0.000000 0.052460 0.000000 0.019629
# 5 0.005930 -0.001671 0.015101 0.000000 0.058415 0.000000
# 6 0.000000 0.000000 0.000000 0.019629 0.000000 0.063811
#
#
# Mechanical properties :
#
#
# Convention : Reuss Voigt Hill
#
# Bulk Modulus (GPa) = 20.54838 48.76807 34.65823
# Shear Modulus (GPa) = 15.03168 21.95651 18.49410
#
# Velocity S-wave (km/s) = 2.92809 3.53885 3.24786
# Velocity P-wave (km/s) = 4.81165 6.67189 5.81662
#
# Compressibility (1/GPa) = 0.04866563
#
# Stress axis : x y z
#
# Youngs Moduli (GPa) = 79.70720 16.53282 45.12057
#
# Poissons Ratio (x) = 0.13638 0.18285
# Poissons Ratio (y) = 0.65749 0.49467
# Poissons Ratio (z) = 0.32301 0.18125
#
# Static dielectric constant tensor:
#      x y z
#    x 1.629440 0.000000 -0.045660 
#    y 0.000000 1.605610 0.000000 
#    z -0.045660 0.000000 1.587020 
# 
# From -- ./inp_files/64172.got.cif
#   From: 2010.05.17/outbox.cif.g08.bks.cpg/sg11_33_cif.got.tgz:64172.got - 2010.06.03 12:22:45.
