data_PCOD9156537
_publ_section_title
;
Structure prediction by ZEFSAII (Michael W. Deem and Ramdas Pophale) SiO2 
 PCOD9156537
Probable space group: P 21/M
;
_chemical_formula_sum "Si O2"
_cell_formula_units_Z 28
_cell_length_a 14.863263
_cell_length_b 7.352457
_cell_length_c 15.509004
_cell_angle_alpha 90.000000
_cell_angle_beta 48.286414
_cell_angle_gamma 90.000000
_cell_volume 1265.170292
_symmetry_space_group_name_H-M "P 21/M"
_symmetry_group_IT_number 11
_symmetry_cell_setting 'monoclinic'
loop_
_space_group_symop_operation_xyz
x,y,z
-x,1/2+y,-z
-x,-y,-z
x,1/2-y,z
loop_
_atom_site_type_symbol
_atom_site_label
_atom_site_fract_x
_atom_site_fract_y
_atom_site_fract_z
Si Si1 0.802822 0.970136 0.224593
Si Si2 0.617491 0.966253 0.483223
Si Si3 0.564899 0.972721 0.710483
Si Si4 0.701446 0.040382 0.103125
Si Si5 0.052326 0.526964 0.132841
Si Si6 0.008195 0.458869 0.638604
Si Si7 0.185578 0.470563 0.378137
O O1 0.798453 0.750000 0.225239
O O2 0.731695 0.032251 0.355534
O O3 0.941916 0.026356 0.141474
O O4 0.735202 0.035981 0.182738
O O5 0.633550 0.750000 0.481521
O O6 0.596100 0.034724 0.593313
O O7 0.500000 0.000000 0.500000
O O8 0.560825 0.750000 0.710897
O O9 0.432317 0.037564 0.821482
O O10 0.675911 0.024007 0.700631
O O11 0.693229 0.250000 0.080307
O O12 0.817236 0.961161 0.980720
O O13 0.055875 0.750000 0.130056
O O14 0.017988 0.464897 0.250807
O O15 0.044950 0.250000 0.630574
O O16 0.887063 0.464297 0.658669
O O17 0.111385 0.535267 0.510040
O O18 0.178885 0.250000 0.381254
#
# Coordination Sequence:
#
# PCOD9156537 Si02
#       7
#     4   4   4   4   4   4   4
#     4  10  19  31  48  70  96 127 161 197 237 277
#     4  10  18  29  46  68  95 124 155 191 230 275
#     4   9  17  30  48  69  94 126 158 187 231 284
#     4  10  19  32  49  68  95 129 164 196 226 277
#     4   9  18  32  50  70  93 127 164 194 232 281
#     4   9  17  32  52  72  93 118 154 197 237 281
#     4   9  17  31  52  73  93 119 152 194 240 285
#
# _framework density 22.131409000000001
#
# number of rings (size 3 to 8) (size 9 to 14) (size 15 to 20)
#    0.000    2.571    1.429    1.286    0.000    3.429 
#    0.000    3.571    0.000    3.429    0.000    0.000 
#    0.000    0.000    0.000    0.000    0.000    0.000 
#
# Total GULP energy -156389.732651 kJ/mol
# GULP energy per Si atom -5585.347595 kJ/mol
# Density = 2.208104 g / cm^3
# Si number density = 22.131409 Si / 1000 Ang^3
#
#
#
# Elastic Constant Matrix: (Units=GPa)
#
#
# Indices 1 2 3 4 5 6 
#
# 1 109.5630 -10.5419 36.0996 0.0000 -43.7201 0.0000
# 2 -10.5419 83.2558 -0.9460 0.0000 -3.0449 0.0000
# 3 36.0996 -0.9460 73.9360 0.0000 -32.2528 0.0000
# 4 0.0000 0.0000 0.0000 -0.6859 0.0000 3.8587
# 5 -43.7201 -3.0449 -32.2528 0.0000 31.4029 0.0000
# 6 0.0000 0.0000 0.0000 3.8587 0.0000 13.3937
#
#
#
# Elastic Compliance Matrix: (Units=1/GPa)
#
#
# Indices 1 2 3 4 5 6 
#
# 1 0.022818 0.004328 0.005354 0.000000 0.037687 0.000000
# 2 0.004328 0.012934 0.002225 0.000000 0.009565 0.000000
# 3 0.005354 0.002225 0.025881 0.000000 0.034251 0.000000
# 4 0.000000 0.000000 0.000000 -0.556308 0.000000 0.160272
# 5 0.037687 0.009565 0.034251 0.000000 0.120419 0.000000
# 6 0.000000 0.000000 0.000000 0.160272 0.000000 0.028487
#
#
# Mechanical properties :
#
#
# Convention : Reuss Voigt Hill
#
# Bulk Modulus (GPa) = 11.70298 35.10869 23.40584
# Shear Modulus (GPa) = -14.65840 24.96504 5.15332
#
# Velocity S-wave (km/s) = -2.57638 3.36227 1.52760
# Velocity P-wave (km/s) = 1.88438 5.56519 3.70273
#
# Compressibility (1/GPa) = 0.08544830
#
# Stress axis : x y z
#
# Youngs Moduli (GPa) = 43.82480 77.31358 38.63880
#
# Poissons Ratio (x) = -0.33464 -0.20689
# Poissons Ratio (y) = -0.18969 -0.08596
# Poissons Ratio (z) = -0.23466 -0.17200
#
# Static dielectric constant tensor:
#      x y z
#    x 1.767260 0.000000 -0.025600 
#    y 0.000000 1.846630 0.000000 
#    z -0.025600 0.000000 1.801680 
# 
# From -- ./inp_files/34379.got.cif
#   From: 2010.05.17/outbox.cif.g08.bks.cpg/sg11_18_cif.got.tgz:34379.got - 2010.06.03 12:22:45.
