data_PCOD9156897
_publ_section_title
;
Structure prediction by ZEFSAII (Michael W. Deem and Ramdas Pophale) SiO2 
 PCOD9156897
Probable space group: P 21/M
;
_chemical_formula_sum "Si O2"
_cell_formula_units_Z 32
_cell_length_a 24.858716
_cell_length_b 8.435094
_cell_length_c 12.086510
_cell_angle_alpha 90.000000
_cell_angle_beta 136.994702
_cell_angle_gamma 90.000000
_cell_volume 1728.605641
_symmetry_space_group_name_H-M "P 21/M"
_symmetry_group_IT_number 11
_symmetry_cell_setting 'monoclinic'
loop_
_space_group_symop_operation_xyz
x,y,z
-x,1/2+y,-z
-x,-y,-z
x,1/2-y,z
loop_
_atom_site_type_symbol
_atom_site_label
_atom_site_fract_x
_atom_site_fract_y
_atom_site_fract_z
Si Si1 0.528792 0.558795 0.740835
Si Si2 0.725767 0.558710 0.424190
Si Si3 0.421958 0.058511 0.944368
Si Si4 0.028755 0.061727 0.663119
Si Si5 0.345991 0.941476 0.459255
Si Si6 0.334394 0.559139 0.194463
Si Si7 0.869123 0.939737 0.492687
Si Si8 0.187017 0.939574 0.830923
O O1 0.529228 0.750000 0.736278
O O2 0.437681 0.507713 0.608927
O O3 0.579678 0.493954 0.716418
O O4 0.571613 0.507099 0.918732
O O5 0.725110 0.750000 0.421263
O O6 0.655368 0.502662 0.236920
O O7 0.705081 0.503655 0.515897
O O8 0.808815 0.507034 0.497152
O O9 0.421854 0.250000 0.943276
O O10 0.500000 0.000000 0.000000
O O11 0.332347 0.750000 0.190855
O O12 0.114474 0.984161 0.803065
O O13 0.956542 0.012179 0.632578
O O14 0.000000 0.000000 0.500000
O O15 0.344995 0.750000 0.461847
O O16 0.318539 0.993242 0.296153
O O17 0.963353 0.750000 0.327457
O O18 0.267915 0.503058 0.008285
O O19 0.876229 0.750000 0.505099
O O20 0.831277 0.986671 0.316739
O O21 0.188943 0.750000 0.820489
#
# Coordination Sequence:
#
# PCOD9156897 Si02
#       8
#     4   4   4   4   4   4   4   4
#     4  10  20  34  53  75 100 133 172 215 261 307
#     4  10  21  34  51  75 104 136 172 210 253 304
#     4  10  19  32  49  73 101 131 166 205 251 300
#     4  10  18  30  51  79 108 136 165 200 249 306
#     4  10  21  37  53  71  99 136 177 217 258 300
#     4  10  22  36  52  75 101 133 174 218 257 299
#     4  10  19  33  53  79 109 136 165 205 252 305
#     4  10  19  33  52  77 107 136 168 206 254 305
#
# _framework density 18.512029999999999
#
# number of rings (size 3 to 8) (size 9 to 14) (size 15 to 20)
#    0.000    2.000    1.250    4.500    0.000    4.500 
#    0.000    0.000    0.000    0.750    0.000    0.000 
#    0.000    0.000    0.000    0.000    0.000    0.000 
#
# Total GULP energy -178589.646084 kJ/mol
# GULP energy per Si atom -5580.926440 kJ/mol
# Density = 1.846990 g / cm^3
# Si number density = 18.512030 Si / 1000 Ang^3
#
#
#
# Elastic Constant Matrix: (Units=GPa)
#
#
# Indices 1 2 3 4 5 6 
#
# 1 135.3298 -0.4405 29.4968 0.0000 6.3997 0.0000
# 2 -0.4405 13.7056 0.0180 0.0000 -0.4628 0.0000
# 3 29.4968 0.0180 33.8831 0.0000 -5.4048 0.0000
# 4 0.0000 0.0000 0.0000 14.6552 0.0000 0.3090
# 5 6.3997 -0.4628 -5.4048 0.0000 27.8444 0.0000
# 6 0.0000 0.0000 0.0000 0.3090 0.0000 30.8963
#
#
#
# Elastic Compliance Matrix: (Units=1/GPa)
#
#
# Indices 1 2 3 4 5 6 
#
# 1 0.009517 0.000185 -0.008909 0.000000 -0.003914 0.000000
# 2 0.000185 0.073008 -0.000014 0.000000 0.001168 0.000000
# 3 -0.008909 -0.000014 0.038797 0.000000 0.009578 0.000000
# 4 0.000000 0.000000 0.000000 0.068249 0.000000 -0.000683
# 5 -0.003914 0.001168 0.009578 0.000000 0.038692 0.000000
# 6 0.000000 0.000000 0.000000 -0.000683 0.000000 0.032373
#
#
# Mechanical properties :
#
#
# Convention : Reuss Voigt Hill
#
# Bulk Modulus (GPa) = 9.62958 26.78523 18.20741
# Shear Modulus (GPa) = 15.98833 24.93546 20.46189
#
# Velocity S-wave (km/s) = 2.94202 3.67411 3.32826
# Velocity P-wave (km/s) = 4.09313 5.70082 4.96251
#
# Compressibility (1/GPa) = 0.10384667
#
# Stress axis : x y z
#
# Youngs Moduli (GPa) = 105.07596 13.69708 25.77511
#
# Poissons Ratio (x) = -0.00254 0.22964
# Poissons Ratio (y) = -0.01949 0.00036
# Poissons Ratio (z) = 0.93615 0.00019
#
# Static dielectric constant tensor:
#      x y z
#    x 1.651970 0.000000 0.012030 
#    y 0.000000 1.631490 0.000000 
#    z 0.012030 0.000000 1.638730 
# 
# From -- ./inp_files/42468.got.cif
#   From: 2010.05.17/outbox.cif.g08.bks.cpg/sg11_22_cif.got.tgz:42468.got - 2010.06.03 12:22:45.
