data_PCOD9156944
_publ_section_title
;
Structure prediction by ZEFSAII (Michael W. Deem and Ramdas Pophale) SiO2 
 PCOD9156944
Probable space group: P 21/M
;
_chemical_formula_sum "Si O2"
_cell_formula_units_Z 32
_cell_length_a 18.368736
_cell_length_b 8.548967
_cell_length_c 24.709101
_cell_angle_alpha 90.000000
_cell_angle_beta 149.659207
_cell_angle_gamma 90.000000
_cell_volume 1960.033604
_symmetry_space_group_name_H-M "P 21/M"
_symmetry_group_IT_number 11
_symmetry_cell_setting 'monoclinic'
loop_
_space_group_symop_operation_xyz
x,y,z
-x,1/2+y,-z
-x,-y,-z
x,1/2-y,z
loop_
_atom_site_type_symbol
_atom_site_label
_atom_site_fract_x
_atom_site_fract_y
_atom_site_fract_z
Si Si1 0.721023 0.562938 0.406928
Si Si2 0.867120 0.938816 0.184517
Si Si3 0.835226 0.440233 0.673940
Si Si4 0.551791 0.062770 0.975174
Si Si5 0.959733 0.938811 0.366341
Si Si6 0.589673 0.436887 0.430086
Si Si7 0.384749 0.562486 0.382296
Si Si8 0.310428 0.059312 0.735511
O O1 0.712123 0.750000 0.402577
O O2 0.622179 0.495448 0.391069
O O3 0.679990 0.507561 0.320327
O O4 0.885204 0.512182 0.523717
O O5 0.857638 0.750000 0.175570
O O6 0.901920 0.978764 0.269392
O O7 0.004205 0.992490 0.237189
O O8 0.714773 0.008865 0.070130
O O9 0.836578 0.250000 0.673108
O O10 0.722971 0.489793 0.554658
O O11 0.767335 0.485467 0.688307
O O12 0.545371 0.250000 0.972790
O O13 0.441448 0.007948 0.857878
O O14 0.500000 0.000000 0.000000
O O15 0.974625 0.750000 0.377721
O O16 0.840453 0.988111 0.333642
O O17 0.589265 0.250000 0.430931
O O18 0.442290 0.497256 0.362641
O O19 0.500000 0.500000 0.500000
O O20 0.390304 0.750000 0.384386
O O21 0.310628 0.250000 0.735718
#
# Coordination Sequence:
#
# PCOD9156944 Si02
#       8
#     4   4   4   4   4   4   4   4
#     4  11  21  32  48  72  98 128 168 206 239 292
#     4  10  18  32  52  73  98 132 163 195 243 292
#     4   8  15  28  46  67  97 130 157 186 237 293
#     4  11  21  36  53  71  94 126 166 209 250 290
#     4  10  18  33  52  68  97 135 161 194 248 296
#     4  10  18  31  47  67  97 134 163 195 246 295
#     4   9  16  27  44  69  98 132 165 195 233 290
#     4   9  20  36  50  66  96 133 164 202 253 293
#
# _framework density 16.326250000000002
#
# number of rings (size 3 to 8) (size 9 to 14) (size 15 to 20)
#    0.000    2.250    2.500    2.625    0.000    0.500 
#    0.000    4.375    0.000    0.000    0.000    0.875 
#    0.000    0.000    0.000    0.000    0.000    0.000 
#
# Total GULP energy -178420.628586 kJ/mol
# GULP energy per Si atom -5575.644643 kJ/mol
# Density = 1.628909 g / cm^3
# Si number density = 16.326250 Si / 1000 Ang^3
#
#
#
# Elastic Constant Matrix: (Units=GPa)
#
#
# Indices 1 2 3 4 5 6 
#
# 1 180.7633 33.1293 59.2741 0.0000 9.7849 0.0000
# 2 33.1293 28.3242 17.5703 0.0000 -0.7549 0.0000
# 3 59.2741 17.5703 54.0102 0.0000 -4.5281 0.0000
# 4 0.0000 0.0000 0.0000 19.8469 0.0000 5.0261
# 5 9.7849 -0.7549 -4.5281 0.0000 22.6709 0.0000
# 6 0.0000 0.0000 0.0000 5.0261 0.0000 24.0492
#
#
#
# Elastic Compliance Matrix: (Units=1/GPa)
#
#
# Indices 1 2 3 4 5 6 
#
# 1 0.010201 -0.006039 -0.009780 0.000000 -0.006557 0.000000
# 2 -0.006039 0.047852 -0.008733 0.000000 0.002456 0.000000
# 3 -0.009780 -0.008733 0.032971 0.000000 0.010516 0.000000
# 4 0.000000 0.000000 0.000000 0.053201 0.000000 -0.011119
# 5 -0.006557 0.002456 0.010516 0.000000 0.049122 0.000000
# 6 0.000000 0.000000 0.000000 -0.011119 0.000000 0.043905
#
#
# Mechanical properties :
#
#
# Convention : Reuss Voigt Hill
#
# Bulk Modulus (GPa) = 23.85560 53.67165 38.76362
# Shear Modulus (GPa) = 16.64830 23.52167 20.08498
#
# Velocity S-wave (km/s) = 3.19678 3.79981 3.51126
# Velocity P-wave (km/s) = 5.31690 7.22476 6.34297
#
# Compressibility (1/GPa) = 0.04191887
#
# Stress axis : x y z
#
# Youngs Moduli (GPa) = 98.03026 20.89761 30.32963
#
# Poissons Ratio (x) = 0.12621 0.29663
# Poissons Ratio (y) = 0.59204 0.26487
# Poissons Ratio (z) = 0.95875 0.18250
#
# Static dielectric constant tensor:
#      x y z
#    x 1.572480 0.000000 0.008790 
#    y 0.000000 1.558130 0.000000 
#    z 0.008790 0.000000 1.521250 
# 
# From -- ./inp_files/69432.got.cif
#   From: 2010.05.17/outbox.cif.g08.bks.cpg/sg11_35_cif.got.tgz:69432.got - 2010.06.03 12:22:45.
