data_PCOD9156181
_publ_section_title
;
Structure prediction by ZEFSAII (Michael W. Deem and Ramdas Pophale) SiO2 
 PCOD9156181
Probable space group: P 21/M
;
_chemical_formula_sum "Si O2"
_cell_formula_units_Z 28
_cell_length_a 13.943964
_cell_length_b 15.620722
_cell_length_c 9.617531
_cell_angle_alpha 90.000000
_cell_angle_beta 137.787866
_cell_angle_gamma 90.000000
_cell_volume 1407.476081
_symmetry_space_group_name_H-M "P 21/M"
_symmetry_group_IT_number 11
_symmetry_cell_setting 'monoclinic'
loop_
_space_group_symop_operation_xyz
x,y,z
-x,1/2+y,-z
-x,-y,-z
x,1/2-y,z
loop_
_atom_site_type_symbol
_atom_site_label
_atom_site_fract_x
_atom_site_fract_y
_atom_site_fract_z
Si Si1 0.068218 0.659378 0.254819
Si Si2 0.180464 0.456796 0.930458
Si Si3 0.296707 0.404540 0.533245
Si Si4 0.623194 0.392938 0.358003
Si Si5 0.352618 0.151063 0.900302
Si Si6 0.568003 0.593367 0.597532
Si Si7 0.977213 0.081653 0.078475
O O1 0.999927 0.750000 0.213703
O O2 0.226078 0.652435 0.483024
O O3 0.971856 0.588363 0.223239
O O4 0.072120 0.648384 0.091477
O O5 0.258414 0.422467 0.876728
O O6 0.140805 0.553786 0.933586
O O7 0.283227 0.421092 0.162124
O O8 0.341027 0.505222 0.596182
O O9 0.326955 0.358834 0.709837
O O10 0.391851 0.368855 0.508034
O O11 0.129824 0.398761 0.311283
O O12 0.539358 0.364803 0.408443
O O13 0.514792 0.370808 0.118496
O O14 0.321239 0.250000 0.909657
O O15 0.500000 0.500000 0.500000
O O16 0.000000 0.000000 0.000000
#
# Coordination Sequence:
#
# PCOD9156181 Si02
#       7
#     4   4   4   4   4   4   4
#     4  11  20  34  61  89 119 152 195 252 303 344
#     4  10  19  38  60  83 115 157 200 240 284 363
#     4  11  19  37  62  88 115 151 198 245 295 344
#     4  10  20  38  60  84 114 156 206 232 288 358
#     4  11  25  39  55  86 123 157 197 245 297 348
#     4   9  17  32  61  88 108 143 190 246 283 337
#     4  10  17  34  60  89 114 140 200 247 290 347
#
# _framework density 19.893765999999999
#
# number of rings (size 3 to 8) (size 9 to 14) (size 15 to 20)
#    0.000    1.714    5.714    2.143    0.000    1.143 
#    0.000    1.429    0.000    0.000    0.000    0.000 
#    0.000    0.000    0.000    0.000    0.000    0.000 
#
# Total GULP energy -155992.158739 kJ/mol
# GULP energy per Si atom -5571.148526 kJ/mol
# Density = 1.984849 g / cm^3
# Si number density = 19.893766 Si / 1000 Ang^3
#
#
#
# Elastic Constant Matrix: (Units=GPa)
#
#
# Indices 1 2 3 4 5 6 
#
# 1 69.0600 -11.6158 50.7794 0.0000 7.0615 0.0000
# 2 -11.6158 23.7979 -8.0850 0.0000 2.9951 0.0000
# 3 50.7794 -8.0850 125.5423 0.0000 3.6184 0.0000
# 4 0.0000 0.0000 0.0000 -11.2335 0.0000 -6.1405
# 5 7.0615 2.9951 3.6184 0.0000 31.2833 0.0000
# 6 0.0000 0.0000 0.0000 -6.1405 0.0000 4.1641
#
#
#
# Elastic Compliance Matrix: (Units=1/GPa)
#
#
# Indices 1 2 3 4 5 6 
#
# 1 0.022705 0.008832 -0.008471 0.000000 -0.004991 0.000000
# 2 0.008832 0.047022 -0.000358 0.000000 -0.006454 0.000000
# 3 -0.008471 -0.000358 0.011350 0.000000 0.000634 0.000000
# 4 0.000000 0.000000 0.000000 -0.049289 0.000000 -0.072683
# 5 -0.004991 -0.006454 0.000634 0.000000 0.033637 0.000000
# 6 0.000000 0.000000 0.000000 -0.072683 0.000000 0.132967
#
#
# Mechanical properties :
#
#
# Convention : Reuss Voigt Hill
#
# Bulk Modulus (GPa) = 12.33291 31.17306 21.75298
# Shear Modulus (GPa) = 22.18142 17.33088 19.75615
#
# Velocity S-wave (km/s) = 3.34277 2.95476 3.15474
# Velocity P-wave (km/s) = 4.59475 5.22921 4.92221
#
# Compressibility (1/GPa) = 0.08108384
#
# Stress axis : x y z
#
# Youngs Moduli (GPa) = 44.04368 21.26653 88.10222
#
# Poissons Ratio (x) = -0.18784 0.74631
# Poissons Ratio (y) = -0.38901 0.03156
# Poissons Ratio (z) = 0.37309 0.00762
#
# Static dielectric constant tensor:
#      x y z
#    x 1.737820 0.000000 -0.018620 
#    y 0.000000 1.953550 0.000000 
#    z -0.018620 0.000000 1.610820 
# 
# From -- ./inp_files/14028.got.cif
#   From: 2010.05.17/outbox.cif.g08.bks.cpg/sg11_8_cif.got.tgz:14028.got - 2010.06.03 12:22:45.
