data_PCOD9156057
_publ_section_title
;
Structure prediction by ZEFSAII (Michael W. Deem and Ramdas Pophale) SiO2 
 PCOD9156057
Probable space group: P 21/M
;
_chemical_formula_sum "Si O2"
_cell_formula_units_Z 24
_cell_length_a 9.295348
_cell_length_b 11.262845
_cell_length_c 24.027650
_cell_angle_alpha 90.000000
_cell_angle_beta 30.973836
_cell_angle_gamma 90.000000
_cell_volume 1294.595711
_symmetry_space_group_name_H-M "P 21/M"
_symmetry_group_IT_number 11
_symmetry_cell_setting 'monoclinic'
loop_
_space_group_symop_operation_xyz
x,y,z
-x,1/2+y,-z
-x,-y,-z
x,1/2-y,z
loop_
_atom_site_type_symbol
_atom_site_label
_atom_site_fract_x
_atom_site_fract_y
_atom_site_fract_z
Si Si1 0.722471 0.490445 0.554242
Si Si2 0.305245 0.109757 0.783312
Si Si3 0.504084 0.750000 0.804231
Si Si4 0.124531 0.750000 0.820038
Si Si5 0.062706 0.750000 0.549031
Si Si6 0.319526 0.250000 0.435237
Si Si7 0.664349 0.504832 0.108322
Si Si8 0.256223 0.027554 0.038484
O O1 0.470472 0.463952 0.681165
O O2 0.763224 0.371595 0.504691
O O3 0.702719 0.618672 0.530647
O O4 0.000000 0.500000 0.500000
O O5 0.350241 0.250000 0.760699
O O6 0.418874 0.069205 0.806575
O O7 0.975420 0.077336 0.890834
O O8 0.274968 0.750000 0.830501
O O9 0.454783 0.871855 0.852678
O O10 0.808623 0.750000 0.676199
O O11 0.376484 0.750000 0.693546
O O12 0.930690 0.636536 0.879601
O O13 0.910996 0.750000 0.538329
O O14 0.611739 0.559787 0.065503
O O15 0.000000 0.500000 0.000000
O O16 0.500000 0.000000 0.000000
#
# Coordination Sequence:
#
# PCOD9156057 Si02
#       8
#     4   4   2   2   2   2   4   4
#     4  10  17  30  49  81 114 139 172 229 281 329
#     4  11  21  34  53  83 113 140 184 229 275 327
#     4  11  18  37  56  81 111 146 184 226 284 333
#     4  11  18  35  53  71 112 146 178 222 273 319
#     4   9  18  28  50  80 118 135 172 232 293 324
#     4   9  16  28  47  70 109 145 174 210 274 328
#     4  10  21  33  56  76 109 146 181 228 276 325
#     4  11  25  36  52  79 112 149 189 223 271 332
#
# _framework density 18.538606000000001
#
# number of rings (size 3 to 8) (size 9 to 14) (size 15 to 20)
#    0.000    1.667    5.833    2.000    7.000    0.000 
#    0.000    0.000    0.000    0.000    0.000    4.667 
#    0.000    0.000    0.000    0.000    0.000    0.000 
#
# Total GULP energy -133716.041228 kJ/mol
# GULP energy per Si atom -5571.501718 kJ/mol
# Density = 1.849641 g / cm^3
# Si number density = 18.538606 Si / 1000 Ang^3
#
#
#
# Elastic Constant Matrix: (Units=GPa)
#
#
# Indices 1 2 3 4 5 6 
#
# 1 57.4812 4.8252 15.2182 0.0000 -9.2193 0.0000
# 2 4.8252 152.2282 26.8330 0.0000 -3.1529 0.0000
# 3 15.2182 26.8330 56.7589 0.0000 -4.8410 0.0000
# 4 0.0000 0.0000 0.0000 849.1456 0.0000-1495.7742
# 5 -9.2193 -3.1529 -4.8410 0.0000 9.8573 0.0000
# 6 0.0000 0.0000 0.0000-1495.7742 0.0000 2760.8409
#
#
#
# Elastic Compliance Matrix: (Units=1/GPa)
#
#
# Indices 1 2 3 4 5 6 
#
# 1 0.021419 0.000475 -0.004431 0.000000 0.018008 0.000000
# 2 0.000475 0.007181 -0.003432 0.000000 0.001056 0.000000
# 3 -0.004431 -0.003432 0.020856 0.000000 0.005000 0.000000
# 4 0.000000 0.000000 0.000000 0.025798 0.000000 0.013977
# 5 0.018008 0.001056 0.005000 0.000000 0.121084 0.000000
# 6 0.000000 0.000000 0.000000 0.013977 0.000000 0.007935
#
#
# Mechanical properties :
#
#
# Convention : Reuss Voigt Hill
#
# Bulk Modulus (GPa) = 28.83654 40.02455 34.43055
# Shear Modulus (GPa) = 21.68179 738.60822 380.14501
#
# Velocity S-wave (km/s) = 3.42358 19.98202 14.33531
# Velocity P-wave (km/s) = 5.58717 23.53745 17.10597
#
# Compressibility (1/GPa) = 0.03467822
#
# Stress axis : x y z
#
# Youngs Moduli (GPa) = 46.68827 139.25897 47.94880
#
# Poissons Ratio (x) = -0.06618 0.21248
# Poissons Ratio (y) = -0.02219 0.16457
# Poissons Ratio (z) = 0.20690 0.47796
#
# Static dielectric constant tensor:
#      x y z
#    x 1.639960 0.000000 0.040740 
#    y 0.000000 1.728560 0.000000 
#    z 0.040740 0.000000 1.652780 
# 
# From -- ./inp_files/17000.got.cif
#   From: 2010.05.17/outbox.cif.g08.bks.cpg/sg11_9_cif.got.tgz:17000.got - 2010.06.03 12:22:45.
