data_PCOD9156815
_publ_section_title
;
Structure prediction by ZEFSAII (Michael W. Deem and Ramdas Pophale) SiO2 
 PCOD9156815
Probable space group: P 21/M
;
_chemical_formula_sum "Si O2"
_cell_formula_units_Z 24
_cell_length_a 18.334952
_cell_length_b 16.998378
_cell_length_c 11.783282
_cell_angle_alpha 90.000000
_cell_angle_beta 161.285275
_cell_angle_gamma 90.000000
_cell_volume 1178.322729
_symmetry_space_group_name_H-M "P 21/M"
_symmetry_group_IT_number 11
_symmetry_cell_setting 'monoclinic'
loop_
_space_group_symop_operation_xyz
x,y,z
-x,1/2+y,-z
-x,-y,-z
x,1/2-y,z
loop_
_atom_site_type_symbol
_atom_site_label
_atom_site_fract_x
_atom_site_fract_y
_atom_site_fract_z
Si Si1 0.234111 0.838709 0.712478
Si Si2 0.231009 0.506475 0.107760
Si Si3 0.112206 0.597302 0.281439
Si Si4 0.773715 0.597307 0.104444
Si Si5 0.277325 0.838707 0.298923
Si Si6 0.522488 0.006480 0.899244
O O1 0.319610 0.750000 0.846567
O O2 0.193164 0.860925 0.518306
O O3 0.990251 0.846935 0.415455
O O4 0.397243 0.905279 0.005889
O O5 0.500000 0.500000 0.500000
O O6 0.179917 0.594722 0.071240
O O7 0.156915 0.475474 0.875821
O O8 0.125079 0.443063 0.037953
O O9 0.139868 0.653068 0.214687
O O10 0.280857 0.524523 0.499762
O O11 0.542829 0.639068 0.717645
O O12 0.700635 0.556934 0.113460
O O13 0.265600 0.750000 0.238573
O O14 0.500000 0.000000 0.000000
#
# Coordination Sequence:
#
# PCOD9156815 Si02
#       6
#     4   4   4   4   4   4
#     4  10  18  30  49  75  98 122 159 204 240 277
#     4   9  18  32  51  71  95 130 164 194 237 295
#     4   9  18  32  50  70  98 130 160 194 241 292
#     4   9  18  32  50  70  98 130 160 194 241 292
#     4  10  18  30  49  75  98 122 159 204 240 277
#     4   9  18  32  51  71  95 130 164 194 237 295
#
# _framework density 20.367934999999999
#
# number of rings (size 3 to 8) (size 9 to 14) (size 15 to 20)
#    0.000    2.667    0.000    2.000    0.000    0.000 
#    0.000    3.333    0.000    0.000    0.000    0.000 
#    0.000    0.000    0.000    0.000    0.000    0.000 
#
# Total GULP energy -133752.038209 kJ/mol
# GULP energy per Si atom -5573.001592 kJ/mol
# Density = 2.032158 g / cm^3
# Si number density = 20.367935 Si / 1000 Ang^3
#
#
#
# Elastic Constant Matrix: (Units=GPa)
#
#
# Indices 1 2 3 4 5 6 
#
# 1 79.6362 12.8498 -3.9803 0.0000 19.0020 0.0000
# 2 12.8498 126.5737 4.2087 0.0000 7.5694 0.0000
# 3 -3.9803 4.2087 32.6280 0.0000 22.0771 0.0000
# 4 0.0000 0.0000 0.0000 24.1101 0.0000 -0.6151
# 5 19.0020 7.5694 22.0771 0.0000 28.2345 0.0000
# 6 0.0000 0.0000 0.0000 -0.6151 0.0000 23.4850
#
#
#
# Elastic Compliance Matrix: (Units=1/GPa)
#
#
# Indices 1 2 3 4 5 6 
#
# 1 0.022992 -0.001046 0.028072 0.000000 -0.037143 0.000000
# 2 -0.001046 0.008089 -0.000383 0.000000 -0.001165 0.000000
# 3 0.028072 -0.000383 0.099455 0.000000 -0.096556 0.000000
# 4 0.000000 0.000000 0.000000 0.041504 0.000000 0.001087
# 5 -0.037143 -0.001165 -0.096556 0.000000 0.136226 0.000000
# 6 0.000000 0.000000 0.000000 0.001087 0.000000 0.042609
#
#
# Mechanical properties :
#
#
# Convention : Reuss Voigt Hill
#
# Bulk Modulus (GPa) = 5.44005 29.44380 17.44193
# Shear Modulus (GPa) = 13.93289 30.21657 22.07473
#
# Velocity S-wave (km/s) = 2.61829 3.85585 3.29568
# Velocity P-wave (km/s) = 3.43763 5.85754 4.80250
#
# Compressibility (1/GPa) = 0.18382176
#
# Stress axis : x y z
#
# Youngs Moduli (GPa) = 43.49408 123.62215 10.05478
#
# Poissons Ratio (x) = 0.12935 -0.28226
# Poissons Ratio (y) = 0.04551 0.00385
# Poissons Ratio (z) = -1.22096 0.04729
#
# Static dielectric constant tensor:
#      x y z
#    x 1.778340 0.000000 -0.010640 
#    y 0.000000 1.758440 0.000000 
#    z -0.010640 0.000000 1.790170 
# 
# From -- ./inp_files/39706.got.cif
#   From: 2010.05.17/outbox.cif.g08.bks.cpg/sg11_20_cif.got.tgz:39706.got - 2010.06.03 12:22:45.
