data_PCOD9156248
_publ_section_title
;
Structure prediction by ZEFSAII (Michael W. Deem and Ramdas Pophale) SiO2 
 PCOD9156248
Probable space group: P 21/M
;
_chemical_formula_sum "Si O2"
_cell_formula_units_Z 32
_cell_length_a 23.000524
_cell_length_b 9.748708
_cell_length_c 15.797302
_cell_angle_alpha 90.000000
_cell_angle_beta 148.523749
_cell_angle_gamma 90.000000
_cell_volume 1849.519530
_symmetry_space_group_name_H-M "P 21/M"
_symmetry_group_IT_number 11
_symmetry_cell_setting 'monoclinic'
loop_
_space_group_symop_operation_xyz
x,y,z
-x,1/2+y,-z
-x,-y,-z
x,1/2-y,z
loop_
_atom_site_type_symbol
_atom_site_label
_atom_site_fract_x
_atom_site_fract_y
_atom_site_fract_z
Si Si1 0.967647 0.086272 0.877415
Si Si2 0.671591 0.589209 0.924061
Si Si3 0.216462 0.087421 0.447353
Si Si4 0.581189 0.097750 0.050997
Si Si5 0.771613 0.908217 0.235235
Si Si6 0.111645 0.088245 0.890766
Si Si7 0.525798 0.903631 0.267574
Si Si8 0.066986 0.407782 0.424513
O O1 0.952499 0.250000 0.873889
O O2 0.063606 0.070794 0.925172
O O3 0.859538 0.013525 0.702379
O O4 0.000000 0.000000 0.000000
O O5 0.644869 0.750000 0.882200
O O6 0.743202 0.575325 0.100870
O O7 0.760408 0.545634 0.963298
O O8 0.557561 0.504224 0.786587
O O9 0.200092 0.250000 0.405850
O O10 0.346254 0.055405 0.591725
O O11 0.170846 0.073399 0.487366
O O12 0.588318 0.250000 0.096445
O O13 0.531364 0.106080 0.895219
O O14 0.500000 0.000000 0.000000
O O15 0.697560 0.021922 0.188579
O O16 0.738192 0.750000 0.214865
O O17 0.891559 0.925386 0.427662
O O18 0.106014 0.250000 0.862897
O O19 0.030006 0.006670 0.726915
O O20 0.526795 0.750000 0.306432
O O21 0.030300 0.250000 0.368703
#
# Coordination Sequence:
#
# PCOD9156248 Si02
#       8
#     4   4   4   4   4   4   4   4
#     4  10  20  35  56  80 102 122 149 188 237 293
#     4   9  18  32  48  67  96 134 170 202 238 279
#     4   9  17  31  50  72 100 129 157 195 243 286
#     4  10  18  27  40  60  88 124 166 209 249 284
#     4   9  17  29  43  62  91 128 169 207 241 278
#     4   9  19  34  50  71  99 128 158 196 242 290
#     4   9  18  31  47  68  95 128 165 203 239 280
#     4   9  17  29  46  68  95 129 167 206 245 283
#
# _framework density 17.301791000000001
#
# number of rings (size 3 to 8) (size 9 to 14) (size 15 to 20)
#    0.000    2.750    0.000    1.500    0.000    5.000 
#    0.000    2.500    0.000    0.750    0.000    0.000 
#    0.000    0.000    0.000    0.000    0.000    0.000 
#
# Total GULP energy -178136.442828 kJ/mol
# GULP energy per Si atom -5566.763838 kJ/mol
# Density = 1.726241 g / cm^3
# Si number density = 17.301791 Si / 1000 Ang^3
#
#
#
# Elastic Constant Matrix: (Units=GPa)
#
#
# Indices 1 2 3 4 5 6 
#
# 1 38.6932 40.2321 26.0852 0.0000 25.3889 0.0000
# 2 40.2321 79.7073 31.8697 0.0000 14.9479 0.0000
# 3 26.0852 31.8697 49.6213 0.0000 15.3368 0.0000
# 4 0.0000 0.0000 0.0000 27.6245 0.0000 4.2066
# 5 25.3889 14.9479 15.3368 0.0000 33.4300 0.0000
# 6 0.0000 0.0000 0.0000 4.2066 0.0000 21.0561
#
#
#
# Elastic Compliance Matrix: (Units=1/GPa)
#
#
# Indices 1 2 3 4 5 6 
#
# 1 0.135459 -0.047372 -0.018100 0.000000 -0.073390 0.000000
# 2 -0.047372 0.033710 -0.003739 0.000000 0.022620 0.000000
# 3 -0.018100 -0.003739 0.031815 0.000000 0.000822 0.000000
# 4 0.000000 0.000000 0.000000 0.037336 0.000000 -0.007459
# 5 -0.073390 0.022620 0.000822 0.000000 0.075159 0.000000
# 6 0.000000 0.000000 0.000000 -0.007459 0.000000 0.048982
#
#
# Mechanical properties :
#
#
# Convention : Reuss Voigt Hill
#
# Bulk Modulus (GPa) = 15.98442 40.48842 28.23642
# Shear Modulus (GPa) = 9.58338 21.07776 15.33057
#
# Velocity S-wave (km/s) = 2.35605 3.49412 2.97992
# Velocity P-wave (km/s) = 4.08166 6.30322 5.30992
#
# Compressibility (1/GPa) = 0.06256092
#
# Stress axis : x y z
#
# Youngs Moduli (GPa) = 7.38232 29.66491 31.43199
#
# Poissons Ratio (x) = 1.40529 0.56892
# Poissons Ratio (y) = 0.34972 0.11752
# Poissons Ratio (z) = 0.13362 0.11091
#
# Static dielectric constant tensor:
#      x y z
#    x 1.609820 0.000000 0.001660 
#    y 0.000000 1.596920 0.000000 
#    z 0.001660 0.000000 1.567520 
# 
# From -- ./inp_files/61811.got.cif
#   From: 2010.05.17/outbox.cif.g08.bks.cpg/sg11_31_cif.got.tgz:61811.got - 2010.06.03 12:22:45.
