data_PCOD9156211
_publ_section_title
;
Structure prediction by ZEFSAII (Michael W. Deem and Ramdas Pophale) SiO2 
 PCOD9156211
Probable space group: P 21/M
;
_chemical_formula_sum "Si O2"
_cell_formula_units_Z 32
_cell_length_a 16.690653
_cell_length_b 9.253792
_cell_length_c 14.204807
_cell_angle_alpha 90.000000
_cell_angle_beta 95.018853
_cell_angle_gamma 90.000000
_cell_volume 2185.546741
_symmetry_space_group_name_H-M "P 21/M"
_symmetry_group_IT_number 11
_symmetry_cell_setting 'monoclinic'
loop_
_space_group_symop_operation_xyz
x,y,z
-x,1/2+y,-z
-x,-y,-z
x,1/2-y,z
loop_
_atom_site_type_symbol
_atom_site_label
_atom_site_fract_x
_atom_site_fract_y
_atom_site_fract_z
Si Si1 0.743022 0.077794 0.520670
Si Si2 0.579116 0.577651 0.966803
Si Si3 0.942413 0.916617 0.362123
Si Si4 0.782004 0.421913 0.306022
Si Si5 0.565433 0.423482 0.571772
Si Si6 0.098767 0.083690 0.418074
Si Si7 0.531333 0.422504 0.785245
Si Si8 0.651270 0.578673 0.167569
O O1 0.754072 0.250000 0.535424
O O2 0.750127 0.050065 0.409306
O O3 0.655344 0.036287 0.548948
O O4 0.815217 0.993596 0.578574
O O5 0.566745 0.750000 0.959719
O O6 0.586725 0.508575 0.864767
O O7 0.500000 0.500000 0.000000
O O8 0.645329 0.552032 0.054598
O O9 0.945924 0.750000 0.332336
O O10 0.923350 0.917198 0.472552
O O11 0.868594 0.001541 0.307848
O O12 0.027453 0.996700 0.360181
O O13 0.789933 0.250000 0.295907
O O14 0.718709 0.487648 0.226722
O O15 0.500000 0.500000 0.500000
O O16 0.557719 0.250000 0.560634
O O17 0.550533 0.458428 0.679604
O O18 0.101718 0.250000 0.387993
O O19 0.541746 0.250000 0.800557
O O20 0.437445 0.454562 0.798743
O O21 0.665073 0.750000 0.183780
#
# Coordination Sequence:
#
# PCOD9156211 Si02
#       8
#     4   4   4   4   4   4   4   4
#     4   9  18  30  41  57  83 114 146 177 210 247
#     4   9  17  29  45  63  82 106 138 176 217 261
#     4   9  16  26  40  57  80 109 136 167 209 251
#     4  10  18  26  39  60  85 112 142 173 205 248
#     4  10  20  32  45  62  86 116 150 185 217 250
#     4   9  16  26  41  59  78 104 140 176 207 244
#     4   9  18  31  45  61  83 112 146 183 218 252
#     4   9  17  28  41  59  83 109 137 171 214 258
#
# _framework density 14.641645
#
# number of rings (size 3 to 8) (size 9 to 14) (size 15 to 20)
#    0.000    2.750    0.000    3.000    0.000    7.000 
#    0.000    0.000    0.000    0.000    0.000    0.000 
#    0.000    1.000    0.000    3.000    0.000    4.625 
#
# Total GULP energy -178263.049990 kJ/mol
# GULP energy per Si atom -5570.720312 kJ/mol
# Density = 1.460832 g / cm^3
# Si number density = 14.641645 Si / 1000 Ang^3
#
#
#
# Elastic Constant Matrix: (Units=GPa)
#
#
# Indices 1 2 3 4 5 6 
#
# 1 110.8902 63.7210 60.8179 0.0000 21.3564 0.0000
# 2 63.7210 80.0379 61.2021 0.0000 21.6914 0.0000
# 3 60.8179 61.2021 91.5498 0.0000 17.9775 0.0000
# 4 0.0000 0.0000 0.0000 23.7089 0.0000 8.9110
# 5 21.3564 21.6914 17.9775 0.0000 20.0189 0.0000
# 6 0.0000 0.0000 0.0000 8.9110 0.0000 24.6030
#
#
#
# Elastic Compliance Matrix: (Units=1/GPa)
#
#
# Indices 1 2 3 4 5 6 
#
# 1 0.017884 -0.009379 -0.004686 0.000000 -0.004708 0.000000
# 2 -0.009379 0.034815 -0.014084 0.000000 -0.015070 0.000000
# 3 -0.004686 -0.014084 0.023643 0.000000 -0.000971 0.000000
# 4 0.000000 0.000000 0.000000 0.048825 0.000000 -0.017684
# 5 -0.004708 -0.015070 -0.000971 0.000000 0.072176 0.000000
# 6 0.000000 0.000000 0.000000 -0.017684 0.000000 0.047050
#
#
# Mechanical properties :
#
#
# Convention : Reuss Voigt Hill
#
# Bulk Modulus (GPa) = 49.89406 72.66221 61.27814
# Shear Modulus (GPa) = 16.26685 20.11528 18.19107
#
# Velocity S-wave (km/s) = 3.33678 3.71056 3.52862
# Velocity P-wave (km/s) = 6.99973 8.25182 7.65143
#
# Compressibility (1/GPa) = 0.02004247
#
# Stress axis : x y z
#
# Youngs Moduli (GPa) = 55.91482 28.72337 42.29662
#
# Poissons Ratio (x) = 0.26939 0.19822
# Poissons Ratio (y) = 0.52441 0.59572
# Poissons Ratio (z) = 0.26204 0.40455
#
# Static dielectric constant tensor:
#      x y z
#    x 1.467200 0.000000 -0.000430 
#    y 0.000000 1.489600 0.000000 
#    z -0.000430 0.000000 1.482670 
# 
# From -- ./inp_files/51181.got.cif
#   From: 2010.05.17/outbox.cif.g08.bks.cpg/sg11_26_cif.got.tgz:51181.got - 2010.06.03 12:22:45.
