data_PCOD9156345
_publ_section_title
;
Structure prediction by ZEFSAII (Michael W. Deem and Ramdas Pophale) SiO2 
 PCOD9156345
Probable space group: P 21/M
;
_chemical_formula_sum "Si O2"
_cell_formula_units_Z 32
_cell_length_a 19.624367
_cell_length_b 8.997432
_cell_length_c 23.995587
_cell_angle_alpha 90.000000
_cell_angle_beta 151.280822
_cell_angle_gamma 90.000000
_cell_volume 2035.890554
_symmetry_space_group_name_H-M "P 21/M"
_symmetry_group_IT_number 11
_symmetry_cell_setting 'monoclinic'
loop_
_space_group_symop_operation_xyz
x,y,z
-x,1/2+y,-z
-x,-y,-z
x,1/2-y,z
loop_
_atom_site_type_symbol
_atom_site_label
_atom_site_fract_x
_atom_site_fract_y
_atom_site_fract_z
Si Si1 0.329001 0.923570 0.199852
Si Si2 0.913901 0.422157 0.070786
Si Si3 0.294531 0.071930 0.999697
Si Si4 0.884095 0.927819 0.344125
Si Si5 0.182266 0.072884 0.575635
Si Si6 0.882015 0.570636 0.874563
Si Si7 0.468336 0.571580 0.739017
Si Si8 0.354492 0.070402 0.916730
O O1 0.355658 0.750000 0.229642
O O2 0.264806 0.004540 0.208039
O O3 0.462001 0.003754 0.266710
O O4 0.205307 0.932000 0.063689
O O5 0.925589 0.250000 0.095094
O O6 0.060516 0.468307 0.145969
O O7 0.849175 0.512872 0.075214
O O8 0.289158 0.250000 0.995772
O O9 0.425837 0.028549 0.134008
O O10 0.319870 0.021150 0.954861
O O11 0.909736 0.750000 0.360102
O O12 0.820553 0.960338 0.359909
O O13 0.772197 0.968496 0.216347
O O14 0.032596 0.012539 0.445767
O O15 0.192456 0.250000 0.576038
O O16 0.314728 0.993318 0.642117
O O17 0.883930 0.750000 0.881021
O O18 0.000000 0.500000 0.000000
O O19 0.465312 0.750000 0.733463
O O20 0.368046 0.250000 0.926370
O O21 0.500000 0.000000 0.000000
#
# Coordination Sequence:
#
# PCOD9156345 Si02
#       8
#     4   4   4   4   4   4   4   4
#     4   9  16  25  37  56  82 112 146 181 215 255
#     4   8  15  25  37  54  79 112 146 178 213 254
#     4   9  18  29  42  62  87 115 148 182 214 257
#     4   9  19  34  49  65  87 115 145 180 223 265
#     4  10  19  31  48  67  86 111 146 185 221 261
#     4   9  15  23  35  53  78 110 146 180 215 256
#     4  10  18  28  43  63  89 119 147 178 219 262
#     4  10  20  33  48  67  90 116 146 180 219 261
#
# _framework density 15.717938
#
# number of rings (size 3 to 8) (size 9 to 14) (size 15 to 20)
#    0.000    2.750    0.000    3.000    0.000    5.500 
#    0.000    0.000    0.000    0.000    0.000    0.000 
#    0.000    1.000    0.000    3.000    0.000    5.500 
#
# Total GULP energy -178243.708941 kJ/mol
# GULP energy per Si atom -5570.115904 kJ/mol
# Density = 1.568216 g / cm^3
# Si number density = 15.717938 Si / 1000 Ang^3
#
#
#
# Elastic Constant Matrix: (Units=GPa)
#
#
# Indices 1 2 3 4 5 6 
#
# 1 147.8404 54.0667 61.5148 0.0000 33.4379 0.0000
# 2 54.0667 49.0090 33.9505 0.0000 17.6946 0.0000
# 3 61.5148 33.9505 63.2586 0.0000 18.4875 0.0000
# 4 0.0000 0.0000 0.0000 18.8290 0.0000 9.3950
# 5 33.4379 17.6946 18.4875 0.0000 25.7662 0.0000
# 6 0.0000 0.0000 0.0000 9.3950 0.0000 29.5042
#
#
#
# Elastic Compliance Matrix: (Units=1/GPa)
#
#
# Indices 1 2 3 4 5 6 
#
# 1 0.014699 -0.008005 -0.007629 0.000000 -0.008104 0.000000
# 2 -0.008005 0.040303 -0.011127 0.000000 -0.009306 0.000000
# 3 -0.007629 -0.011127 0.030459 0.000000 -0.004313 0.000000
# 4 0.000000 0.000000 0.000000 0.063142 0.000000 -0.020106
# 5 -0.008104 -0.009306 -0.004313 0.000000 0.058813 0.000000
# 6 0.000000 0.000000 0.000000 -0.020106 0.000000 0.040296
#
#
# Mechanical properties :
#
#
# Convention : Reuss Voigt Hill
#
# Bulk Modulus (GPa) = 31.30865 62.13022 46.71944
# Shear Modulus (GPa) = 16.03187 22.19162 19.11174
#
# Velocity S-wave (km/s) = 3.19717 3.76156 3.49079
# Velocity P-wave (km/s) = 5.79581 7.64721 6.78496
#
# Compressibility (1/GPa) = 0.03194005
#
# Stress axis : x y z
#
# Youngs Moduli (GPa) = 68.03272 24.81200 32.83118
#
# Poissons Ratio (x) = 0.19862 0.25047
# Poissons Ratio (y) = 0.54459 0.36530
# Poissons Ratio (z) = 0.51902 0.27607
#
# Static dielectric constant tensor:
#      x y z
#    x 1.541190 0.000000 0.008760 
#    y 0.000000 1.545380 0.000000 
#    z 0.008760 0.000000 1.503770 
# 
# From -- ./inp_files/42497.got.cif
#   From: 2010.05.17/outbox.cif.g08.bks.cpg/sg11_22_cif.got.tgz:42497.got - 2010.06.03 12:22:45.
