data_PCOD9156526
_publ_section_title
;
Structure prediction by ZEFSAII (Michael W. Deem and Ramdas Pophale) SiO2 
 PCOD9156526
Probable space group: P 21/M
;
_chemical_formula_sum "Si O2"
_cell_formula_units_Z 24
_cell_length_a 27.437550
_cell_length_b 8.641384
_cell_length_c 14.510874
_cell_angle_alpha 90.000000
_cell_angle_beta 25.070201
_cell_angle_gamma 90.000000
_cell_volume 1457.839674
_symmetry_space_group_name_H-M "P 21/M"
_symmetry_group_IT_number 11
_symmetry_cell_setting 'monoclinic'
loop_
_space_group_symop_operation_xyz
x,y,z
-x,1/2+y,-z
-x,-y,-z
x,1/2-y,z
loop_
_atom_site_type_symbol
_atom_site_label
_atom_site_fract_x
_atom_site_fract_y
_atom_site_fract_z
Si Si1 0.464810 0.935159 0.343381
Si Si2 0.605671 0.064840 0.257460
Si Si3 0.578446 0.934477 0.784256
Si Si4 0.831342 0.065384 0.349966
Si Si5 0.254136 0.434692 0.827217
Si Si6 0.060021 0.934777 0.037246
O O1 0.461920 0.750000 0.353102
O O2 0.575762 0.999431 0.208162
O O3 0.459223 0.992438 0.248666
O O4 0.352308 0.999878 0.589638
O O5 0.603577 0.250000 0.260951
O O6 0.500000 0.000000 0.500000
O O7 0.716164 0.002707 0.122969
O O8 0.569390 0.750000 0.794833
O O9 0.710558 0.983657 0.573861
O O10 0.500000 0.000000 0.000000
O O11 0.818883 0.250000 0.380428
O O12 0.872374 0.032745 0.174619
O O13 0.933415 0.003910 0.239894
O O14 0.262677 0.250000 0.814333
O O15 0.133173 0.489620 0.993447
O O16 0.054871 0.750000 0.057088
#
# Coordination Sequence:
#
# PCOD9156526 Si02
#       6
#     4   4   4   4   4   4
#     4  11  20  33  49  70 100 133 169 211 255 303
#     4  10  18  29  45  68  98 132 167 205 251 305
#     4  12  24  38  55  75 101 136 176 215 256 301
#     4  10  20  34  51  73 102 134 171 211 255 304
#     4  11  19  29  47  73 103 136 169 205 253 307
#     4  10  19  31  50  74 104 137 169 207 255 307
#
# _framework density 16.462716
#
# number of rings (size 3 to 8) (size 9 to 14) (size 15 to 20)
#    0.000    1.333    1.667    9.000    0.000    1.333 
#    0.000    0.000    0.000    0.000    0.000    1.167 
#    0.000    0.000    0.000    0.000    0.000    0.000 
#
# Total GULP energy -134025.384995 kJ/mol
# GULP energy per Si atom -5584.391041 kJ/mol
# Density = 1.642525 g / cm^3
# Si number density = 16.462716 Si / 1000 Ang^3
#
#
#
# Elastic Constant Matrix: (Units=GPa)
#
#
# Indices 1 2 3 4 5 6 
#
# 1 127.1181 58.0446 61.2687 0.0000 -36.3729 0.0000
# 2 58.0446 150.2542 47.2781 0.0000 -18.6750 0.0000
# 3 61.2687 47.2781 63.5310 0.0000 -17.9518 0.0000
# 4 0.0000 0.0000 0.0000 24.4998 0.0000 -7.4580
# 5 -36.3729 -18.6750 -17.9518 0.0000 32.1777 0.0000
# 6 0.0000 0.0000 0.0000 -7.4580 0.0000 30.3541
#
#
#
# Elastic Compliance Matrix: (Units=1/GPa)
#
#
# Indices 1 2 3 4 5 6 
#
# 1 0.018531 -0.001416 -0.013214 0.000000 0.012754 0.000000
# 2 -0.001416 0.008878 -0.005031 0.000000 0.000745 0.000000
# 3 -0.013214 -0.005031 0.032269 0.000000 0.000146 0.000000
# 4 0.000000 0.000000 0.000000 0.044116 0.000000 0.010839
# 5 0.012754 0.000745 0.000146 0.000000 0.046008 0.000000
# 6 0.000000 0.000000 0.000000 0.010839 0.000000 0.035608
#
#
# Mechanical properties :
#
#
# Convention : Reuss Voigt Hill
#
# Bulk Modulus (GPa) = 49.12319 74.89846 62.01082
# Shear Modulus (GPa) = 21.59666 29.02711 25.31188
#
# Velocity S-wave (km/s) = 3.62588 4.20361 3.92539
# Velocity P-wave (km/s) = 6.88717 8.31595 7.63506
#
# Compressibility (1/GPa) = 0.02035698
#
# Stress axis : x y z
#
# Youngs Moduli (GPa) = 53.96224 112.63929 30.98958
#
# Poissons Ratio (x) = 0.15948 0.40950
# Poissons Ratio (y) = 0.07640 0.15590
# Poissons Ratio (z) = 0.71307 0.56665
#
# Static dielectric constant tensor:
#      x y z
#    x 1.578880 0.000000 -0.028560 
#    y 0.000000 1.528530 0.000000 
#    z -0.028560 0.000000 1.539020 
# 
# From -- ./inp_files/62256.got.cif
#   From: 2010.05.17/outbox.cif.g08.bks.cpg/sg11_32_cif.got.tgz:62256.got - 2010.06.03 12:22:45.
