data_PCOD9156475
_publ_section_title
;
Structure prediction by ZEFSAII (Michael W. Deem and Ramdas Pophale) SiO2 
 PCOD9156475
Probable space group: P 21/M
;
_chemical_formula_sum "Si O2"
_cell_formula_units_Z 32
_cell_length_a 11.455533
_cell_length_b 8.879488
_cell_length_c 21.514694
_cell_angle_alpha 90.000000
_cell_angle_beta 126.637044
_cell_angle_gamma 90.000000
_cell_volume 1756.089084
_symmetry_space_group_name_H-M "P 21/M"
_symmetry_group_IT_number 11
_symmetry_cell_setting 'monoclinic'
loop_
_space_group_symop_operation_xyz
x,y,z
-x,1/2+y,-z
-x,-y,-z
x,1/2-y,z
loop_
_atom_site_type_symbol
_atom_site_label
_atom_site_fract_x
_atom_site_fract_y
_atom_site_fract_z
Si Si1 0.512936 0.926885 0.772102
Si Si2 0.208560 0.569510 0.624042
Si Si3 0.077792 0.930229 0.253032
Si Si4 0.965804 0.568986 0.085347
Si Si5 0.314413 0.070466 0.527864
Si Si6 0.771029 0.070981 0.923012
Si Si7 0.950284 0.429062 0.617692
Si Si8 0.606318 0.572058 0.658212
O O1 0.528153 0.750000 0.790527
O O2 0.342239 0.964013 0.713502
O O3 0.570479 0.951654 0.719998
O O4 0.613522 0.017033 0.851121
O O5 0.206580 0.750000 0.612464
O O6 0.247032 0.486153 0.572207
O O7 0.059652 0.511932 0.605943
O O8 0.102230 0.750000 0.255582
O O9 0.006126 0.958017 0.297047
O O10 0.987401 0.977467 0.163577
O O11 0.233658 0.009991 0.301926
O O12 0.954348 0.750000 0.079122
O O13 0.111451 0.524925 0.092998
O O14 0.831076 0.499039 0.005689
O O15 0.308521 0.250000 0.521365
O O16 0.211295 0.992937 0.444488
O O17 0.479963 0.012730 0.580389
O O18 0.774526 0.250000 0.928454
O O19 0.951893 0.250000 0.606631
O O20 0.597281 0.750000 0.642676
#
# Coordination Sequence:
#
# PCOD9156475 Si02
#       8
#     4   4   4   4   4   4   4   4
#     4   9  18  32  52  78 107 137 168 214 266 313
#     4  10  21  38  58  81 107 136 177 224 271 314
#     4  10  21  37  55  76 107 146 181 216 260 319
#     4   9  18  32  49  74 109 142 172 210 257 309
#     4  11  22  37  58  80 106 138 176 223 271 315
#     4  10  18  28  50  80 108 137 172 212 257 310
#     4  11  23  38  56  78 105 140 182 222 266 316
#     4  10  20  34  54  80 109 140 176 218 268 317
#
# _framework density 18.22231
#
# number of rings (size 3 to 8) (size 9 to 14) (size 15 to 20)
#    0.000    2.000    1.250    3.750    0.000    5.000 
#    0.000    0.000    0.000    0.750    0.000    0.000 
#    0.000    0.000    0.000    0.000    0.000    0.000 
#
# Total GULP energy -178677.429793 kJ/mol
# GULP energy per Si atom -5583.669681 kJ/mol
# Density = 1.818084 g / cm^3
# Si number density = 18.222310 Si / 1000 Ang^3
#
#
#
# Elastic Constant Matrix: (Units=GPa)
#
#
# Indices 1 2 3 4 5 6 
#
# 1 8.4940 8.8792 3.4774 0.0000 0.8812 0.0000
# 2 8.8792 36.4507 28.7335 0.0000 -1.4216 0.0000
# 3 3.4774 28.7335 112.3216 0.0000 -0.1332 0.0000
# 4 0.0000 0.0000 0.0000 29.3438 0.0000 6.4958
# 5 0.8812 -1.4216 -0.1332 0.0000 21.4103 0.0000
# 6 0.0000 0.0000 0.0000 6.4958 0.0000 18.6158
#
#
#
# Elastic Compliance Matrix: (Units=1/GPa)
#
#
# Indices 1 2 3 4 5 6 
#
# 1 0.163463 -0.045342 0.006527 0.000000 -0.009698 0.000000
# 2 -0.045342 0.047047 -0.010626 0.000000 0.004924 0.000000
# 3 0.006527 -0.010626 0.011418 0.000000 -0.000903 0.000000
# 4 0.000000 0.000000 0.000000 0.036931 0.000000 -0.012887
# 5 -0.009698 0.004924 -0.000903 0.000000 0.047427 0.000000
# 6 0.000000 0.000000 0.000000 -0.012887 0.000000 0.058214
#
#
# Mechanical properties :
#
#
# Convention : Reuss Voigt Hill
#
# Bulk Modulus (GPa) = 8.12699 26.60514 17.36607
# Shear Modulus (GPa) = 9.91281 21.61909 15.76595
#
# Velocity S-wave (km/s) = 2.33490 3.44816 2.94462
# Velocity P-wave (km/s) = 3.42616 5.52133 4.59476
#
# Compressibility (1/GPa) = 0.12304685
#
# Stress axis : x y z
#
# Youngs Moduli (GPa) = 6.11761 21.25515 87.58022
#
# Poissons Ratio (x) = 0.96374 -0.57163
# Poissons Ratio (y) = 0.27738 0.93061
# Poissons Ratio (z) = -0.03993 0.22585
#
# Static dielectric constant tensor:
#      x y z
#    x 1.609270 0.000000 -0.010890 
#    y 0.000000 1.603440 0.000000 
#    z -0.010890 0.000000 1.641340 
# 
# From -- ./inp_files/38286.got.cif
#   From: 2010.05.17/outbox.cif.g08.bks.cpg/sg11_20_cif.got.tgz:38286.got - 2010.06.03 12:22:45.
