data_PCOD9156671
_publ_section_title
;
Structure prediction by ZEFSAII (Michael W. Deem and Ramdas Pophale) SiO2 
 PCOD9156671
Probable space group: P 21/M
;
_chemical_formula_sum "Si O2"
_cell_formula_units_Z 32
_cell_length_a 22.683141
_cell_length_b 9.679061
_cell_length_c 10.029297
_cell_angle_alpha 90.000000
_cell_angle_beta 45.941454
_cell_angle_gamma 90.000000
_cell_volume 1582.384494
_symmetry_space_group_name_H-M "P 21/M"
_symmetry_group_IT_number 11
_symmetry_cell_setting 'monoclinic'
loop_
_space_group_symop_operation_xyz
x,y,z
-x,1/2+y,-z
-x,-y,-z
x,1/2-y,z
loop_
_atom_site_type_symbol
_atom_site_label
_atom_site_fract_x
_atom_site_fract_y
_atom_site_fract_z
Si Si1 0.259853 0.594960 0.960852
Si Si2 0.207411 0.407200 0.506777
Si Si3 0.327086 0.905394 0.454918
Si Si4 0.927456 0.412626 0.435446
Si Si5 0.563872 0.403488 0.973443
Si Si6 0.675525 0.597152 0.932958
Si Si7 0.568702 0.410307 0.465987
Si Si8 0.918862 0.093011 0.769912
O O1 0.259694 0.750000 0.024675
O O2 0.343097 0.584505 0.746886
O O3 0.263978 0.469804 0.056878
O O4 0.172396 0.583790 0.026285
O O5 0.181705 0.250000 0.580405
O O6 0.252745 0.487966 0.555698
O O7 0.136294 0.500564 0.553235
O O8 0.275767 0.393924 0.282243
O O9 0.302570 0.750000 0.539149
O O10 0.364345 0.888667 0.248866
O O11 0.402085 0.953423 0.431494
O O12 0.924809 0.250000 0.406810
O O13 0.909471 0.424302 0.623414
O O14 0.016937 0.481452 0.279567
O O15 0.533676 0.250000 0.054988
O O16 0.601763 0.488574 0.035227
O O17 0.500000 0.500000 0.000000
O O18 0.646653 0.750000 0.014417
O O19 0.500000 0.500000 0.500000
O O20 0.541887 0.250000 0.512116
O O21 0.950272 0.250000 0.741066
#
# Coordination Sequence:
#
# PCOD9156671 Si02
#       8
#     4   4   4   4   4   4   4   4
#     4  10  20  36  56  78 107 144 182 224 272 320
#     4  10  19  32  53  80 110 142 178 218 265 319
#     4   9  20  38  55  74 104 139 178 221 270 323
#     4  10  18  29  50  80 115 149 178 212 265 325
#     4  10  20  33  51  74 103 134 168 217 272 328
#     4  10  20  32  49  76 106 138 176 216 265 321
#     4  10  23  41  60  81 105 141 185 229 274 321
#     4   9  18  31  49  76 113 148 180 218 263 319
#
# _framework density 20.222645
#
# number of rings (size 3 to 8) (size 9 to 14) (size 15 to 20)
#    0.000    2.250    1.250    1.500    1.750    3.500 
#    0.000    0.000    0.000    0.750    0.000    0.000 
#    0.000    0.000    0.000    0.000    0.000    0.000 
#
# Total GULP energy -178354.026024 kJ/mol
# GULP energy per Si atom -5573.563313 kJ/mol
# Density = 2.017662 g / cm^3
# Si number density = 20.222645 Si / 1000 Ang^3
#
#
#
# Elastic Constant Matrix: (Units=GPa)
#
#
# Indices 1 2 3 4 5 6 
#
# 1 99.5871 82.4525 13.9115 0.0000 -22.8742 0.0000
# 2 82.4525 177.5511 22.1435 0.0000 -27.9398 0.0000
# 3 13.9115 22.1435 37.6876 0.0000 -16.2897 0.0000
# 4 0.0000 0.0000 0.0000 13.6574 0.0000 -11.6294
# 5 -22.8742 -27.9398 -16.2897 0.0000 29.5755 0.0000
# 6 0.0000 0.0000 0.0000 -11.6294 0.0000 34.2670
#
#
#
# Elastic Compliance Matrix: (Units=1/GPa)
#
#
# Indices 1 2 3 4 5 6 
#
# 1 0.017441 -0.007059 0.000863 0.000000 0.007296 0.000000
# 2 -0.007059 0.009543 -0.001922 0.000000 0.002497 0.000000
# 3 0.000863 -0.001922 0.035237 0.000000 0.018260 0.000000
# 4 0.000000 0.000000 0.000000 0.102980 0.000000 0.034949
# 5 0.007296 0.002497 0.018260 0.000000 0.051871 0.000000
# 6 0.000000 0.000000 0.000000 0.034949 0.000000 0.041043
#
#
# Mechanical properties :
#
#
# Convention : Reuss Voigt Hill
#
# Bulk Modulus (GPa) = 21.74611 61.31564 41.53087
# Shear Modulus (GPa) = 17.26049 28.58787 22.92418
#
# Velocity S-wave (km/s) = 2.92468 3.76394 3.37053
# Velocity P-wave (km/s) = 4.70975 7.01967 5.97735
#
# Compressibility (1/GPa) = 0.04598524
#
# Stress axis : x y z
#
# Youngs Moduli (GPa) = 57.33558 104.78975 28.37926
#
# Poissons Ratio (x) = 0.73971 -0.02449
# Poissons Ratio (y) = 0.40473 0.05455
# Poissons Ratio (z) = -0.04949 0.20141
#
# Static dielectric constant tensor:
#      x y z
#    x 1.732020 0.000000 0.008500 
#    y 0.000000 1.746530 0.000000 
#    z 0.008500 0.000000 1.774320 
# 
# From -- ./inp_files/42776.got.cif
#   From: 2010.05.17/outbox.cif.g08.bks.cpg/sg11_22_cif.got.tgz:42776.got - 2010.06.03 12:22:45.
