data_PCOD9156861
_publ_section_title
;
Structure prediction by ZEFSAII (Michael W. Deem and Ramdas Pophale) SiO2 
 PCOD9156861
Probable space group: P 21/M
;
_chemical_formula_sum "Si O2"
_cell_formula_units_Z 24
_cell_length_a 11.363752
_cell_length_b 8.702461
_cell_length_c 24.259563
_cell_angle_alpha 90.000000
_cell_angle_beta 144.203092
_cell_angle_gamma 90.000000
_cell_volume 1403.261958
_symmetry_space_group_name_H-M "P 21/M"
_symmetry_group_IT_number 11
_symmetry_cell_setting 'monoclinic'
loop_
_space_group_symop_operation_xyz
x,y,z
-x,1/2+y,-z
-x,-y,-z
x,1/2-y,z
loop_
_atom_site_type_symbol
_atom_site_label
_atom_site_fract_x
_atom_site_fract_y
_atom_site_fract_z
Si Si1 0.324799 0.066754 0.360717
Si Si2 0.860768 0.065168 0.816505
Si Si3 0.162609 0.065390 0.018988
Si Si4 0.242616 0.066846 0.456817
Si Si5 0.089610 0.432907 0.590535
Si Si6 0.468134 0.435117 0.222435
O O1 0.346345 0.250000 0.363630
O O2 0.250352 0.032592 0.394414
O O3 0.178456 0.003466 0.258296
O O4 0.544263 0.990105 0.438000
O O5 0.848035 0.250000 0.809732
O O6 0.074033 0.019763 0.925892
O O7 0.684402 0.002070 0.789625
O O8 0.154595 0.250000 0.017547
O O9 0.375341 0.021676 0.126991
O O10 0.000000 0.000000 0.000000
O O11 0.225845 0.250000 0.457782
O O12 0.060849 0.984211 0.418264
O O13 0.099165 0.250000 0.590406
O O14 0.000000 0.500000 0.500000
O O15 0.310962 0.499871 0.684789
O O16 0.470267 0.250000 0.228035
#
# Coordination Sequence:
#
# PCOD9156861 Si02
#       6
#     4   4   4   4   4   4
#     4  10  20  34  53  76 101 130 164 204 248 292
#     4  10  18  30  50  77 105 132 166 204 245 292
#     4   8  16  29  47  71  99 131 164 202 245 289
#     4  10  21  37  54  73  99 131 167 205 246 292
#     4  12  24  37  53  74 101 132 166 202 245 296
#     4  10  19  33  51  73 103 135 167 204 248 293
#
# _framework density 17.103007000000002
#
# number of rings (size 3 to 8) (size 9 to 14) (size 15 to 20)
#    0.000    2.000    0.000    4.500    0.000    3.333 
#    0.000    0.000    0.000    1.000    0.000    0.000 
#    0.000    0.000    0.000    0.000    0.000    0.000 
#
# Total GULP energy -133880.464054 kJ/mol
# GULP energy per Si atom -5578.352669 kJ/mol
# Density = 1.706408 g / cm^3
# Si number density = 17.103007 Si / 1000 Ang^3
#
#
#
# Elastic Constant Matrix: (Units=GPa)
#
#
# Indices 1 2 3 4 5 6 
#
# 1 38.1650 22.5669 39.2389 0.0000 0.7375 0.0000
# 2 22.5669 59.3062 43.3894 0.0000 -3.7901 0.0000
# 3 39.2389 43.3894 172.3796 0.0000 -13.5606 0.0000
# 4 0.0000 0.0000 0.0000 26.8572 0.0000 -0.9868
# 5 0.7375 -3.7901 -13.5606 0.0000 26.0731 0.0000
# 6 0.0000 0.0000 0.0000 -0.9868 0.0000 27.6221
#
#
#
# Elastic Compliance Matrix: (Units=1/GPa)
#
#
# Indices 1 2 3 4 5 6 
#
# 1 0.039543 -0.010419 -0.006867 0.000000 -0.006204 0.000000
# 2 -0.010419 0.023416 -0.003369 0.000000 0.001946 0.000000
# 3 -0.006867 -0.003369 0.008538 0.000000 0.004145 0.000000
# 4 0.000000 0.000000 0.000000 0.037283 0.000000 0.001332
# 5 -0.006204 0.001946 0.004145 0.000000 0.040968 0.000000
# 6 0.000000 0.000000 0.000000 0.001332 0.000000 0.036250
#
#
# Mechanical properties :
#
#
# Convention : Reuss Voigt Hill
#
# Bulk Modulus (GPa) = 33.12728 53.36012 43.24370
# Shear Modulus (GPa) = 21.06418 27.08755 24.07586
#
# Velocity S-wave (km/s) = 3.51323 3.98400 3.75600
# Velocity P-wave (km/s) = 5.98902 7.24086 6.64449
#
# Compressibility (1/GPa) = 0.03018661
#
# Stress axis : x y z
#
# Youngs Moduli (GPa) = 25.28919 42.70662 117.11945
#
# Poissons Ratio (x) = 0.44498 0.80421
# Poissons Ratio (y) = 0.26350 0.39458
# Poissons Ratio (z) = 0.17365 0.14388
#
# Static dielectric constant tensor:
#      x y z
#    x 1.549100 0.000000 -0.025950 
#    y 0.000000 1.576500 0.000000 
#    z -0.025950 0.000000 1.608490 
# 
# From -- ./inp_files/42659.got.cif
#   From: 2010.05.17/outbox.cif.g08.bks.cpg/sg11_22_cif.got.tgz:42659.got - 2010.06.03 12:22:45.
