data_PCOD9156214
_publ_section_title
;
Structure prediction by ZEFSAII (Michael W. Deem and Ramdas Pophale) SiO2 
 PCOD9156214
Probable space group: P 21/M
;
_chemical_formula_sum "Si O2"
_cell_formula_units_Z 32
_cell_length_a 17.668232
_cell_length_b 9.271578
_cell_length_c 13.852939
_cell_angle_alpha 90.000000
_cell_angle_beta 101.532468
_cell_angle_gamma 90.000000
_cell_volume 2223.469801
_symmetry_space_group_name_H-M "P 21/M"
_symmetry_group_IT_number 11
_symmetry_cell_setting 'monoclinic'
loop_
_space_group_symop_operation_xyz
x,y,z
-x,1/2+y,-z
-x,-y,-z
x,1/2-y,z
loop_
_atom_site_type_symbol
_atom_site_label
_atom_site_fract_x
_atom_site_fract_y
_atom_site_fract_z
Si Si1 0.310887 0.079159 0.875113
Si Si2 0.411297 0.079018 0.091319
Si Si3 0.325808 0.921513 0.241520
Si Si4 0.553184 0.923775 0.215730
Si Si5 0.155968 0.578352 0.151728
Si Si6 0.473707 0.921704 0.397109
Si Si7 0.167254 0.578590 0.926605
Si Si8 0.995029 0.922417 0.894860
O O1 0.295443 0.250000 0.866456
O O2 0.360112 0.036123 0.793282
O O3 0.232245 0.999047 0.881059
O O4 0.369774 0.053945 0.979113
O O5 0.421635 0.250000 0.106411
O O6 0.355737 0.013916 0.159268
O O7 0.491952 0.998382 0.128803
O O8 0.334773 0.750000 0.221081
O O9 0.234930 0.947958 0.229918
O O10 0.385012 0.953093 0.343344
O O11 0.545973 0.750000 0.203660
O O12 0.525961 0.961479 0.316999
O O13 0.138940 0.750000 0.148356
O O14 0.082101 0.490091 0.169643
O O15 0.171625 0.539250 0.042386
O O16 0.480419 0.750000 0.411769
O O17 0.500000 0.000000 0.500000
O O18 0.179858 0.750000 0.925646
O O19 0.079199 0.548727 0.870778
O O20 0.987586 0.750000 0.904219
O O21 0.000000 0.000000 0.000000
#
# Coordination Sequence:
#
# PCOD9156214 Si02
#       8
#     4   4   4   4   4   4   4   4
#     4  10  19  28  40  59  83 110 144 176 202 240
#     4  10  18  26  39  62  84 106 140 179 206 232
#     4   9  17  30  45  61  84 115 142 168 212 260
#     4   9  19  33  44  57  80 112 140 167 211 257
#     4   9  16  27  42  59  80 110 146 176 205 246
#     4   9  18  32  49  63  81 108 136 172 214 256
#     4   9  17  27  39  56  81 115 146 171 205 243
#     4   9  17  27  38  55  80 112 147 178 208 241
#
# _framework density 14.391919
#
# number of rings (size 3 to 8) (size 9 to 14) (size 15 to 20)
#    0.000    2.750    1.250    2.625    0.000    6.000 
#    0.000    0.000    0.000    0.000    0.000    0.000 
#    0.000    1.000    0.000    2.250    0.000    4.000 
#
# Total GULP energy -178138.914085 kJ/mol
# GULP energy per Si atom -5566.841065 kJ/mol
# Density = 1.435916 g / cm^3
# Si number density = 14.391919 Si / 1000 Ang^3
#
#
#
# Elastic Constant Matrix: (Units=GPa)
#
#
# Indices 1 2 3 4 5 6 
#
# 1 147.0696 53.6701 45.6826 0.0000 -3.0185 0.0000
# 2 53.6701 31.6615 26.5246 0.0000 -0.8471 0.0000
# 3 45.6826 26.5246 47.7359 0.0000 6.1853 0.0000
# 4 0.0000 0.0000 0.0000 15.5617 0.0000 2.3533
# 5 -3.0185 -0.8471 6.1853 0.0000 11.8640 0.0000
# 6 0.0000 0.0000 0.0000 2.3533 0.0000 28.9953
#
#
#
# Elastic Compliance Matrix: (Units=1/GPa)
#
#
# Indices 1 2 3 4 5 6 
#
# 1 0.017936 -0.029170 -0.001370 0.000000 0.003195 0.000000
# 2 -0.029170 0.112955 -0.037462 0.000000 0.020174 0.000000
# 3 -0.001370 -0.037462 0.046616 0.000000 -0.027326 0.000000
# 4 0.000000 0.000000 0.000000 0.065059 0.000000 -0.005280
# 5 0.003195 0.020174 -0.027326 0.000000 0.100788 0.000000
# 6 0.000000 0.000000 0.000000 -0.005280 0.000000 0.034917
#
#
# Mechanical properties :
#
#
# Convention : Reuss Voigt Hill
#
# Bulk Modulus (GPa) = 24.09486 53.13575 38.61531
# Shear Modulus (GPa) = 9.46773 17.99017 13.72895
#
# Velocity S-wave (km/s) = 2.56764 3.53940 3.09193
# Velocity P-wave (km/s) = 5.05655 7.32829 6.29573
#
# Compressibility (1/GPa) = 0.04150263
#
# Stress axis : x y z
#
# Youngs Moduli (GPa) = 55.75519 8.85305 21.45184
#
# Poissons Ratio (x) = 0.25825 0.02938
# Poissons Ratio (y) = 1.62639 0.80364
# Poissons Ratio (z) = 0.07636 0.33166
#
# Static dielectric constant tensor:
#      x y z
#    x 1.513220 0.000000 0.004260 
#    y 0.000000 1.479040 0.000000 
#    z 0.004260 0.000000 1.448550 
# 
# From -- ./inp_files/51316.got.cif
#   From: 2010.05.17/outbox.cif.g08.bks.cpg/sg11_26_cif.got.tgz:51316.got - 2010.06.03 12:22:45.
