data_PCOD9156505
_publ_section_title
;
Structure prediction by ZEFSAII (Michael W. Deem and Ramdas Pophale) SiO2 
 PCOD9156505
Probable space group: P 21/M
;
_chemical_formula_sum "Si O2"
_cell_formula_units_Z 32
_cell_length_a 28.345476
_cell_length_b 8.676560
_cell_length_c 14.655692
_cell_angle_alpha 90.000000
_cell_angle_beta 29.561109
_cell_angle_gamma 90.000000
_cell_volume 1778.255516
_symmetry_space_group_name_H-M "P 21/M"
_symmetry_group_IT_number 11
_symmetry_cell_setting 'monoclinic'
loop_
_space_group_symop_operation_xyz
x,y,z
-x,1/2+y,-z
-x,-y,-z
x,1/2-y,z
loop_
_atom_site_type_symbol
_atom_site_label
_atom_site_fract_x
_atom_site_fract_y
_atom_site_fract_z
Si Si1 0.700908 0.432141 0.300719
Si Si2 0.908885 0.935745 0.266352
Si Si3 0.796551 0.431696 0.949463
Si Si4 0.192903 0.438036 0.385077
Si Si5 0.884210 0.934651 0.096332
Si Si6 0.321004 0.432637 0.009646
Si Si7 0.993527 0.565468 0.409788
Si Si8 0.502180 0.932599 0.599472
O O1 0.692104 0.250000 0.332358
O O2 0.790926 0.496971 0.204890
O O3 0.599833 0.514306 0.484226
O O4 0.725291 0.454406 0.152783
O O5 0.917349 0.750000 0.256861
O O6 0.828376 0.984027 0.475027
O O7 0.883475 0.977517 0.205298
O O8 0.013905 0.002910 0.111480
O O9 0.795178 0.250000 0.926187
O O10 0.902606 0.470046 0.806276
O O11 0.764980 0.531270 0.916458
O O12 0.195167 0.250000 0.379646
O O13 0.097694 0.491569 0.491651
O O14 0.283996 0.487089 0.171462
O O15 0.882999 0.750000 0.090563
O O16 0.337787 0.250000 0.984588
O O17 0.412614 0.512098 0.810589
O O18 0.984679 0.750000 0.428777
O O19 0.000000 0.500000 0.500000
O O20 0.500839 0.250000 0.404134
O O21 0.500000 0.000000 0.500000
#
# Coordination Sequence:
#
# PCOD9156505 Si02
#       8
#     4   4   4   4   4   4   4   4
#     4  11  22  37  58  80 107 145 183 227 280 331
#     4   9  18  36  59  81 113 151 186 226 274 331
#     4  10  20  32  49  72 104 142 179 217 265 322
#     4   9  18  33  53  76 104 146 188 222 269 327
#     4  10  20  34  56  87 115 143 183 233 281 326
#     4  11  21  34  54  77 105 142 183 225 268 320
#     4  10  18  29  44  68 101 138 175 212 256 310
#     4  12  24  39  57  80 110 143 184 229 275 327
#
# _framework density 17.995163999999999
#
# number of rings (size 3 to 8) (size 9 to 14) (size 15 to 20)
#    0.000    1.750    2.500    3.000    0.000    3.000 
#    0.000    3.125    0.000    0.750    0.000    0.000 
#    0.000    0.000    0.000    0.000    0.000    0.000 
#
# Total GULP energy -178537.117352 kJ/mol
# GULP energy per Si atom -5579.284917 kJ/mol
# Density = 1.795421 g / cm^3
# Si number density = 17.995164 Si / 1000 Ang^3
#
#
#
# Elastic Constant Matrix: (Units=GPa)
#
#
# Indices 1 2 3 4 5 6 
#
# 1 61.3849 24.9952 39.6138 0.0000 4.5212 0.0000
# 2 24.9952 42.1246 40.5054 0.0000 2.4622 0.0000
# 3 39.6138 40.5054 136.5925 0.0000 10.9598 0.0000
# 4 0.0000 0.0000 0.0000 25.9498 0.0000 -4.3557
# 5 4.5212 2.4622 10.9598 0.0000 27.4514 0.0000
# 6 0.0000 0.0000 0.0000 -4.3557 0.0000 21.6021
#
#
#
# Elastic Compliance Matrix: (Units=1/GPa)
#
#
# Indices 1 2 3 4 5 6 
#
# 1 0.022748 -0.010046 -0.003502 0.000000 -0.001447 0.000000
# 2 -0.010046 0.037670 -0.008388 0.000000 0.001625 0.000000
# 3 -0.003502 -0.008388 0.011072 0.000000 -0.003091 0.000000
# 4 0.000000 0.000000 0.000000 0.039886 0.000000 0.008042
# 5 -0.001447 0.001625 -0.003091 0.000000 0.037755 0.000000
# 6 0.000000 0.000000 0.000000 0.008042 0.000000 0.047913
#
#
# Mechanical properties :
#
#
# Convention : Reuss Voigt Hill
#
# Bulk Modulus (GPa) = 36.20688 50.03676 43.12182
# Shear Modulus (GPa) = 19.99030 23.99983 21.99507
#
# Velocity S-wave (km/s) = 3.33659 3.65592 3.49990
# Velocity P-wave (km/s) = 5.91674 6.75922 6.35196
#
# Compressibility (1/GPa) = 0.02761906
#
# Stress axis : x y z
#
# Youngs Moduli (GPa) = 43.96043 26.54625 90.31730
#
# Poissons Ratio (x) = 0.26667 0.31630
# Poissons Ratio (y) = 0.44161 0.75756
# Poissons Ratio (z) = 0.15395 0.22266
#
# Static dielectric constant tensor:
#      x y z
#    x 1.606650 0.000000 0.012580 
#    y 0.000000 1.609400 0.000000 
#    z 0.012580 0.000000 1.653930 
# 
# From -- ./inp_files/51374.got.cif
#   From: 2010.05.17/outbox.cif.g08.bks.cpg/sg11_26_cif.got.tgz:51374.got - 2010.06.03 12:22:45.
