data_PCOD9156981
_publ_section_title
;
Structure prediction by ZEFSAII (Michael W. Deem and Ramdas Pophale) SiO2 
 PCOD9156981
Probable space group: P 21/M
;
_chemical_formula_sum "Si O2"
_cell_formula_units_Z 32
_cell_length_a 15.961221
_cell_length_b 8.673508
_cell_length_c 21.778167
_cell_angle_alpha 90.000000
_cell_angle_beta 137.986251
_cell_angle_gamma 90.000000
_cell_volume 2017.942692
_symmetry_space_group_name_H-M "P 21/M"
_symmetry_group_IT_number 11
_symmetry_cell_setting 'monoclinic'
loop_
_space_group_symop_operation_xyz
x,y,z
-x,1/2+y,-z
-x,-y,-z
x,1/2-y,z
loop_
_atom_site_type_symbol
_atom_site_label
_atom_site_fract_x
_atom_site_fract_y
_atom_site_fract_z
Si Si1 0.606191 0.434556 0.602268
Si Si2 0.454829 0.565764 0.290497
Si Si3 0.721974 0.066177 0.399411
Si Si4 0.005951 0.935359 0.907724
Si Si5 0.065214 0.435472 0.393927
Si Si6 0.203519 0.433527 0.104861
Si Si7 0.106971 0.434324 0.603805
Si Si8 0.876413 0.935965 0.713630
O O1 0.500000 0.500000 0.500000
O O2 0.605955 0.250000 0.598947
O O3 0.576358 0.479731 0.656187
O O4 0.740836 0.496369 0.655167
O O5 0.471711 0.750000 0.297625
O O6 0.581986 0.485025 0.338575
O O7 0.335453 0.516291 0.185492
O O8 0.734671 0.250000 0.406009
O O9 0.816547 0.998097 0.502513
O O10 0.767405 0.998907 0.358577
O O11 0.021780 0.750000 0.919081
O O12 0.887469 0.974220 0.887104
O O13 0.970931 0.981525 0.819591
O O14 0.126410 0.014445 0.003119
O O15 0.063789 0.250000 0.398555
O O16 0.081163 0.479385 0.331590
O O17 0.939584 0.503545 0.356119
O O18 0.221221 0.250000 0.114866
O O19 0.106482 0.250000 0.602442
O O20 0.000000 0.500000 0.500000
O O21 0.866310 0.750000 0.709863
#
# Coordination Sequence:
#
# PCOD9156981 Si02
#       8
#     4   4   4   4   4   4   4   4
#     4  11  23  34  47  66  96 134 170 203 239 285
#     4  11  22  35  49  70  98 131 167 204 247 294
#     4  11  21  33  50  72  99 131 167 206 247 292
#     4   9  18  33  51  71  97 127 162 205 251 292
#     4  10  19  32  50  73 101 132 167 204 244 290
#     4  10  19  32  52  73  95 125 164 208 250 292
#     4  10  18  31  50  71  97 128 163 204 248 290
#     4  10  20  34  51  71  98 132 167 203 243 289
#
# _framework density 15.857735
#
# number of rings (size 3 to 8) (size 9 to 14) (size 15 to 20)
#    0.000    1.750    1.250    6.000    0.000    6.500 
#    0.000    0.000    0.000    0.000    0.000    0.875 
#    0.000    0.000    0.000    0.000    0.000    0.000 
#
# Total GULP energy -178625.740754 kJ/mol
# GULP energy per Si atom -5582.054399 kJ/mol
# Density = 1.582164 g / cm^3
# Si number density = 15.857735 Si / 1000 Ang^3
#
#
#
# Elastic Constant Matrix: (Units=GPa)
#
#
# Indices 1 2 3 4 5 6 
#
# 1 143.1830 52.3396 61.3354 0.0000 -6.3193 0.0000
# 2 52.3396 69.1701 32.2391 0.0000 -2.6299 0.0000
# 3 61.3354 32.2391 96.8409 0.0000 -7.2417 0.0000
# 4 0.0000 0.0000 0.0000 23.7591 0.0000 3.8590
# 5 -6.3193 -2.6299 -7.2417 0.0000 6.3940 0.0000
# 6 0.0000 0.0000 0.0000 3.8590 0.0000 26.5602
#
#
#
# Elastic Compliance Matrix: (Units=1/GPa)
#
#
# Indices 1 2 3 4 5 6 
#
# 1 0.011567 -0.006306 -0.004988 0.000000 0.003188 0.000000
# 2 -0.006306 0.020553 -0.002930 0.000000 -0.001098 0.000000
# 3 -0.004988 -0.002930 0.015298 0.000000 0.011191 0.000000
# 4 0.000000 0.000000 0.000000 0.043106 0.000000 -0.006263
# 5 0.003188 -0.001098 0.011191 0.000000 0.171771 0.000000
# 6 0.000000 0.000000 0.000000 -0.006263 0.000000 0.038560
#
#
# Mechanical properties :
#
#
# Convention : Reuss Voigt Hill
#
# Bulk Modulus (GPa) = 52.71917 66.78024 59.74970
# Shear Modulus (GPa) = 14.89751 22.22799 18.56275
#
# Velocity S-wave (km/s) = 3.06837 3.74801 3.42509
# Velocity P-wave (km/s) = 6.77277 7.80600 7.30767
#
# Compressibility (1/GPa) = 0.01896843
#
# Stress axis : x y z
#
# Youngs Moduli (GPa) = 86.45472 48.65499 65.36873
#
# Poissons Ratio (x) = 0.30683 0.32607
# Poissons Ratio (y) = 0.54520 0.19154
# Poissons Ratio (z) = 0.43125 0.14257
#
# Static dielectric constant tensor:
#      x y z
#    x 1.542140 0.000000 -0.013760 
#    y 0.000000 1.531670 0.000000 
#    z -0.013760 0.000000 1.511900 
# 
# From -- ./inp_files/65228.got.cif
#   From: 2010.05.17/outbox.cif.g08.bks.cpg/sg11_33_cif.got.tgz:65228.got - 2010.06.03 12:22:45.
