data_PCOD9156821
_publ_section_title
;
Structure prediction by ZEFSAII (Michael W. Deem and Ramdas Pophale) SiO2 
 PCOD9156821
Probable space group: P 21/M
;
_chemical_formula_sum "Si O2"
_cell_formula_units_Z 28
_cell_length_a 15.441609
_cell_length_b 8.184592
_cell_length_c 12.280269
_cell_angle_alpha 90.000000
_cell_angle_beta 117.911868
_cell_angle_gamma 90.000000
_cell_volume 1371.471957
_symmetry_space_group_name_H-M "P 21/M"
_symmetry_group_IT_number 11
_symmetry_cell_setting 'monoclinic'
loop_
_space_group_symop_operation_xyz
x,y,z
-x,1/2+y,-z
-x,-y,-z
x,1/2-y,z
loop_
_atom_site_type_symbol
_atom_site_label
_atom_site_fract_x
_atom_site_fract_y
_atom_site_fract_z
Si Si1 0.885542 0.554073 0.922739
Si Si2 0.502928 0.557033 0.874934
Si Si3 0.799792 0.448590 0.247410
Si Si4 0.679699 0.447402 0.378282
Si Si5 0.803632 0.947168 0.640666
Si Si6 0.010831 0.053386 0.382769
Si Si7 0.712458 0.054597 0.977491
O O1 0.887837 0.750000 0.923843
O O2 0.831443 0.498548 0.778812
O O3 0.810376 0.495631 0.971411
O O4 0.000000 0.500000 0.000000
O O5 0.488227 0.750000 0.872648
O O6 0.417930 0.494690 0.742683
O O7 0.608201 0.518300 0.883260
O O8 0.500000 0.500000 0.000000
O O9 0.800358 0.250000 0.251584
O O10 0.766088 0.504581 0.346219
O O11 0.907203 0.500972 0.272925
O O12 0.725363 0.498541 0.110654
O O13 0.678489 0.250000 0.379557
O O14 0.707093 0.502737 0.516192
O O15 0.804235 0.750000 0.642765
O O16 0.895044 0.011536 0.622898
O O17 0.015777 0.250000 0.380685
O O18 0.000000 0.000000 0.500000
O O19 0.705164 0.250000 0.969415
#
# Coordination Sequence:
#
# PCOD9156821 Si02
#       7
#     4   4   4   4   4   4   4
#     4  11  24  44  66  91 123 163 209 256 304 364
#     4  11  22  38  60  91 127 164 207 257 311 370
#     4   9  17  32  53  80 117 154 187 237 301 357
#     4  10  20  36  58  85 119 158 198 245 302 365
#     4  10  22  38  57  84 121 159 199 253 307 360
#     4  10  18  30  49  76 110 147 183 227 287 352
#     4  11  22  40  64  90 121 160 207 258 313 367
#
# _framework density 20.416022000000002
#
# number of rings (size 3 to 8) (size 9 to 14) (size 15 to 20)
#    0.000    1.714    2.857    2.143    0.000    4.571 
#    0.000    3.571    0.000    0.000    0.000    0.000 
#    0.000    0.000    0.000    0.000    0.000    0.000 
#
# Total GULP energy -156070.008668 kJ/mol
# GULP energy per Si atom -5573.928881 kJ/mol
# Density = 2.036955 g / cm^3
# Si number density = 20.416022 Si / 1000 Ang^3
#
#
#
# Elastic Constant Matrix: (Units=GPa)
#
#
# Indices 1 2 3 4 5 6 
#
# 1 67.6517 -0.2248 35.9443 0.0000 16.6591 0.0000
# 2 -0.2248 23.1154 13.8089 0.0000 3.8361 0.0000
# 3 35.9443 13.8089 146.1335 0.0000 14.9336 0.0000
# 4 0.0000 0.0000 0.0000 27.1609 0.0000 1.6218
# 5 16.6591 3.8361 14.9336 0.0000 36.9560 0.0000
# 6 0.0000 0.0000 0.0000 1.6218 0.0000 25.1195
#
#
#
# Elastic Compliance Matrix: (Units=1/GPa)
#
#
# Indices 1 2 3 4 5 6 
#
# 1 0.018828 0.003923 -0.004269 0.000000 -0.007170 0.000000
# 2 0.003923 0.047019 -0.004932 0.000000 -0.004656 0.000000
# 3 -0.004269 -0.004932 0.008460 0.000000 -0.000982 0.000000
# 4 0.000000 0.000000 0.000000 0.036960 0.000000 -0.002386
# 5 -0.007170 -0.004656 -0.000982 0.000000 0.031171 0.000000
# 6 0.000000 0.000000 0.000000 -0.002386 0.000000 0.039964
#
#
# Mechanical properties :
#
#
# Convention : Reuss Voigt Hill
#
# Bulk Modulus (GPa) = 15.68620 37.32859 26.50739
# Shear Modulus (GPa) = 23.34176 30.33874 26.84025
#
# Velocity S-wave (km/s) = 3.38495 3.85908 3.62977
# Velocity P-wave (km/s) = 4.79345 6.17903 5.52981
#
# Compressibility (1/GPa) = 0.06375031
#
# Stress axis : x y z
#
# Youngs Moduli (GPa) = 53.11112 21.26817 118.20903
#
# Poissons Ratio (x) = -0.08344 0.50467
# Poissons Ratio (y) = -0.20837 0.58304
# Poissons Ratio (z) = 0.22675 0.10490
#
# Static dielectric constant tensor:
#      x y z
#    x 1.737430 0.000000 0.038450 
#    y 0.000000 1.714240 0.000000 
#    z 0.038450 0.000000 1.795020 
# 
# From -- ./inp_files/38494.got.cif
#   From: 2010.05.17/outbox.cif.g08.bks.cpg/sg11_20_cif.got.tgz:38494.got - 2010.06.03 12:22:45.
