data_PCOD9156333
_publ_section_title
;
Structure prediction by ZEFSAII (Michael W. Deem and Ramdas Pophale) SiO2 
 PCOD9156333
Probable space group: P 21/M
;
_chemical_formula_sum "Si O2"
_cell_formula_units_Z 32
_cell_length_a 16.730866
_cell_length_b 8.956209
_cell_length_c 14.327995
_cell_angle_alpha 90.000000
_cell_angle_beta 94.192798
_cell_angle_gamma 90.000000
_cell_volume 2141.234295
_symmetry_space_group_name_H-M "P 21/M"
_symmetry_group_IT_number 11
_symmetry_cell_setting 'monoclinic'
loop_
_space_group_symop_operation_xyz
x,y,z
-x,1/2+y,-z
-x,-y,-z
x,1/2-y,z
loop_
_atom_site_type_symbol
_atom_site_label
_atom_site_fract_x
_atom_site_fract_y
_atom_site_fract_z
Si Si1 0.399771 0.421502 0.581945
Si Si2 0.239416 0.928445 0.518376
Si Si3 0.081892 0.428535 0.970023
Si Si4 0.020379 0.069904 0.772219
Si Si5 0.937257 0.070372 0.422462
Si Si6 0.440919 0.421719 0.363525
Si Si7 0.278182 0.928421 0.307421
Si Si8 0.854096 0.570341 0.833432
O O1 0.398473 0.250000 0.611713
O O2 0.312315 0.494193 0.578847
O O3 0.422013 0.424682 0.473270
O O4 0.470803 0.509630 0.639171
O O5 0.250459 0.750000 0.525080
O O6 0.152545 0.966382 0.550882
O O7 0.246318 0.968012 0.409061
O O8 0.073828 0.250000 0.972179
O O9 0.083511 0.468181 0.860882
O O10 0.145987 0.467542 0.055511
O O11 0.000000 0.500000 0.000000
O O12 0.014321 0.250000 0.763292
O O13 0.934098 0.004138 0.796240
O O14 0.045941 0.997515 0.677513
O O15 0.945554 0.250000 0.421746
O O16 0.000000 0.000000 0.500000
O O17 0.438272 0.250000 0.333016
O O18 0.369725 0.515742 0.311143
O O19 0.274116 0.750000 0.297389
O O20 0.221980 0.007297 0.227420
O O21 0.858967 0.750000 0.823800
#
# Coordination Sequence:
#
# PCOD9156333 Si02
#       8
#     4   4   4   4   4   4   4   4
#     4   9  16  26  42  61  80 106 142 179 212 249
#     4   9  19  32  43  57  82 115 148 180 214 252
#     4   8  16  29  45  63  83 108 140 178 219 263
#     4  10  19  32  47  63  85 114 147 184 223 259
#     4  11  22  34  47  64  87 117 152 187 221 257
#     4   9  16  26  40  59  84 113 141 171 210 255
#     4  10  18  28  42  62  88 116 145 178 216 257
#     4  10  18  29  45  65  87 113 145 179 219 266
#
# _framework density 14.944651
#
# number of rings (size 3 to 8) (size 9 to 14) (size 15 to 20)
#    0.000    2.500    0.000    3.000    0.000    6.500 
#    0.000    0.000    0.000    0.000    0.000    0.000 
#    0.000    1.000    0.000    3.000    0.000    4.625 
#
# Total GULP energy -178262.401640 kJ/mol
# GULP energy per Si atom -5570.700051 kJ/mol
# Density = 1.491064 g / cm^3
# Si number density = 14.944651 Si / 1000 Ang^3
#
#
#
# Elastic Constant Matrix: (Units=GPa)
#
#
# Indices 1 2 3 4 5 6 
#
# 1 108.0742 50.8824 55.6919 0.0000 18.4835 0.0000
# 2 50.8824 61.0944 42.5646 0.0000 10.3370 0.0000
# 3 55.6919 42.5646 101.4026 0.0000 17.4980 0.0000
# 4 0.0000 0.0000 0.0000 18.5109 0.0000 4.7205
# 5 18.4835 10.3370 17.4980 0.0000 18.4727 0.0000
# 6 0.0000 0.0000 0.0000 4.7205 0.0000 27.6873
#
#
#
# Elastic Compliance Matrix: (Units=1/GPa)
#
#
# Indices 1 2 3 4 5 6 
#
# 1 0.017606 -0.010645 -0.003812 0.000000 -0.008048 0.000000
# 2 -0.010645 0.029884 -0.006754 0.000000 0.000326 0.000000
# 3 -0.003812 -0.006754 0.016114 0.000000 -0.007670 0.000000
# 4 0.000000 0.000000 0.000000 0.056478 0.000000 -0.009629
# 5 -0.008048 0.000326 -0.007670 0.000000 0.069270 0.000000
# 6 0.000000 0.000000 0.000000 -0.009629 0.000000 0.037759
#
#
# Mechanical properties :
#
#
# Convention : Reuss Voigt Hill
#
# Bulk Modulus (GPa) = 47.21157 63.20543 55.20850
# Shear Modulus (GPa) = 18.07709 21.02968 19.55339
#
# Velocity S-wave (km/s) = 3.48171 3.75530 3.62109
# Velocity P-wave (km/s) = 6.91539 7.82227 7.38276
#
# Compressibility (1/GPa) = 0.02118125
#
# Stress axis : x y z
#
# Youngs Moduli (GPa) = 56.80004 33.46249 62.05828
#
# Poissons Ratio (x) = 0.35622 0.23657
# Poissons Ratio (y) = 0.60465 0.41914
# Poissons Ratio (z) = 0.21653 0.22600
#
# Static dielectric constant tensor:
#      x y z
#    x 1.478610 0.000000 0.016990 
#    y 0.000000 1.501290 0.000000 
#    z 0.016990 0.000000 1.499210 
# 
# From -- ./inp_files/51333.got.cif
#   From: 2010.05.17/outbox.cif.g08.bks.cpg/sg11_26_cif.got.tgz:51333.got - 2010.06.03 12:22:45.
