data_PCOD9156291
_publ_section_title
;
Structure prediction by ZEFSAII (Michael W. Deem and Ramdas Pophale) SiO2 
 PCOD9156291
Probable space group: P 21/M
;
_chemical_formula_sum "Si O2"
_cell_formula_units_Z 32
_cell_length_a 13.653151
_cell_length_b 10.224726
_cell_length_c 15.490720
_cell_angle_alpha 90.000000
_cell_angle_beta 116.276797
_cell_angle_gamma 90.000000
_cell_volume 1939.040032
_symmetry_space_group_name_H-M "P 21/M"
_symmetry_group_IT_number 11
_symmetry_cell_setting 'monoclinic'
loop_
_space_group_symop_operation_xyz
x,y,z
-x,1/2+y,-z
-x,-y,-z
x,1/2-y,z
loop_
_atom_site_type_symbol
_atom_site_label
_atom_site_fract_x
_atom_site_fract_y
_atom_site_fract_z
Si Si1 0.915973 0.596375 0.515370
Si Si2 0.926878 0.599852 0.723690
Si Si3 0.258662 0.404073 0.690861
Si Si4 0.177916 0.892856 0.796385
Si Si5 0.664347 0.529897 0.025232
Si Si6 0.143489 0.391693 0.016180
Si Si7 0.107148 0.598255 0.143603
Si Si8 0.471959 0.397846 0.861048
O O1 0.947645 0.750000 0.515786
O O2 0.912161 0.572626 0.616112
O O3 0.798716 0.578920 0.423427
O O4 0.000000 0.500000 0.500000
O O5 0.890245 0.750000 0.726268
O O6 0.876266 0.488829 0.764379
O O7 0.058025 0.598035 0.790147
O O8 0.250224 0.250000 0.710353
O O9 0.193381 0.492577 0.733421
O O10 0.385754 0.439622 0.753913
O O11 0.186036 0.750000 0.757533
O O12 0.273306 0.909897 0.903665
O O13 0.575340 0.487466 0.920382
O O14 0.762857 0.605621 0.019192
O O15 0.599128 0.598520 0.077719
O O16 0.147444 0.250000 0.063672
O O17 0.023128 0.400498 0.927713
O O18 0.158091 0.514673 0.085073
O O19 0.142084 0.750000 0.162723
O O20 0.507618 0.250000 0.858273
#
# Coordination Sequence:
#
# PCOD9156291 Si02
#       8
#     4   4   4   4   4   4   4   4
#     4  10  19  30  46  68  93 125 163 198 239 289
#     4  10  19  31  45  66  97 128 158 194 237 286
#     4   9  18  31  45  64  93 126 160 200 238 278
#     4  10  18  27  43  66  94 127 160 193 232 277
#     4  10  18  30  47  69  96 132 165 195 234 282
#     4  10  20  34  51  70  97 130 163 199 238 284
#     4  10  21  34  49  72  97 127 164 200 239 284
#     4   9  18  30  45  68  98 129 164 198 233 279
#
# _framework density 16.503011999999998
#
# number of rings (size 3 to 8) (size 9 to 14) (size 15 to 20)
#    0.000    2.250    2.500    1.125    0.000    3.000 
#    0.000    0.625    0.000    0.000    0.000    0.875 
#    0.000    0.000    0.000    0.000    0.000    0.000 
#
# Total GULP energy -178182.212334 kJ/mol
# GULP energy per Si atom -5568.194135 kJ/mol
# Density = 1.646545 g / cm^3
# Si number density = 16.503012 Si / 1000 Ang^3
#
#
#
# Elastic Constant Matrix: (Units=GPa)
#
#
# Indices 1 2 3 4 5 6 
#
# 1 29.6217 6.7598 4.0528 0.0000 1.3243 0.0000
# 2 6.7598 86.1741 30.1192 0.0000 -11.1021 0.0000
# 3 4.0528 30.1192 70.9922 0.0000 6.3077 0.0000
# 4 0.0000 0.0000 0.0000 22.5840 0.0000 -3.5020
# 5 1.3243 -11.1021 6.3077 0.0000 24.2912 0.0000
# 6 0.0000 0.0000 0.0000 -3.5020 0.0000 6.7817
#
#
#
# Elastic Compliance Matrix: (Units=1/GPa)
#
#
# Indices 1 2 3 4 5 6 
#
# 1 0.034636 -0.002966 -0.000441 0.000000 -0.003129 0.000000
# 2 -0.002966 0.015545 -0.007239 0.000000 0.009146 0.000000
# 3 -0.000441 -0.007239 0.017887 0.000000 -0.007929 0.000000
# 4 0.000000 0.000000 0.000000 0.048133 0.000000 0.024855
# 5 -0.003129 0.009146 -0.007929 0.000000 0.047577 0.000000
# 6 0.000000 0.000000 0.000000 0.024855 0.000000 0.160289
#
#
# Mechanical properties :
#
#
# Convention : Reuss Voigt Hill
#
# Bulk Modulus (GPa) = 21.37793 29.85019 25.61406
# Shear Modulus (GPa) = 13.85227 20.45513 17.15370
#
# Velocity S-wave (km/s) = 2.90035 3.52444 3.22751
# Velocity P-wave (km/s) = 4.91915 5.88976 5.42620
#
# Compressibility (1/GPa) = 0.04677722
#
# Stress axis : x y z
#
# Youngs Moduli (GPa) = 28.87156 64.32745 55.90714
#
# Poissons Ratio (x) = 0.19080 0.02465
# Poissons Ratio (y) = 0.08564 0.40469
# Poissons Ratio (z) = 0.01273 0.46564
#
# Static dielectric constant tensor:
#      x y z
#    x 1.538190 0.000000 0.011730 
#    y 0.000000 1.589180 0.000000 
#    z 0.011730 0.000000 1.573010 
# 
# From -- ./inp_files/52031.got.cif
#   From: 2010.05.17/outbox.cif.g08.bks.cpg/sg11_27_cif.got.tgz:52031.got - 2010.06.03 12:22:45.
