data_PCOD9156033
_publ_section_title
;
Structure prediction by ZEFSAII (Michael W. Deem and Ramdas Pophale) SiO2 
 PCOD9156033
Probable space group: P 21/M
;
_chemical_formula_sum "Si O2"
_cell_formula_units_Z 24
_cell_length_a 8.027566
_cell_length_b 16.371482
_cell_length_c 9.674912
_cell_angle_alpha 90.000000
_cell_angle_beta 58.493662
_cell_angle_gamma 90.000000
_cell_volume 1084.064809
_symmetry_space_group_name_H-M "P 21/M"
_symmetry_group_IT_number 11
_symmetry_cell_setting 'monoclinic'
loop_
_space_group_symop_operation_xyz
x,y,z
-x,1/2+y,-z
-x,-y,-z
x,1/2-y,z
loop_
_atom_site_type_symbol
_atom_site_label
_atom_site_fract_x
_atom_site_fract_y
_atom_site_fract_z
Si Si1 0.862473 0.344594 0.803394
Si Si2 0.374770 0.580381 0.642231
Si Si3 0.729618 0.912342 0.292193
Si Si4 0.529493 0.750000 0.274407
Si Si5 0.092883 0.587158 0.495461
Si Si6 0.543251 0.250000 0.023079
Si Si7 0.262595 0.750000 0.668253
Si Si8 0.885370 0.750000 0.678757
O O1 0.935038 0.250000 0.749411
O O2 0.680246 0.329497 0.981977
O O3 0.043538 0.397566 0.777186
O O4 0.792661 0.383915 0.690206
O O5 0.319183 0.500459 0.752656
O O6 0.595999 0.580754 0.489275
O O7 0.334786 0.670151 0.713323
O O8 0.228729 0.579075 0.571016
O O9 0.651043 0.832176 0.251108
O O10 0.481560 0.750000 0.133915
O O11 0.359622 0.750000 0.469021
O O12 0.943482 0.663569 0.582155
O O13 0.000000 0.500000 0.500000
O O14 0.339250 0.250000 0.185404
O O15 0.030871 0.750000 0.748177
#
# Coordination Sequence:
#
# PCOD9156033 Si02
#       8
#     4   4   4   2   4   2   2   2
#     4  10  19  33  54  81 107 148 187 231 284 335
#     4   9  18  28  49  84 113 133 180 233 284 321
#     4  10  17  29  51  83 109 138 182 235 275 334
#     4  10  17  32  55  80 103 146 188 224 286 344
#     4  11  19  34  60  86 112 143 187 242 286 329
#     4  10  21  35  56  75 110 155 193 224 278 346
#     4   8  16  31  53  71 101 139 181 232 275 320
#     4  10  20  36  54  84 114 142 184 234 279 336
#
# _framework density 22.138898000000001
#
# number of rings (size 3 to 8) (size 9 to 14) (size 15 to 20)
#    0.500    1.667    3.333    3.000    0.000    0.000 
#    0.000    0.833    0.000   16.000    0.000    0.000 
#    0.000    0.000    0.000    0.000    0.000    0.000 
#
# Total GULP energy -133768.296243 kJ/mol
# GULP energy per Si atom -5573.679010 kJ/mol
# Density = 2.208851 g / cm^3
# Si number density = 22.138898 Si / 1000 Ang^3
#
#
#
# Elastic Constant Matrix: (Units=GPa)
#
#
# Indices 1 2 3 4 5 6 
#
# 1 66.8448 27.2748 51.9403 0.0000 -17.1989 0.0000
# 2 27.2748 198.9148 33.8173 0.0000 -12.5632 0.0000
# 3 51.9403 33.8173 79.3396 0.0000 -17.2611 0.0000
# 4 0.0000 0.0000 0.0000 1.3272 0.0000 -11.2293
# 5 -17.1989 -12.5632 -17.2611 0.0000 41.3173 0.0000
# 6 0.0000 0.0000 0.0000 -11.2293 0.0000 35.5577
#
#
#
# Elastic Compliance Matrix: (Units=1/GPa)
#
#
# Indices 1 2 3 4 5 6 
#
# 1 0.031433 -0.000739 -0.019211 0.000000 0.004834 0.000000
# 2 -0.000739 0.005459 -0.001704 0.000000 0.000641 0.000000
# 3 -0.019211 -0.001704 0.026459 0.000000 0.002539 0.000000
# 4 0.000000 0.000000 0.000000 -0.450627 0.000000 -0.142311
# 5 0.004834 0.000641 0.002539 0.000000 0.027471 0.000000
# 6 0.000000 0.000000 0.000000 -0.142311 0.000000 -0.016819
#
#
# Mechanical properties :
#
#
# Convention : Reuss Voigt Hill
#
# Bulk Modulus (GPa) = 49.89118 63.46267 56.67692
# Shear Modulus (GPa) = -15.30755 31.11154 7.90199
#
# Velocity S-wave (km/s) = -2.63236 3.75278 1.89130
# Velocity P-wave (km/s) = 3.65313 6.89244 5.51594
#
# Compressibility (1/GPa) = 0.02004362
#
# Stress axis : x y z
#
# Youngs Moduli (GPa) = 31.81376 183.19487 37.79363
#
# Poissons Ratio (x) = 0.13531 0.72607
# Poissons Ratio (y) = 0.02350 0.06439
# Poissons Ratio (z) = 0.61118 0.31212
#
# Static dielectric constant tensor:
#      x y z
#    x 1.859520 0.000000 0.004160 
#    y 0.000000 1.918650 0.000000 
#    z 0.004160 0.000000 1.797000 
# 
# From -- ./inp_files/32198.got.cif
#   From: 2010.05.17/outbox.cif.g08.bks.cpg/sg11_17_cif.got.tgz:32198.got - 2010.06.03 12:22:45.
