data_PCOD9156351
_publ_section_title
;
Structure prediction by ZEFSAII (Michael W. Deem and Ramdas Pophale) SiO2 
 PCOD9156351
Probable space group: P 21/M
;
_chemical_formula_sum "Si O2"
_cell_formula_units_Z 32
_cell_length_a 14.848420
_cell_length_b 9.264866
_cell_length_c 14.368952
_cell_angle_alpha 90.000000
_cell_angle_beta 91.599809
_cell_angle_gamma 90.000000
_cell_volume 1975.946412
_symmetry_space_group_name_H-M "P 21/M"
_symmetry_group_IT_number 11
_symmetry_cell_setting 'monoclinic'
loop_
_space_group_symop_operation_xyz
x,y,z
-x,1/2+y,-z
-x,-y,-z
x,1/2-y,z
loop_
_atom_site_type_symbol
_atom_site_label
_atom_site_fract_x
_atom_site_fract_y
_atom_site_fract_z
Si Si1 0.095914 0.577044 0.519556
Si Si2 0.876241 0.415440 0.962544
Si Si3 0.237275 0.079100 0.889736
Si Si4 0.302225 0.585890 0.174041
Si Si5 0.827483 0.422312 0.676302
Si Si6 0.164380 0.582402 0.722460
Si Si7 0.408817 0.079093 0.025580
Si Si8 0.031385 0.416824 0.189469
O O1 0.079593 0.750000 0.526136
O O2 0.159687 0.550999 0.432390
O O3 0.143208 0.531814 0.617129
O O4 0.000000 0.500000 0.500000
O O5 0.899842 0.250000 0.987105
O O6 0.789831 0.411873 0.889963
O O7 0.952202 0.495576 0.904878
O O8 0.838424 0.502243 0.048971
O O9 0.221437 0.250000 0.886704
O O10 0.231064 0.011513 0.787101
O O11 0.331635 0.052340 0.945330
O O12 0.337451 0.750000 0.176883
O O13 0.266913 0.543126 0.275474
O O14 0.369721 0.482992 0.121328
O O15 0.842228 0.250000 0.692477
O O16 0.903960 0.511799 0.731721
O O17 0.193516 0.750000 0.720788
O O18 0.068360 0.577092 0.772535
O O19 0.422446 0.250000 0.032647
O O20 0.500000 0.000000 0.000000
O O21 0.056787 0.250000 0.175221
#
# Coordination Sequence:
#
# PCOD9156351 Si02
#       8
#     4   4   4   4   4   4   4   4
#     4  10  19  32  48  69  95 129 175 218 252 286
#     4   9  17  30  47  65  90 126 163 198 240 285
#     4  10  21  35  50  70  95 124 159 197 237 288
#     4   8  15  28  46  71  98 125 155 191 236 286
#     4   9  17  29  47  68  95 130 168 209 250 285
#     4  10  21  33  45  65  95 131 168 206 248 288
#     4  10  20  34  54  79 101 123 150 186 234 293
#     4  10  18  28  43  65  92 125 167 208 243 281
#
# _framework density 16.194770999999999
#
# number of rings (size 3 to 8) (size 9 to 14) (size 15 to 20)
#    0.000    2.500    1.250    2.250    0.000    6.500 
#    0.000    0.000    0.000    0.000    0.000    0.875 
#    0.000    0.000    0.000    0.000    0.000    0.000 
#
# Total GULP energy -178442.278289 kJ/mol
# GULP energy per Si atom -5576.321197 kJ/mol
# Density = 1.615791 g / cm^3
# Si number density = 16.194771 Si / 1000 Ang^3
#
#
#
# Elastic Constant Matrix: (Units=GPa)
#
#
# Indices 1 2 3 4 5 6 
#
# 1 61.0436 47.9217 43.2770 0.0000 -14.8954 0.0000
# 2 47.9217 80.5896 57.4551 0.0000 -3.6432 0.0000
# 3 43.2770 57.4551 138.0029 0.0000 -7.6447 0.0000
# 4 0.0000 0.0000 0.0000 23.5308 0.0000 -1.5081
# 5 -14.8954 -3.6432 -7.6447 0.0000 16.8007 0.0000
# 6 0.0000 0.0000 0.0000 -1.5081 0.0000 21.9711
#
#
#
# Elastic Compliance Matrix: (Units=1/GPa)
#
#
# Indices 1 2 3 4 5 6 
#
# 1 0.044406 -0.023163 -0.002441 0.000000 0.033237 0.000000
# 2 -0.023163 0.029732 -0.006048 0.000000 -0.016840 0.000000
# 3 -0.002441 -0.006048 0.010604 0.000000 0.001350 0.000000
# 4 0.000000 0.000000 0.000000 0.042685 0.000000 0.002930
# 5 0.033237 -0.016840 0.001350 0.000000 0.085951 0.000000
# 6 0.000000 0.000000 0.000000 0.002930 0.000000 0.045715
#
#
# Mechanical properties :
#
#
# Convention : Reuss Voigt Hill
#
# Bulk Modulus (GPa) = 46.64202 64.10487 55.37344
# Shear Modulus (GPa) = 15.17246 21.19267 18.18256
#
# Velocity S-wave (km/s) = 3.06416 3.62140 3.35437
# Velocity P-wave (km/s) = 6.43288 7.56014 7.01917
#
# Compressibility (1/GPa) = 0.02143989
#
# Stress axis : x y z
#
# Youngs Moduli (GPa) = 22.51932 33.63336 94.30134
#
# Poissons Ratio (x) = 0.77905 0.23019
# Poissons Ratio (y) = 0.52161 0.57030
# Poissons Ratio (z) = 0.05497 0.20340
#
# Static dielectric constant tensor:
#      x y z
#    x 1.524710 0.000000 0.001940 
#    y 0.000000 1.551340 0.000000 
#    z 0.001940 0.000000 1.574950 
# 
# From -- ./inp_files/51354.got.cif
#   From: 2010.05.17/outbox.cif.g08.bks.cpg/sg11_26_cif.got.tgz:51354.got - 2010.06.03 12:22:45.
