data_PCOD9156987
_publ_section_title
;
Structure prediction by ZEFSAII (Michael W. Deem and Ramdas Pophale) SiO2 
 PCOD9156987
Probable space group: P 21/M
;
_chemical_formula_sum "Si O2"
_cell_formula_units_Z 32
_cell_length_a 28.318696
_cell_length_b 7.566532
_cell_length_c 21.950408
_cell_angle_alpha 90.000000
_cell_angle_beta 161.018501
_cell_angle_gamma 90.000000
_cell_volume 1529.844019
_symmetry_space_group_name_H-M "P 21/M"
_symmetry_group_IT_number 11
_symmetry_cell_setting 'monoclinic'
loop_
_space_group_symop_operation_xyz
x,y,z
-x,1/2+y,-z
-x,-y,-z
x,1/2-y,z
loop_
_atom_site_type_symbol
_atom_site_label
_atom_site_fract_x
_atom_site_fract_y
_atom_site_fract_z
Si Si1 0.941605 0.460537 0.020059
Si Si2 0.082065 0.533193 0.420458
Si Si3 0.841088 0.960670 0.032676
Si Si4 0.772024 0.459340 0.694805
Si Si5 0.086184 0.038950 0.665846
Si Si6 0.412939 0.033726 0.074327
Si Si7 0.458710 0.033333 0.269596
Si Si8 0.586954 0.462303 0.168472
O O1 0.943570 0.250000 0.017962
O O2 0.847327 0.532271 0.848016
O O3 0.869929 0.507292 0.996823
O O4 0.108328 0.518442 0.212623
O O5 0.085932 0.750000 0.423842
O O6 0.247572 0.472666 0.627306
O O7 0.981883 0.474563 0.241940
O O8 0.999024 0.473662 0.379520
O O9 0.836648 0.750000 0.036484
O O10 0.687459 0.025852 0.873169
O O11 0.754350 0.250000 0.682331
O O12 0.611458 0.528155 0.484420
O O13 0.096073 0.250000 0.684767
O O14 0.249342 0.972400 0.863179
O O15 0.000000 0.000000 0.500000
O O16 0.416498 0.250000 0.078257
O O17 0.455381 0.980890 0.194478
O O18 0.508014 0.973059 0.133352
O O19 0.457920 0.250000 0.269826
O O20 0.592196 0.250000 0.178603
O O21 0.500000 0.500000 0.000000
#
# Coordination Sequence:
#
# PCOD9156987 Si02
#       8
#     4   4   4   4   4   4   4   4
#     4  10  21  36  53  81 116 143 173 217 265 316
#     4   9  18  32  51  75 100 130 173 216 253 304
#     4  10  19  34  57  82 106 139 182 223 262 312
#     4   9  19  36  59  82 106 142 183 217 258 313
#     4  10  18  31  50  72  98 129 165 208 255 304
#     4   9  17  30  50  75  99 126 168 218 257 295
#     4   9  17  32  56  83 105 132 181 230 258 301
#     4  10  20  33  50  73 100 131 169 215 263 310
#
# _framework density 20.917164
#
# number of rings (size 3 to 8) (size 9 to 14) (size 15 to 20)
#    0.000    2.500    1.250    1.125    1.750    1.000 
#    0.000    1.875    0.000    1.500    0.000    0.000 
#    0.000    0.000    0.000    0.000    0.000    0.000 
#
# Total GULP energy -178592.568203 kJ/mol
# GULP energy per Si atom -5581.017756 kJ/mol
# Density = 2.086956 g / cm^3
# Si number density = 20.917164 Si / 1000 Ang^3
#
#
#
# Elastic Constant Matrix: (Units=GPa)
#
#
# Indices 1 2 3 4 5 6 
#
# 1 222.5983 -4.6194 144.4368 0.0000 24.7342 0.0000
# 2 -4.6194 45.2212 6.2685 0.0000 1.8998 0.0000
# 3 144.4368 6.2685 245.6509 0.0000 27.6482 0.0000
# 4 0.0000 0.0000 0.0000 9.5751 0.0000 -8.8196
# 5 24.7342 1.8998 27.6482 0.0000 36.6887 0.0000
# 6 0.0000 0.0000 0.0000 -8.8196 0.0000 10.2803
#
#
#
# Elastic Compliance Matrix: (Units=1/GPa)
#
#
# Indices 1 2 3 4 5 6 
#
# 1 0.007469 0.001428 -0.004210 0.000000 -0.001937 0.000000
# 2 0.001428 0.022486 -0.001283 0.000000 -0.001160 0.000000
# 3 -0.004210 -0.001283 0.006831 0.000000 -0.002243 0.000000
# 4 0.000000 0.000000 0.000000 0.497868 0.000000 0.427129
# 5 -0.001937 -0.001160 -0.002243 0.000000 0.030313 0.000000
# 6 0.000000 0.000000 0.000000 0.427129 0.000000 0.463715
#
#
# Mechanical properties :
#
#
# Convention : Reuss Voigt Hill
#
# Bulk Modulus (GPa) = 34.89602 89.51581 62.20591
# Shear Modulus (GPa) = 4.77845 35.80112 20.28979
#
# Velocity S-wave (km/s) = 1.51308 4.14160 3.11787
# Velocity P-wave (km/s) = 4.44654 8.10918 6.53951
#
# Compressibility (1/GPa) = 0.02865656
#
# Stress axis : x y z
#
# Youngs Moduli (GPa) = 133.88708 44.47220 146.38158
#
# Poissons Ratio (x) = -0.06350 0.61627
# Poissons Ratio (y) = -0.19118 0.18778
# Poissons Ratio (z) = 0.56367 0.05705
#
# Static dielectric constant tensor:
#      x y z
#    x 1.720700 0.000000 0.014710 
#    y 0.000000 1.829900 0.000000 
#    z 0.014710 0.000000 1.739570 
# 
# From -- ./inp_files/67268.got.cif
#   From: 2010.05.17/outbox.cif.g08.bks.cpg/sg11_34_cif.got.tgz:67268.got - 2010.06.03 12:22:45.
