data_PCOD9156476
_publ_section_title
;
Structure prediction by ZEFSAII (Michael W. Deem and Ramdas Pophale) SiO2 
 PCOD9156476
Probable space group: P 21/M
;
_chemical_formula_sum "Si O2"
_cell_formula_units_Z 22
_cell_length_a 6.663983
_cell_length_b 17.814990
_cell_length_c 10.176151
_cell_angle_alpha 90.000000
_cell_angle_beta 133.301213
_cell_angle_gamma 90.000000
_cell_volume 879.204974
_symmetry_space_group_name_H-M "P 21/M"
_symmetry_group_IT_number 11
_symmetry_cell_setting 'monoclinic'
loop_
_space_group_symop_operation_xyz
x,y,z
-x,1/2+y,-z
-x,-y,-z
x,1/2-y,z
loop_
_atom_site_type_symbol
_atom_site_label
_atom_site_fract_x
_atom_site_fract_y
_atom_site_fract_z
Si Si1 0.468996 0.906764 0.417318
Si Si2 0.147913 0.581432 0.549625
Si Si3 0.771526 0.250000 0.740445
Si Si4 0.873684 0.750000 0.846524
Si Si5 0.352399 0.017952 0.121423
Si Si6 0.818757 0.250000 0.464473
Si Si7 0.002784 0.590120 0.830649
O O1 0.265379 0.916076 0.451818
O O2 0.417017 0.823902 0.339442
O O3 0.419633 0.961055 0.272509
O O4 0.767671 0.921886 0.615712
O O5 0.388710 0.572370 0.764957
O O6 0.065449 0.669425 0.533873
O O7 0.000000 0.500000 0.500000
O O8 0.899183 0.250000 0.653262
O O9 0.011464 0.250000 0.954514
O O10 0.530691 0.750000 0.690543
O O11 0.016787 0.678888 0.841471
O O12 0.122225 0.071856 0.079604
O O13 0.248027 0.969990 0.952268
#
# Coordination Sequence:
#
# PCOD9156476 Si02
#       7
#     4   4   2   2   4   2   4
#     4  10  18  34  54  80 114 141 183 232 281 327
#     4  10  20  36  58  81 110 154 191 226 281 335
#     4  10  18  28  53  83 107 141 185 221 280 333
#     4  12  16  30  53  81 113 139 185 234 272 335
#     4  10  19  32  53  82 111 139 182 224 282 331
#     4  10  20  38  54  76 112 150 188 231 270 340
#     4  10  18  28  51  78 111 134 174 230 276 316
#
# _framework density 25.022606
#
# number of rings (size 3 to 8) (size 9 to 14) (size 15 to 20)
#    0.000    1.818    7.273    2.182    0.000    0.000 
#    0.000    1.818    0.000   41.455    0.000    0.000 
#    0.000    0.000    0.000    0.000    0.000    0.000 
#
# Total GULP energy -122549.029407 kJ/mol
# GULP energy per Si atom -5570.410428 kJ/mol
# Density = 2.496565 g / cm^3
# Si number density = 25.022606 Si / 1000 Ang^3
#
#
#
# Elastic Constant Matrix: (Units=GPa)
#
#
# Indices 1 2 3 4 5 6 
#
# 1 46.6300 3.9893 6.5828 0.0000 -8.0362 0.0000
# 2 3.9893 205.8782 6.5114 0.0000 4.9372 0.0000
# 3 6.5828 6.5114 126.3796 0.0000 -5.4802 0.0000
# 4 0.0000 0.0000 0.0000 41.7513 0.0000 5.5028
# 5 -8.0362 4.9372 -5.4802 0.0000 38.6908 0.0000
# 6 0.0000 0.0000 0.0000 5.5028 0.0000 18.4610
#
#
#
# Elastic Compliance Matrix: (Units=1/GPa)
#
#
# Indices 1 2 3 4 5 6 
#
# 1 0.022413 -0.000515 -0.000942 0.000000 0.004587 0.000000
# 2 -0.000515 0.004894 -0.000259 0.000000 -0.000768 0.000000
# 3 -0.000942 -0.000259 0.008017 0.000000 0.000973 0.000000
# 4 0.000000 0.000000 0.000000 0.024931 0.000000 -0.007431
# 5 0.004587 -0.000768 0.000973 0.000000 0.027035 0.000000
# 6 0.000000 0.000000 0.000000 -0.007431 0.000000 0.056383
#
#
# Mechanical properties :
#
#
# Convention : Reuss Voigt Hill
#
# Bulk Modulus (GPa) = 31.35409 45.89498 38.62454
# Shear Modulus (GPa) = 31.69889 43.90092 37.79990
#
# Velocity S-wave (km/s) = 3.56309 4.19316 3.89090
# Velocity P-wave (km/s) = 5.43001 6.46720 5.97117
#
# Compressibility (1/GPa) = 0.03189376
#
# Stress axis : x y z
#
# Youngs Moduli (GPa) = 44.61688 204.33985 124.73099
#
# Poissons Ratio (x) = 0.10514 0.11750
# Poissons Ratio (y) = 0.02296 0.03226
# Poissons Ratio (z) = 0.04203 0.05285
#
# Static dielectric constant tensor:
#      x y z
#    x 2.214790 0.000000 0.132010 
#    y 0.000000 2.082850 0.000000 
#    z 0.132010 0.000000 2.018250 
# 
# From -- ./inp_files/32324.got.cif
#   From: 2010.05.17/outbox.cif.g08.bks.cpg/sg11_17_cif.got.tgz:32324.got - 2010.06.03 12:22:45.
