data_PCOD9156308
_publ_section_title
;
Structure prediction by ZEFSAII (Michael W. Deem and Ramdas Pophale) SiO2 
 PCOD9156308
Probable space group: P 21/M
;
_chemical_formula_sum "Si O2"
_cell_formula_units_Z 28
_cell_length_a 12.038160
_cell_length_b 18.857487
_cell_length_c 19.560461
_cell_angle_alpha 90.000000
_cell_angle_beta 162.034773
_cell_angle_gamma 90.000000
_cell_volume 1369.598715
_symmetry_space_group_name_H-M "P 21/M"
_symmetry_group_IT_number 11
_symmetry_cell_setting 'monoclinic'
loop_
_space_group_symop_operation_xyz
x,y,z
-x,1/2+y,-z
-x,-y,-z
x,1/2-y,z
loop_
_atom_site_type_symbol
_atom_site_label
_atom_site_fract_x
_atom_site_fract_y
_atom_site_fract_z
Si Si1 0.834264 0.936399 0.822268
Si Si2 0.114259 0.558273 0.658486
Si Si3 0.207625 0.332214 0.774060
Si Si4 0.719967 0.044181 0.036055
Si Si5 0.377550 0.071892 0.513027
Si Si6 0.628503 0.166790 0.543747
Si Si7 0.675726 0.414497 0.364856
O O1 0.647334 0.874599 0.667716
O O2 0.724857 0.918874 0.836378
O O3 0.218024 0.946584 0.009911
O O4 0.635416 0.010227 0.690117
O O5 0.266158 0.597660 0.681121
O O6 0.865902 0.599417 0.566716
O O7 0.871003 0.490014 0.494343
O O8 0.454928 0.520806 0.893422
O O9 0.297278 0.250000 0.817462
O O10 0.016957 0.342165 0.735825
O O11 0.905857 0.357582 0.542721
O O12 0.540105 0.383966 0.957444
O O13 0.094559 0.035241 0.294658
O O14 0.585881 0.130791 0.592229
O O15 0.546643 0.250000 0.497732
#
# Coordination Sequence:
#
# PCOD9156308 Si02
#       7
#     4   4   4   4   4   4   4
#     4   9  18  31  49  70  97 128 160 194 238 285
#     4   9  17  29  47  69  96 123 156 197 231 273
#     4   9  18  32  50  69  91 121 157 201 243 282
#     4  10  18  27  46  74  99 123 155 199 242 278
#     4  10  19  31  47  71 101 132 159 190 239 290
#     4   9  17  30  46  65  91 122 157 194 235 283
#     4   8  16  32  48  67  91 123 160 191 232 280
#
# _framework density 20.443943999999998
#
# number of rings (size 3 to 8) (size 9 to 14) (size 15 to 20)
#    0.000    2.857    0.000    3.000    0.000    4.000 
#    0.000    0.714    0.000    0.000    0.000    4.000 
#    0.000    0.000    0.000    0.000    0.000    0.000 
#
# Total GULP energy -156162.037427 kJ/mol
# GULP energy per Si atom -5577.215622 kJ/mol
# Density = 2.039741 g / cm^3
# Si number density = 20.443944 Si / 1000 Ang^3
#
#
#
# Elastic Constant Matrix: (Units=GPa)
#
#
# Indices 1 2 3 4 5 6 
#
# 1 164.9122 49.3217 13.0201 0.0000 35.4699 0.0000
# 2 49.3217 86.9579 21.3286 0.0000 16.8041 0.0000
# 3 13.0201 21.3286 38.4925 0.0000 12.6552 0.0000
# 4 0.0000 0.0000 0.0000 14.0773 0.0000 9.9225
# 5 35.4699 16.8041 12.6552 0.0000 29.9336 0.0000
# 6 0.0000 0.0000 0.0000 9.9225 0.0000 21.3867
#
#
#
# Elastic Compliance Matrix: (Units=1/GPa)
#
#
# Indices 1 2 3 4 5 6 
#
# 1 0.009095 -0.003853 0.002196 0.000000 -0.009543 0.000000
# 2 -0.003853 0.015634 -0.006940 0.000000 -0.001277 0.000000
# 3 0.002196 -0.006940 0.033282 0.000000 -0.012777 0.000000
# 4 0.000000 0.000000 0.000000 0.105556 0.000000 -0.048974
# 5 -0.009543 -0.001277 -0.012777 0.000000 0.050834 0.000000
# 6 0.000000 0.000000 0.000000 -0.048974 0.000000 0.069480
#
#
# Mechanical properties :
#
#
# Convention : Reuss Voigt Hill
#
# Bulk Modulus (GPa) = 24.49904 50.85595 37.67750
# Shear Modulus (GPa) = 15.88906 26.85900 21.37403
#
# Velocity S-wave (km/s) = 2.79086 3.62855 3.23692
# Velocity P-wave (km/s) = 4.73231 6.51805 5.69560
#
# Compressibility (1/GPa) = 0.04081792
#
# Stress axis : x y z
#
# Youngs Moduli (GPa) = 109.94550 63.96201 30.04589
#
# Poissons Ratio (x) = 0.24647 -0.06598
# Poissons Ratio (y) = 0.42366 0.20851
# Poissons Ratio (z) = -0.24144 0.44388
#
# Static dielectric constant tensor:
#      x y z
#    x 1.841300 0.000000 0.015550 
#    y 0.000000 1.664640 0.000000 
#    z 0.015550 0.000000 1.776520 
# 
# From -- ./inp_files/64889.got.cif
#   From: 2010.05.17/outbox.cif.g08.bks.cpg/sg11_33_cif.got.tgz:64889.got - 2010.06.03 12:22:45.
