data_PCOD9156907
_publ_section_title
;
Structure prediction by ZEFSAII (Michael W. Deem and Ramdas Pophale) SiO2 
 PCOD9156907
Probable space group: P 21/M
;
_chemical_formula_sum "Si O2"
_cell_formula_units_Z 28
_cell_length_a 10.015710
_cell_length_b 16.431151
_cell_length_c 7.345805
_cell_angle_alpha 90.000000
_cell_angle_beta 71.492422
_cell_angle_gamma 90.000000
_cell_volume 1146.374413
_symmetry_space_group_name_H-M "P 21/M"
_symmetry_group_IT_number 11
_symmetry_cell_setting 'monoclinic'
loop_
_space_group_symop_operation_xyz
x,y,z
-x,1/2+y,-z
-x,-y,-z
x,1/2-y,z
loop_
_atom_site_type_symbol
_atom_site_label
_atom_site_fract_x
_atom_site_fract_y
_atom_site_fract_z
Si Si1 0.427802 0.662801 0.701033
Si Si2 0.665605 0.837361 0.079649
Si Si3 0.601011 0.505046 0.279717
Si Si4 0.141281 0.841867 0.634498
Si Si5 0.736714 0.838260 0.623035
Si Si6 0.890450 0.521412 0.359432
Si Si7 0.014517 0.159904 0.909152
O O1 0.403549 0.750000 0.804972
O O2 0.414800 0.579982 0.819121
O O3 0.310056 0.656888 0.595464
O O4 0.590895 0.662564 0.573505
O O5 0.598292 0.750000 0.147591
O O6 0.698146 0.841607 0.851219
O O7 0.576241 0.914063 0.179029
O O8 0.819089 0.838112 0.111001
O O9 0.500000 0.500000 0.500000
O O10 0.762293 0.507062 0.273806
O O11 0.108142 0.750000 0.576415
O O12 0.089957 0.929013 0.574667
O O13 0.070345 0.845092 0.865850
O O14 0.804818 0.750000 0.560277
O O15 0.822981 0.916342 0.531642
O O16 0.003424 0.577785 0.202697
O O17 0.979668 0.250000 0.845607
#
# Coordination Sequence:
#
# PCOD9156907 Si02
#       7
#     4   4   4   4   4   4   4
#     4   9  18  31  49  73 101 131 164 205 251 300
#     4   9  20  34  51  75 105 135 165 206 254 302
#     4  10  18  31  49  76 100 130 165 202 252 293
#     4   9  18  31  50  74 102 134 171 213 256 298
#     4  10  19  33  51  76 104 133 165 207 260 303
#     4  10  18  30  52  76 101 128 173 214 251 296
#     4   9  17  32  52  76  99 129 173 215 253 296
#
# _framework density 24.424828999999999
#
# number of rings (size 3 to 8) (size 9 to 14) (size 15 to 20)
#    0.000    2.571    1.429    0.857    0.000    1.714 
#    0.000    0.714    0.000    0.857    0.000    0.000 
#    0.000    0.000    0.000    0.000    0.000    0.000 
#
# Total GULP energy -156105.858997 kJ/mol
# GULP energy per Si atom -5575.209250 kJ/mol
# Density = 2.436924 g / cm^3
# Si number density = 24.424829 Si / 1000 Ang^3
#
#
#
# Elastic Constant Matrix: (Units=GPa)
#
#
# Indices 1 2 3 4 5 6 
#
# 1 83.1200 26.2778 -1.2298 0.0000 -8.2248 0.0000
# 2 26.2778 320.8634 63.7226 0.0000 1.9838 0.0000
# 3 -1.2298 63.7226 66.3705 0.0000 -3.1802 0.0000
# 4 0.0000 0.0000 0.0000 41.7824 0.0000 -11.9724
# 5 -8.2248 1.9838 -3.1802 0.0000 20.7770 0.0000
# 6 0.0000 0.0000 0.0000 -11.9724 0.0000 -3.0789
#
#
#
# Elastic Compliance Matrix: (Units=1/GPa)
#
#
# Indices 1 2 3 4 5 6 
#
# 1 0.013088 -0.001493 0.001945 0.000000 0.005621 0.000000
# 2 -0.001493 0.004039 -0.003982 0.000000 -0.001586 0.000000
# 3 0.001945 -0.003982 0.019121 0.000000 0.004077 0.000000
# 4 0.000000 0.000000 0.000000 0.011320 0.000000 -0.044019
# 5 0.005621 -0.001586 0.004077 0.000000 0.051131 0.000000
# 6 0.000000 0.000000 0.000000 -0.044019 0.000000 -0.153621
#
#
# Mechanical properties :
#
#
# Convention : Reuss Voigt Hill
#
# Bulk Modulus (GPa) = 34.25915 71.98836 53.12375
# Shear Modulus (GPa) = -131.12303 37.33497 -46.89403
#
# Velocity S-wave (km/s) = -7.33491 3.91393 -4.38646
# Velocity P-wave (km/s) = 7.59458 7.06842 1.96407
#
# Compressibility (1/GPa) = 0.02918928
#
# Stress axis : x y z
#
# Youngs Moduli (GPa) = 76.40714 247.55707 52.29737
#
# Poissons Ratio (x) = 0.36958 -0.10173
# Poissons Ratio (y) = 0.11407 0.20825
# Poissons Ratio (z) = -0.14863 0.98577
#
# Static dielectric constant tensor:
#      x y z
#    x 1.939860 0.000000 -0.004270 
#    y 0.000000 2.088810 0.000000 
#    z -0.004270 0.000000 1.940100 
# 
# From -- ./inp_files/17932.got.cif
#   From: 2010.05.17/outbox.cif.g08.bks.cpg/sg11_9_cif.got.tgz:17932.got - 2010.06.03 12:22:45.
