data_PCOD9156424
_publ_section_title
;
Structure prediction by ZEFSAII (Michael W. Deem and Ramdas Pophale) SiO2 
 PCOD9156424
Probable space group: P 21/M
;
_chemical_formula_sum "Si O2"
_cell_formula_units_Z 28
_cell_length_a 17.436712
_cell_length_b 7.579725
_cell_length_c 20.384727
_cell_angle_alpha 90.000000
_cell_angle_beta 148.295533
_cell_angle_gamma 90.000000
_cell_volume 1415.881973
_symmetry_space_group_name_H-M "P 21/M"
_symmetry_group_IT_number 11
_symmetry_cell_setting 'monoclinic'
loop_
_space_group_symop_operation_xyz
x,y,z
-x,1/2+y,-z
-x,-y,-z
x,1/2-y,z
loop_
_atom_site_type_symbol
_atom_site_label
_atom_site_fract_x
_atom_site_fract_y
_atom_site_fract_z
Si Si1 0.853850 0.038603 0.352193
Si Si2 0.318130 0.538682 0.652783
Si Si3 0.974366 0.960743 0.643189
Si Si4 0.084425 0.462149 0.993879
Si Si5 0.419119 0.961399 0.508471
Si Si6 0.417849 0.466557 0.242354
Si Si7 0.091917 0.958321 0.259798
O O1 0.835345 0.250000 0.333715
O O2 0.727026 0.969760 0.307937
O O3 0.896839 0.971779 0.311272
O O4 0.000000 0.000000 0.500000
O O5 0.329797 0.750000 0.666543
O O6 0.182266 0.507162 0.503988
O O7 0.469158 0.474720 0.731701
O O8 0.981456 0.750000 0.648832
O O9 0.982725 0.022999 0.723769
O O10 0.092668 0.250000 0.994389
O O11 0.251334 0.526770 0.115750
O O12 0.000000 0.500000 0.000000
O O13 0.996497 0.530836 0.866515
O O14 0.409070 0.750000 0.509454
O O15 0.511363 0.025644 0.637511
O O16 0.254931 0.033406 0.385797
O O17 0.500000 0.000000 0.500000
O O18 0.416468 0.250000 0.240744
O O19 0.108695 0.750000 0.259069
#
# Coordination Sequence:
#
# PCOD9156424 Si02
#       7
#     4   4   4   4   4   4   4
#     4   8  15  25  42  69  98 127 156 191 236 285
#     4   9  15  29  50  70  98 131 159 193 241 289
#     4  10  18  28  45  74 103 125 159 201 239 281
#     4  10  21  36  53  72  95 125 164 202 239 289
#     4  10  19  31  47  68  92 118 152 193 239 284
#     4   9  17  31  51  71  93 123 160 197 233 284
#     4  10  20  34  50  69  96 130 163 194 236 292
#
# _framework density 19.775658
#
# number of rings (size 3 to 8) (size 9 to 14) (size 15 to 20)
#    0.000    2.571    1.429    1.286    0.000    1.714 
#    0.000    0.714    0.000    0.857    0.000    0.000 
#    0.000    0.000    0.000    0.000    0.000    0.714 
#
# Total GULP energy -156118.799479 kJ/mol
# GULP energy per Si atom -5575.671410 kJ/mol
# Density = 1.973065 g / cm^3
# Si number density = 19.775658 Si / 1000 Ang^3
#
#
#
# Elastic Constant Matrix: (Units=GPa)
#
#
# Indices 1 2 3 4 5 6 
#
# 1 175.5336 -10.1598 87.7567 0.0000 -2.3964 0.0000
# 2 -10.1598 43.7342 9.2024 0.0000 3.0570 0.0000
# 3 87.7567 9.2024 129.6115 0.0000 -2.5090 0.0000
# 4 0.0000 0.0000 0.0000 -0.3090 0.0000 -3.0771
# 5 -2.3964 3.0570 -2.5090 0.0000 26.7470 0.0000
# 6 0.0000 0.0000 0.0000 -3.0771 0.0000 18.9626
#
#
#
# Elastic Compliance Matrix: (Units=1/GPa)
#
#
# Indices 1 2 3 4 5 6 
#
# 1 0.009102 0.003477 -0.006413 0.000000 -0.000183 0.000000
# 2 0.003477 0.024753 -0.004168 0.000000 -0.002909 0.000000
# 3 -0.006413 -0.004168 0.012374 0.000000 0.001063 0.000000
# 4 0.000000 0.000000 0.000000 -1.237101 0.000000 -0.200749
# 5 -0.000183 -0.002909 0.001063 0.000000 0.037803 0.000000
# 6 0.000000 0.000000 0.000000 -0.200749 0.000000 0.020159
#
#
# Mechanical properties :
#
#
# Convention : Reuss Voigt Hill
#
# Bulk Modulus (GPa) = 31.22966 58.05310 44.64138
# Shear Modulus (GPa) = -4.51252 26.55211 11.01979
#
# Velocity S-wave (km/s) = -1.51222 3.66822 2.36315
# Velocity P-wave (km/s) = 3.57452 6.88191 5.48351
#
# Compressibility (1/GPa) = 0.03202085
#
# Stress axis : x y z
#
# Youngs Moduli (GPa) = 109.86911 40.39863 80.81537
#
# Poissons Ratio (x) = -0.14045 0.51826
# Poissons Ratio (y) = -0.38197 0.33682
# Poissons Ratio (z) = 0.70458 0.16837
#
# Static dielectric constant tensor:
#      x y z
#    x 1.735720 0.000000 0.008430 
#    y 0.000000 1.732950 0.000000 
#    z 0.008430 0.000000 1.669510 
# 
# From -- ./inp_files/61253.got.cif
#   From: 2010.05.17/outbox.cif.g08.bks.cpg/sg11_31_cif.got.tgz:61253.got - 2010.06.03 12:22:45.
