data_PCOD9156031
_publ_section_title
;
Structure prediction by ZEFSAII (Michael W. Deem and Ramdas Pophale) SiO2 
 PCOD9156031
Probable space group: P 21/M
;
_chemical_formula_sum "Si O2"
_cell_formula_units_Z 32
_cell_length_a 12.001868
_cell_length_b 15.419533
_cell_length_c 9.074035
_cell_angle_alpha 90.000000
_cell_angle_beta 68.034422
_cell_angle_gamma 90.000000
_cell_volume 1557.369633
_symmetry_space_group_name_H-M "P 21/M"
_symmetry_group_IT_number 11
_symmetry_cell_setting 'monoclinic'
loop_
_space_group_symop_operation_xyz
x,y,z
-x,1/2+y,-z
-x,-y,-z
x,1/2-y,z
loop_
_atom_site_type_symbol
_atom_site_label
_atom_site_fract_x
_atom_site_fract_y
_atom_site_fract_z
Si Si1 0.502262 0.343396 0.629794
Si Si2 0.898903 0.999266 0.742442
Si Si3 0.294414 0.438466 0.383266
Si Si4 0.775116 0.653609 0.325887
Si Si5 0.741933 0.106620 0.404780
Si Si6 0.525836 0.492273 0.158650
Si Si7 0.805626 0.009304 0.109092
Si Si8 0.045113 0.649514 0.504663
O O1 0.513147 0.250000 0.697849
O O2 0.369677 0.349069 0.627919
O O3 0.610260 0.352480 0.459951
O O4 0.513859 0.418936 0.742225
O O5 0.771981 0.976799 0.726458
O O6 0.976718 0.916444 0.650876
O O7 0.945979 0.088982 0.646171
O O8 0.884640 0.008438 0.923528
O O9 0.217819 0.363980 0.501767
O O10 0.284927 0.511363 0.514983
O O11 0.432405 0.422591 0.273201
O O12 0.818797 0.750000 0.267681
O O13 0.825621 0.579417 0.192712
O O14 0.822514 0.152824 0.486600
O O15 0.813410 0.089230 0.219148
O O16 0.665846 0.484002 0.126447
O O17 0.500000 0.500000 0.000000
O O18 0.005882 0.750000 0.507810
#
# Coordination Sequence:
#
# PCOD9156031 Si02
#       8
#     4   4   4   4   4   4   4   4
#     4   9  17  30  49  73 104 142 180 216 256 312
#     4  10  21  37  59  83 108 139 179 231 279 323
#     4   9  17  32  52  76 107 143 176 208 258 324
#     4   9  18  31  49  77 112 146 178 213 259 321
#     4   9  18  33  55  75  99 138 181 222 267 315
#     4  10  17  29  51  79 111 143 176 209 262 329
#     4  10  19  33  55  83 110 137 178 225 270 322
#     4  10  22  40  58  77 104 143 187 227 277 333
#
# _framework density 20.547466
#
# number of rings (size 3 to 8) (size 9 to 14) (size 15 to 20)
#    0.000    2.500    1.250    1.125    0.000    4.500 
#    0.000    1.875    0.000    2.250    0.000    0.000 
#    0.000    0.000    0.000    0.000    0.000    0.000 
#
# Total GULP energy -178277.141143 kJ/mol
# GULP energy per Si atom -5571.160661 kJ/mol
# Density = 2.050070 g / cm^3
# Si number density = 20.547466 Si / 1000 Ang^3
#
#
#
# Elastic Constant Matrix: (Units=GPa)
#
#
# Indices 1 2 3 4 5 6 
#
# 1 46.1719 15.4867 13.2084 0.0000 -3.0430 0.0000
# 2 15.4867 103.9445 41.5756 0.0000 -3.0373 0.0000
# 3 13.2084 41.5756 144.9625 0.0000 2.3610 0.0000
# 4 0.0000 0.0000 0.0000 12.3732 0.0000 -1.0293
# 5 -3.0430 -3.0373 2.3610 0.0000 30.5729 0.0000
# 6 0.0000 0.0000 0.0000 -1.0293 0.0000 18.8328
#
#
#
# Elastic Compliance Matrix: (Units=1/GPa)
#
#
# Indices 1 2 3 4 5 6 
#
# 1 0.023134 -0.002855 -0.001324 0.000000 0.002121 0.000000
# 2 -0.002855 0.011273 -0.002990 0.000000 0.001067 0.000000
# 3 -0.001324 -0.002990 0.007893 0.000000 -0.001038 0.000000
# 4 0.000000 0.000000 0.000000 0.081189 0.000000 0.004437
# 5 0.002121 0.001067 -0.001038 0.000000 0.033106 0.000000
# 6 0.000000 0.000000 0.000000 0.004437 0.000000 0.053341
#
#
# Mechanical properties :
#
#
# Convention : Reuss Voigt Hill
#
# Bulk Modulus (GPa) = 35.76233 48.40226 42.08229
# Shear Modulus (GPa) = 21.40440 27.34299 24.37370
#
# Velocity S-wave (km/s) = 3.23105 3.65187 3.44788
# Velocity P-wave (km/s) = 5.60019 6.43342 6.03121
#
# Compressibility (1/GPa) = 0.02796238
#
# Stress axis : x y z
#
# Youngs Moduli (GPa) = 43.22578 88.70587 126.68671
#
# Poissons Ratio (x) = 0.25329 0.16767
# Poissons Ratio (y) = 0.12343 0.37884
# Poissons Ratio (z) = 0.05721 0.26526
#
# Static dielectric constant tensor:
#      x y z
#    x 1.831830 0.000000 -0.014820 
#    y 0.000000 1.759740 0.000000 
#    z -0.014820 0.000000 1.733290 
# 
# From -- ./inp_files/22173.got.cif
#   From: 2010.05.17/outbox.cif.g08.bks.cpg/sg11_12_cif.got.tgz:22173.got - 2010.06.03 12:22:45.
