data_PCOD9156791
_publ_section_title
;
Structure prediction by ZEFSAII (Michael W. Deem and Ramdas Pophale) SiO2 
 PCOD9156791
Probable space group: P 21/M
;
_chemical_formula_sum "Si O2"
_cell_formula_units_Z 32
_cell_length_a 21.402322
_cell_length_b 7.482447
_cell_length_c 15.106394
_cell_angle_alpha 90.000000
_cell_angle_beta 42.189477
_cell_angle_gamma 90.000000
_cell_volume 1624.673245
_symmetry_space_group_name_H-M "P 21/M"
_symmetry_group_IT_number 11
_symmetry_cell_setting 'monoclinic'
loop_
_space_group_symop_operation_xyz
x,y,z
-x,1/2+y,-z
-x,-y,-z
x,1/2-y,z
loop_
_atom_site_type_symbol
_atom_site_label
_atom_site_fract_x
_atom_site_fract_y
_atom_site_fract_z
Si Si1 0.238305 0.959345 0.895089
Si Si2 0.838431 0.031987 0.351172
Si Si3 0.694543 0.467402 0.642161
Si Si4 0.607091 0.035275 0.912720
Si Si5 0.656862 0.455560 0.053742
Si Si6 0.316670 0.968041 0.630697
Si Si7 0.538606 0.034043 0.661315
Si Si8 0.972497 0.962183 0.927553
O O1 0.263357 0.750000 0.872754
O O2 0.267116 0.037052 0.959769
O O3 0.295311 0.034229 0.751402
O O4 0.129365 0.968553 0.988355
O O5 0.839880 0.250000 0.349458
O O6 0.788577 0.974566 0.494116
O O7 0.769074 0.980681 0.343743
O O8 0.942287 0.969452 0.222007
O O9 0.696186 0.250000 0.642249
O O10 0.671480 0.530742 0.764635
O O11 0.609656 0.515896 0.665766
O O12 0.615091 0.250000 0.906773
O O13 0.634488 0.964404 0.980886
O O14 0.500000 0.000000 0.000000
O O15 0.683876 0.250000 0.007863
O O16 0.561538 0.460041 0.210023
O O17 0.316830 0.750000 0.631759
O O18 0.411481 0.023277 0.482119
O O19 0.531987 0.250000 0.667537
O O20 0.967833 0.750000 0.921698
O O21 0.000000 0.000000 0.000000
#
# Coordination Sequence:
#
# PCOD9156791 Si02
#       8
#     4   4   4   4   4   4   4   4
#     4  10  20  35  49  65  97 136 162 192 236 285
#     4   8  14  26  47  72  92 115 154 196 231 275
#     4   8  14  26  47  71  92 119 156 194 231 276
#     4  10  18  30  49  72  94 122 160 197 235 281
#     4  10  21  32  45  69 101 130 157 194 246 287
#     4   8  14  27  47  67  90 126 164 190 223 276
#     4   9  16  28  48  69  90 125 167 196 223 275
#     4  11  20  32  53  77  97 122 158 201 241 281
#
# _framework density 19.696269000000001
#
# number of rings (size 3 to 8) (size 9 to 14) (size 15 to 20)
#    0.000    2.750    2.500    1.875    0.000    1.000 
#    0.000    0.625    0.000    2.250    0.000    0.000 
#    0.000    0.000    0.000    0.000    0.000    0.125 
#
# Total GULP energy -178488.444682 kJ/mol
# GULP energy per Si atom -5577.763896 kJ/mol
# Density = 1.965144 g / cm^3
# Si number density = 19.696269 Si / 1000 Ang^3
#
#
#
# Elastic Constant Matrix: (Units=GPa)
#
#
# Indices 1 2 3 4 5 6 
#
# 1 129.5743 1.2805 72.4728 0.0000 23.8681 0.0000
# 2 1.2805 56.4916 -2.0927 0.0000 6.5557 0.0000
# 3 72.4728 -2.0927 133.6957 0.0000 20.5511 0.0000
# 4 0.0000 0.0000 0.0000 13.4294 0.0000 -6.7975
# 5 23.8681 6.5557 20.5511 0.0000 25.2689 0.0000
# 6 0.0000 0.0000 0.0000 -6.7975 0.0000 7.3528
#
#
#
# Elastic Compliance Matrix: (Units=1/GPa)
#
#
# Indices 1 2 3 4 5 6 
#
# 1 0.012060 0.000343 -0.005449 0.000000 -0.007049 0.000000
# 2 0.000343 0.018419 0.001014 0.000000 -0.005927 0.000000
# 3 -0.005449 0.001014 0.011084 0.000000 -0.004131 0.000000
# 4 0.000000 0.000000 0.000000 0.139954 0.000000 0.129385
# 5 -0.007049 -0.005927 -0.004131 0.000000 0.051130 0.000000
# 6 0.000000 0.000000 0.000000 0.129385 0.000000 0.255616
#
#
# Mechanical properties :
#
#
# Convention : Reuss Voigt Hill
#
# Bulk Modulus (GPa) = 29.95880 51.45363 40.70622
# Shear Modulus (GPa) = 9.85076 25.75030 17.80053
#
# Velocity S-wave (km/s) = 2.23879 3.61968 3.00951
# Velocity P-wave (km/s) = 4.68256 6.60679 5.72608
#
# Compressibility (1/GPa) = 0.03337918
#
# Stress axis : x y z
#
# Youngs Moduli (GPa) = 82.91771 54.29078 90.21979
#
# Poissons Ratio (x) = -0.01861 0.49157
# Poissons Ratio (y) = -0.02843 -0.09144
# Poissons Ratio (z) = 0.45178 -0.05502
#
# Static dielectric constant tensor:
#      x y z
#    x 1.676880 0.000000 0.029850 
#    y 0.000000 1.760060 0.000000 
#    z 0.029850 0.000000 1.706720 
# 
# From -- ./inp_files/54229.got.cif
#   From: 2010.05.17/outbox.cif.g08.bks.cpg/sg11_28_cif.got.tgz:54229.got - 2010.06.03 12:22:45.
