data_PCOD9156566
_publ_section_title
;
Structure prediction by ZEFSAII (Michael W. Deem and Ramdas Pophale) SiO2 
 PCOD9156566
Probable space group: P 21/M
;
_chemical_formula_sum "Si O2"
_cell_formula_units_Z 28
_cell_length_a 19.498798
_cell_length_b 15.728365
_cell_length_c 7.853856
_cell_angle_alpha 90.000000
_cell_angle_beta 150.432469
_cell_angle_gamma 90.000000
_cell_volume 1188.547855
_symmetry_space_group_name_H-M "P 21/M"
_symmetry_group_IT_number 11
_symmetry_cell_setting 'monoclinic'
loop_
_space_group_symop_operation_xyz
x,y,z
-x,1/2+y,-z
-x,-y,-z
x,1/2-y,z
loop_
_atom_site_type_symbol
_atom_site_label
_atom_site_fract_x
_atom_site_fract_y
_atom_site_fract_z
Si Si1 0.333592 0.653479 0.709175
Si Si2 0.933902 0.015968 0.171572
Si Si3 0.782815 0.999644 0.352830
Si Si4 0.207186 0.161174 0.176200
Si Si5 0.540079 0.878811 0.463351
Si Si6 0.662912 0.063796 0.732853
Si Si7 0.400398 0.154651 0.927940
O O1 0.276224 0.750000 0.565208
O O2 0.235039 0.573986 0.544560
O O3 0.437583 0.655302 0.097158
O O4 0.440107 0.635451 0.783021
O O5 0.062810 0.038508 0.330290
O O6 0.881051 0.923136 0.003400
O O7 0.000000 0.000000 0.500000
O O8 0.797733 0.074890 0.903764
O O9 0.677036 0.922959 0.152019
O O10 0.737463 0.041627 0.075815
O O11 0.126597 0.250000 0.005078
O O12 0.306782 0.159394 0.225106
O O13 0.313705 0.159457 0.562809
O O14 0.455572 0.871212 0.457278
O O15 0.578396 0.977665 0.504904
O O16 0.390017 0.250000 0.977464
#
# Coordination Sequence:
#
# PCOD9156566 Si02
#       7
#     4   4   4   4   4   4   4
#     4   9  17  29  47  70  92 117 157 204 241 277
#     4   9  18  31  45  68  97 123 155 188 229 284
#     4  10  18  29  47  68  96 129 156 188 239 289
#     4   9  17  30  49  70  91 118 156 199 235 274
#     4   8  13  26  47  67  88 116 150 193 239 274
#     4   8  15  27  44  67  94 122 153 193 235 280
#     4   9  18  32  48  68  92 119 159 204 239 279
#
# _framework density 23.558157999999999
#
# number of rings (size 3 to 8) (size 9 to 14) (size 15 to 20)
#    0.000    3.143    0.000    1.714    0.000    1.143 
#    0.000    7.143    0.000    4.286    0.000    1.000 
#    0.000    0.000    0.000    0.000    0.000    0.000 
#
# Total GULP energy -156143.531183 kJ/mol
# GULP energy per Si atom -5576.554685 kJ/mol
# Density = 2.350454 g / cm^3
# Si number density = 23.558158 Si / 1000 Ang^3
#
#
#
# Elastic Constant Matrix: (Units=GPa)
#
#
# Indices 1 2 3 4 5 6 
#
# 1 122.5094 32.3912 24.8710 0.0000 37.7260 0.0000
# 2 32.3912 75.2234 16.9362 0.0000 28.3180 0.0000
# 3 24.8710 16.9362 75.4553 0.0000 24.3422 0.0000
# 4 0.0000 0.0000 0.0000 16.4870 0.0000 -6.5226
# 5 37.7260 28.3180 24.3422 0.0000 37.1921 0.0000
# 6 0.0000 0.0000 0.0000 -6.5226 0.0000 15.3779
#
#
#
# Elastic Compliance Matrix: (Units=1/GPa)
#
#
# Indices 1 2 3 4 5 6 
#
# 1 0.011906 -0.000815 -0.000058 0.000000 -0.011419 0.000000
# 2 -0.000815 0.018706 0.000505 0.000000 -0.013746 0.000000
# 3 -0.000058 0.000505 0.016814 0.000000 -0.011330 0.000000
# 4 0.000000 0.000000 0.000000 0.072884 0.000000 0.030914
# 5 -0.011419 -0.013746 -0.011330 0.000000 0.056352 0.000000
# 6 0.000000 0.000000 0.000000 0.030914 0.000000 0.078140
#
#
# Mechanical properties :
#
#
# Convention : Reuss Voigt Hill
#
# Bulk Modulus (GPa) = 21.41830 46.84277 34.13053
# Shear Modulus (GPa) = 18.44328 27.07739 22.76033
#
# Velocity S-wave (km/s) = 2.80104 3.39394 3.11164
# Velocity P-wave (km/s) = 4.42408 5.94016 5.23727
#
# Compressibility (1/GPa) = 0.04668905
#
# Stress axis : x y z
#
# Youngs Moduli (GPa) = 83.98995 53.45925 59.47473
#
# Poissons Ratio (x) = 0.04358 0.00344
# Poissons Ratio (y) = 0.06847 -0.03001
# Poissons Ratio (z) = 0.00485 -0.02698
#
# Static dielectric constant tensor:
#      x y z
#    x 2.014350 0.000000 -0.053100 
#    y 0.000000 1.781270 0.000000 
#    z -0.053100 0.000000 1.945260 
# 
# From -- ./inp_files/26954.got.cif
#   From: 2010.05.17/outbox.cif.g08.bks.cpg/sg11_14_cif.got.tgz:26954.got - 2010.06.03 12:22:45.
