data_PCOD9156330
_publ_section_title
;
Structure prediction by ZEFSAII (Michael W. Deem and Ramdas Pophale) SiO2 
 PCOD9156330
Probable space group: P 21/M
;
_chemical_formula_sum "Si O2"
_cell_formula_units_Z 28
_cell_length_a 14.120354
_cell_length_b 8.525099
_cell_length_c 16.783515
_cell_angle_alpha 90.000000
_cell_angle_beta 64.868661
_cell_angle_gamma 90.000000
_cell_volume 1829.102460
_symmetry_space_group_name_H-M "P 21/M"
_symmetry_group_IT_number 11
_symmetry_cell_setting 'monoclinic'
loop_
_space_group_symop_operation_xyz
x,y,z
-x,1/2+y,-z
-x,-y,-z
x,1/2-y,z
loop_
_atom_site_type_symbol
_atom_site_label
_atom_site_fract_x
_atom_site_fract_y
_atom_site_fract_z
Si Si1 0.297751 0.062670 0.190510
Si Si2 0.117515 0.939499 0.545338
Si Si3 0.109864 0.937336 0.363363
Si Si4 0.610272 0.437996 0.994800
Si Si5 0.526453 0.060315 0.365077
Si Si6 0.663314 0.439623 0.463999
Si Si7 0.519654 0.441010 0.187325
O O1 0.299921 0.250000 0.188636
O O2 0.404180 0.008900 0.198170
O O3 0.197062 0.005156 0.273926
O O4 0.304848 0.002907 0.097046
O O5 0.111635 0.750000 0.549553
O O6 0.130802 0.987081 0.447759
O O7 0.219178 0.990672 0.558260
O O8 0.007383 0.006647 0.613994
O O9 0.114388 0.750000 0.358992
O O10 0.611816 0.250000 0.990777
O O11 0.500000 0.500000 0.000000
O O12 0.604357 0.486689 0.089698
O O13 0.524643 0.250000 0.365141
O O14 0.616368 0.010619 0.395349
O O15 0.540207 0.004693 0.269642
O O16 0.417368 0.001654 0.440951
O O17 0.661386 0.250000 0.467410
O O18 0.518341 0.250000 0.189005
#
# Coordination Sequence:
#
# PCOD9156330 Si02
#       7
#     4   4   4   4   4   4   4
#     4  10  18  28  42  61  86 113 139 169 207 247
#     4   9  18  31  43  59  85 112 139 172 207 243
#     4  10  19  29  43  62  82 109 143 173 205 245
#     4   9  16  27  41  59  84 111 140 171 205 245
#     4   9  16  27  43  62  84 111 141 167 198 241
#     4   9  17  28  42  61  85 111 138 170 204 237
#     4   8  15  26  41  61  84 111 139 166 198 241
#
# _framework density 15.308054
#
# number of rings (size 3 to 8) (size 9 to 14) (size 15 to 20)
#    0.000    2.857    0.000    3.000    0.000    1.143 
#    0.000    3.571    0.000    0.000    0.000    1.000 
#    0.000    0.000    0.000    0.000    0.000    0.000 
#
# Total GULP energy -155941.225591 kJ/mol
# GULP energy per Si atom -5569.329485 kJ/mol
# Density = 1.527321 g / cm^3
# Si number density = 15.308054 Si / 1000 Ang^3
#
#
#
# Elastic Constant Matrix: (Units=GPa)
#
#
# Indices 1 2 3 4 5 6 
#
# 1 90.6641 20.1416 63.2021 0.0000 -3.4950 0.0000
# 2 20.1416 19.0374 26.1676 0.0000 -3.5563 0.0000
# 3 63.2021 26.1676 156.3382 0.0000 -2.7620 0.0000
# 4 0.0000 0.0000 0.0000 23.2360 0.0000 -4.8315
# 5 -3.4950 -3.5563 -2.7620 0.0000 23.2678 0.0000
# 6 0.0000 0.0000 0.0000 -4.8315 0.0000 15.2806
#
#
#
# Elastic Compliance Matrix: (Units=1/GPa)
#
#
# Indices 1 2 3 4 5 6 
#
# 1 0.016987 -0.011026 -0.005017 0.000000 0.000271 0.000000
# 2 -0.011026 0.077355 -0.008328 0.000000 0.009178 0.000000
# 3 -0.005017 -0.008328 0.009803 0.000000 -0.000863 0.000000
# 4 0.000000 0.000000 0.000000 0.046065 0.000000 0.014565
# 5 0.000271 0.009178 -0.000863 0.000000 0.044319 0.000000
# 6 0.000000 0.000000 0.000000 0.014565 0.000000 0.070048
#
#
# Mechanical properties :
#
#
# Convention : Reuss Voigt Hill
#
# Bulk Modulus (GPa) = 18.04924 53.89582 35.97253
# Shear Modulus (GPa) = 15.06990 22.79209 18.93100
#
# Velocity S-wave (km/s) = 3.14099 3.86281 3.52045
# Velocity P-wave (km/s) = 4.99707 7.42825 6.33047
#
# Compressibility (1/GPa) = 0.05540401
#
# Stress axis : x y z
#
# Youngs Moduli (GPa) = 58.86878 12.92737 102.00649
#
# Poissons Ratio (x) = 0.14253 0.51177
# Poissons Ratio (y) = 0.64906 0.84953
# Poissons Ratio (z) = 0.29535 0.10766
#
# Static dielectric constant tensor:
#      x y z
#    x 1.495140 0.000000 0.020400 
#    y 0.000000 1.517470 0.000000 
#    z 0.020400 0.000000 1.521880 
# 
# From -- ./inp_files/51108.got.cif
#   From: 2010.05.17/outbox.cif.g08.bks.cpg/sg11_26_cif.got.tgz:51108.got - 2010.06.03 12:22:45.
