data_PCOD9156067
_publ_section_title
;
Structure prediction by ZEFSAII (Michael W. Deem and Ramdas Pophale) SiO2 
 PCOD9156067
Probable space group: P 21/M
;
_chemical_formula_sum "Si O2"
_cell_formula_units_Z 24
_cell_length_a 9.665065
_cell_length_b 16.868300
_cell_length_c 6.898926
_cell_angle_alpha 90.000000
_cell_angle_beta 130.892860
_cell_angle_gamma 90.000000
_cell_volume 850.241046
_symmetry_space_group_name_H-M "P 21/M"
_symmetry_group_IT_number 11
_symmetry_cell_setting 'monoclinic'
loop_
_space_group_symop_operation_xyz
x,y,z
-x,1/2+y,-z
-x,-y,-z
x,1/2-y,z
loop_
_atom_site_type_symbol
_atom_site_label
_atom_site_fract_x
_atom_site_fract_y
_atom_site_fract_z
Si Si1 0.376448 0.250000 0.736100
Si Si2 0.783645 0.590458 0.489749
Si Si3 0.262861 0.750000 0.657452
Si Si4 0.764291 0.422887 0.433884
Si Si5 0.841668 0.086983 0.940005
Si Si6 0.343975 0.250000 0.235391
Si Si7 0.352232 0.423520 0.218960
Si Si8 0.283774 0.750000 0.290132
O O1 0.271750 0.168032 0.676527
O O2 0.381894 0.250000 0.503454
O O3 0.560066 0.250000 0.025738
O O4 0.790569 0.510262 0.372768
O O5 0.640434 0.576086 0.537051
O O6 0.972577 0.601353 0.776498
O O7 0.198763 0.842432 0.645852
O O8 0.135290 0.750000 0.324029
O O9 0.550676 0.418664 0.302840
O O10 0.873085 0.426135 0.737907
O O11 0.727415 0.168868 0.833266
O O12 0.743123 0.006508 0.914936
O O13 0.269756 0.334955 0.109433
O O14 0.566069 0.250000 0.389075
#
# Coordination Sequence:
#
# PCOD9156067 Si02
#       8
#     2   4   2   4   4   2   4   2
#     4  10  23  34  52  75 111 137 178 210 257 309
#     4  10  20  32  50  82 110 136 167 215 268 313
#     4  10  20  36  51  78 104 143 171 220 252 303
#     4  10  18  31  55  80 104 134 177 214 262 304
#     4  10  18  30  51  84 109 131 162 224 267 307
#     4  10  18  32  52  83 101 128 176 223 251 300
#     4  10  17  30  51  83 107 127 171 222 258 298
#     4  10  19  32  57  80 104 132 177 213 266 304
#
# _framework density 28.227291000000001
#
# number of rings (size 3 to 8) (size 9 to 14) (size 15 to 20)
#    0.000    2.000    3.333    4.500    2.333    0.667 
#    0.000    2.500    0.000    1.000   21.667    0.000 
#    0.000    0.000    0.000    0.000    0.000    0.000 
#
# Total GULP energy -133969.270310 kJ/mol
# GULP energy per Si atom -5582.052930 kJ/mol
# Density = 2.816304 g / cm^3
# Si number density = 28.227291 Si / 1000 Ang^3
#
#
#
# Elastic Constant Matrix: (Units=GPa)
#
#
# Indices 1 2 3 4 5 6 
#
# 1 80.3807 24.9612 45.3707 0.0000 -10.7218 0.0000
# 2 24.9612 305.7204 66.9737 0.0000 -9.9904 0.0000
# 3 45.3707 66.9737 146.2541 0.0000 -19.7814 0.0000
# 4 0.0000 0.0000 0.0000 29.2645 0.0000 28.5703
# 5 -10.7218 -9.9904 -19.7814 0.0000 44.7722 0.0000
# 6 0.0000 0.0000 0.0000 28.5703 0.0000 -8.2790
#
#
#
# Elastic Compliance Matrix: (Units=1/GPa)
#
#
# Indices 1 2 3 4 5 6 
#
# 1 0.015210 -0.000226 -0.004392 0.000000 0.001652 0.000000
# 2 -0.000226 0.003639 -0.001589 0.000000 0.000056 0.000000
# 3 -0.004392 -0.001589 0.009292 0.000000 0.002699 0.000000
# 4 0.000000 0.000000 0.000000 0.007821 0.000000 0.026990
# 5 0.001652 0.000056 0.002699 0.000000 0.023936 0.000000
# 6 0.000000 0.000000 0.000000 0.026990 0.000000 -0.027646
#
#
# Mechanical properties :
#
#
# Convention : Reuss Voigt Hill
#
# Bulk Modulus (GPa) = 63.57620 89.66292 76.61956
# Shear Modulus (GPa) = 100.18284 39.48819 69.83551
#
# Velocity S-wave (km/s) = 5.96394 3.74429 4.97937
# Velocity P-wave (km/s) = 8.36639 7.10820 7.76283
#
# Compressibility (1/GPa) = 0.01572916
#
# Stress axis : x y z
#
# Youngs Moduli (GPa) = 65.74581 274.77739 107.61379
#
# Poissons Ratio (x) = 0.06205 0.47260
# Poissons Ratio (y) = 0.01485 0.17099
# Poissons Ratio (z) = 0.28873 0.43660
#
# Static dielectric constant tensor:
#      x y z
#    x 2.617690 0.000000 0.174450 
#    y 0.000000 2.183710 0.000000 
#    z 0.174450 0.000000 2.243600 
# 
# From -- ./inp_files/22856.got.cif
#   From: 2010.05.17/outbox.cif.g08.bks.cpg/sg11_12_cif.got.tgz:22856.got - 2010.06.03 12:22:45.
