data_PCOD9156002
_publ_section_title
;
Structure prediction by ZEFSAII (Michael W. Deem and Ramdas Pophale) SiO2 
 PCOD9156002
Probable space group: P 21/M
;
_chemical_formula_sum "Si O2"
_cell_formula_units_Z 30
_cell_length_a 22.520296
_cell_length_b 7.920525
_cell_length_c 13.944917
_cell_angle_alpha 90.000000
_cell_angle_beta 152.341473
_cell_angle_gamma 90.000000
_cell_volume 1154.649327
_symmetry_space_group_name_H-M "P 21/M"
_symmetry_group_IT_number 11
_symmetry_cell_setting 'monoclinic'
loop_
_space_group_symop_operation_xyz
x,y,z
-x,1/2+y,-z
-x,-y,-z
x,1/2-y,z
loop_
_atom_site_type_symbol
_atom_site_label
_atom_site_fract_x
_atom_site_fract_y
_atom_site_fract_z
Si Si1 0.628242 0.059717 0.560808
Si Si2 0.236597 0.563551 0.482795
Si Si3 0.489349 0.951745 0.095946
Si Si4 0.026971 0.938898 0.899818
Si Si5 0.231208 0.548984 0.834768
Si Si6 0.889959 0.552806 0.520257
Si Si7 0.328243 0.443522 0.171436
Si Si8 0.805969 0.750000 0.780711
O O1 0.647980 0.250000 0.552910
O O2 0.696498 0.900969 0.610954
O O3 0.475416 0.033031 0.348290
O O4 0.682372 0.053650 0.748280
O O5 0.198595 0.750000 0.399563
O O6 0.383821 0.529866 0.676316
O O7 0.214148 0.549387 0.566371
O O8 0.495926 0.750000 0.113131
O O9 0.360110 0.009628 0.963265
O O10 0.500000 0.000000 0.000000
O O11 0.074299 0.750000 0.988905
O O12 0.014386 0.965808 0.766204
O O13 0.092883 0.098465 0.040067
O O14 0.874958 0.937942 0.711696
O O15 0.233739 0.750000 0.848019
O O16 0.116992 0.501616 0.599036
O O17 0.240124 0.475540 0.953777
O O18 0.857122 0.750000 0.477544
O O19 0.311331 0.250000 0.180935
#
# Coordination Sequence:
#
# PCOD9156002 Si02
#       8
#     4   4   4   4   4   4   4   2
#     4  10  22  39  63  90 115 140 175 243 292 349
#     4  10  17  29  46  69 111 152 186 231 274 310
#     4  11  20  29  44  74 115 153 194 232 268 325
#     4   9  18  32  52  82 116 146 190 239 271 325
#     4  11  22  31  52  82 114 158 193 226 276 347
#     4   9  17  30  47  73 108 154 185 224 271 313
#     4  10  21  40  60  85 117 145 182 223 295 353
#     4  12  20  34  62  90 108 142 192 232 288 340
#
# _framework density 25.981915999999998
#
# number of rings (size 3 to 8) (size 9 to 14) (size 15 to 20)
#    0.800    1.067    2.667    2.800    2.800    1.600 
#    0.000    0.000    0.000    0.800    0.000    0.933 
#    0.000    0.000    0.000    0.000    0.000    0.000 
#
# Total GULP energy -167381.291864 kJ/mol
# GULP energy per Si atom -5579.376395 kJ/mol
# Density = 2.592278 g / cm^3
# Si number density = 25.981916 Si / 1000 Ang^3
#
#
#
# Elastic Constant Matrix: (Units=GPa)
#
#
# Indices 1 2 3 4 5 6 
#
# 1 99.2925 23.5325 21.3714 0.0000 -10.3851 0.0000
# 2 23.5325 128.9979 35.7039 0.0000 7.4055 0.0000
# 3 21.3714 35.7039 145.8674 0.0000 -31.0548 0.0000
# 4 0.0000 0.0000 0.0000 -25.4124 0.0000 70.7071
# 5 -10.3851 7.4055 -31.0548 0.0000 36.3443 0.0000
# 6 0.0000 0.0000 0.0000 70.7071 0.0000 -64.8894
#
#
#
# Elastic Compliance Matrix: (Units=1/GPa)
#
#
# Indices 1 2 3 4 5 6 
#
# 1 0.010988 -0.002072 -0.000421 0.000000 0.003202 0.000000
# 2 -0.002072 0.009265 -0.003046 0.000000 -0.005083 0.000000
# 3 -0.000421 -0.003046 0.009497 0.000000 0.008615 0.000000
# 4 0.000000 0.000000 0.000000 0.019367 0.000000 0.021103
# 5 0.003202 -0.005083 0.008615 0.000000 0.036827 0.000000
# 6 0.000000 0.000000 0.000000 0.021103 0.000000 0.007585
#
#
# Mechanical properties :
#
#
# Convention : Reuss Voigt Hill
#
# Bulk Modulus (GPa) = 53.55750 59.48593 56.52171
# Shear Modulus (GPa) = 45.11399 8.77850 26.94625
#
# Velocity S-wave (km/s) = 4.17149 1.84012 3.22392
# Velocity P-wave (km/s) = 6.62268 5.24018 5.97157
#
# Compressibility (1/GPa) = 0.01867152
#
# Stress axis : x y z
#
# Youngs Moduli (GPa) = 91.01013 107.93347 105.29571
#
# Poissons Ratio (x) = 0.22361 0.04433
# Poissons Ratio (y) = 0.18855 0.32077
# Poissons Ratio (z) = 0.03832 0.32881
#
# Static dielectric constant tensor:
#      x y z
#    x 2.155550 0.000000 -0.061160 
#    y 0.000000 1.917710 0.000000 
#    z -0.061160 0.000000 2.097050 
# 
# From -- ./inp_files/44533.got.cif
#   From: 2010.05.17/outbox.cif.g08.bks.cpg/sg11_23_cif.got.tgz:44533.got - 2010.06.03 12:22:45.
