data_PCOD9156509
_publ_section_title
;
Structure prediction by ZEFSAII (Michael W. Deem and Ramdas Pophale) SiO2 
 PCOD9156509
Probable space group: P 21/M
;
_chemical_formula_sum "Si O2"
_cell_formula_units_Z 32
_cell_length_a 17.828331
_cell_length_b 7.427481
_cell_length_c 25.460741
_cell_angle_alpha 90.000000
_cell_angle_beta 154.509797
_cell_angle_gamma 90.000000
_cell_volume 1450.948186
_symmetry_space_group_name_H-M "P 21/M"
_symmetry_group_IT_number 11
_symmetry_cell_setting 'monoclinic'
loop_
_space_group_symop_operation_xyz
x,y,z
-x,1/2+y,-z
-x,-y,-z
x,1/2-y,z
loop_
_atom_site_type_symbol
_atom_site_label
_atom_site_fract_x
_atom_site_fract_y
_atom_site_fract_z
Si Si1 0.918892 0.464212 0.505625
Si Si2 0.591076 0.542535 0.915985
Si Si3 0.476951 0.464735 0.354103
Si Si4 0.477938 0.528458 0.733983
Si Si5 0.237034 0.042574 0.872591
Si Si6 0.685356 0.535263 0.645018
Si Si7 0.261398 0.030277 0.775080
Si Si8 0.152173 0.465242 0.356425
O O1 0.907289 0.250000 0.505678
O O2 0.723253 0.532417 0.387890
O O3 0.000000 0.500000 0.500000
O O4 0.065932 0.530936 0.638397
O O5 0.647497 0.750000 0.945657
O O6 0.581940 0.466680 0.851424
O O7 0.395411 0.535619 0.815928
O O8 0.703726 0.459414 0.034616
O O9 0.453155 0.250000 0.337434
O O10 0.456823 0.530484 0.281992
O O11 0.344233 0.535981 0.314829
O O12 0.675132 0.492904 0.500395
O O13 0.478357 0.750000 0.735333
O O14 0.295347 0.250000 0.911270
O O15 0.308296 0.965948 0.863077
O O16 0.028256 0.039893 0.736541
O O17 0.500000 0.500000 0.500000
O O18 0.711675 0.750000 0.665425
O O19 0.819324 0.467721 0.685733
O O20 0.265950 0.250000 0.777019
O O21 0.137729 0.250000 0.346132
#
# Coordination Sequence:
#
# PCOD9156509 Si02
#       8
#     4   4   4   4   4   4   4   4
#     4  10  18  29  45  65  91 120 150 186 230 276
#     4  10  20  34  51  69  91 124 165 203 235 275
#     4   9  16  30  52  74  99 128 153 185 234 288
#     4   9  17  30  49  71  95 124 159 194 228 276
#     4  10  21  35  50  68  92 126 166 200 234 279
#     4   8  15  27  46  72  98 124 151 183 231 285
#     4  10  20  33  49  69  93 123 159 199 242 287
#     4  10  19  31  48  74 102 123 153 196 237 280
#
# _framework density 22.054542999999999
#
# number of rings (size 3 to 8) (size 9 to 14) (size 15 to 20)
#    0.000    2.500    1.250    1.500    0.000    3.500 
#    0.000    2.500    0.000    0.750    0.000    0.000 
#    0.000    0.000    0.000    0.000    0.000    0.625 
#
# Total GULP energy -178527.723668 kJ/mol
# GULP energy per Si atom -5578.991365 kJ/mol
# Density = 2.200435 g / cm^3
# Si number density = 22.054543 Si / 1000 Ang^3
#
#
#
# Elastic Constant Matrix: (Units=GPa)
#
#
# Indices 1 2 3 4 5 6 
#
# 1 128.7783 -0.3380 28.2224 0.0000 -52.8495 0.0000
# 2 -0.3380 76.7169 -1.6575 0.0000 -4.7805 0.0000
# 3 28.2224 -1.6575 68.1665 0.0000 -40.3684 0.0000
# 4 0.0000 0.0000 0.0000 3.6351 0.0000 0.9939
# 5 -52.8495 -4.7805 -40.3684 0.0000 44.1473 0.0000
# 6 0.0000 0.0000 0.0000 0.9939 0.0000 4.8711
#
#
#
# Elastic Compliance Matrix: (Units=1/GPa)
#
#
# Indices 1 2 3 4 5 6 
#
# 1 0.019507 0.002584 0.013046 0.000000 0.035561 0.000000
# 2 0.002584 0.013669 0.004299 0.000000 0.008504 0.000000
# 3 0.013046 0.004299 0.041217 0.000000 0.053772 0.000000
# 4 0.000000 0.000000 0.000000 0.291348 0.000000 -0.059447
# 5 0.035561 0.008504 0.053772 0.000000 0.115313 0.000000
# 6 0.000000 0.000000 0.000000 -0.059447 0.000000 0.217422
#
#
# Mechanical properties :
#
#
# Convention : Reuss Voigt Hill
#
# Bulk Modulus (GPa) = 8.75271 36.23505 22.49388
# Shear Modulus (GPa) = 7.17666 27.02636 17.10151
#
# Velocity S-wave (km/s) = 1.80586 3.50442 2.78766
# Velocity P-wave (km/s) = 2.88538 5.73062 4.53682
#
# Compressibility (1/GPa) = 0.11425038
#
# Stress axis : x y z
#
# Youngs Moduli (GPa) = 51.26366 73.15762 24.26168
#
# Poissons Ratio (x) = -0.18902 -0.31652
# Poissons Ratio (y) = -0.13245 -0.10429
# Poissons Ratio (z) = -0.66879 -0.31449
#
# Static dielectric constant tensor:
#      x y z
#    x 1.836850 0.000000 -0.044720 
#    y 0.000000 1.812070 0.000000 
#    z -0.044720 0.000000 1.808980 
# 
# From -- ./inp_files/42501.got.cif
#   From: 2010.05.17/outbox.cif.g08.bks.cpg/sg11_22_cif.got.tgz:42501.got - 2010.06.03 12:22:45.
