data_PCOD9156236
_publ_section_title
;
Structure prediction by ZEFSAII (Michael W. Deem and Ramdas Pophale) SiO2 
 PCOD9156236
Probable space group: P 21/M
;
_chemical_formula_sum "Si O2"
_cell_formula_units_Z 24
_cell_length_a 11.613507
_cell_length_b 16.346069
_cell_length_c 8.517651
_cell_angle_alpha 90.000000
_cell_angle_beta 143.151346
_cell_angle_gamma 90.000000
_cell_volume 969.690239
_symmetry_space_group_name_H-M "P 21/M"
_symmetry_group_IT_number 11
_symmetry_cell_setting 'monoclinic'
loop_
_space_group_symop_operation_xyz
x,y,z
-x,1/2+y,-z
-x,-y,-z
x,1/2-y,z
loop_
_atom_site_type_symbol
_atom_site_label
_atom_site_fract_x
_atom_site_fract_y
_atom_site_fract_z
Si Si1 0.993262 0.405102 0.946776
Si Si2 0.729018 0.750000 0.122022
Si Si3 0.136445 0.750000 0.650652
Si Si4 0.564083 0.917758 0.654641
Si Si5 0.174483 0.584815 0.558801
Si Si6 0.277508 0.073003 0.839972
Si Si7 0.427067 0.250000 0.409618
Si Si8 0.954168 0.750000 0.796942
O O1 0.212652 0.393715 0.131662
O O2 0.966487 0.335096 0.045632
O O3 0.000000 0.500000 0.000000
O O4 0.837323 0.398163 0.638701
O O5 0.957001 0.750000 0.332850
O O6 0.688712 0.666970 0.172687
O O7 0.634796 0.750000 0.846422
O O8 0.026585 0.750000 0.696623
O O9 0.240999 0.664997 0.727330
O O10 0.466315 0.837360 0.472245
O O11 0.500000 0.000000 0.500000
O O12 0.580089 0.935454 0.857297
O O13 0.280896 0.502236 0.725341
O O14 0.947443 0.572278 0.352657
O O15 0.266875 0.250000 0.375537
#
# Coordination Sequence:
#
# PCOD9156236 Si02
#       8
#     4   2   2   4   4   4   2   2
#     4  10  21  34  53  79 112 139 170 224 276 306
#     4   8  14  26  46  65  91 131 173 211 243 305
#     4  10  18  26  49  73 103 137 179 212 253 315
#     4   9  17  32  53  74 105 137 180 214 259 318
#     4   9  17  30  46  70 105 137 168 215 255 308
#     4   8  15  26  48  70  95 127 175 209 247 296
#     4   8  16  34  48  71  97 139 170 221 262 305
#     4  10  20  30  47  77 107 135 178 214 270 315
#
# _framework density 24.750173
#
# number of rings (size 3 to 8) (size 9 to 14) (size 15 to 20)
#    0.000    3.000    0.000    3.500    9.333    0.000 
#    0.000    1.667    0.000    1.000    0.000    0.000 
#    0.000    0.000    0.000    0.000    0.000    0.000 
#
# Total GULP energy -133803.404153 kJ/mol
# GULP energy per Si atom -5575.141840 kJ/mol
# Density = 2.469384 g / cm^3
# Si number density = 24.750173 Si / 1000 Ang^3
#
#
#
# Elastic Constant Matrix: (Units=GPa)
#
#
# Indices 1 2 3 4 5 6 
#
# 1 66.1361 37.0927 22.5381 0.0000 -0.7945 0.0000
# 2 37.0927 261.1433 57.6556 0.0000 -38.5448 0.0000
# 3 22.5381 57.6556 74.7841 0.0000 -2.0714 0.0000
# 4 0.0000 0.0000 0.0000 42.7891 0.0000 -15.2255
# 5 -0.7945 -38.5448 -2.0714 0.0000 42.3627 0.0000
# 6 0.0000 0.0000 0.0000 -15.2255 0.0000 17.1459
#
#
#
# Elastic Compliance Matrix: (Units=1/GPa)
#
#
# Indices 1 2 3 4 5 6 
#
# 1 0.017462 -0.001853 -0.003877 0.000000 -0.001548 0.000000
# 2 -0.001853 0.005619 -0.003638 0.000000 0.004900 0.000000
# 3 -0.003877 -0.003638 0.017275 0.000000 -0.002538 0.000000
# 4 0.000000 0.000000 0.000000 0.034166 0.000000 0.030339
# 5 -0.001548 0.004900 -0.002538 0.000000 0.027911 0.000000
# 6 0.000000 0.000000 0.000000 0.030339 0.000000 0.085264
#
#
# Mechanical properties :
#
#
# Convention : Reuss Voigt Hill
#
# Bulk Modulus (GPa) = 46.25310 70.73738 58.49524
# Shear Modulus (GPa) = 23.40399 39.44468 31.42433
#
# Velocity S-wave (km/s) = 3.07841 3.99646 3.56710
# Velocity P-wave (km/s) = 5.60036 7.06670 6.37583
#
# Compressibility (1/GPa) = 0.02162017
#
# Stress axis : x y z
#
# Youngs Moduli (GPa) = 57.26678 177.97198 57.88850
#
# Poissons Ratio (x) = 0.32975 0.22444
# Poissons Ratio (y) = 0.10610 0.21059
# Poissons Ratio (z) = 0.22203 0.64743
#
# Static dielectric constant tensor:
#      x y z
#    x 2.068560 0.000000 0.088360 
#    y 0.000000 2.055540 0.000000 
#    z 0.088360 0.000000 2.039080 
# 
# From -- ./inp_files/22360.got.cif
#   From: 2010.05.17/outbox.cif.g08.bks.cpg/sg11_12_cif.got.tgz:22360.got - 2010.06.03 12:22:45.
