data_PCOD9156479
_publ_section_title
;
Structure prediction by ZEFSAII (Michael W. Deem and Ramdas Pophale) SiO2 
 PCOD9156479
Probable space group: P 21/M
;
_chemical_formula_sum "Si O2"
_cell_formula_units_Z 32
_cell_length_a 29.626919
_cell_length_b 8.796001
_cell_length_c 20.229481
_cell_angle_alpha 90.000000
_cell_angle_beta 23.489230
_cell_angle_gamma 90.000000
_cell_volume 2101.204812
_symmetry_space_group_name_H-M "P 21/M"
_symmetry_group_IT_number 11
_symmetry_cell_setting 'monoclinic'
loop_
_space_group_symop_operation_xyz
x,y,z
-x,1/2+y,-z
-x,-y,-z
x,1/2-y,z
loop_
_atom_site_type_symbol
_atom_site_label
_atom_site_fract_x
_atom_site_fract_y
_atom_site_fract_z
Si Si1 0.760772 0.068162 0.898606
Si Si2 0.934964 0.072903 0.892267
Si Si3 0.336892 0.926157 0.755083
Si Si4 0.017154 0.934568 0.315159
Si Si5 0.331473 0.566370 0.612921
Si Si6 0.917049 0.569485 0.057044
Si Si7 0.110189 0.432490 0.388624
Si Si8 0.434108 0.430191 0.754843
O O1 0.765082 0.250000 0.889395
O O2 0.864827 0.018270 0.807606
O O3 0.786429 0.999538 0.791974
O O4 0.643921 0.014011 0.087293
O O5 0.966586 0.250000 0.860191
O O6 0.989993 0.012204 0.750653
O O7 0.954454 0.982738 0.933356
O O8 0.799834 0.070857 0.060097
O O9 0.371983 0.750000 0.718239
O O10 0.367629 0.975735 0.639504
O O11 0.384086 0.027949 0.750101
O O12 0.022529 0.750000 0.304714
O O13 0.913663 0.974241 0.502954
O O14 0.317902 0.750000 0.631742
O O15 0.433572 0.525886 0.426871
O O16 0.210608 0.492651 0.761365
O O17 0.917112 0.750000 0.061166
O O18 0.000000 0.500000 0.000000
O O19 0.110072 0.250000 0.383771
O O20 0.000000 0.500000 0.500000
O O21 0.426780 0.250000 0.775084
#
# Coordination Sequence:
#
# PCOD9156479 Si02
#       8
#     4   4   4   4   4   4   4   4
#     4  10  18  29  41  57  86 126 161 190 228 264
#     4   9  16  30  48  67  91 121 151 185 227 270
#     4   9  16  28  44  60  88 123 150 181 224 267
#     4   8  14  26  43  60  85 119 152 186 226 264
#     4   9  20  35  47  63  88 118 149 186 229 270
#     4  11  22  36  53  71  89 114 146 186 231 277
#     4   9  16  26  40  60  84 117 157 192 226 265
#     4  11  20  28  42  64  90 119 155 193 224 261
#
# _framework density 15.229357
#
# number of rings (size 3 to 8) (size 9 to 14) (size 15 to 20)
#    0.000    2.500    1.250    4.125    0.000    3.000 
#    0.000    1.250    0.000    0.000    0.000    0.000 
#    0.000    1.000    0.000    3.000    0.000    4.000 
#
# Total GULP energy -178293.363012 kJ/mol
# GULP energy per Si atom -5571.667594 kJ/mol
# Density = 1.519469 g / cm^3
# Si number density = 15.229357 Si / 1000 Ang^3
#
#
#
# Elastic Constant Matrix: (Units=GPa)
#
#
# Indices 1 2 3 4 5 6 
#
# 1 77.4366 31.5469 58.2528 0.0000 18.0777 0.0000
# 2 31.5469 51.5287 39.8055 0.0000 10.2530 0.0000
# 3 58.2528 39.8055 107.5420 0.0000 34.3080 0.0000
# 4 0.0000 0.0000 0.0000 21.4683 0.0000 3.9486
# 5 18.0777 10.2530 34.3080 0.0000 24.3241 0.0000
# 6 0.0000 0.0000 0.0000 3.9486 0.0000 20.8083
#
#
#
# Elastic Compliance Matrix: (Units=1/GPa)
#
#
# Indices 1 2 3 4 5 6 
#
# 1 0.023164 -0.006304 -0.010126 0.000000 -0.000276 0.000000
# 2 -0.006304 0.029228 -0.009032 0.000000 0.005104 0.000000
# 3 -0.010126 -0.009032 0.026382 0.000000 -0.025878 0.000000
# 4 0.000000 0.000000 0.000000 0.048265 0.000000 -0.009159
# 5 -0.000276 0.005104 -0.025878 0.000000 0.075665 0.000000
# 6 0.000000 0.000000 0.000000 -0.009159 0.000000 0.049796
#
#
# Mechanical properties :
#
#
# Convention : Reuss Voigt Hill
#
# Bulk Modulus (GPa) = 35.90651 55.07974 45.49313
# Shear Modulus (GPa) = 15.98943 20.44695 18.21819
#
# Velocity S-wave (km/s) = 3.24374 3.66813 3.46244
# Velocity P-wave (km/s) = 6.13657 7.36108 6.77654
#
# Compressibility (1/GPa) = 0.02785010
#
# Stress axis : x y z
#
# Youngs Moduli (GPa) = 43.17091 34.21415 37.90434
#
# Poissons Ratio (x) = 0.21570 0.38380
# Poissons Ratio (y) = 0.27217 0.34234
# Poissons Ratio (z) = 0.43713 0.30901
#
# Static dielectric constant tensor:
#      x y z
#    x 1.495780 0.000000 0.040640 
#    y 0.000000 1.509480 0.000000 
#    z 0.040640 0.000000 1.537400 
# 
# From -- ./inp_files/67413.got.cif
#   From: 2010.05.17/outbox.cif.g08.bks.cpg/sg11_34_cif.got.tgz:67413.got - 2010.06.03 12:22:45.
