data_PCOD9156114
_publ_section_title
;
Structure prediction by ZEFSAII (Michael W. Deem and Ramdas Pophale) SiO2 
 PCOD9156114
Probable space group: P 21/M
;
_chemical_formula_sum "Si O2"
_cell_formula_units_Z 20
_cell_length_a 12.736055
_cell_length_b 16.321023
_cell_length_c 10.091314
_cell_angle_alpha 90.000000
_cell_angle_beta 155.466807
_cell_angle_gamma 90.000000
_cell_volume 870.980918
_symmetry_space_group_name_H-M "P 21/M"
_symmetry_group_IT_number 11
_symmetry_cell_setting 'monoclinic'
loop_
_space_group_symop_operation_xyz
x,y,z
-x,1/2+y,-z
-x,-y,-z
x,1/2-y,z
loop_
_atom_site_type_symbol
_atom_site_label
_atom_site_fract_x
_atom_site_fract_y
_atom_site_fract_z
Si Si1 0.021693 0.842027 0.396963
Si Si2 0.880700 0.907988 0.967269
Si Si3 0.975701 0.098129 0.142474
Si Si4 0.488710 0.076909 0.688542
Si Si5 0.454379 0.431755 0.057602
O O1 0.025900 0.750000 0.450876
O O2 0.307917 0.872068 0.695310
O O3 0.886919 0.849020 0.098000
O O4 0.829071 0.895531 0.265430
O O5 0.621981 0.919835 0.587758
O O6 0.056127 0.875285 0.047256
O O7 0.965708 0.998297 0.114834
O O8 0.262068 0.118600 0.509859
O O9 0.757050 0.120476 0.991413
O O10 0.519994 0.984915 0.777609
O O11 0.500000 0.500000 0.000000
#
# Coordination Sequence:
#
# PCOD9156114 Si02
#       5
#     4   4   4   4   4
#     4  12  25  40  61  92 126 157 196 266 340 375
#     4   9  18  29  56  84 122 144 179 234 306 367
#     4   9  16  25  51  81 120 141 178 229 289 346
#     4  10  17  31  54  89 113 146 190 246 287 340
#     4  12  24  42  62  90 121 166 226 260 290 363
#
# _framework density 22.962613999999999
#
# number of rings (size 3 to 8) (size 9 to 14) (size 15 to 20)
#    1.200    0.400    4.000    1.800    2.800    0.000 
#    0.000    0.000    0.000    2.400    0.000    0.000 
#    0.000    0.000    0.000    0.000    0.000    0.000 
#
# Total GULP energy -111345.496760 kJ/mol
# GULP energy per Si atom -5567.274838 kJ/mol
# Density = 2.291035 g / cm^3
# Si number density = 22.962614 Si / 1000 Ang^3
#
#
#
# Elastic Constant Matrix: (Units=GPa)
#
#
# Indices 1 2 3 4 5 6 
#
# 1 91.3950 19.6270 41.3310 0.0000 47.8875 0.0000
# 2 19.6270 29.5166 -1.9870 0.0000 1.2944 0.0000
# 3 41.3310 -1.9870 79.3519 0.0000 43.7008 0.0000
# 4 0.0000 0.0000 0.0000 10.0482 0.0000 4.4362
# 5 47.8875 1.2944 43.7008 0.0000 53.4159 0.0000
# 6 0.0000 0.0000 0.0000 4.4362 0.0000 12.4858
#
#
#
# Elastic Compliance Matrix: (Units=1/GPa)
#
#
# Indices 1 2 3 4 5 6 
#
# 1 0.027384 -0.017416 -0.002569 0.000000 -0.022026 0.000000
# 2 -0.017416 0.045238 0.004021 0.000000 0.011228 0.000000
# 3 -0.002569 0.004021 0.023344 0.000000 -0.016892 0.000000
# 4 0.000000 0.000000 0.000000 0.118035 0.000000 -0.041937
# 5 -0.022026 0.011228 -0.016892 0.000000 0.052015 0.000000
# 6 0.000000 0.000000 0.000000 -0.041937 0.000000 0.094991
#
#
# Mechanical properties :
#
#
# Convention : Reuss Voigt Hill
#
# Bulk Modulus (GPa) = 15.61591 35.35618 25.48605
# Shear Modulus (GPa) = 12.06904 24.60950 18.33927
#
# Velocity S-wave (km/s) = 2.29507 3.27727 2.82912
# Velocity P-wave (km/s) = 3.72001 5.45448 4.66850
#
# Compressibility (1/GPa) = 0.06403724
#
# Stress axis : x y z
#
# Youngs Moduli (GPa) = 36.51727 22.10512 42.83766
#
# Poissons Ratio (x) = 0.38499 0.11006
# Poissons Ratio (y) = 0.63599 -0.17223
# Poissons Ratio (z) = 0.09382 -0.08888
#
# Static dielectric constant tensor:
#      x y z
#    x 2.023870 0.000000 0.083840 
#    y 0.000000 1.816930 0.000000 
#    z 0.083840 0.000000 1.965550 
# 
# From -- ./inp_files/39929.got.cif
#   From: 2010.05.17/outbox.cif.g08.bks.cpg/sg11_20_cif.got.tgz:39929.got - 2010.06.03 12:22:45.
