data_PCOD9156743
_publ_section_title
;
Structure prediction by ZEFSAII (Michael W. Deem and Ramdas Pophale) SiO2 
 PCOD9156743
Probable space group: P 21/M
;
_chemical_formula_sum "Si O2"
_cell_formula_units_Z 32
_cell_length_a 21.658493
_cell_length_b 8.683622
_cell_length_c 12.867511
_cell_angle_alpha 90.000000
_cell_angle_beta 126.299823
_cell_angle_gamma 90.000000
_cell_volume 1950.388267
_symmetry_space_group_name_H-M "P 21/M"
_symmetry_group_IT_number 11
_symmetry_cell_setting 'monoclinic'
loop_
_space_group_symop_operation_xyz
x,y,z
-x,1/2+y,-z
-x,-y,-z
x,1/2-y,z
loop_
_atom_site_type_symbol
_atom_site_label
_atom_site_fract_x
_atom_site_fract_y
_atom_site_fract_z
Si Si1 0.157773 0.932963 0.540927
Si Si2 0.314034 0.434559 0.628032
Si Si3 0.159178 0.066238 0.776400
Si Si4 0.000355 0.934040 0.618080
Si Si5 0.406263 0.432648 0.293870
Si Si6 0.313969 0.932521 0.018004
Si Si7 0.427077 0.065251 0.554557
Si Si8 0.584701 0.934541 0.066589
O O1 0.149966 0.750000 0.541423
O O2 0.233265 0.980337 0.553868
O O3 0.167843 0.001987 0.667331
O O4 0.079552 0.003910 0.416661
O O5 0.300679 0.250000 0.612990
O O6 0.364949 0.476303 0.579104
O O7 0.363046 0.468764 0.780541
O O8 0.154481 0.250000 0.766532
O O9 0.079869 0.997976 0.742229
O O10 0.233319 0.013013 0.913134
O O11 0.000889 0.750000 0.616408
O O12 0.000000 0.000000 0.500000
O O13 0.396646 0.250000 0.270251
O O14 0.492276 0.481461 0.347602
O O15 0.400111 0.469105 0.410352
O O16 0.346842 0.521298 0.162602
O O17 0.305491 0.750000 0.999773
O O18 0.374772 0.992012 0.992987
O O19 0.440372 0.250000 0.574421
O O20 0.581411 0.750000 0.050989
O O21 0.500000 0.000000 0.000000
#
# Coordination Sequence:
#
# PCOD9156743 Si02
#       8
#     4   4   4   4   4   4   4   4
#     4  11  20  31  48  73 103 136 171 207 249 300
#     4  10  20  34  51  72 101 136 170 209 256 303
#     4  11  20  33  50  72 102 134 170 211 255 303
#     4  10  18  30  48  70  99 135 170 204 247 298
#     4  10  20  35  55  77 101 131 172 219 265 307
#     4  12  23  35  51  73 103 137 175 213 255 305
#     4   9  19  36  56  77 101 131 171 218 264 309
#     4  11  22  34  50  72 103 137 170 206 253 309
#
# _framework density 16.406988999999999
#
# number of rings (size 3 to 8) (size 9 to 14) (size 15 to 20)
#    0.000    1.500    1.250    7.500    0.000    2.500 
#    0.000    0.000    0.000    0.000    0.000    0.875 
#    0.000    0.000    0.000    0.000    0.000    0.000 
#
# Total GULP energy -178728.578173 kJ/mol
# GULP energy per Si atom -5585.268068 kJ/mol
# Density = 1.636965 g / cm^3
# Si number density = 16.406989 Si / 1000 Ang^3
#
#
#
# Elastic Constant Matrix: (Units=GPa)
#
#
# Indices 1 2 3 4 5 6 
#
# 1 54.0936 30.9139 27.6850 0.0000 14.6802 0.0000
# 2 30.9139 106.4732 33.6662 0.0000 11.2480 0.0000
# 3 27.6850 33.6662 63.0982 0.0000 16.2792 0.0000
# 4 0.0000 0.0000 0.0000 23.8279 0.0000 8.2836
# 5 14.6802 11.2480 16.2792 0.0000 25.5678 0.0000
# 6 0.0000 0.0000 0.0000 8.2836 0.0000 27.2639
#
#
#
# Elastic Compliance Matrix: (Units=1/GPa)
#
#
# Indices 1 2 3 4 5 6 
#
# 1 0.027281 -0.004713 -0.007118 0.000000 -0.009058 0.000000
# 2 -0.004713 0.012152 -0.004469 0.000000 0.000206 0.000000
# 3 -0.007118 -0.004469 0.023685 0.000000 -0.009027 0.000000
# 4 0.000000 0.000000 0.000000 0.046924 0.000000 -0.014257
# 5 -0.009058 0.000206 -0.009027 0.000000 0.049970 0.000000
# 6 0.000000 0.000000 0.000000 -0.014257 0.000000 0.041010
#
#
# Mechanical properties :
#
#
# Convention : Reuss Voigt Hill
#
# Bulk Modulus (GPa) = 32.76779 45.35504 39.06142
# Shear Modulus (GPa) = 20.50902 24.09190 22.30046
#
# Velocity S-wave (km/s) = 3.53939 3.83612 3.69074
# Velocity P-wave (km/s) = 6.05956 6.87930 6.48240
#
# Compressibility (1/GPa) = 0.03051777
#
# Stress axis : x y z
#
# Youngs Moduli (GPa) = 36.65489 82.29257 42.22123
#
# Poissons Ratio (x) = 0.38787 0.30054
# Poissons Ratio (y) = 0.17277 0.18867
# Poissons Ratio (z) = 0.26092 0.36773
#
# Static dielectric constant tensor:
#      x y z
#    x 1.553360 0.000000 0.015120 
#    y 0.000000 1.548560 0.000000 
#    z 0.015120 0.000000 1.546750 
# 
# From -- ./inp_files/42907.got.cif
#   From: 2010.05.17/outbox.cif.g08.bks.cpg/sg11_22_cif.got.tgz:42907.got - 2010.06.03 12:22:45.
