data_PCOD9156048
_publ_section_title
;
Structure prediction by ZEFSAII (Michael W. Deem and Ramdas Pophale) SiO2 
 PCOD9156048
Probable space group: P 21/M
;
_chemical_formula_sum "Si O2"
_cell_formula_units_Z 32
_cell_length_a 18.267815
_cell_length_b 8.508142
_cell_length_c 24.647818
_cell_angle_alpha 90.000000
_cell_angle_beta 149.411565
_cell_angle_gamma 90.000000
_cell_volume 1949.416645
_symmetry_space_group_name_H-M "P 21/M"
_symmetry_group_IT_number 11
_symmetry_cell_setting 'monoclinic'
loop_
_space_group_symop_operation_xyz
x,y,z
-x,1/2+y,-z
-x,-y,-z
x,1/2-y,z
loop_
_atom_site_type_symbol
_atom_site_label
_atom_site_fract_x
_atom_site_fract_y
_atom_site_fract_z
Si Si1 0.376954 0.558585 0.692477
Si Si2 0.115898 0.936906 0.117752
Si Si3 0.903781 0.063535 0.062670
Si Si4 0.185958 0.439651 0.762380
Si Si5 0.328860 0.438572 0.172494
Si Si6 0.053337 0.559617 0.475751
Si Si7 0.219803 0.059731 0.906588
Si Si8 0.550745 0.439632 0.138497
O O1 0.378870 0.750000 0.693813
O O2 0.510975 0.508186 0.741127
O O3 0.218473 0.508365 0.573154
O O4 0.405017 0.508909 0.772589
O O5 0.111045 0.750000 0.115722
O O6 0.266066 0.993950 0.188461
O O7 0.055672 0.003771 0.135625
O O8 0.000000 0.000000 0.000000
O O9 0.896752 0.250000 0.052469
O O10 0.873015 0.011458 0.104134
O O11 0.778019 0.990206 0.944428
O O12 0.185925 0.250000 0.762105
O O13 0.173288 0.489851 0.816708
O O14 0.335588 0.495271 0.831836
O O15 0.056281 0.494166 0.640845
O O16 0.324893 0.250000 0.172570
O O17 0.051360 0.750000 0.475375
O O18 0.000000 0.500000 0.500000
O O19 0.212561 0.250000 0.905711
O O20 0.386870 0.013855 0.021855
O O21 0.556916 0.250000 0.140982
#
# Coordination Sequence:
#
# PCOD9156048 Si02
#       8
#     4   4   4   4   4   4   4   4
#     4   9  17  29  48  69  92 126 159 191 235 283
#     4  10  18  29  45  68  98 129 156 188 230 280
#     4  11  20  30  46  70  96 126 159 192 231 280
#     4  10  21  33  48  69  93 122 161 205 239 275
#     4  10  17  30  48  68  96 128 159 192 232 281
#     4  10  19  33  49  68  91 121 160 199 240 280
#     4  10  20  34  47  65  95 129 160 193 238 284
#     4  10  18  31  49  66  92 128 160 191 236 288
#
# _framework density 16.415168000000001
#
# number of rings (size 3 to 8) (size 9 to 14) (size 15 to 20)
#    0.000    2.000    2.500    4.500    0.000    1.000 
#    0.000    1.250    0.000    0.000    0.000    0.875 
#    0.000    0.000    0.000    0.000    0.000    0.000 
#
# Total GULP energy -178509.259723 kJ/mol
# GULP energy per Si atom -5578.414366 kJ/mol
# Density = 1.637781 g / cm^3
# Si number density = 16.415168 Si / 1000 Ang^3
#
#
#
# Elastic Constant Matrix: (Units=GPa)
#
#
# Indices 1 2 3 4 5 6 
#
# 1 174.3713 32.7836 66.8118 0.0000 10.1110 0.0000
# 2 32.7836 41.9660 18.9894 0.0000 0.2418 0.0000
# 3 66.8118 18.9894 65.7171 0.0000 -5.9910 0.0000
# 4 0.0000 0.0000 0.0000 8.5461 0.0000 1.8711
# 5 10.1110 0.2418 -5.9910 0.0000 23.3802 0.0000
# 6 0.0000 0.0000 0.0000 1.8711 0.0000 29.2422
#
#
#
# Elastic Compliance Matrix: (Units=1/GPa)
#
#
# Indices 1 2 3 4 5 6 
#
# 1 0.010997 -0.003658 -0.010806 0.000000 -0.007487 0.000000
# 2 -0.003658 0.028759 -0.004581 0.000000 0.000111 0.000000
# 3 -0.010806 -0.004581 0.028625 0.000000 0.012055 0.000000
# 4 0.000000 0.000000 0.000000 0.118675 0.000000 -0.007594
# 5 -0.007487 0.000111 0.012055 0.000000 0.049097 0.000000
# 6 0.000000 0.000000 0.000000 -0.007594 0.000000 0.034683
#
#
# Mechanical properties :
#
#
# Convention : Reuss Voigt Hill
#
# Bulk Modulus (GPa) = 33.01260 57.69158 45.35209
# Shear Modulus (GPa) = 15.67287 23.13167 19.40227
#
# Velocity S-wave (km/s) = 3.09330 3.75796 3.44171
# Velocity P-wave (km/s) = 5.73696 7.35195 6.59409
#
# Compressibility (1/GPa) = 0.03029146
#
# Stress axis : x y z
#
# Youngs Moduli (GPa) = 90.93282 34.77206 34.93421
#
# Poissons Ratio (x) = 0.12720 0.37749
# Poissons Ratio (y) = 0.33265 0.16003
# Poissons Ratio (z) = 0.98260 0.15929
#
# Static dielectric constant tensor:
#      x y z
#    x 1.563010 0.000000 0.011510 
#    y 0.000000 1.559800 0.000000 
#    z 0.011510 0.000000 1.540970 
# 
# From -- ./inp_files/61798.got.cif
#   From: 2010.05.17/outbox.cif.g08.bks.cpg/sg11_31_cif.got.tgz:61798.got - 2010.06.03 12:22:45.
