data_PCOD9156683
_publ_section_title
;
Structure prediction by ZEFSAII (Michael W. Deem and Ramdas Pophale) SiO2 
 PCOD9156683
Probable space group: P 21/M
;
_chemical_formula_sum "Si O2"
_cell_formula_units_Z 32
_cell_length_a 20.596598
_cell_length_b 8.373922
_cell_length_c 30.144232
_cell_angle_alpha 90.000000
_cell_angle_beta 23.144080
_cell_angle_gamma 90.000000
_cell_volume 2043.480625
_symmetry_space_group_name_H-M "P 21/M"
_symmetry_group_IT_number 11
_symmetry_cell_setting 'monoclinic'
loop_
_space_group_symop_operation_xyz
x,y,z
-x,1/2+y,-z
-x,-y,-z
x,1/2-y,z
loop_
_atom_site_type_symbol
_atom_site_label
_atom_site_fract_x
_atom_site_fract_y
_atom_site_fract_z
Si Si1 0.768564 0.936975 0.551877
Si Si2 0.111381 0.557515 0.888894
Si Si3 0.447530 0.941829 0.081099
Si Si4 0.882154 0.937699 0.667161
Si Si5 0.820898 0.555990 0.013957
Si Si6 0.614387 0.938619 0.063929
Si Si7 0.403365 0.943731 0.762570
Si Si8 0.257794 0.564873 0.334531
O O1 0.783145 0.750000 0.532663
O O2 0.592801 0.998421 0.644070
O O3 0.759774 0.961926 0.610491
O O4 0.934414 0.022641 0.431737
O O5 0.113068 0.750000 0.886943
O O6 0.295237 0.505977 0.787560
O O7 0.000000 0.500000 0.000000
O O8 0.005223 0.504467 0.912964
O O9 0.450487 0.750000 0.080630
O O10 0.570571 0.003915 0.042831
O O11 0.263817 0.995943 0.210268
O O12 0.500000 0.000000 0.000000
O O13 0.860048 0.750000 0.676384
O O14 0.857030 0.015160 0.634293
O O15 0.816677 0.750000 0.015812
O O16 0.755584 0.495146 0.007583
O O17 0.693903 0.503121 0.132511
O O18 0.649513 0.750000 0.035953
O O19 0.443549 0.950142 0.198860
O O20 0.404781 0.750000 0.763725
O O21 0.227438 0.750000 0.365205
#
# Coordination Sequence:
#
# PCOD9156683 Si02
#       8
#     4   4   4   4   4   4   4   4
#     4  11  20  29  41  59  87 120 152 184 217 255
#     4   8  14  23  36  54  79 111 147 181 213 248
#     4  10  20  36  53  69  89 112 140 176 220 265
#     4  11  22  34  47  64  84 110 146 182 221 262
#     4   9  14  24  41  59  81 113 149 181 213 251
#     4   8  15  26  43  65  86 110 143 179 212 251
#     4   9  17  26  36  56  85 117 149 183 216 247
#     4  10  18  30  44  60  86 116 149 184 219 256
#
# _framework density 15.659557
#
# number of rings (size 3 to 8) (size 9 to 14) (size 15 to 20)
#    0.000    2.500    1.250    3.375    0.000    0.500 
#    0.000    0.625    0.000    0.000    0.000    0.000 
#    0.000    1.000    0.000    1.750    0.000    2.500 
#
# Total GULP energy -178213.841154 kJ/mol
# GULP energy per Si atom -5569.182536 kJ/mol
# Density = 1.562391 g / cm^3
# Si number density = 15.659557 Si / 1000 Ang^3
#
#
#
# Elastic Constant Matrix: (Units=GPa)
#
#
# Indices 1 2 3 4 5 6 
#
# 1 119.2365 6.1413 61.5902 0.0000 -26.1669 0.0000
# 2 6.1413 14.5809 4.7001 0.0000 -2.1061 0.0000
# 3 61.5902 4.7001 62.0919 0.0000 -22.5283 0.0000
# 4 0.0000 0.0000 0.0000 17.5633 0.0000 1.8613
# 5 -26.1669 -2.1061 -22.5283 0.0000 28.4761 0.0000
# 6 0.0000 0.0000 0.0000 1.8613 0.0000 13.3895
#
#
#
# Elastic Compliance Matrix: (Units=1/GPa)
#
#
# Indices 1 2 3 4 5 6 
#
# 1 0.017456 -0.001724 -0.016005 0.000000 0.003251 0.000000
# 2 -0.001724 0.070508 -0.003240 0.000000 0.001068 0.000000
# 3 -0.016005 -0.003240 0.037594 0.000000 0.014795 0.000000
# 4 0.000000 0.000000 0.000000 0.057788 0.000000 -0.008033
# 5 0.003251 0.001068 0.014795 0.000000 0.049888 0.000000
# 6 0.000000 0.000000 0.000000 -0.008033 0.000000 0.075802
#
#
# Mechanical properties :
#
#
# Convention : Reuss Voigt Hill
#
# Bulk Modulus (GPa) = 11.95885 37.86363 24.91124
# Shear Modulus (GPa) = 13.19792 20.11762 16.65777
#
# Velocity S-wave (km/s) = 2.90626 3.58814 3.26505
# Velocity P-wave (km/s) = 4.34915 6.43413 5.49150
#
# Compressibility (1/GPa) = 0.08362009
#
# Stress axis : x y z
#
# Youngs Moduli (GPa) = 57.28620 14.18289 26.59980
#
# Poissons Ratio (x) = 0.02445 0.42573
# Poissons Ratio (y) = 0.09874 0.08619
# Poissons Ratio (z) = 0.91688 0.04596
#
# Static dielectric constant tensor:
#      x y z
#    x 1.583750 0.000000 -0.061380 
#    y 0.000000 1.530510 0.000000 
#    z -0.061380 0.000000 1.515140 
# 
# From -- ./inp_files/73614.got.cif
#   From: 2010.05.17/outbox.cif.g08.bks.cpg/sg11_37_cif.got.tgz:73614.got - 2010.06.03 12:22:45.
