data_PCOD9156170
_publ_section_title
;
Structure prediction by ZEFSAII (Michael W. Deem and Ramdas Pophale) SiO2 
 PCOD9156170
Probable space group: P 21/M
;
_chemical_formula_sum "Si O2"
_cell_formula_units_Z 32
_cell_length_a 17.552159
_cell_length_b 15.340234
_cell_length_c 11.876423
_cell_angle_alpha 90.000000
_cell_angle_beta 32.161672
_cell_angle_gamma 90.000000
_cell_volume 1702.209028
_symmetry_space_group_name_H-M "P 21/M"
_symmetry_group_IT_number 11
_symmetry_cell_setting 'monoclinic'
loop_
_space_group_symop_operation_xyz
x,y,z
-x,1/2+y,-z
-x,-y,-z
x,1/2-y,z
loop_
_atom_site_type_symbol
_atom_site_label
_atom_site_fract_x
_atom_site_fract_y
_atom_site_fract_z
Si Si1 0.695678 0.346339 0.614751
Si Si2 0.172949 0.607786 0.789729
Si Si3 0.154345 0.397338 0.832477
Si Si4 0.349372 0.151445 0.042196
Si Si5 0.342939 0.408462 0.795409
Si Si6 0.604604 0.386052 0.308078
Si Si7 0.343208 0.476478 0.239773
Si Si8 0.404320 0.343094 0.360727
O O1 0.744105 0.250000 0.593300
O O2 0.746099 0.359158 0.422826
O O3 0.739097 0.433966 0.628180
O O4 0.522781 0.346748 0.837149
O O5 0.176048 0.501477 0.783871
O O6 0.252197 0.639787 0.803912
O O7 0.006203 0.630314 0.992161
O O8 0.201925 0.384570 0.901545
O O9 0.269438 0.348435 0.612705
O O10 0.297151 0.250000 0.122331
O O11 0.283234 0.086409 0.217527
O O12 0.328122 0.119564 0.941571
O O13 0.479014 0.369757 0.557327
O O14 0.374033 0.511499 0.745088
O O15 0.543800 0.350215 0.266459
O O16 0.376293 0.421196 0.310332
O O17 0.500000 0.500000 0.000000
O O18 0.409225 0.250000 0.293816
#
# Coordination Sequence:
#
# PCOD9156170 Si02
#       8
#     4   4   4   4   4   4   4   4
#     4  10  19  31  52  78 104 136 180 225 270 321
#     4  10  17  34  54  80 110 147 181 208 272 333
#     4   9  20  32  54  81 114 146 174 217 268 332
#     4  10  19  31  52  79 103 141 187 226 265 315
#     4   9  16  30  50  78 109 139 176 220 270 313
#     4   9  17  29  52  76 111 143 171 217 270 321
#     4  10  20  35  53  75 108 138 178 233 274 310
#     4  11  21  34  52  82 113 145 177 218 272 319
#
# _framework density 18.799102000000001
#
# number of rings (size 3 to 8) (size 9 to 14) (size 15 to 20)
#    0.000    2.250    2.500    2.625    0.000    3.500 
#    0.000    0.000    0.000    0.750    6.500    0.000 
#    0.000    0.000    0.000    0.000    0.000    0.000 
#
# Total GULP energy -178286.442134 kJ/mol
# GULP energy per Si atom -5571.451317 kJ/mol
# Density = 1.875631 g / cm^3
# Si number density = 18.799102 Si / 1000 Ang^3
#
#
#
# Elastic Constant Matrix: (Units=GPa)
#
#
# Indices 1 2 3 4 5 6 
#
# 1 107.1928 54.8314 29.9853 0.0000 7.6028 0.0000
# 2 54.8314 112.3801 27.4562 0.0000 15.4773 0.0000
# 3 29.9853 27.4562 28.3316 0.0000 2.3643 0.0000
# 4 0.0000 0.0000 0.0000 5.4983 0.0000 -3.7987
# 5 7.6028 15.4773 2.3643 0.0000 35.6852 0.0000
# 6 0.0000 0.0000 0.0000 -3.7987 0.0000 -3.9736
#
#
#
# Elastic Compliance Matrix: (Units=1/GPa)
#
#
# Indices 1 2 3 4 5 6 
#
# 1 0.014777 -0.004363 -0.011369 0.000000 -0.000503 0.000000
# 2 -0.004363 0.013653 -0.008243 0.000000 -0.004446 0.000000
# 3 -0.011369 -0.008243 0.055122 0.000000 0.002345 0.000000
# 4 0.000000 0.000000 0.000000 0.109531 0.000000 -0.104710
# 5 -0.000503 -0.004446 0.002345 0.000000 0.029903 0.000000
# 6 0.000000 0.000000 0.000000 -0.104710 0.000000 -0.151559
#
#
# Mechanical properties :
#
#
# Convention : Reuss Voigt Hill
#
# Bulk Modulus (GPa) = 28.08852 52.49448 40.29150
# Shear Modulus (GPa) = 38.09732 16.48410 27.29071
#
# Velocity S-wave (km/s) = 4.50661 2.96439 3.81426
# Velocity P-wave (km/s) = 6.48484 6.30090 6.39353
#
# Compressibility (1/GPa) = 0.03560173
#
# Stress axis : x y z
#
# Youngs Moduli (GPa) = 67.67441 73.24300 18.14165
#
# Poissons Ratio (x) = 0.31954 0.20626
# Poissons Ratio (y) = 0.29525 0.14954
# Poissons Ratio (z) = 0.76941 0.60373
#
# Static dielectric constant tensor:
#      x y z
#    x 1.668970 0.000000 0.015390 
#    y 0.000000 1.736530 0.000000 
#    z 0.015390 0.000000 1.621120 
# 
# From -- ./inp_files/41661.got.cif
#   From: 2010.05.17/outbox.cif.g08.bks.cpg/sg11_21_cif.got.tgz:41661.got - 2010.06.03 12:22:45.
