data_PCOD9156041
_publ_section_title
;
Structure prediction by ZEFSAII (Michael W. Deem and Ramdas Pophale) SiO2 
 PCOD9156041
Probable space group: P 21/M
;
_chemical_formula_sum "Si O2"
_cell_formula_units_Z 28
_cell_length_a 11.246030
_cell_length_b 14.190585
_cell_length_c 18.653035
_cell_angle_alpha 90.000000
_cell_angle_beta 155.641399
_cell_angle_gamma 90.000000
_cell_volume 1227.768433
_symmetry_space_group_name_H-M "P 21/M"
_symmetry_group_IT_number 11
_symmetry_cell_setting 'monoclinic'
loop_
_space_group_symop_operation_xyz
x,y,z
-x,1/2+y,-z
-x,-y,-z
x,1/2-y,z
loop_
_atom_site_type_symbol
_atom_site_label
_atom_site_fract_x
_atom_site_fract_y
_atom_site_fract_z
Si Si1 0.754303 0.143632 0.599861
Si Si2 0.197580 0.140906 0.028707
Si Si3 0.734103 0.981332 0.067624
Si Si4 0.476790 0.001760 0.709173
Si Si5 0.420440 0.642193 0.107990
Si Si6 0.482399 0.856243 0.385575
Si Si7 0.083500 0.647104 0.466518
O O1 0.872335 0.250000 0.680879
O O2 0.503992 0.131717 0.520915
O O3 0.713265 0.144814 0.492403
O O4 0.987152 0.064766 0.744819
O O5 0.278816 0.250000 0.083526
O O6 0.349585 0.090628 0.043402
O O7 0.268815 0.074635 0.136113
O O8 0.858625 0.139769 0.822912
O O9 0.779956 0.080449 0.052895
O O10 0.500000 0.000000 0.000000
O O11 0.204573 0.936608 0.580057
O O12 0.549906 0.088740 0.800829
O O13 0.401029 0.054794 0.593643
O O14 0.333804 0.750000 0.067679
O O15 0.751379 0.637740 0.260708
O O16 0.586713 0.750000 0.424384
O O17 0.101931 0.750000 0.511220
#
# Coordination Sequence:
#
# PCOD9156041 Si02
#       7
#     4   4   4   4   4   4   4
#     4   9  18  34  55  79 104 133 169 208 254 305
#     4   9  19  33  50  76 103 129 168 213 256 303
#     4  10  17  29  54  78  96 126 169 210 249 297
#     4  11  20  32  52  76 103 135 174 208 251 301
#     4  10  21  34  50  74 105 136 168 210 257 303
#     4   9  18  33  53  73  98 132 169 211 257 303
#     4  10  20  34  52  73 101 136 173 211 251 301
#
# _framework density 22.805603999999999
#
# number of rings (size 3 to 8) (size 9 to 14) (size 15 to 20)
#    0.000    2.286    1.429    3.000    0.000    1.143 
#    0.000    0.000    0.000    7.714    0.000    0.000 
#    0.000    0.000    0.000    0.000    0.000    0.000 
#
# Total GULP energy -156074.818906 kJ/mol
# GULP energy per Si atom -5574.100675 kJ/mol
# Density = 2.275370 g / cm^3
# Si number density = 22.805604 Si / 1000 Ang^3
#
#
#
# Elastic Constant Matrix: (Units=GPa)
#
#
# Indices 1 2 3 4 5 6 
#
# 1 49.3340 27.1534 -7.4164 0.0000 -4.3124 0.0000
# 2 27.1534 182.9746 20.4315 0.0000 8.6555 0.0000
# 3 -7.4164 20.4315 34.1232 0.0000 -6.9580 0.0000
# 4 0.0000 0.0000 0.0000 27.1171 0.0000 -0.8843
# 5 -4.3124 8.6555 -6.9580 0.0000 10.1317 0.0000
# 6 0.0000 0.0000 0.0000 -0.8843 0.0000 29.9433
#
#
#
# Elastic Compliance Matrix: (Units=1/GPa)
#
#
# Indices 1 2 3 4 5 6 
#
# 1 0.030115 -0.007964 0.017809 0.000000 0.031853 0.000000
# 2 -0.007964 0.008691 -0.010628 0.000000 -0.018113 0.000000
# 3 0.017809 -0.010628 0.049929 0.000000 0.050949 0.000000
# 4 0.000000 0.000000 0.000000 0.036913 0.000000 0.001090
# 5 0.031853 -0.018113 0.050949 0.000000 0.162722 0.000000
# 6 0.000000 0.000000 0.000000 0.001090 0.000000 0.033429
#
#
# Mechanical properties :
#
#
# Convention : Reuss Voigt Hill
#
# Bulk Modulus (GPa) = 11.47216 38.52990 25.00103
# Shear Modulus (GPa) = 14.18759 28.52264 21.35511
#
# Velocity S-wave (km/s) = 2.49692 3.54034 3.06338
# Velocity P-wave (km/s) = 3.65433 5.80031 4.84756
#
# Compressibility (1/GPa) = 0.08716752
#
# Stress axis : x y z
#
# Youngs Moduli (GPa) = 33.20582 115.06441 20.02857
#
# Poissons Ratio (x) = 0.91643 -0.35669
# Poissons Ratio (y) = 0.26447 0.21287
# Poissons Ratio (z) = -0.59136 1.22292
#
# Static dielectric constant tensor:
#      x y z
#    x 1.964570 0.000000 -0.020170 
#    y 0.000000 1.866310 0.000000 
#    z -0.020170 0.000000 1.871670 
# 
# From -- ./inp_files/43194.got.cif
#   From: 2010.05.17/outbox.cif.g08.bks.cpg/sg11_22_cif.got.tgz:43194.got - 2010.06.03 12:22:45.
