data_PCOD9156833
_publ_section_title
;
Structure prediction by ZEFSAII (Michael W. Deem and Ramdas Pophale) SiO2 
 PCOD9156833
Probable space group: P 21/M
;
_chemical_formula_sum "Si O2"
_cell_formula_units_Z 30
_cell_length_a 15.595433
_cell_length_b 14.928848
_cell_length_c 11.323273
_cell_angle_alpha 90.000000
_cell_angle_beta 152.515551
_cell_angle_gamma 90.000000
_cell_volume 1216.675608
_symmetry_space_group_name_H-M "P 21/M"
_symmetry_group_IT_number 11
_symmetry_cell_setting 'monoclinic'
loop_
_space_group_symop_operation_xyz
x,y,z
-x,1/2+y,-z
-x,-y,-z
x,1/2-y,z
loop_
_atom_site_type_symbol
_atom_site_label
_atom_site_fract_x
_atom_site_fract_y
_atom_site_fract_z
Si Si1 0.948413 0.750000 0.435837
Si Si2 0.723987 0.581995 0.277166
Si Si3 0.982143 0.416985 0.634351
Si Si4 0.590358 0.973387 0.889145
Si Si5 0.730209 0.349692 0.944657
Si Si6 0.497505 0.100837 0.446856
Si Si7 0.872561 0.642643 0.677654
Si Si8 0.079672 0.353663 0.997740
O O1 0.824919 0.671482 0.353052
O O2 0.050334 0.828171 0.480381
O O3 0.855590 0.495496 0.431384
O O4 0.558888 0.558629 0.984262
O O5 0.709942 0.598996 0.400992
O O6 0.199399 0.438937 0.881120
O O7 0.965946 0.403115 0.756259
O O8 0.464994 0.916533 0.644772
O O9 0.623577 0.076421 0.890088
O O10 0.735567 0.250000 0.006539
O O11 0.636189 0.346957 0.700662
O O12 0.941119 0.374175 0.170732
O O13 0.294844 0.142652 0.218767
O O14 0.500000 0.000000 0.500000
O O15 0.842015 0.750000 0.649931
O O16 0.910555 0.609212 0.856747
O O17 0.019116 0.250000 0.928979
#
# Coordination Sequence:
#
# PCOD9156833 Si02
#       8
#     2   4   4   4   4   4   4   4
#     4  10  18  30  50  72 112 146 176 230 278 330
#     4  11  20  33  51  82 115 147 184 232 293 336
#     4  10  19  31  50  80 108 145 184 225 286 332
#     4   9  18  32  51  76 111 136 184 236 267 335
#     4  10  19  33  53  81 111 145 186 230 294 333
#     4   9  19  36  55  80 109 142 191 237 277 330
#     4  10  21  34  55  85 117 148 185 233 291 345
#     4  10  20  37  56  82 117 151 190 236 281 338
#
# _framework density 24.657354000000002
#
# number of rings (size 3 to 8) (size 9 to 14) (size 15 to 20)
#    0.000    2.133    2.667    2.000    0.000    0.533 
#    1.200    0.000    0.000    3.200    0.000    0.000 
#    0.000    0.000    0.000    0.000    0.000    0.000 
#
# Total GULP energy -167025.856509 kJ/mol
# GULP energy per Si atom -5567.528550 kJ/mol
# Density = 2.460123 g / cm^3
# Si number density = 24.657354 Si / 1000 Ang^3
#
#
#
# Elastic Constant Matrix: (Units=GPa)
#
#
# Indices 1 2 3 4 5 6 
#
# 1 103.2406 42.2649 38.2020 0.0000 -26.3486 0.0000
# 2 42.2649 140.1124 10.8723 0.0000 -14.5441 0.0000
# 3 38.2020 10.8723 81.2832 0.0000 -28.6559 0.0000
# 4 0.0000 0.0000 0.0000 20.8121 0.0000 -20.7022
# 5 -26.3486 -14.5441 -28.6559 0.0000 45.5843 0.0000
# 6 0.0000 0.0000 0.0000 -20.7022 0.0000 19.8699
#
#
#
# Elastic Compliance Matrix: (Units=1/GPa)
#
#
# Indices 1 2 3 4 5 6 
#
# 1 0.013805 -0.003391 -0.004629 0.000000 0.003988 0.000000
# 2 -0.003391 0.008217 0.000935 0.000000 0.001250 0.000000
# 3 -0.004629 0.000935 0.017363 0.000000 0.008538 0.000000
# 4 0.000000 0.000000 0.000000 -1.320326 0.000000 -1.375635
# 5 0.003988 0.001250 0.008538 0.000000 0.030008 0.000000
# 6 0.000000 0.000000 0.000000 -1.375635 0.000000 -1.382933
#
#
# Mechanical properties :
#
#
# Convention : Reuss Voigt Hill
#
# Bulk Modulus (GPa) = 39.65759 56.36827 48.01293
# Shear Modulus (GPa) = -1.91476 32.80637 15.44581
#
# Velocity S-wave (km/s) = -0.88218 3.65155 2.50555
# Velocity P-wave (km/s) = 3.88339 6.37877 5.28060
#
# Compressibility (1/GPa) = 0.02521586
#
# Stress axis : x y z
#
# Youngs Moduli (GPa) = 72.43827 121.69602 57.59388
#
# Poissons Ratio (x) = 0.41269 0.26658
# Poissons Ratio (y) = 0.24565 -0.05386
# Poissons Ratio (z) = 0.33529 -0.11381
#
# Static dielectric constant tensor:
#      x y z
#    x 2.048900 0.000000 -0.074980 
#    y 0.000000 1.901050 0.000000 
#    z -0.074980 0.000000 2.124210 
# 
# From -- ./inp_files/41596.got.cif
#   From: 2010.05.17/outbox.cif.g08.bks.cpg/sg11_21_cif.got.tgz:41596.got - 2010.06.03 12:22:45.
