data_PCOD9156167
_publ_section_title
;
Structure prediction by ZEFSAII (Michael W. Deem and Ramdas Pophale) SiO2 
 PCOD9156167
Probable space group: P 21/M
;
_chemical_formula_sum "Si O2"
_cell_formula_units_Z 24
_cell_length_a 7.161500
_cell_length_b 19.486485
_cell_length_c 14.234597
_cell_angle_alpha 90.000000
_cell_angle_beta 141.045008
_cell_angle_gamma 90.000000
_cell_volume 1248.914921
_symmetry_space_group_name_H-M "P 21/M"
_symmetry_group_IT_number 11
_symmetry_cell_setting 'monoclinic'
loop_
_space_group_symop_operation_xyz
x,y,z
-x,1/2+y,-z
-x,-y,-z
x,1/2-y,z
loop_
_atom_site_type_symbol
_atom_site_label
_atom_site_fract_x
_atom_site_fract_y
_atom_site_fract_z
Si Si1 0.705562 0.439749 0.255946
Si Si2 0.771784 0.024534 0.992422
Si Si3 0.187809 0.409207 0.708799
Si Si4 0.359068 0.893630 0.395240
Si Si5 0.881506 0.828313 0.512112
Si Si6 0.349896 0.041991 0.308646
O O1 0.452324 0.459856 0.080058
O O2 0.901373 0.509785 0.338086
O O3 0.519403 0.437620 0.280329
O O4 0.906571 0.373038 0.336614
O O5 0.538086 0.082331 0.867578
O O6 0.994379 0.049606 0.159310
O O7 0.000000 0.000000 0.000000
O O8 0.125179 0.366455 0.591043
O O9 0.983060 0.381402 0.712500
O O10 0.549140 0.834336 0.422891
O O11 0.515013 0.915334 0.553743
O O12 0.389760 0.960906 0.342171
O O13 0.977213 0.750000 0.541171
#
# Coordination Sequence:
#
# PCOD9156167 Si02
#       6
#     4   4   4   4   4   4
#     4   9  17  35  58  82 111 143 186 233 273 329
#     4   8  17  31  58  89 114 137 178 230 287 327
#     4  10  20  37  61  82 112 143 189 236 272 329
#     4  11  21  32  56  87 114 139 185 231 279 327
#     4  12  23  37  54  79 115 152 189 232 280 331
#     4  10  17  33  59  90 113 137 176 238 284 328
#
# _framework density 19.216681000000001
#
# number of rings (size 3 to 8) (size 9 to 14) (size 15 to 20)
#    1.000    1.000    3.333    2.500    0.000    1.333 
#    0.000    0.000    0.000   10.000    0.000    0.000 
#    0.000    0.000    0.000    0.000    0.000    0.000 
#
# Total GULP energy -133701.364693 kJ/mol
# GULP energy per Si atom -5570.890196 kJ/mol
# Density = 1.917294 g / cm^3
# Si number density = 19.216681 Si / 1000 Ang^3
#
#
#
# Elastic Constant Matrix: (Units=GPa)
#
#
# Indices 1 2 3 4 5 6 
#
# 1 68.2229 8.6274 10.4707 0.0000 27.7981 0.0000
# 2 8.6274 79.5719 22.8320 0.0000 5.9470 0.0000
# 3 10.4707 22.8320 98.7437 0.0000 17.2649 0.0000
# 4 0.0000 0.0000 0.0000 11.1432 0.0000 4.5724
# 5 27.7981 5.9470 17.2649 0.0000 30.5824 0.0000
# 6 0.0000 0.0000 0.0000 4.5724 0.0000 10.5435
#
#
#
# Elastic Compliance Matrix: (Units=1/GPa)
#
#
# Indices 1 2 3 4 5 6 
#
# 1 0.023589 -0.001388 0.001688 0.000000 -0.022125 0.000000
# 2 -0.001388 0.013567 -0.003050 0.000000 0.000346 0.000000
# 3 0.001688 -0.003050 0.012003 0.000000 -0.007717 0.000000
# 4 0.000000 0.000000 0.000000 0.109167 0.000000 -0.047343
# 5 -0.022125 0.000346 -0.007717 0.000000 0.057098 0.000000
# 6 0.000000 0.000000 0.000000 -0.047343 0.000000 0.115377
#
#
# Mechanical properties :
#
#
# Convention : Reuss Voigt Hill
#
# Bulk Modulus (GPa) = 22.90534 36.71097 29.80815
# Shear Modulus (GPa) = 14.25087 24.09436 19.17262
#
# Velocity S-wave (km/s) = 2.72617 3.54478 3.16208
# Velocity P-wave (km/s) = 4.67490 5.99159 5.37372
#
# Compressibility (1/GPa) = 0.04365794
#
# Stress axis : x y z
#
# Youngs Moduli (GPa) = 42.39217 73.70729 83.31344
#
# Poissons Ratio (x) = 0.10234 -0.14064
# Poissons Ratio (y) = 0.05886 0.25413
# Poissons Ratio (z) = -0.07156 0.22483
#
# Static dielectric constant tensor:
#      x y z
#    x 1.771380 0.000000 0.008700 
#    y 0.000000 1.631370 0.000000 
#    z 0.008700 0.000000 1.755960 
# 
# From -- ./inp_files/58283.got.cif
#   From: 2010.05.17/outbox.cif.g08.bks.cpg/sg11_30_cif.got.tgz:58283.got - 2010.06.03 12:22:45.
