data_PCOD9156530
_publ_section_title
;
Structure prediction by ZEFSAII (Michael W. Deem and Ramdas Pophale) SiO2 
 PCOD9156530
Probable space group: P 21/M
;
_chemical_formula_sum "Si O2"
_cell_formula_units_Z 28
_cell_length_a 5.217267
_cell_length_b 16.975723
_cell_length_c 13.603200
_cell_angle_alpha 90.000000
_cell_angle_beta 89.245417
_cell_angle_gamma 90.000000
_cell_volume 1204.688491
_symmetry_space_group_name_H-M "P 21/M"
_symmetry_group_IT_number 11
_symmetry_cell_setting 'monoclinic'
loop_
_space_group_symop_operation_xyz
x,y,z
-x,1/2+y,-z
-x,-y,-z
x,1/2-y,z
loop_
_atom_site_type_symbol
_atom_site_label
_atom_site_fract_x
_atom_site_fract_y
_atom_site_fract_z
Si Si1 0.451404 0.570636 0.212495
Si Si2 0.042487 0.034990 0.892038
Si Si3 0.631831 0.662279 0.046778
Si Si4 0.150434 0.345829 0.249873
Si Si5 0.964366 0.154985 0.461906
Si Si6 0.657988 0.153936 0.140745
Si Si7 0.536503 0.654088 0.416937
O O1 0.688592 0.520590 0.166317
O O2 0.467308 0.649547 0.145288
O O3 0.189099 0.529717 0.182569
O O4 0.486277 0.600564 0.322023
O O5 0.099124 0.125211 0.924770
O O6 0.000000 0.000000 0.000000
O O7 0.678286 0.750000 0.016263
O O8 0.472342 0.623405 0.958904
O O9 0.141062 0.250000 0.252303
O O10 0.047979 0.375894 0.354863
O O11 0.945923 0.370895 0.167235
O O12 0.445138 0.363965 0.225047
O O13 0.963073 0.250000 0.453224
O O14 0.684100 0.134141 0.502602
O O15 0.184902 0.136353 0.539628
O O16 0.672895 0.250000 0.134037
O O17 0.522596 0.750000 0.397686
#
# Coordination Sequence:
#
# PCOD9156530 Si02
#       7
#     4   4   4   4   4   4   4
#     4  10  21  34  53  72 104 136 174 212 254 310
#     4  10  22  38  55  73 105 145 179 217 254 305
#     4   9  21  33  52  79 109 141 170 214 264 312
#     4   9  16  27  41  61  94 136 169 203 249 306
#     4   9  17  27  42  63  97 136 169 204 252 308
#     4   9  17  27  42  65  96 130 169 203 249 307
#     4  10  18  29  45  71 101 133 170 207 255 311
#
# _framework density 23.242525000000001
#
# number of rings (size 3 to 8) (size 9 to 14) (size 15 to 20)
#    0.857    1.714    0.000    2.571    2.000    4.571 
#    0.000    0.000    0.000    0.000    0.000    0.000 
#    0.000   22.857    0.000    0.000    0.000    0.000 
#
# Total GULP energy -156235.804965 kJ/mol
# GULP energy per Si atom -5579.850177 kJ/mol
# Density = 2.318962 g / cm^3
# Si number density = 23.242525 Si / 1000 Ang^3
#
#
#
# Elastic Constant Matrix: (Units=GPa)
#
#
# Indices 1 2 3 4 5 6 
#
# 1 109.5969 9.6153 -11.0851 0.0000 9.6355 0.0000
# 2 9.6153 31.6031 -9.3173 0.0000 4.9094 0.0000
# 3 -11.0851 -9.3173 68.2575 0.0000 -6.6641 0.0000
# 4 0.0000 0.0000 0.0000 10.7707 0.0000 3.9049
# 5 9.6355 4.9094 -6.6641 0.0000 29.4914 0.0000
# 6 0.0000 0.0000 0.0000 3.9049 0.0000 27.7464
#
#
#
# Elastic Compliance Matrix: (Units=1/GPa)
#
#
# Indices 1 2 3 4 5 6 
#
# 1 0.009648 -0.002241 0.001012 0.000000 -0.002550 0.000000
# 2 -0.002241 0.034104 0.003894 0.000000 -0.004065 0.000000
# 3 0.001012 0.003894 0.015595 0.000000 0.002545 0.000000
# 4 0.000000 0.000000 0.000000 0.097837 0.000000 -0.013769
# 5 -0.002550 -0.004065 0.002545 0.000000 0.035993 0.000000
# 6 0.000000 0.000000 0.000000 -0.013769 0.000000 0.037979
#
#
# Mechanical properties :
#
#
# Convention : Reuss Voigt Hill
#
# Bulk Modulus (GPa) = 15.46134 20.87592 18.16863
# Shear Modulus (GPa) = 20.21162 28.28468 24.24815
#
# Velocity S-wave (km/s) = 2.95209 3.49225 3.23347
# Velocity P-wave (km/s) = 4.27626 5.02616 4.66630
#
# Compressibility (1/GPa) = 0.06467743
#
# Stress axis : x y z
#
# Youngs Moduli (GPa) = 103.65377 29.32220 64.12388
#
# Poissons Ratio (x) = 0.06570 -0.06489
# Poissons Ratio (y) = 0.23226 -0.24973
# Poissons Ratio (z) = -0.10489 -0.11419
#
# Static dielectric constant tensor:
#      x y z
#    x 1.884670 0.000000 -0.017090 
#    y 0.000000 2.002010 0.000000 
#    z -0.017090 0.000000 1.839670 
# 
# From -- ./inp_files/5267.got.cif
#   From: 2010.05.17/outbox.cif.g08.bks.cpg/sg11_3_cif.got.tgz:5267.got - 2010.06.03 12:22:45.
