data_PCOD9156224
_publ_section_title
;
Structure prediction by ZEFSAII (Michael W. Deem and Ramdas Pophale) SiO2 
 PCOD9156224
Probable space group: P 21/M
;
_chemical_formula_sum "Si O2"
_cell_formula_units_Z 28
_cell_length_a 19.935290
_cell_length_b 7.499028
_cell_length_c 25.329789
_cell_angle_alpha 90.000000
_cell_angle_beta 21.870189
_cell_angle_gamma 90.000000
_cell_volume 1410.558774
_symmetry_space_group_name_H-M "P 21/M"
_symmetry_group_IT_number 11
_symmetry_cell_setting 'monoclinic'
loop_
_space_group_symop_operation_xyz
x,y,z
-x,1/2+y,-z
-x,-y,-z
x,1/2-y,z
loop_
_atom_site_type_symbol
_atom_site_label
_atom_site_fract_x
_atom_site_fract_y
_atom_site_fract_z
Si Si1 0.388921 0.468983 0.850757
Si Si2 0.588128 0.032559 0.601796
Si Si3 0.373267 0.963098 0.543306
Si Si4 0.703945 0.454581 0.695642
Si Si5 0.034753 0.032227 0.167078
Si Si6 0.071644 0.959362 0.373174
Si Si7 0.997215 0.964307 0.691365
O O1 0.392559 0.250000 0.847851
O O2 0.453273 0.527096 0.745879
O O3 0.537377 0.531536 0.784991
O O4 0.192028 0.525706 0.013213
O O5 0.586153 0.250000 0.603825
O O6 0.552987 0.973298 0.567405
O O7 0.793335 0.978369 0.465364
O O8 0.360302 0.750000 0.548248
O O9 0.167220 0.027612 0.699793
O O10 0.500000 0.000000 0.500000
O O11 0.652558 0.250000 0.744200
O O12 0.776009 0.531829 0.698348
O O13 0.879928 0.456968 0.529341
O O14 0.034528 0.250000 0.166746
O O15 0.071668 0.977554 0.200882
O O16 0.052136 0.750000 0.399435
O O17 0.104005 0.979344 0.287567
O O18 0.996980 0.750000 0.691809
#
# Coordination Sequence:
#
# PCOD9156224 Si02
#       7
#     4   4   4   4   4   4   4
#     4   9  14  26  48  70  87 113 154 195 222 251
#     4   8  14  25  46  68  86 113 152 184 212 256
#     4   9  17  31  49  71  93 115 144 181 220 264
#     4   9  17  28  44  64  89 120 154 190 229 265
#     4   8  16  28  47  71  91 113 151 191 219 257
#     4  10  18  26  40  66  93 118 152 192 229 267
#     4   9  15  28  46  65  87 116 154 192 222 258
#
# _framework density 19.850287999999999
#
# number of rings (size 3 to 8) (size 9 to 14) (size 15 to 20)
#    0.000    3.143    1.429    2.143    0.000    0.571 
#    0.000    4.286    0.000    1.714    0.000    0.000 
#    0.000    0.000    0.000    0.000    0.000    0.000 
#
# Total GULP energy -156054.671293 kJ/mol
# GULP energy per Si atom -5573.381118 kJ/mol
# Density = 1.980511 g / cm^3
# Si number density = 19.850288 Si / 1000 Ang^3
#
#
#
# Elastic Constant Matrix: (Units=GPa)
#
#
# Indices 1 2 3 4 5 6 
#
# 1 176.4921 1.8346 88.3524 0.0000 6.5189 0.0000
# 2 1.8346 51.7094 4.3099 0.0000 1.2240 0.0000
# 3 88.3524 4.3099 132.6180 0.0000 20.7188 0.0000
# 4 0.0000 0.0000 0.0000 0.3658 0.0000 -0.1071
# 5 6.5189 1.2240 20.7188 0.0000 26.0475 0.0000
# 6 0.0000 0.0000 0.0000 -0.1071 0.0000 17.7620
#
#
#
# Elastic Compliance Matrix: (Units=1/GPa)
#
#
# Indices 1 2 3 4 5 6 
#
# 1 0.008674 0.000145 -0.006216 0.000000 0.002766 0.000000
# 2 0.000145 0.019399 -0.000661 0.000000 -0.000422 0.000000
# 3 -0.006216 -0.000661 0.013080 0.000000 -0.008818 0.000000
# 4 0.000000 0.000000 0.000000 2.738726 0.000000 0.016510
# 5 0.002766 -0.000422 -0.008818 0.000000 0.044733 0.000000
# 6 0.000000 0.000000 0.000000 0.016510 0.000000 0.056399
#
#
# Mechanical properties :
#
#
# Convention : Reuss Voigt Hill
#
# Bulk Modulus (GPa) = 36.11456 61.09037 48.60246
# Shear Modulus (GPa) = 1.72194 26.58990 14.15592
#
# Velocity S-wave (km/s) = 0.93239 3.66392 2.67335
# Velocity P-wave (km/s) = 4.40365 6.98151 5.83667
#
# Compressibility (1/GPa) = 0.02768966
#
# Stress axis : x y z
#
# Youngs Moduli (GPa) = 115.28963 51.54962 76.45001
#
# Poissons Ratio (x) = -0.00747 0.47518
# Poissons Ratio (y) = -0.01670 0.05053
# Poissons Ratio (z) = 0.71659 0.03407
#
# Static dielectric constant tensor:
#      x y z
#    x 1.714060 0.000000 0.008370 
#    y 0.000000 1.761820 0.000000 
#    z 0.008370 0.000000 1.670850 
# 
# From -- ./inp_files/29030.got.cif
#   From: 2010.05.17/outbox.cif.g08.bks.cpg/sg11_15_cif.got.tgz:29030.got - 2010.06.03 12:22:45.
