data_PCOD9156721
_publ_section_title
;
Structure prediction by ZEFSAII (Michael W. Deem and Ramdas Pophale) SiO2 
 PCOD9156721
Probable space group: P 21/M
;
_chemical_formula_sum "Si O2"
_cell_formula_units_Z 32
_cell_length_a 13.396751
_cell_length_b 14.762751
_cell_length_c 11.118801
_cell_angle_alpha 90.000000
_cell_angle_beta 133.272828
_cell_angle_gamma 90.000000
_cell_volume 1601.085510
_symmetry_space_group_name_H-M "P 21/M"
_symmetry_group_IT_number 11
_symmetry_cell_setting 'monoclinic'
loop_
_space_group_symop_operation_xyz
x,y,z
-x,1/2+y,-z
-x,-y,-z
x,1/2-y,z
loop_
_atom_site_type_symbol
_atom_site_label
_atom_site_fract_x
_atom_site_fract_y
_atom_site_fract_z
Si Si1 0.780404 0.523825 0.354586
Si Si2 0.949694 0.996255 0.264465
Si Si3 0.429581 0.015867 0.310771
Si Si4 0.054916 0.912746 0.971849
Si Si5 0.421922 0.145174 0.665488
Si Si6 0.244436 0.150834 0.272744
Si Si7 0.880349 0.348499 0.736877
Si Si8 0.637514 0.144969 0.348627
O O1 0.836189 0.532767 0.266113
O O2 0.669176 0.596737 0.306884
O O3 0.713829 0.423720 0.319536
O O4 0.916954 0.532241 0.551489
O O5 0.014433 0.915969 0.239234
O O6 0.892900 0.064221 0.116980
O O7 0.288815 0.066009 0.227199
O O8 0.508962 0.090397 0.295495
O O9 0.500000 0.000000 0.500000
O O10 0.450751 0.920863 0.260182
O O11 0.916803 0.854884 0.839729
O O12 0.150607 0.867382 0.149650
O O13 0.000000 0.000000 0.000000
O O14 0.454768 0.250000 0.717086
O O15 0.325278 0.142672 0.465831
O O16 0.280823 0.250000 0.251485
O O17 0.943569 0.250000 0.780167
O O18 0.742062 0.352021 0.547288
O O19 0.614508 0.250000 0.291758
#
# Coordination Sequence:
#
# PCOD9156721 Si02
#       8
#     4   4   4   4   4   4   4   4
#     4   9  16  29  47  67  97 128 161 200 248 286
#     4   9  17  29  45  66  93 131 165 201 238 291
#     4   9  18  28  48  68 101 126 158 200 251 292
#     4  10  19  30  48  66 100 132 163 198 244 284
#     4   9  17  29  46  71  98 126 158 198 249 296
#     4  10  18  30  47  71  99 130 166 203 244 295
#     4   9  18  30  46  67  97 132 162 196 237 288
#     4   9  17  31  48  71 100 128 159 195 244 297
#
# _framework density 19.986440999999999
#
# number of rings (size 3 to 8) (size 9 to 14) (size 15 to 20)
#    0.000    2.750    1.250    0.750    5.250    1.000 
#    0.000    3.125    0.000    0.000    0.000   14.000 
#    0.000    8.000    0.000    0.000    0.000    0.000 
#
# Total GULP energy -178238.855166 kJ/mol
# GULP energy per Si atom -5569.964224 kJ/mol
# Density = 1.994095 g / cm^3
# Si number density = 19.986441 Si / 1000 Ang^3
#
#
#
# Elastic Constant Matrix: (Units=GPa)
#
#
# Indices 1 2 3 4 5 6 
#
# 1 102.9337 47.5902 27.6791 0.0000 -22.6249 0.0000
# 2 47.5902 128.2120 23.0778 0.0000 -9.2527 0.0000
# 3 27.6791 23.0778 25.8160 0.0000 -20.3340 0.0000
# 4 0.0000 0.0000 0.0000 9.5501 0.0000 4.2018
# 5 -22.6249 -9.2527 -20.3340 0.0000 24.1865 0.0000
# 6 0.0000 0.0000 0.0000 4.2018 0.0000 13.4888
#
#
#
# Elastic Compliance Matrix: (Units=1/GPa)
#
#
# Indices 1 2 3 4 5 6 
#
# 1 0.014835 -0.003601 -0.008411 0.000000 0.005428 0.000000
# 2 -0.003601 0.011095 -0.015890 0.000000 -0.012482 0.000000
# 3 -0.008411 -0.015890 0.150894 0.000000 0.112913 0.000000
# 4 0.000000 0.000000 0.000000 0.121341 0.000000 -0.037798
# 5 0.005428 -0.012482 0.112913 0.000000 0.136576 0.000000
# 6 0.000000 0.000000 0.000000 -0.037798 0.000000 0.085910
#
#
# Mechanical properties :
#
#
# Convention : Reuss Voigt Hill
#
# Bulk Modulus (GPa) = 8.26303 50.40621 29.33462
# Shear Modulus (GPa) = 8.10643 20.01937 14.06290
#
# Velocity S-wave (km/s) = 2.01613 3.16832 2.65546
# Velocity P-wave (km/s) = 3.09241 6.21766 4.91031
#
# Compressibility (1/GPa) = 0.12102105
#
# Stress axis : x y z
#
# Youngs Moduli (GPa) = 67.41031 90.12751 6.62716
#
# Poissons Ratio (x) = 0.32452 0.05574
# Poissons Ratio (y) = 0.24272 0.10530
# Poissons Ratio (z) = 0.56699 1.43211
#
# Static dielectric constant tensor:
#      x y z
#    x 1.695340 0.000000 0.023920 
#    y 0.000000 1.803600 0.000000 
#    z 0.023920 0.000000 1.732500 
# 
# From -- ./inp_files/39354.got.cif
#   From: 2010.05.17/outbox.cif.g08.bks.cpg/sg11_20_cif.got.tgz:39354.got - 2010.06.03 12:22:45.
