data_PCOD9156072
_publ_section_title
;
Structure prediction by ZEFSAII (Michael W. Deem and Ramdas Pophale) SiO2 
 PCOD9156072
Probable space group: P 21/M
;
_chemical_formula_sum "Si O2"
_cell_formula_units_Z 32
_cell_length_a 31.374409
_cell_length_b 7.707119
_cell_length_c 12.627174
_cell_angle_alpha 90.000000
_cell_angle_beta 26.654312
_cell_angle_gamma 90.000000
_cell_volume 1369.743733
_symmetry_space_group_name_H-M "P 21/M"
_symmetry_group_IT_number 11
_symmetry_cell_setting 'monoclinic'
loop_
_space_group_symop_operation_xyz
x,y,z
-x,1/2+y,-z
-x,-y,-z
x,1/2-y,z
loop_
_atom_site_type_symbol
_atom_site_label
_atom_site_fract_x
_atom_site_fract_y
_atom_site_fract_z
Si Si1 0.880689 0.963280 0.081727
Si Si2 0.251095 0.536131 0.050392
Si Si3 0.627808 0.449407 0.405712
Si Si4 0.428630 0.947467 0.793823
Si Si5 0.933685 0.448928 0.425575
Si Si6 0.364946 0.048225 0.160645
Si Si7 0.665760 0.953092 0.548321
Si Si8 0.863819 0.952169 0.354347
O O1 0.882761 0.750000 0.076189
O O2 0.773551 0.020940 0.295830
O O3 0.902736 0.015118 0.154418
O O4 0.961332 0.026297 0.822124
O O5 0.249657 0.750000 0.056498
O O6 0.148951 0.473448 0.317744
O O7 0.286434 0.479864 0.856275
O O8 0.335637 0.479805 0.941964
O O9 0.647882 0.250000 0.382178
O O10 0.530319 0.462921 0.556428
O O11 0.616334 0.532539 0.545759
O O12 0.440805 0.750000 0.732037
O O13 0.405864 0.952395 0.969100
O O14 0.945723 0.250000 0.433875
O O15 0.893559 0.450673 0.394289
O O16 0.396366 0.250000 0.080945
O O17 0.384182 0.974478 0.235511
O O18 0.250368 0.041619 0.404733
O O19 0.676319 0.750000 0.550987
O O20 0.889519 0.750000 0.311227
#
# Coordination Sequence:
#
# PCOD9156072 Si02
#       8
#     4   4   4   4   4   4   4   4
#     4   8  16  30  52  77 106 142 175 208 255 310
#     4   9  20  36  54  79 110 138 173 219 265 313
#     4  11  23  39  56  75 102 141 182 223 270 312
#     4  11  21  36  58  83 107 133 173 220 266 323
#     4  10  17  30  52  78 106 140 175 210 257 312
#     4   9  18  33  54  79 111 143 169 211 267 314
#     4   9  19  38  57  77 107 143 183 218 252 308
#     4   9  16  28  46  76 112 141 168 206 257 310
#
# _framework density 23.362034000000001
#
# number of rings (size 3 to 8) (size 9 to 14) (size 15 to 20)
#    0.000    2.500    1.250    3.000    0.000    1.000 
#    0.000    6.250    0.000    0.000    0.000    0.000 
#    0.000    0.000    0.000    0.000    0.000    0.000 
#
# Total GULP energy -178667.580473 kJ/mol
# GULP energy per Si atom -5583.361890 kJ/mol
# Density = 2.330886 g / cm^3
# Si number density = 23.362034 Si / 1000 Ang^3
#
#
#
# Elastic Constant Matrix: (Units=GPa)
#
#
# Indices 1 2 3 4 5 6 
#
# 1 43.2951 -0.8631 -11.4654 0.0000 7.9605 0.0000
# 2 -0.8631 41.8123 6.4120 0.0000 2.5544 0.0000
# 3 -11.4654 6.4120 66.4164 0.0000 16.3359 0.0000
# 4 0.0000 0.0000 0.0000 11.0306 0.0000 1.9797
# 5 7.9605 2.5544 16.3359 0.0000 32.0245 0.0000
# 6 0.0000 0.0000 0.0000 1.9797 0.0000 14.2350
#
#
#
# Elastic Compliance Matrix: (Units=1/GPa)
#
#
# Indices 1 2 3 4 5 6 
#
# 1 0.026907 0.000087 0.007185 0.000000 -0.010360 0.000000
# 2 0.000087 0.024296 -0.002114 0.000000 -0.000881 0.000000
# 3 0.007185 -0.002114 0.019323 0.000000 -0.011474 0.000000
# 4 0.000000 0.000000 0.000000 0.092977 0.000000 -0.012931
# 5 -0.010360 -0.000881 -0.011474 0.000000 0.039725 0.000000
# 6 0.000000 0.000000 0.000000 -0.012931 0.000000 0.072048
#
#
# Mechanical properties :
#
#
# Convention : Reuss Voigt Hill
#
# Bulk Modulus (GPa) = 12.37004 15.52120 13.94562
# Shear Modulus (GPa) = 17.12867 21.95403 19.54135
#
# Velocity S-wave (km/s) = 2.71067 3.06883 2.89530
# Velocity P-wave (km/s) = 3.88631 4.38351 4.14238
#
# Compressibility (1/GPa) = 0.08084047
#
# Stress axis : x y z
#
# Youngs Moduli (GPa) = 37.16568 41.15867 51.75152
#
# Poissons Ratio (x) = -0.00356 -0.37182
# Poissons Ratio (y) = -0.00322 0.10940
# Poissons Ratio (z) = -0.26702 0.08701
#
# Static dielectric constant tensor:
#      x y z
#    x 1.876840 0.000000 0.003310 
#    y 0.000000 1.857500 0.000000 
#    z 0.003310 0.000000 1.922040 
# 
# From -- ./inp_files/45130.got.cif
#   From: 2010.05.17/outbox.cif.g08.bks.cpg/sg11_23_cif.got.tgz:45130.got - 2010.06.03 12:22:45.
