data_PCOD9156137
_publ_section_title
;
Structure prediction by ZEFSAII (Michael W. Deem and Ramdas Pophale) SiO2 
 PCOD9156137
Probable space group: P 21/M
;
_chemical_formula_sum "Si O2"
_cell_formula_units_Z 32
_cell_length_a 20.787380
_cell_length_b 7.591011
_cell_length_c 21.013754
_cell_angle_alpha 90.000000
_cell_angle_beta 28.902017
_cell_angle_gamma 90.000000
_cell_volume 1602.624133
_symmetry_space_group_name_H-M "P 21/M"
_symmetry_group_IT_number 11
_symmetry_cell_setting 'monoclinic'
loop_
_space_group_symop_operation_xyz
x,y,z
-x,1/2+y,-z
-x,-y,-z
x,1/2-y,z
loop_
_atom_site_type_symbol
_atom_site_label
_atom_site_fract_x
_atom_site_fract_y
_atom_site_fract_z
Si Si1 0.150781 0.461467 0.348170
Si Si2 0.396509 0.953932 0.888435
Si Si3 0.097768 0.466047 0.768295
Si Si4 0.817257 0.541658 0.822824
Si Si5 0.794800 0.456634 0.052214
Si Si6 0.113258 0.037534 0.613928
Si Si7 0.311653 0.033605 0.330711
Si Si8 0.156072 0.458957 0.852901
O O1 0.162482 0.250000 0.335106
O O2 0.178985 0.528417 0.252678
O O3 0.250731 0.525680 0.316229
O O4 0.000000 0.500000 0.500000
O O5 0.424444 0.750000 0.847795
O O6 0.317515 0.033547 0.896613
O O7 0.539107 0.028748 0.784602
O O8 0.294511 0.960000 0.035491
O O9 0.096914 0.250000 0.770690
O O10 0.146586 0.521752 0.656686
O O11 0.178241 0.523557 0.761516
O O12 0.943643 0.526605 0.909274
O O13 0.790836 0.750000 0.844040
O O14 0.962925 0.513587 0.726606
O O15 0.803895 0.250000 0.028372
O O16 0.769203 0.470677 0.149742
O O17 0.117571 0.250000 0.610400
O O18 0.213553 0.977100 0.472442
O O19 0.310545 0.250000 0.329993
O O20 0.173988 0.250000 0.838189
O O21 0.000000 0.500000 0.000000
#
# Coordination Sequence:
#
# PCOD9156137 Si02
#       8
#     4   4   4   4   4   4   4   4
#     4  10  20  35  54  78 106 132 169 214 257 308
#     4  10  20  36  54  74 102 137 177 217 252 303
#     4   8  14  25  44  71  96 123 163 207 245 291
#     4  11  22  33  50  79 108 134 167 212 261 311
#     4   9  16  28  46  68  96 130 169 209 252 300
#     4  10  17  32  56  77  99 133 174 214 253 300
#     4   9  19  34  56  79  98 131 179 217 252 303
#     4   9  16  26  41  67 101 131 162 204 254 301
#
# _framework density 19.967251999999998
#
# number of rings (size 3 to 8) (size 9 to 14) (size 15 to 20)
#    0.000    2.500    2.500    1.500    0.000    1.500 
#    0.000    1.875    0.000    0.750    0.000    0.000 
#    0.000    0.000    0.000    0.000    0.000    0.500 
#
# Total GULP energy -178446.019100 kJ/mol
# GULP energy per Si atom -5576.438097 kJ/mol
# Density = 1.992181 g / cm^3
# Si number density = 19.967252 Si / 1000 Ang^3
#
#
#
# Elastic Constant Matrix: (Units=GPa)
#
#
# Indices 1 2 3 4 5 6 
#
# 1 174.0970 -6.5965 56.1672 0.0000 18.1331 0.0000
# 2 -6.5965 40.7767 -11.5046 0.0000 -1.7522 0.0000
# 3 56.1672 -11.5046 69.0721 0.0000 -3.5156 0.0000
# 4 0.0000 0.0000 0.0000 -52.9810 0.0000 7.2731
# 5 18.1331 -1.7522 -3.5156 0.0000 34.2125 0.0000
# 6 0.0000 0.0000 0.0000 7.2731 0.0000 12.8747
#
#
#
# Elastic Compliance Matrix: (Units=1/GPa)
#
#
# Indices 1 2 3 4 5 6 
#
# 1 0.008694 -0.000944 -0.007503 0.000000 -0.005427 0.000000
# 2 -0.000944 0.025942 0.005209 0.000000 0.002364 0.000000
# 3 -0.007503 0.005209 0.021776 0.000000 0.006481 0.000000
# 4 0.000000 0.000000 0.000000 -0.017516 0.000000 0.009895
# 5 -0.005427 0.002364 0.006481 0.000000 0.032893 0.000000
# 6 0.000000 0.000000 0.000000 0.009895 0.000000 0.072082
#
#
# Mechanical properties :
#
#
# Convention : Reuss Voigt Hill
#
# Bulk Modulus (GPa) = 20.02552 40.00865 30.01709
# Shear Modulus (GPa) = 29.94140 15.21321 22.57730
#
# Velocity S-wave (km/s) = 3.87657 2.76326 3.36626
# Velocity P-wave (km/s) = 5.48526 5.50104 5.49315
#
# Compressibility (1/GPa) = 0.04993628
#
# Stress axis : x y z
#
# Youngs Moduli (GPa) = 115.01997 38.54713 45.92124
#
# Poissons Ratio (x) = 0.03638 0.34456
# Poissons Ratio (y) = 0.10854 -0.23919
# Poissons Ratio (z) = 0.86302 -0.20078
#
# Static dielectric constant tensor:
#      x y z
#    x 1.741880 0.000000 0.024170 
#    y 0.000000 1.901950 0.000000 
#    z 0.024170 0.000000 1.664240 
# 
# From -- ./inp_files/66430.got.cif
#   From: 2010.05.17/outbox.cif.g08.bks.cpg/sg11_34_cif.got.tgz:66430.got - 2010.06.03 12:22:45.
