data_PCOD9156335
_publ_section_title
;
Structure prediction by ZEFSAII (Michael W. Deem and Ramdas Pophale) SiO2 
 PCOD9156335
Probable space group: P 21/M
;
_chemical_formula_sum "Si O2"
_cell_formula_units_Z 28
_cell_length_a 16.633990
_cell_length_b 8.949507
_cell_length_c 18.213244
_cell_angle_alpha 90.000000
_cell_angle_beta 138.665800
_cell_angle_gamma 90.000000
_cell_volume 1790.699806
_symmetry_space_group_name_H-M "P 21/M"
_symmetry_group_IT_number 11
_symmetry_cell_setting 'monoclinic'
loop_
_space_group_symop_operation_xyz
x,y,z
-x,1/2+y,-z
-x,-y,-z
x,1/2-y,z
loop_
_atom_site_type_symbol
_atom_site_label
_atom_site_fract_x
_atom_site_fract_y
_atom_site_fract_z
Si Si1 0.161059 0.572642 0.162474
Si Si2 0.932878 0.929472 0.211251
Si Si3 0.803034 0.571895 0.576014
Si Si4 0.368557 0.571423 0.420808
Si Si5 0.870183 0.921824 0.326231
Si Si6 0.086762 0.927030 0.951722
Si Si7 0.836017 0.079168 0.449023
O O1 0.132168 0.750000 0.150731
O O2 0.282791 0.542731 0.291154
O O3 0.049289 0.480219 0.119689
O O4 0.165729 0.541034 0.078788
O O5 0.947345 0.750000 0.221381
O O6 0.857861 0.970905 0.233229
O O7 0.877478 0.986191 0.097227
O O8 0.066499 0.003309 0.310342
O O9 0.806389 0.750000 0.585090
O O10 0.701178 0.501438 0.558308
O O11 0.784818 0.522769 0.479021
O O12 0.500000 0.500000 0.500000
O O13 0.377005 0.750000 0.436299
O O14 0.830416 0.750000 0.306485
O O15 0.016822 0.923569 0.439613
O O16 0.812785 0.019814 0.351218
O O17 0.087263 0.750000 0.938476
O O18 0.796520 0.250000 0.431346
#
# Coordination Sequence:
#
# PCOD9156335 Si02
#       7
#     4   4   4   4   4   4   4
#     4   9  19  33  47  64  90 120 150 190 233 271
#     4  10  18  28  42  63  92 123 151 186 228 268
#     4  11  20  30  45  64  86 117 156 190 226 274
#     4  11  22  36  51  67  91 120 155 196 237 273
#     4   8  15  25  37  56  84 117 150 180 217 265
#     4  10  18  28  46  69  90 118 155 188 224 275
#     4   9  16  26  40  58  83 115 148 184 225 265
#
# _framework density 15.636345
#
# number of rings (size 3 to 8) (size 9 to 14) (size 15 to 20)
#    0.000    2.286    1.429    3.857    0.000    5.143 
#    0.000    0.000    0.000    0.000    0.000    0.000 
#    0.000    1.143    0.000    3.429    0.000    5.571 
#
# Total GULP energy -156069.582574 kJ/mol
# GULP energy per Si atom -5573.913663 kJ/mol
# Density = 1.560076 g / cm^3
# Si number density = 15.636345 Si / 1000 Ang^3
#
#
#
# Elastic Constant Matrix: (Units=GPa)
#
#
# Indices 1 2 3 4 5 6 
#
# 1 90.5141 51.3728 51.1595 0.0000 -30.8390 0.0000
# 2 51.3728 85.6972 41.3925 0.0000 -15.3943 0.0000
# 3 51.1595 41.3925 58.8113 0.0000 -18.4033 0.0000
# 4 0.0000 0.0000 0.0000 18.4604 0.0000 -6.9714
# 5 -30.8390 -15.3943 -18.4033 0.0000 29.7742 0.0000
# 6 0.0000 0.0000 0.0000 -6.9714 0.0000 27.7593
#
#
#
# Elastic Compliance Matrix: (Units=1/GPa)
#
#
# Indices 1 2 3 4 5 6 
#
# 1 0.029902 -0.007358 -0.015289 0.000000 0.017717 0.000000
# 2 -0.007358 0.019568 -0.008171 0.000000 -0.002554 0.000000
# 3 -0.015289 -0.008171 0.036917 0.000000 0.002758 0.000000
# 4 0.000000 0.000000 0.000000 0.059846 0.000000 0.015030
# 5 0.017717 -0.002554 0.002758 0.000000 0.052321 0.000000
# 6 0.000000 0.000000 0.000000 0.015030 0.000000 0.039798
#
#
# Mechanical properties :
#
#
# Convention : Reuss Voigt Hill
#
# Bulk Modulus (GPa) = 40.40147 58.09691 49.24919
# Shear Modulus (GPa) = 16.22133 21.27197 18.74665
#
# Velocity S-wave (km/s) = 3.22438 3.69239 3.46629
# Velocity P-wave (km/s) = 6.30527 7.44406 6.89820
#
# Compressibility (1/GPa) = 0.02475158
#
# Stress axis : x y z
#
# Youngs Moduli (GPa) = 33.44277 51.10504 27.08807
#
# Poissons Ratio (x) = 0.37603 0.41414
# Poissons Ratio (y) = 0.24607 0.22133
# Poissons Ratio (z) = 0.51129 0.41756
#
# Static dielectric constant tensor:
#      x y z
#    x 1.522720 0.000000 -0.045140 
#    y 0.000000 1.526480 0.000000 
#    z -0.045140 0.000000 1.517290 
# 
# From -- ./inp_files/60157.got.cif
#   From: 2010.05.17/outbox.cif.g08.bks.cpg/sg11_31_cif.got.tgz:60157.got - 2010.06.03 12:22:45.
