data_PCOD9156247
_publ_section_title
;
Structure prediction by ZEFSAII (Michael W. Deem and Ramdas Pophale) SiO2 
 PCOD9156247
Probable space group: P 21/M
;
_chemical_formula_sum "Si O2"
_cell_formula_units_Z 32
_cell_length_a 24.615162
_cell_length_b 7.639818
_cell_length_c 16.900935
_cell_angle_alpha 90.000000
_cell_angle_beta 29.534225
_cell_angle_gamma 90.000000
_cell_volume 1566.727520
_symmetry_space_group_name_H-M "P 21/M"
_symmetry_group_IT_number 11
_symmetry_cell_setting 'monoclinic'
loop_
_space_group_symop_operation_xyz
x,y,z
-x,1/2+y,-z
-x,-y,-z
x,1/2-y,z
loop_
_atom_site_type_symbol
_atom_site_label
_atom_site_fract_x
_atom_site_fract_y
_atom_site_fract_z
Si Si1 0.885353 0.964066 0.906817
Si Si2 0.768059 0.035402 0.479595
Si Si3 0.468049 0.549390 0.272767
Si Si4 0.983811 0.459362 0.111771
Si Si5 0.100513 0.963954 0.534335
Si Si6 0.193037 0.944433 0.261066
Si Si7 0.588203 0.945146 0.952034
Si Si8 0.306473 0.456919 0.954515
O O1 0.881524 0.750000 0.911068
O O2 0.770256 0.028110 0.017707
O O3 0.920687 0.022247 0.949541
O O4 0.985397 0.012863 0.721220
O O5 0.762376 0.250000 0.488994
O O6 0.652180 0.970794 0.591248
O O7 0.867812 0.980976 0.295821
O O8 0.804431 0.983205 0.522719
O O9 0.449956 0.750000 0.324139
O O10 0.522882 0.558638 0.116915
O O11 0.569970 0.467731 0.192707
O O12 0.982093 0.250000 0.121350
O O13 0.000000 0.500000 0.000000
O O14 0.103089 0.750000 0.527112
O O15 0.112473 0.027282 0.428709
O O16 0.154640 0.750000 0.289593
O O17 0.234506 0.028800 0.126949
O O18 0.305798 0.936894 0.169919
O O19 0.629429 0.750000 0.883014
O O20 0.500000 0.000000 0.000000
O O21 0.322429 0.250000 0.922177
#
# Coordination Sequence:
#
# PCOD9156247 Si02
#       8
#     4   4   4   4   4   4   4   4
#     4   8  15  29  47  65  85 114 150 181 216 265
#     4   8  13  24  43  65  85 108 142 178 212 255
#     4   8  14  24  40  61  82 108 145 182 210 246
#     4   9  17  30  51  73  89 107 133 171 218 266
#     4   8  14  24  40  61  84 114 153 191 221 256
#     4  10  18  27  40  60  87 119 154 190 226 260
#     4  10  18  27  40  59  84 116 154 195 232 261
#     4   9  17  29  44  62  86 117 153 189 218 252
#
# _framework density 20.424738999999999
#
# number of rings (size 3 to 8) (size 9 to 14) (size 15 to 20)
#    0.000    3.250    0.000    3.750    0.000    2.500 
#    0.000    0.625    0.000   14.250    0.000    0.000 
#    0.000    0.000    0.000    0.000    0.000    0.000 
#
# Total GULP energy -178208.208267 kJ/mol
# GULP energy per Si atom -5569.006508 kJ/mol
# Density = 2.037825 g / cm^3
# Si number density = 20.424739 Si / 1000 Ang^3
#
#
#
# Elastic Constant Matrix: (Units=GPa)
#
#
# Indices 1 2 3 4 5 6 
#
# 1 117.0338 3.8863 47.8496 0.0000 -30.7832 0.0000
# 2 3.8863 44.5215 3.9965 0.0000 -4.4847 0.0000
# 3 47.8496 3.9965 51.1423 0.0000 -14.5514 0.0000
# 4 0.0000 0.0000 0.0000 8.3784 0.0000 6.2036
# 5 -30.7832 -4.4847 -14.5514 0.0000 35.9926 0.0000
# 6 0.0000 0.0000 0.0000 6.2036 0.0000 8.7340
#
#
#
# Elastic Compliance Matrix: (Units=1/GPa)
#
#
# Indices 1 2 3 4 5 6 
#
# 1 0.015886 0.000600 -0.012456 0.000000 0.008626 0.000000
# 2 0.000600 0.022824 -0.001571 0.000000 0.002722 0.000000
# 3 -0.012456 -0.001571 0.031914 0.000000 0.002054 0.000000
# 4 0.000000 0.000000 0.000000 0.251751 0.000000 -0.178814
# 5 0.008626 0.002722 0.002054 0.000000 0.036330 0.000000
# 6 0.000000 0.000000 0.000000 -0.178814 0.000000 0.241503
#
#
# Mechanical properties :
#
#
# Convention : Reuss Voigt Hill
#
# Bulk Modulus (GPa) = 22.84578 36.01806 29.43192
# Shear Modulus (GPa) = 7.79238 21.08533 14.43886
#
# Velocity S-wave (km/s) = 1.95536 3.21649 2.66170
# Velocity P-wave (km/s) = 4.03826 5.60957 4.88748
#
# Compressibility (1/GPa) = 0.04377177
#
# Stress axis : x y z
#
# Youngs Moduli (GPa) = 62.94808 43.81378 31.33383
#
# Poissons Ratio (x) = -0.02630 0.39029
# Poissons Ratio (y) = -0.03779 0.04921
# Poissons Ratio (z) = 0.78408 0.06882
#
# Static dielectric constant tensor:
#      x y z
#    x 1.783530 0.000000 -0.026330 
#    y 0.000000 1.778250 0.000000 
#    z -0.026330 0.000000 1.762630 
# 
# From -- ./inp_files/61769.got.cif
#   From: 2010.05.17/outbox.cif.g08.bks.cpg/sg11_31_cif.got.tgz:61769.got - 2010.06.03 12:22:45.
