data_PCOD9156607
_publ_section_title
;
Structure prediction by ZEFSAII (Michael W. Deem and Ramdas Pophale) SiO2 
 PCOD9156607
Probable space group: P 21/M
;
_chemical_formula_sum "Si O2"
_cell_formula_units_Z 24
_cell_length_a 20.158702
_cell_length_b 7.328647
_cell_length_c 7.495858
_cell_angle_alpha 90.000000
_cell_angle_beta 54.299112
_cell_angle_gamma 90.000000
_cell_volume 899.297908
_symmetry_space_group_name_H-M "P 21/M"
_symmetry_group_IT_number 11
_symmetry_cell_setting 'monoclinic'
loop_
_space_group_symop_operation_xyz
x,y,z
-x,1/2+y,-z
-x,-y,-z
x,1/2-y,z
loop_
_atom_site_type_symbol
_atom_site_label
_atom_site_fract_x
_atom_site_fract_y
_atom_site_fract_z
Si Si1 0.028237 0.467457 0.751012
Si Si2 0.137951 0.962465 0.110245
Si Si3 0.622996 0.042410 0.805237
Si Si4 0.571775 0.467309 0.526414
Si Si5 0.693739 0.474569 0.048603
Si Si6 0.196322 0.470091 0.613615
O O1 0.030952 0.250000 0.719350
O O2 0.121393 0.533675 0.603654
O O3 0.953422 0.542283 0.749843
O O4 0.000000 0.500000 0.000000
O O5 0.130116 0.750000 0.168983
O O6 0.213092 0.039246 0.105811
O O7 0.170957 0.973270 0.853895
O O8 0.596584 0.250000 0.876107
O O9 0.568580 0.959731 0.732567
O O10 0.636409 0.959079 0.978182
O O11 0.715892 0.042757 0.582095
O O12 0.500000 0.500000 0.500000
O O13 0.579079 0.250000 0.534698
O O14 0.652554 0.532502 0.297525
O O15 0.694531 0.250000 0.042891
O O16 0.199623 0.250000 0.604492
#
# Coordination Sequence:
#
# PCOD9156607 Si02
#       6
#     4   4   4   4   4   4
#     4   8  15  25  43  71 102 137 176 216 256 297
#     4   9  15  30  53  74 101 141 182 216 254 304
#     4  10  20  36  57  78 103 139 178 211 250 308
#     4  10  21  38  58  81 105 132 167 210 259 313
#     4   9  18  34  57  81 103 134 178 216 247 302
#     4  10  18  29  47  76 110 140 174 219 263 301
#
# _framework density 26.687484999999999
#
# number of rings (size 3 to 8) (size 9 to 14) (size 15 to 20)
#    0.000    2.667    1.667    0.500    0.000    2.000 
#    0.000    2.500    0.000    0.000    0.000    0.000 
#    0.000    0.000    0.000    0.000    0.000    0.000 
#
# Total GULP energy -134170.285632 kJ/mol
# GULP energy per Si atom -5590.428568 kJ/mol
# Density = 2.662674 g / cm^3
# Si number density = 26.687485 Si / 1000 Ang^3
#
#
#
# Elastic Constant Matrix: (Units=GPa)
#
#
# Indices 1 2 3 4 5 6 
#
# 1 208.4676 14.9696 20.2672 0.0000 -1.2128 0.0000
# 2 14.9696 129.6695 0.2117 0.0000 3.8417 0.0000
# 3 20.2672 0.2117 83.6579 0.0000 9.2561 0.0000
# 4 0.0000 0.0000 0.0000 -2.4289 0.0000 0.8364
# 5 -1.2128 3.8417 9.2561 0.0000 45.0403 0.0000
# 6 0.0000 0.0000 0.0000 0.8364 0.0000 9.8913
#
#
#
# Elastic Compliance Matrix: (Units=1/GPa)
#
#
# Indices 1 2 3 4 5 6 
#
# 1 0.004963 -0.000584 -0.001250 0.000000 0.000440 0.000000
# 2 -0.000584 0.007800 0.000202 0.000000 -0.000722 0.000000
# 3 -0.001250 0.000202 0.012547 0.000000 -0.002629 0.000000
# 4 0.000000 0.000000 0.000000 -0.400066 0.000000 0.033828
# 5 0.000440 -0.000722 -0.002629 0.000000 0.022816 0.000000
# 6 0.000000 0.000000 0.000000 0.033828 0.000000 0.098238
#
#
# Mechanical properties :
#
#
# Convention : Reuss Voigt Hill
#
# Bulk Modulus (GPa) = 45.35929 54.74355 50.05142
# Shear Modulus (GPa) = -20.56853 36.25698 7.84423
#
# Velocity S-wave (km/s) = -2.77919 3.68989 1.71630
# Velocity P-wave (km/s) = 2.59515 6.22182 4.76686
#
# Compressibility (1/GPa) = 0.02204620
#
# Stress axis : x y z
#
# Youngs Moduli (GPa) = 201.49578 128.19853 79.70309
#
# Poissons Ratio (x) = 0.07486 0.09959
# Poissons Ratio (y) = 0.11766 -0.01607
# Poissons Ratio (z) = 0.25178 -0.02585
#
# Static dielectric constant tensor:
#      x y z
#    x 2.170180 0.000000 0.003600 
#    y 0.000000 1.968760 0.000000 
#    z 0.003600 0.000000 2.055400 
# 
# From -- ./inp_files/25513.got.cif
#   From: 2010.05.17/outbox.cif.g08.bks.cpg/sg11_13_cif.got.tgz:25513.got - 2010.06.03 12:22:45.
