data_PCOD9156522
_publ_section_title
;
Structure prediction by ZEFSAII (Michael W. Deem and Ramdas Pophale) SiO2 
 PCOD9156522
Probable space group: P 21/M
;
_chemical_formula_sum "Si O2"
_cell_formula_units_Z 32
_cell_length_a 22.087081
_cell_length_b 8.889907
_cell_length_c 12.567551
_cell_angle_alpha 90.000000
_cell_angle_beta 47.025282
_cell_angle_gamma 90.000000
_cell_volume 1805.478348
_symmetry_space_group_name_H-M "P 21/M"
_symmetry_group_IT_number 11
_symmetry_cell_setting 'monoclinic'
loop_
_space_group_symop_operation_xyz
x,y,z
-x,1/2+y,-z
-x,-y,-z
x,1/2-y,z
loop_
_atom_site_type_symbol
_atom_site_label
_atom_site_fract_x
_atom_site_fract_y
_atom_site_fract_z
Si Si1 0.281361 0.569367 0.944315
Si Si2 0.239064 0.932022 0.217329
Si Si3 0.590584 0.429717 0.394053
Si Si4 0.725516 0.570903 0.385163
Si Si5 0.936169 0.421387 0.651077
Si Si6 0.804147 0.069088 0.491387
Si Si7 0.018793 0.076660 0.782048
Si Si8 0.857263 0.571702 0.043267
O O1 0.264473 0.750000 0.964628
O O2 0.359845 0.540593 0.775172
O O3 0.298313 0.523582 0.047217
O O4 0.202626 0.495571 0.977659
O O5 0.246515 0.750000 0.215827
O O6 0.153611 0.983321 0.264661
O O7 0.229135 0.982046 0.351870
O O8 0.500000 0.500000 0.500000
O O9 0.586882 0.250000 0.413403
O O10 0.646887 0.504275 0.417874
O O11 0.717192 0.750000 0.409061
O O12 0.741916 0.488617 0.476051
O O13 0.805401 0.544458 0.213259
O O14 0.930799 0.250000 0.622498
O O15 0.969099 0.424833 0.730074
O O16 0.000000 0.500000 0.500000
O O17 0.810691 0.250000 0.484377
O O18 0.894135 0.002695 0.349627
O O19 0.034147 0.250000 0.796165
O O20 0.949292 0.998332 0.938660
O O21 0.864997 0.750000 0.016603
#
# Coordination Sequence:
#
# PCOD9156522 Si02
#       8
#     4   4   4   4   4   4   4   4
#     4   9  17  33  55  81 110 139 170 211 265 317
#     4   9  17  31  50  74 104 138 178 221 264 311
#     4  10  20  36  64  93 115 137 164 204 258 317
#     4  10  22  40  57  77 108 140 176 219 264 318
#     4  10  18  29  45  67  98 136 179 229 270 304
#     4  11  22  35  52  74 104 144 186 224 264 313
#     4  11  21  32  48  70 101 142 186 229 271 316
#     4  10  20  33  51  74 101 136 179 231 276 309
#
# _framework density 17.723835000000001
#
# number of rings (size 3 to 8) (size 9 to 14) (size 15 to 20)
#    0.000    2.000    2.500    1.875    0.000    3.000 
#    0.000    1.250    0.000    0.750    0.000    0.000 
#    0.000    0.000    0.000    0.000    0.000    0.000 
#
# Total GULP energy -178246.718218 kJ/mol
# GULP energy per Si atom -5570.209944 kJ/mol
# Density = 1.768350 g / cm^3
# Si number density = 17.723835 Si / 1000 Ang^3
#
#
#
# Elastic Constant Matrix: (Units=GPa)
#
#
# Indices 1 2 3 4 5 6 
#
# 1 84.1679 41.6603 66.5816 0.0000 12.2716 0.0000
# 2 41.6603 53.6382 44.2107 0.0000 2.2761 0.0000
# 3 66.5816 44.2107 94.5034 0.0000 4.0480 0.0000
# 4 0.0000 0.0000 0.0000 19.9340 0.0000 -3.0894
# 5 12.2716 2.2761 4.0480 0.0000 20.6440 0.0000
# 6 0.0000 0.0000 0.0000 -3.0894 0.0000 26.4551
#
#
#
# Elastic Compliance Matrix: (Units=1/GPa)
#
#
# Indices 1 2 3 4 5 6 
#
# 1 0.033691 -0.010569 -0.018137 0.000000 -0.015306 0.000000
# 2 -0.010569 0.033666 -0.008485 0.000000 0.004235 0.000000
# 3 -0.018137 -0.008485 0.027054 0.000000 0.006412 0.000000
# 4 0.000000 0.000000 0.000000 0.051090 0.000000 0.005966
# 5 -0.015306 0.004235 0.006412 0.000000 0.055814 0.000000
# 6 0.000000 0.000000 0.000000 0.005966 0.000000 0.038497
#
#
# Mechanical properties :
#
#
# Convention : Reuss Voigt Hill
#
# Bulk Modulus (GPa) = 49.92388 59.69053 54.80720
# Shear Modulus (GPa) = 15.58258 18.73040 17.15649
#
# Velocity S-wave (km/s) = 2.96833 3.25436 3.11463
# Velocity P-wave (km/s) = 6.32272 6.91899 6.62756
#
# Compressibility (1/GPa) = 0.02003049
#
# Stress axis : x y z
#
# Youngs Moduli (GPa) = 29.68136 29.70351 36.96244
#
# Poissons Ratio (x) = 0.31394 0.67038
# Poissons Ratio (y) = 0.31370 0.31362
# Poissons Ratio (z) = 0.53833 0.25203
#
# Static dielectric constant tensor:
#      x y z
#    x 1.584130 0.000000 0.033420 
#    y 0.000000 1.625820 0.000000 
#    z 0.033420 0.000000 1.633590 
# 
# From -- ./inp_files/42827.got.cif
#   From: 2010.05.17/outbox.cif.g08.bks.cpg/sg11_22_cif.got.tgz:42827.got - 2010.06.03 12:22:45.
