data_PCOD9156203
_publ_section_title
;
Structure prediction by ZEFSAII (Michael W. Deem and Ramdas Pophale) SiO2 
 PCOD9156203
Probable space group: P 21/M
;
_chemical_formula_sum "Si O2"
_cell_formula_units_Z 32
_cell_length_a 20.515355
_cell_length_b 8.007931
_cell_length_c 13.940722
_cell_angle_alpha 90.000000
_cell_angle_beta 120.669258
_cell_angle_gamma 90.000000
_cell_volume 1969.911617
_symmetry_space_group_name_H-M "P 21/M"
_symmetry_group_IT_number 11
_symmetry_cell_setting 'monoclinic'
loop_
_space_group_symop_operation_xyz
x,y,z
-x,1/2+y,-z
-x,-y,-z
x,1/2-y,z
loop_
_atom_site_type_symbol
_atom_site_label
_atom_site_fract_x
_atom_site_fract_y
_atom_site_fract_z
Si Si1 0.973994 0.051328 0.585532
Si Si2 0.500287 0.548872 0.612172
Si Si3 0.941545 0.048922 0.160477
Si Si4 0.664204 0.553118 0.721434
Si Si5 0.910343 0.948019 0.836924
Si Si6 0.187551 0.943070 0.061602
Si Si7 0.336183 0.552057 0.499111
Si Si8 0.826145 0.453779 0.581001
O O1 0.972611 0.250000 0.588573
O O2 0.889060 0.992779 0.550637
O O3 0.000000 0.000000 0.500000
O O4 0.030550 0.992723 0.712169
O O5 0.500000 0.500000 0.500000
O O6 0.497754 0.750000 0.619316
O O7 0.584195 0.493891 0.707463
O O8 0.419344 0.482926 0.589269
O O9 0.940490 0.250000 0.151515
O O10 0.007576 0.989676 0.136974
O O11 0.859464 0.987149 0.064333
O O12 0.657310 0.750000 0.696773
O O13 0.735961 0.526103 0.843208
O O14 0.674336 0.471013 0.624022
O O15 0.913435 0.750000 0.860422
O O16 0.872965 0.041967 0.897247
O O17 0.856825 0.977659 0.704947
O O18 0.205839 0.750000 0.058063
O O19 0.338365 0.750000 0.518751
O O20 0.260518 0.487628 0.494008
O O21 0.826357 0.250000 0.585831
#
# Coordination Sequence:
#
# PCOD9156203 Si02
#       8
#     4   4   4   4   4   4   4   4
#     4  10  20  34  51  68  87 111 138 174 217 262
#     4   8  15  25  37  54  78 110 145 179 212 247
#     4   9  20  34  46  62  83 110 144 180 216 255
#     4  10  18  26  37  57  84 115 150 181 211 245
#     4  10  18  28  42  60  84 112 143 180 216 247
#     4  11  20  29  41  58  85 118 149 178 210 251
#     4   9  15  26  42  58  81 112 145 180 215 250
#     4   9  17  28  44  65  86 111 144 176 211 255
#
# _framework density 16.244384
#
# number of rings (size 3 to 8) (size 9 to 14) (size 15 to 20)
#    0.000    2.500    1.250    1.875    0.000    2.500 
#    0.000    0.000    0.000    0.000    0.000    0.000 
#    0.000    1.000    0.000    2.000    0.000    2.625 
#
# Total GULP energy -178175.986679 kJ/mol
# GULP energy per Si atom -5567.999584 kJ/mol
# Density = 1.620741 g / cm^3
# Si number density = 16.244384 Si / 1000 Ang^3
#
#
#
# Elastic Constant Matrix: (Units=GPa)
#
#
# Indices 1 2 3 4 5 6 
#
# 1 104.0882 -1.5677 61.8061 0.0000 19.1022 0.0000
# 2 -1.5677 12.5256 -3.7674 0.0000 0.6310 0.0000
# 3 61.8061 -3.7674 64.4219 0.0000 18.9579 0.0000
# 4 0.0000 0.0000 0.0000 14.1744 0.0000 -0.2685
# 5 19.1022 0.6310 18.9579 0.0000 24.0120 0.0000
# 6 0.0000 0.0000 0.0000 -0.2685 0.0000 12.7090
#
#
#
# Elastic Compliance Matrix: (Units=1/GPa)
#
#
# Indices 1 2 3 4 5 6 
#
# 1 0.022507 -0.003634 -0.021579 0.000000 -0.000773 0.000000
# 2 -0.003634 0.082952 0.010589 0.000000 -0.007648 0.000000
# 3 -0.021579 0.010589 0.041521 0.000000 -0.015894 0.000000
# 4 0.000000 0.000000 0.000000 0.070578 0.000000 0.001491
# 5 -0.000773 -0.007648 -0.015894 0.000000 0.055010 0.000000
# 6 0.000000 0.000000 0.000000 0.001491 0.000000 0.078716
#
#
# Mechanical properties :
#
#
# Convention : Reuss Voigt Hill
#
# Bulk Modulus (GPa) = 8.49388 32.66419 20.57904
# Shear Modulus (GPa) = 11.91108 18.48339 15.19724
#
# Velocity S-wave (km/s) = 2.71078 3.37684 3.06197
# Velocity P-wave (km/s) = 3.87788 5.94606 5.01964
#
# Compressibility (1/GPa) = 0.11773178
#
# Stress axis : x y z
#
# Youngs Moduli (GPa) = 44.42983 12.05521 24.08395
#
# Poissons Ratio (x) = 0.04381 0.51970
# Poissons Ratio (y) = 0.16148 -0.25501
# Poissons Ratio (z) = 0.95873 -0.12765
#
# Static dielectric constant tensor:
#      x y z
#    x 1.631510 0.000000 0.019900 
#    y 0.000000 1.581840 0.000000 
#    z 0.019900 0.000000 1.578840 
# 
# From -- ./inp_files/40610.got.cif
#   From: 2010.05.17/outbox.cif.g08.bks.cpg/sg11_21_cif.got.tgz:40610.got - 2010.06.03 12:22:45.
