data_PCOD9156196
_publ_section_title
;
Structure prediction by ZEFSAII (Michael W. Deem and Ramdas Pophale) SiO2 
 PCOD9156196
Probable space group: P 21/M
;
_chemical_formula_sum "Si O2"
_cell_formula_units_Z 24
_cell_length_a 18.465363
_cell_length_b 16.214928
_cell_length_c 9.085385
_cell_angle_alpha 90.000000
_cell_angle_beta 150.068050
_cell_angle_gamma 90.000000
_cell_volume 1357.349158
_symmetry_space_group_name_H-M "P 21/M"
_symmetry_group_IT_number 11
_symmetry_cell_setting 'monoclinic'
loop_
_space_group_symop_operation_xyz
x,y,z
-x,1/2+y,-z
-x,-y,-z
x,1/2-y,z
loop_
_atom_site_type_symbol
_atom_site_label
_atom_site_fract_x
_atom_site_fract_y
_atom_site_fract_z
Si Si1 0.585872 0.577713 0.217036
Si Si2 0.379264 0.843851 0.644522
Si Si3 0.948468 0.509081 0.244129
Si Si4 0.083656 0.841926 0.301140
Si Si5 0.612807 0.000777 0.564032
Si Si6 0.926340 0.578098 0.785949
O O1 0.574016 0.568823 0.372688
O O2 0.755136 0.570282 0.480454
O O3 0.500000 0.500000 0.000000
O O4 0.512999 0.650066 0.994855
O O5 0.366774 0.750000 0.565910
O O6 0.389150 0.912857 0.533199
O O7 0.237791 0.861766 0.496357
O O8 0.029363 0.589464 0.319288
O O9 0.000000 0.500000 0.500000
O O10 0.004933 0.429623 0.252636
O O11 0.776017 0.514346 0.911403
O O12 0.089667 0.750000 0.374416
O O13 0.972605 0.846331 0.968275
O O14 0.500000 0.000000 0.500000
O O15 0.000000 0.500000 0.000000
#
# Coordination Sequence:
#
# PCOD9156196 Si02
#       6
#     4   4   4   4   4   4
#     4  10  19  34  59  83 113 150 201 234 280 347
#     4  10  22  40  61  88 118 151 197 248 292 344
#     4  11  22  36  59  87 116 153 198 237 288 353
#     4  10  20  39  62  84 113 152 199 254 293 330
#     4  11  22  37  59  87 119 158 191 233 294 355
#     4  10  17  36  59  80 108 154 199 244 278 336
#
# _framework density 17.681522000000001
#
# number of rings (size 3 to 8) (size 9 to 14) (size 15 to 20)
#    0.000    1.667    5.000    3.000    7.000    0.667 
#    0.000    3.333    0.000    0.000    0.000    0.000 
#    0.000    0.000    0.000    0.000    0.000    0.000 
#
# Total GULP energy -133656.911773 kJ/mol
# GULP energy per Si atom -5569.037991 kJ/mol
# Density = 1.764128 g / cm^3
# Si number density = 17.681522 Si / 1000 Ang^3
#
#
#
# Elastic Constant Matrix: (Units=GPa)
#
#
# Indices 1 2 3 4 5 6 
#
# 1 136.2752 36.2995 59.2353 0.0000 -4.1395 0.0000
# 2 36.2995 87.6208 18.3232 0.0000 -1.3211 0.0000
# 3 59.2353 18.3232 137.9918 0.0000 7.5630 0.0000
# 4 0.0000 0.0000 0.0000 15.5923 0.0000 -1.4813
# 5 -4.1395 -1.3211 7.5630 0.0000 43.5990 0.0000
# 6 0.0000 0.0000 0.0000 -1.4813 0.0000 18.4575
#
#
#
# Elastic Compliance Matrix: (Units=1/GPa)
#
#
# Indices 1 2 3 4 5 6 
#
# 1 0.009966 -0.003285 -0.003926 0.000000 0.001528 0.000000
# 2 -0.003285 0.012839 -0.000302 0.000000 0.000130 0.000000
# 3 -0.003926 -0.000302 0.009079 0.000000 -0.001957 0.000000
# 4 0.000000 0.000000 0.000000 0.064627 0.000000 0.005187
# 5 0.001528 0.000130 -0.001957 0.000000 0.023425 0.000000
# 6 0.000000 0.000000 0.000000 0.005187 0.000000 0.054595
#
#
# Mechanical properties :
#
#
# Convention : Reuss Voigt Hill
#
# Bulk Modulus (GPa) = 59.31376 65.51154 62.41265
# Shear Modulus (GPa) = 25.61814 32.06508 28.84161
#
# Velocity S-wave (km/s) = 3.81053 4.26312 4.04316
# Velocity P-wave (km/s) = 7.27864 7.83349 7.56115
#
# Compressibility (1/GPa) = 0.01685949
#
# Stress axis : x y z
#
# Youngs Moduli (GPa) = 100.34361 77.88972 110.14132
#
# Poissons Ratio (x) = 0.25584 0.43236
# Poissons Ratio (y) = 0.32960 0.03325
# Poissons Ratio (z) = 0.39390 0.02351
#
# Static dielectric constant tensor:
#      x y z
#    x 1.737120 0.000000 -0.036440 
#    y 0.000000 1.662480 0.000000 
#    z -0.036440 0.000000 1.643030 
# 
# From -- ./inp_files/18522.got.cif
#   From: 2010.05.17/outbox.cif.g08.bks.cpg/sg11_10_cif.got.tgz:18522.got - 2010.06.03 12:22:45.
