data_PCOD9156690
_publ_section_title
;
Structure prediction by ZEFSAII (Michael W. Deem and Ramdas Pophale) SiO2 
 PCOD9156690
Probable space group: P 21/M
;
_chemical_formula_sum "Si O2"
_cell_formula_units_Z 28
_cell_length_a 13.826522
_cell_length_b 8.514001
_cell_length_c 15.060231
_cell_angle_alpha 90.000000
_cell_angle_beta 101.977889
_cell_angle_gamma 90.000000
_cell_volume 1734.276197
_symmetry_space_group_name_H-M "P 21/M"
_symmetry_group_IT_number 11
_symmetry_cell_setting 'monoclinic'
loop_
_space_group_symop_operation_xyz
x,y,z
-x,1/2+y,-z
-x,-y,-z
x,1/2-y,z
loop_
_atom_site_type_symbol
_atom_site_label
_atom_site_fract_x
_atom_site_fract_y
_atom_site_fract_z
Si Si1 0.414854 0.439957 0.602075
Si Si2 0.109950 0.439048 0.034760
Si Si3 0.366564 0.059691 0.398126
Si Si4 0.428844 0.066581 0.109448
Si Si5 0.248262 0.064889 0.213935
Si Si6 0.279530 0.935654 0.941006
Si Si7 0.364905 0.064154 0.786711
O O1 0.420450 0.250000 0.604731
O O2 0.526520 0.503983 0.616534
O O3 0.361147 0.487651 0.500316
O O4 0.364526 0.490661 0.684282
O O5 0.110669 0.250000 0.036818
O O6 0.159299 0.499160 0.136676
O O7 0.183506 0.493280 0.970582
O O8 0.000000 0.500000 0.000000
O O9 0.366269 0.250000 0.394631
O O10 0.281401 0.999715 0.315570
O O11 0.455356 0.250000 0.104094
O O12 0.345370 0.054222 0.169980
O O13 0.524613 0.971627 0.156864
O O14 0.374648 0.005177 0.011157
O O15 0.227201 0.250000 0.222734
O O16 0.278890 0.750000 0.952395
O O17 0.291205 0.980547 0.840607
O O18 0.346845 0.250000 0.786220
#
# Coordination Sequence:
#
# PCOD9156690 Si02
#       7
#     4   4   4   4   4   4   4
#     4   9  18  27  41  65  94 126 162 199 231 265
#     4  10  20  36  54  75  97 120 150 191 238 287
#     4   9  15  28  45  64  91 126 162 195 231 272
#     4  10  18  30  45  65  92 127 162 196 231 276
#     4   8  15  27  47  69  92 122 156 189 228 278
#     4  11  22  34  48  67  90 123 159 196 236 282
#     4  11  20  30  42  64  96 130 162 196 232 276
#
# _framework density 16.145064000000001
#
# number of rings (size 3 to 8) (size 9 to 14) (size 15 to 20)
#    0.000    2.286    1.429    3.857    0.000    0.571 
#    0.000    0.714    0.000    0.000    0.000    1.000 
#    0.000    0.000    0.000    0.000    0.000    0.000 
#
# Total GULP energy -156096.514511 kJ/mol
# GULP energy per Si atom -5574.875518 kJ/mol
# Density = 1.610832 g / cm^3
# Si number density = 16.145064 Si / 1000 Ang^3
#
#
#
# Elastic Constant Matrix: (Units=GPa)
#
#
# Indices 1 2 3 4 5 6 
#
# 1 60.0096 3.7979 52.3557 0.0000 10.6671 0.0000
# 2 3.7979 24.1177 15.7328 0.0000 -1.8917 0.0000
# 3 52.3557 15.7328 151.5292 0.0000 0.1698 0.0000
# 4 0.0000 0.0000 0.0000 15.1558 0.0000 -1.2260
# 5 10.6671 -1.8917 0.1698 0.0000 18.8581 0.0000
# 6 0.0000 0.0000 0.0000 -1.2260 0.0000 22.1453
#
#
#
# Elastic Compliance Matrix: (Units=1/GPa)
#
#
# Indices 1 2 3 4 5 6 
#
# 1 0.027826 0.000704 -0.009670 0.000000 -0.015582 0.000000
# 2 0.000704 0.044879 -0.004908 0.000000 0.004148 0.000000
# 3 -0.009670 -0.004908 0.010445 0.000000 0.004883 0.000000
# 4 0.000000 0.000000 0.000000 0.066278 0.000000 0.003669
# 5 -0.015582 0.004148 0.004883 0.000000 0.062214 0.000000
# 6 0.000000 0.000000 0.000000 0.003669 0.000000 0.045360
#
#
# Mechanical properties :
#
#
# Convention : Reuss Voigt Hill
#
# Bulk Modulus (GPa) = 18.04971 42.15881 30.10426
# Shear Modulus (GPa) = 16.48993 22.14984 19.31989
#
# Velocity S-wave (km/s) = 3.19934 3.70797 3.46301
# Velocity P-wave (km/s) = 4.98515 6.67093 5.88867
#
# Compressibility (1/GPa) = 0.05540255
#
# Stress axis : x y z
#
# Youngs Moduli (GPa) = 35.93785 22.28208 95.74374
#
# Poissons Ratio (x) = -0.01569 0.92583
# Poissons Ratio (y) = -0.02530 0.46986
# Poissons Ratio (z) = 0.34751 0.10935
#
# Static dielectric constant tensor:
#      x y z
#    x 1.505630 0.000000 -0.002540 
#    y 0.000000 1.545430 0.000000 
#    z -0.002540 0.000000 1.601720 
# 
# From -- ./inp_files/51016.got.cif
#   From: 2010.05.17/outbox.cif.g08.bks.cpg/sg11_26_cif.got.tgz:51016.got - 2010.06.03 12:22:45.
