data_PCOD9156265
_publ_section_title
;
Structure prediction by ZEFSAII (Michael W. Deem and Ramdas Pophale) SiO2 
 PCOD9156265
Probable space group: P 21/M
;
_chemical_formula_sum "Si O2"
_cell_formula_units_Z 28
_cell_length_a 13.979399
_cell_length_b 8.706407
_cell_length_c 16.740404
_cell_angle_alpha 90.000000
_cell_angle_beta 114.650876
_cell_angle_gamma 90.000000
_cell_volume 1851.796725
_symmetry_space_group_name_H-M "P 21/M"
_symmetry_group_IT_number 11
_symmetry_cell_setting 'monoclinic'
loop_
_space_group_symop_operation_xyz
x,y,z
-x,1/2+y,-z
-x,-y,-z
x,1/2-y,z
loop_
_atom_site_type_symbol
_atom_site_label
_atom_site_fract_x
_atom_site_fract_y
_atom_site_fract_z
Si Si1 0.491897 0.434493 0.195362
Si Si2 0.704229 0.935911 0.189158
Si Si3 0.890070 0.564641 0.368915
Si Si4 0.868742 0.066240 0.536240
Si Si5 0.527634 0.433806 0.635455
Si Si6 0.605998 0.934888 0.997335
Si Si7 0.334129 0.433745 0.453953
O O1 0.495769 0.250000 0.200662
O O2 0.603653 0.495290 0.200525
O O3 0.471192 0.501009 0.275244
O O4 0.403369 0.481296 0.098546
O O5 0.696458 0.750000 0.191039
O O6 0.810683 0.981967 0.271166
O O7 0.695362 0.980580 0.092342
O O8 0.885845 0.750000 0.375272
O O9 0.854817 0.492978 0.440760
O O10 0.011973 0.521944 0.397857
O O11 0.860855 0.250000 0.534825
O O12 0.779202 0.995350 0.560376
O O13 0.532448 0.250000 0.639402
O O14 0.418982 0.478027 0.552275
O O15 0.620733 0.497732 0.612297
O O16 0.602015 0.750000 0.996512
O O17 0.500000 0.000000 0.000000
O O18 0.332765 0.250000 0.448400
#
# Coordination Sequence:
#
# PCOD9156265 Si02
#       7
#     4   4   4   4   4   4   4
#     4  10  18  27  41  64  91 115 141 174 213 253
#     4   9  16  28  44  61  85 117 149 177 207 246
#     4   9  18  30  44  63  86 115 149 178 207 247
#     4  10  19  30  44  63  88 115 143 177 214 250
#     4  10  20  32  46  64  85 112 144 173 207 252
#     4   8  15  26  40  59  84 113 142 173 209 249
#     4  10  20  33  47  63  85 112 142 176 211 249
#
# _framework density 15.12045
#
# number of rings (size 3 to 8) (size 9 to 14) (size 15 to 20)
#    0.000    2.571    0.000    2.571    0.000    6.857 
#    0.000    0.000    0.000    0.000    0.000    1.000 
#    0.000    0.000    0.000    0.000    0.000    0.000 
#
# Total GULP energy -155987.865527 kJ/mol
# GULP energy per Si atom -5570.995197 kJ/mol
# Density = 1.508604 g / cm^3
# Si number density = 15.120450 Si / 1000 Ang^3
#
#
#
# Elastic Constant Matrix: (Units=GPa)
#
#
# Indices 1 2 3 4 5 6 
#
# 1 82.6790 23.2041 58.6772 0.0000 -6.4848 0.0000
# 2 23.2041 21.2135 30.7621 0.0000 -2.7751 0.0000
# 3 58.6772 30.7621 154.0836 0.0000 -3.6871 0.0000
# 4 0.0000 0.0000 0.0000 19.5287 0.0000 -2.9097
# 5 -6.4848 -2.7751 -3.6871 0.0000 23.2125 0.0000
# 6 0.0000 0.0000 0.0000 -2.9097 0.0000 22.7812
#
#
#
# Elastic Compliance Matrix: (Units=1/GPa)
#
#
# Indices 1 2 3 4 5 6 
#
# 1 0.019596 -0.014529 -0.004489 0.000000 0.003024 0.000000
# 2 -0.014529 0.077922 -0.009936 0.000000 0.003678 0.000000
# 3 -0.004489 -0.009936 0.010163 0.000000 -0.000828 0.000000
# 4 0.000000 0.000000 0.000000 0.052200 0.000000 0.006667
# 5 0.003024 0.003678 -0.000828 0.000000 0.044233 0.000000
# 6 0.000000 0.000000 0.000000 0.006667 0.000000 0.044747
#
#
# Mechanical properties :
#
#
# Convention : Reuss Voigt Hill
#
# Bulk Modulus (GPa) = 20.09141 53.69588 36.89365
# Shear Modulus (GPa) = 15.46260 22.79333 19.12796
#
# Velocity S-wave (km/s) = 3.20132 3.88680 3.56060
# Velocity P-wave (km/s) = 5.19433 7.46540 6.43091
#
# Compressibility (1/GPa) = 0.04977252
#
# Stress axis : x y z
#
# Youngs Moduli (GPa) = 51.03112 12.83342 98.39197
#
# Poissons Ratio (x) = 0.18646 0.44172
# Poissons Ratio (y) = 0.74143 0.97760
# Poissons Ratio (z) = 0.22910 0.12751
#
# Static dielectric constant tensor:
#      x y z
#    x 1.468450 0.000000 0.019180 
#    y 0.000000 1.507830 0.000000 
#    z 0.019180 0.000000 1.531970 
# 
# From -- ./inp_files/49028.got.cif
#   From: 2010.05.17/outbox.cif.g08.bks.cpg/sg11_25_cif.got.tgz:49028.got - 2010.06.03 12:22:45.
