data_PCOD9156625
_publ_section_title
;
Structure prediction by ZEFSAII (Michael W. Deem and Ramdas Pophale) SiO2 
 PCOD9156625
Probable space group: P 21/M
;
_chemical_formula_sum "Si O2"
_cell_formula_units_Z 32
_cell_length_a 15.377501
_cell_length_b 22.306839
_cell_length_c 5.085062
_cell_angle_alpha 90.000000
_cell_angle_beta 70.066724
_cell_angle_gamma 90.000000
_cell_volume 1639.795210
_symmetry_space_group_name_H-M "P 21/M"
_symmetry_group_IT_number 11
_symmetry_cell_setting 'monoclinic'
loop_
_space_group_symop_operation_xyz
x,y,z
-x,1/2+y,-z
-x,-y,-z
x,1/2-y,z
loop_
_atom_site_type_symbol
_atom_site_label
_atom_site_fract_x
_atom_site_fract_y
_atom_site_fract_z
Si Si1 0.886227 0.177694 0.278734
Si Si2 0.319985 0.321414 0.991841
Si Si3 0.001698 0.177666 0.664530
Si Si4 0.445404 0.403598 0.514388
Si Si5 0.581220 0.482632 0.712432
Si Si6 0.309078 0.867553 0.338526
Si Si7 0.408823 0.680880 0.751384
Si Si8 0.796206 0.821602 0.396076
O O1 0.866916 0.250000 0.300007
O O2 0.967070 0.165915 0.407195
O O3 0.795075 0.143050 0.462201
O O4 0.924390 0.159208 0.955408
O O5 0.345399 0.250000 0.962799
O O6 0.397303 0.364249 0.788262
O O7 0.235610 0.329532 0.870316
O O8 0.283565 0.339855 0.315874
O O9 0.006256 0.250000 0.685927
O O10 0.103157 0.153721 0.633626
O O11 0.528068 0.443628 0.548841
O O12 0.383518 0.454402 0.440920
O O13 0.499894 0.357430 0.272768
O O14 0.659184 0.436725 0.730605
O O15 0.500000 0.500000 0.000000
O O16 0.371660 0.836825 0.501705
O O17 0.330697 0.834454 0.043831
O O18 0.432548 0.750000 0.733199
O O19 0.801380 0.750000 0.431508
#
# Coordination Sequence:
#
# PCOD9156625 Si02
#       8
#     4   4   4   4   4   4   4   4
#     4  10  18  29  48  76 105 134 171 211 257 318
#     4  10  20  33  53  83 113 137 174 220 267 323
#     4   9  17  30  49  73 107 142 168 202 258 325
#     4  10  22  36  55  78 103 142 183 224 265 308
#     4  10  21  40  56  73 104 143 190 229 256 307
#     4  11  22  35  53  77 107 142 181 224 261 304
#     4  11  21  34  52  76 110 142 169 212 275 326
#     4   9  18  32  50  77 111 142 168 207 263 325
#
# _framework density 19.514631999999999
#
# number of rings (size 3 to 8) (size 9 to 14) (size 15 to 20)
#    0.000    2.000    1.250    3.000    1.750    4.000 
#    0.000    2.500    0.000    0.000    0.000    5.250 
#    0.000    0.000    0.000    0.000    0.000    0.000 
#
# Total GULP energy -178517.772500 kJ/mol
# GULP energy per Si atom -5578.680391 kJ/mol
# Density = 1.947022 g / cm^3
# Si number density = 19.514632 Si / 1000 Ang^3
#
#
#
# Elastic Constant Matrix: (Units=GPa)
#
#
# Indices 1 2 3 4 5 6 
#
# 1 28.0321 15.1488 -13.1577 0.0000 -12.0769 0.0000
# 2 15.1488 82.7821 6.1433 0.0000 -1.1169 0.0000
# 3 -13.1577 6.1433 47.7879 0.0000 6.5262 0.0000
# 4 0.0000 0.0000 0.0000 -12.4891 0.0000 2.7055
# 5 -12.0769 -1.1169 6.5262 0.0000 26.2115 0.0000
# 6 0.0000 0.0000 0.0000 2.7055 0.0000 12.5647
#
#
#
# Elastic Compliance Matrix: (Units=1/GPa)
#
#
# Indices 1 2 3 4 5 6 
#
# 1 0.058515 -0.011473 0.014463 0.000000 0.022871 0.000000
# 2 -0.011473 0.014468 -0.004535 0.000000 -0.003540 0.000000
# 3 0.014463 -0.004535 0.025473 0.000000 0.000128 0.000000
# 4 0.000000 0.000000 0.000000 -0.076501 0.000000 0.016473
# 5 0.022871 -0.003540 0.000128 0.000000 0.048506 0.000000
# 6 0.000000 0.000000 0.000000 0.016473 0.000000 0.076041
#
#
# Mechanical properties :
#
#
# Convention : Reuss Voigt Hill
#
# Bulk Modulus (GPa) = 10.48591 19.43010 14.95801
# Shear Modulus (GPa) = 27.56608 15.28858 21.42733
#
# Velocity S-wave (km/s) = 3.76251 2.80204 3.31722
# Velocity P-wave (km/s) = 4.92548 4.52182 4.72796
#
# Compressibility (1/GPa) = 0.09536603
#
# Stress axis : x y z
#
# Youngs Moduli (GPa) = 17.08961 69.11724 39.25657
#
# Poissons Ratio (x) = 0.79296 -0.56776
# Poissons Ratio (y) = 0.19606 0.17804
# Poissons Ratio (z) = -0.24716 0.31347
#
# Static dielectric constant tensor:
#      x y z
#    x 1.747700 0.000000 0.014670 
#    y 0.000000 1.663640 0.000000 
#    z 0.014670 0.000000 1.708810 
# 
# From -- ./inp_files/8340.got.cif
#   From: 2010.05.17/outbox.cif.g08.bks.cpg/sg11_5_cif.got.tgz:8340.got - 2010.06.03 12:22:45.
