data_PCOD9156731
_publ_section_title
;
Structure prediction by ZEFSAII (Michael W. Deem and Ramdas Pophale) SiO2 
 PCOD9156731
Probable space group: P 21/M
;
_chemical_formula_sum "Si O2"
_cell_formula_units_Z 32
_cell_length_a 31.608225
_cell_length_b 9.184404
_cell_length_c 15.407056
_cell_angle_alpha 90.000000
_cell_angle_beta 151.623504
_cell_angle_gamma 90.000000
_cell_volume 2125.715032
_symmetry_space_group_name_H-M "P 21/M"
_symmetry_group_IT_number 11
_symmetry_cell_setting 'monoclinic'
loop_
_space_group_symop_operation_xyz
x,y,z
-x,1/2+y,-z
-x,-y,-z
x,1/2-y,z
loop_
_atom_site_type_symbol
_atom_site_label
_atom_site_fract_x
_atom_site_fract_y
_atom_site_fract_z
Si Si1 0.394978 0.423676 0.723491
Si Si2 0.882186 0.423658 0.354511
Si Si3 0.805316 0.574782 0.679692
Si Si4 0.936281 0.076882 0.260934
Si Si5 0.575464 0.577049 0.019145
Si Si6 0.742098 0.424104 0.243630
Si Si7 0.117454 0.575491 0.350156
Si Si8 0.081882 0.075192 0.948182
O O1 0.406940 0.250000 0.734031
O O2 0.298642 0.466131 0.513180
O O3 0.478255 0.507124 0.832875
O O4 0.396716 0.453536 0.830224
O O5 0.898256 0.250000 0.396263
O O6 0.881190 0.452058 0.249867
O O7 0.793615 0.460456 0.247776
O O8 0.966185 0.508995 0.545340
O O9 0.810545 0.750000 0.679283
O O10 0.856190 0.502199 0.691168
O O11 0.851546 0.536181 0.853828
O O12 0.943282 0.250000 0.262604
O O13 0.898304 0.003283 0.106349
O O14 0.572036 0.750000 0.001889
O O15 0.650441 0.506434 0.094391
O O16 0.727121 0.250000 0.219210
O O17 0.810753 0.460452 0.445653
O O18 0.119177 0.750000 0.340880
O O19 0.018590 0.536120 0.203611
O O20 0.084252 0.250000 0.940216
#
# Coordination Sequence:
#
# PCOD9156731 Si02
#       8
#     4   4   4   4   4   4   4   4
#     4   9  18  32  46  65  91 121 156 192 232 279
#     4   9  18  33  49  67  95 126 156 191 238 285
#     4  10  20  33  49  67  92 127 164 200 231 268
#     4  10  19  30  48  71  93 122 160 200 233 270
#     4  10  19  30  47  69  93 119 152 195 235 275
#     4  10  18  30  48  68  94 128 155 183 231 284
#     4  10  19  30  45  66  95 130 162 190 226 272
#     4  10  20  34  48  65  95 132 163 193 234 277
#
# _framework density 15.053758
#
# number of rings (size 3 to 8) (size 9 to 14) (size 15 to 20)
#    0.000    2.250    2.500    1.125    0.000    3.000 
#    0.000    0.000    0.000    0.000    0.000    0.875 
#    0.000    0.000    0.000    0.000    0.000    0.000 
#
# Total GULP energy -178481.872871 kJ/mol
# GULP energy per Si atom -5577.558527 kJ/mol
# Density = 1.501950 g / cm^3
# Si number density = 15.053758 Si / 1000 Ang^3
#
#
#
# Elastic Constant Matrix: (Units=GPa)
#
#
# Indices 1 2 3 4 5 6 
#
# 1 131.7487 52.1450 57.7641 0.0000 3.2778 0.0000
# 2 52.1450 27.9734 31.2818 0.0000 1.1471 0.0000
# 3 57.7641 31.2818 72.6873 0.0000 -1.1410 0.0000
# 4 0.0000 0.0000 0.0000 17.6953 0.0000 -0.6811
# 5 3.2778 1.1471 -1.1410 0.0000 21.5822 0.0000
# 6 0.0000 0.0000 0.0000 -0.6811 0.0000 26.5322
#
#
#
# Elastic Compliance Matrix: (Units=1/GPa)
#
#
# Indices 1 2 3 4 5 6 
#
# 1 0.029002 -0.054364 0.000325 0.000000 -0.001498 0.000000
# 2 -0.054364 0.171416 -0.030607 0.000000 -0.002473 0.000000
# 3 0.000325 -0.030607 0.026718 0.000000 0.002990 0.000000
# 4 0.000000 0.000000 0.000000 0.056568 0.000000 0.001452
# 5 -0.001498 -0.002473 0.002990 0.000000 0.046851 0.000000
# 6 0.000000 0.000000 0.000000 0.001452 0.000000 0.037727
#
#
# Mechanical properties :
#
#
# Convention : Reuss Voigt Hill
#
# Bulk Modulus (GPa) = 17.28781 57.19904 37.24342
# Shear Modulus (GPa) = 8.97899 19.24317 14.11108
#
# Velocity S-wave (km/s) = 2.44491 3.57921 3.06499
# Velocity P-wave (km/s) = 4.41351 7.42698 6.10897
#
# Compressibility (1/GPa) = 0.05784424
#
# Stress axis : x y z
#
# Youngs Moduli (GPa) = 34.48072 5.83376 37.42787
#
# Poissons Ratio (x) = 0.31715 -0.01217
# Poissons Ratio (y) = 1.87451 1.14555
# Poissons Ratio (z) = -0.01122 0.17855
#
# Static dielectric constant tensor:
#      x y z
#    x 1.491410 0.000000 -0.002290 
#    y 0.000000 1.497440 0.000000 
#    z -0.002290 0.000000 1.482060 
# 
# From -- ./inp_files/51214.got.cif
#   From: 2010.05.17/outbox.cif.g08.bks.cpg/sg11_26_cif.got.tgz:51214.got - 2010.06.03 12:22:45.
