data_PCOD9156809
_publ_section_title
;
Structure prediction by ZEFSAII (Michael W. Deem and Ramdas Pophale) SiO2 
 PCOD9156809
Probable space group: P 21/M
;
_chemical_formula_sum "Si O2"
_cell_formula_units_Z 28
_cell_length_a 8.807660
_cell_length_b 18.262034
_cell_length_c 15.619714
_cell_angle_alpha 90.000000
_cell_angle_beta 145.350816
_cell_angle_gamma 90.000000
_cell_volume 1428.405562
_symmetry_space_group_name_H-M "P 21/M"
_symmetry_group_IT_number 11
_symmetry_cell_setting 'monoclinic'
loop_
_space_group_symop_operation_xyz
x,y,z
-x,1/2+y,-z
-x,-y,-z
x,1/2-y,z
loop_
_atom_site_type_symbol
_atom_site_label
_atom_site_fract_x
_atom_site_fract_y
_atom_site_fract_z
Si Si1 0.881416 0.831893 0.519798
Si Si2 0.831903 0.022983 0.790607
Si Si3 0.377976 0.517560 0.124680
Si Si4 0.854594 0.540728 0.626120
Si Si5 0.901484 0.600326 0.340707
Si Si6 0.083045 0.331200 0.829063
Si Si7 0.626557 0.119885 0.156922
O O1 0.765806 0.750000 0.464245
O O2 0.915378 0.865934 0.441361
O O3 0.741522 0.891197 0.518784
O O4 0.178002 0.829020 0.698373
O O5 0.934163 0.102427 0.807545
O O6 0.641372 0.029433 0.783139
O O7 0.727397 0.982578 0.657073
O O8 0.087648 0.978955 0.947202
O O9 0.597695 0.571835 0.188908
O O10 0.481578 0.436032 0.153824
O O11 0.913986 0.471135 0.592296
O O12 0.155768 0.569372 0.791277
O O13 0.960807 0.656457 0.292162
O O14 0.000522 0.250000 0.817473
O O15 0.397576 0.342338 0.996135
#
# Coordination Sequence:
#
# PCOD9156809 Si02
#       7
#     4   4   4   4   4   4   4
#     4  10  19  31  49  73 101 128 158 207 255 288
#     4   9  17  32  50  75 100 131 161 207 241 284
#     4   9  17  30  52  75  98 123 167 206 241 283
#     4   8  17  30  50  70  94 124 163 199 238 287
#     4  10  18  31  51  74  95 125 165 206 240 287
#     4  10  18  30  49  74  99 129 163 201 248 295
#     4   8  17  30  51  71  96 122 162 206 238 290
#
# _framework density 19.602274999999999
#
# number of rings (size 3 to 8) (size 9 to 14) (size 15 to 20)
#    0.857    2.000    0.000    2.143    0.000    3.429 
#    0.000    2.143    0.000    8.571    0.000    0.000 
#    0.000    0.000    0.000    0.000    0.000    0.000 
#
# Total GULP energy -155928.081109 kJ/mol
# GULP energy per Si atom -5568.860040 kJ/mol
# Density = 1.955766 g / cm^3
# Si number density = 19.602275 Si / 1000 Ang^3
#
#
#
# Elastic Constant Matrix: (Units=GPa)
#
#
# Indices 1 2 3 4 5 6 
#
# 1 57.8821 12.1125 11.3370 0.0000 -27.4543 0.0000
# 2 12.1125 90.3420 24.6558 0.0000 -26.3254 0.0000
# 3 11.3370 24.6558 71.0619 0.0000 -15.1684 0.0000
# 4 0.0000 0.0000 0.0000 10.2881 0.0000 -3.4966
# 5 -27.4543 -26.3254 -15.1684 0.0000 37.0949 0.0000
# 6 0.0000 0.0000 0.0000 -3.4966 0.0000 2.0222
#
#
#
# Elastic Compliance Matrix: (Units=1/GPa)
#
#
# Indices 1 2 3 4 5 6 
#
# 1 0.027199 0.002928 -0.000674 0.000000 0.021933 0.000000
# 2 0.002928 0.014875 -0.003191 0.000000 0.011419 0.000000
# 3 -0.000674 -0.003191 0.016102 0.000000 0.003821 0.000000
# 4 0.000000 0.000000 0.000000 0.235734 0.000000 0.407616
# 5 0.021933 0.011419 0.003821 0.000000 0.052857 0.000000
# 6 0.000000 0.000000 0.000000 0.407616 0.000000 1.199345
#
#
# Mechanical properties :
#
#
# Convention : Reuss Voigt Hill
#
# Bulk Modulus (GPa) = 17.76082 35.05517 26.40800
# Shear Modulus (GPa) = 3.19132 21.29308 12.24220
#
# Velocity S-wave (km/s) = 1.27733 3.29941 2.50177
# Velocity P-wave (km/s) = 3.35495 5.69534 4.67400
#
# Compressibility (1/GPa) = 0.05630370
#
# Stress axis : x y z
#
# Youngs Moduli (GPa) = 36.76655 67.22852 62.10225
#
# Poissons Ratio (x) = -0.19687 0.04183
# Poissons Ratio (y) = -0.10767 0.19815
# Poissons Ratio (z) = 0.02477 0.21451
#
# Static dielectric constant tensor:
#      x y z
#    x 1.678390 0.000000 0.035350 
#    y 0.000000 1.691870 0.000000 
#    z 0.035350 0.000000 1.731770 
# 
# From -- ./inp_files/47865.got.cif
#   From: 2010.05.17/outbox.cif.g08.bks.cpg/sg11_24_cif.got.tgz:47865.got - 2010.06.03 12:22:45.
