data_PCOD9156059
_publ_section_title
;
Structure prediction by ZEFSAII (Michael W. Deem and Ramdas Pophale) SiO2 
 PCOD9156059
Probable space group: P 21/M
;
_chemical_formula_sum "Si O2"
_cell_formula_units_Z 32
_cell_length_a 20.864080
_cell_length_b 7.488137
_cell_length_c 20.706957
_cell_angle_alpha 90.000000
_cell_angle_beta 29.770516
_cell_angle_gamma 90.000000
_cell_volume 1606.321519
_symmetry_space_group_name_H-M "P 21/M"
_symmetry_group_IT_number 11
_symmetry_cell_setting 'monoclinic'
loop_
_space_group_symop_operation_xyz
x,y,z
-x,1/2+y,-z
-x,-y,-z
x,1/2-y,z
loop_
_atom_site_type_symbol
_atom_site_label
_atom_site_fract_x
_atom_site_fract_y
_atom_site_fract_z
Si Si1 0.878895 0.455239 0.696556
Si Si2 0.368534 0.531391 0.850071
Si Si3 0.654204 0.535705 0.638183
Si Si4 0.316840 0.035956 0.613611
Si Si5 0.139438 0.969274 0.144354
Si Si6 0.162072 0.538490 0.408961
Si Si7 0.598934 0.462832 0.322503
Si Si8 0.854107 0.968233 0.352857
O O1 0.834611 0.250000 0.736333
O O2 0.842511 0.532621 0.797678
O O3 0.829829 0.532857 0.671408
O O4 0.034912 0.458322 0.553998
O O5 0.367032 0.750000 0.852095
O O6 0.509225 0.473102 0.752105
O O7 0.355366 0.472316 0.787148
O O8 0.253208 0.473851 0.997336
O O9 0.650972 0.750000 0.635646
O O10 0.714369 0.491091 0.654795
O O11 0.753962 0.472721 0.495904
O O12 0.320439 0.250000 0.604833
O O13 0.455728 0.967260 0.466080
O O14 0.203491 0.973770 0.665654
O O15 0.311099 0.995651 0.694442
O O16 0.138227 0.750000 0.146944
O O17 0.998774 0.025812 0.242140
O O18 0.136737 0.750000 0.426908
O O19 0.585444 0.250000 0.328154
O O20 0.855172 0.750000 0.352816
#
# Coordination Sequence:
#
# PCOD9156059 Si02
#       8
#     4   4   4   4   4   4   4   4
#     4   9  17  31  50  70  96 127 159 193 233 279
#     4   9  17  29  48  72  95 121 159 199 231 272
#     4  10  17  30  50  71  94 122 158 198 233 271
#     4   9  16  27  45  68  91 118 152 191 232 277
#     4   9  16  28  49  73  92 119 160 199 231 270
#     4  10  19  29  46  74 100 122 154 198 239 277
#     4   9  16  28  45  67  93 118 149 193 236 273
#     4   9  15  26  47  70  91 117 157 197 226 266
#
# _framework density 19.921291
#
# number of rings (size 3 to 8) (size 9 to 14) (size 15 to 20)
#    0.000    2.750    2.500    0.375    0.000    0.500 
#    0.000    2.500    0.000    1.500    0.000    0.000 
#    0.000    0.000    0.000    0.000    0.000    0.000 
#
# Total GULP energy -178496.716985 kJ/mol
# GULP energy per Si atom -5578.022406 kJ/mol
# Density = 1.987595 g / cm^3
# Si number density = 19.921291 Si / 1000 Ang^3
#
#
#
# Elastic Constant Matrix: (Units=GPa)
#
#
# Indices 1 2 3 4 5 6 
#
# 1 194.4148 -0.6531 106.0340 0.0000 23.1268 0.0000
# 2 -0.6531 54.6013 4.6214 0.0000 1.1348 0.0000
# 3 106.0340 4.6214 144.7212 0.0000 16.5270 0.0000
# 4 0.0000 0.0000 0.0000 0.0083 0.0000 0.0021
# 5 23.1268 1.1348 16.5270 0.0000 30.8533 0.0000
# 6 0.0000 0.0000 0.0000 0.0021 0.0000 15.8464
#
#
#
# Elastic Compliance Matrix: (Units=1/GPa)
#
#
# Indices 1 2 3 4 5 6 
#
# 1 0.008913 0.000699 -0.006164 0.000000 -0.003405 0.000000
# 2 0.000699 0.018423 -0.001026 0.000000 -0.000652 0.000000
# 3 -0.006164 -0.001026 0.011639 0.000000 -0.001577 0.000000
# 4 0.000000 0.000000 0.000000120.230067 0.000000 -0.015696
# 5 -0.003405 -0.000652 -0.001577 0.000000 0.035832 0.000000
# 6 0.000000 0.000000 0.000000 -0.015696 0.000000 0.063108
#
#
# Mechanical properties :
#
#
# Convention : Reuss Voigt Hill
#
# Bulk Modulus (GPa) = 38.47130 68.19354 53.33242
# Shear Modulus (GPa) = 0.04153 28.25725 14.14939
#
# Velocity S-wave (km/s) = 0.14454 3.77031 2.66797
# Velocity P-wave (km/s) = 4.40243 7.29791 6.02664
#
# Compressibility (1/GPa) = 0.02599340
#
# Stress axis : x y z
#
# Youngs Moduli (GPa) = 112.20019 54.27895 85.92111
#
# Poissons Ratio (x) = -0.03794 0.52958
# Poissons Ratio (y) = -0.07843 0.08816
# Poissons Ratio (z) = 0.69156 0.05569
#
# Static dielectric constant tensor:
#      x y z
#    x 1.715670 0.000000 0.019060 
#    y 0.000000 1.761880 0.000000 
#    z 0.019060 0.000000 1.658780 
# 
# From -- ./inp_files/66404.got.cif
#   From: 2010.05.17/outbox.cif.g08.bks.cpg/sg11_34_cif.got.tgz:66404.got - 2010.06.03 12:22:45.
