data_PCOD9156091
_publ_section_title
;
Structure prediction by ZEFSAII (Michael W. Deem and Ramdas Pophale) SiO2 
 PCOD9156091
Probable space group: P 21/M
;
_chemical_formula_sum "Si O2"
_cell_formula_units_Z 26
_cell_length_a 6.759464
_cell_length_b 16.928968
_cell_length_c 11.776583
_cell_angle_alpha 90.000000
_cell_angle_beta 131.181750
_cell_angle_gamma 90.000000
_cell_volume 1014.239441
_symmetry_space_group_name_H-M "P 21/M"
_symmetry_group_IT_number 11
_symmetry_cell_setting 'monoclinic'
loop_
_space_group_symop_operation_xyz
x,y,z
-x,1/2+y,-z
-x,-y,-z
x,1/2-y,z
loop_
_atom_site_type_symbol
_atom_site_label
_atom_site_fract_x
_atom_site_fract_y
_atom_site_fract_z
Si Si1 0.754738 0.250000 0.936649
Si Si2 0.800852 0.408044 0.055034
Si Si3 0.248333 0.453123 0.510377
Si Si4 0.016654 0.250000 0.806046
Si Si5 0.833238 0.339986 0.316521
Si Si6 0.312307 0.488871 0.173435
Si Si7 0.655076 0.750000 0.849211
Si Si8 0.802528 0.408076 0.669640
O O1 0.059534 0.250000 0.097202
O O2 0.779664 0.250000 0.810609
O O3 0.652711 0.332870 0.942525
O O4 0.103652 0.421551 0.126693
O O5 0.806956 0.386205 0.188411
O O6 0.671682 0.486168 0.951329
O O7 0.124605 0.517372 0.379323
O O8 0.484149 0.405557 0.534894
O O9 0.597946 0.496030 0.337198
O O10 0.039298 0.388501 0.468241
O O11 0.966694 0.329207 0.717078
O O12 0.267287 0.250000 0.985886
O O13 0.930650 0.250000 0.333005
O O14 0.538901 0.323198 0.249278
O O15 0.177363 0.563446 0.191787
#
# Coordination Sequence:
#
# PCOD9156091 Si02
#       8
#     2   4   4   2   4   4   2   4
#     4  10  17  31  47  73 106 133 165 210 263 308
#     4  11  17  30  55  80 103 127 169 222 267 286
#     4   9  17  33  48  81 105 135 166 221 257 312
#     4  10  18  31  48  75 104 140 169 207 262 308
#     4  10  19  32  54  80 103 131 175 221 250 302
#     4   9  18  29  48  80 108 125 159 221 267 307
#     4   8  21  34  47  74 112 137 178 207 249 320
#     4   9  16  29  50  76 107 125 172 213 255 307
#
# _framework density 25.634972000000001
#
# number of rings (size 3 to 8) (size 9 to 14) (size 15 to 20)
#    1.846    0.615    3.846    0.000    1.077    0.000 
#    1.385    0.769    0.000    0.923   12.000    0.000 
#    0.000    0.000    0.000    0.000    0.000    0.000 
#
# Total GULP energy -144860.012064 kJ/mol
# GULP energy per Si atom -5571.538926 kJ/mol
# Density = 2.557663 g / cm^3
# Si number density = 25.634972 Si / 1000 Ang^3
#
#
#
# Elastic Constant Matrix: (Units=GPa)
#
#
# Indices 1 2 3 4 5 6 
#
# 1 49.7241 11.7906 6.6053 0.0000 10.3997 0.0000
# 2 11.7906 97.1226 31.7059 0.0000 24.5421 0.0000
# 3 6.6053 31.7059 75.8685 0.0000 6.8935 0.0000
# 4 0.0000 0.0000 0.0000 44.6290 0.0000 3.6831
# 5 10.3997 24.5421 6.8935 0.0000 30.9085 0.0000
# 6 0.0000 0.0000 0.0000 3.6831 0.0000 16.5940
#
#
#
# Elastic Compliance Matrix: (Units=1/GPa)
#
#
# Indices 1 2 3 4 5 6 
#
# 1 0.021778 -0.000643 -0.001029 0.000000 -0.006587 0.000000
# 2 -0.000643 0.014644 -0.005131 0.000000 -0.010267 0.000000
# 3 -0.001029 -0.005131 0.015323 0.000000 0.001003 0.000000
# 4 0.000000 0.000000 0.000000 0.022825 0.000000 -0.005066
# 5 -0.006587 -0.010267 0.001003 0.000000 0.042498 0.000000
# 6 0.000000 0.000000 0.000000 -0.005066 0.000000 0.061387
#
#
# Mechanical properties :
#
#
# Convention : Reuss Voigt Hill
#
# Bulk Modulus (GPa) = 26.21985 35.87986 31.04986
# Shear Modulus (GPa) = 24.41714 29.93386 27.17550
#
# Velocity S-wave (km/s) = 3.08960 3.42086 3.25944
# Velocity P-wave (km/s) = 4.79352 5.44334 5.12873
#
# Compressibility (1/GPa) = 0.03813904
#
# Stress axis : x y z
#
# Youngs Moduli (GPa) = 45.91816 68.28916 65.25987
#
# Poissons Ratio (x) = 0.04394 0.06713
# Poissons Ratio (y) = 0.02955 0.33483
# Poissons Ratio (z) = 0.04723 0.35038
#
# Static dielectric constant tensor:
#      x y z
#    x 2.089670 0.000000 0.025550 
#    y 0.000000 2.046560 0.000000 
#    z 0.025550 0.000000 2.041290 
# 
# From -- ./inp_files/47875.got.cif
#   From: 2010.05.17/outbox.cif.g08.bks.cpg/sg11_24_cif.got.tgz:47875.got - 2010.06.03 12:22:45.
