data_PCOD9156936
_publ_section_title
;
Structure prediction by ZEFSAII (Michael W. Deem and Ramdas Pophale) SiO2 
 PCOD9156936
Probable space group: P 21/M
;
_chemical_formula_sum "Si O2"
_cell_formula_units_Z 24
_cell_length_a 9.576010
_cell_length_b 20.937545
_cell_length_c 4.930377
_cell_angle_alpha 90.000000
_cell_angle_beta 102.281373
_cell_angle_gamma 90.000000
_cell_volume 965.908660
_symmetry_space_group_name_H-M "P 21/M"
_symmetry_group_IT_number 11
_symmetry_cell_setting 'monoclinic'
loop_
_space_group_symop_operation_xyz
x,y,z
-x,1/2+y,-z
-x,-y,-z
x,1/2-y,z
loop_
_atom_site_type_symbol
_atom_site_label
_atom_site_fract_x
_atom_site_fract_y
_atom_site_fract_z
Si Si1 0.611016 0.534760 0.850258
Si Si2 0.786154 0.089889 0.924062
Si Si3 0.225326 0.676536 0.605745
Si Si4 0.056182 0.141329 0.226858
Si Si5 0.358869 0.114257 0.627435
Si Si6 0.624888 0.750000 0.483864
Si Si7 0.184049 0.250000 0.936137
O O1 0.565848 0.564663 0.545427
O O2 0.500000 0.500000 0.000000
O O3 0.727790 0.480112 0.847455
O O4 0.656884 0.592307 0.070784
O O5 0.710538 0.127290 0.144646
O O6 0.954063 0.086085 0.069373
O O7 0.769045 0.139204 0.672150
O O8 0.278493 0.750000 0.623529
O O9 0.058759 0.677470 0.630627
O O10 0.199244 0.119833 0.435547
O O11 0.099078 0.188703 0.003083
O O12 0.437997 0.182040 0.622568
O O13 0.672401 0.750000 0.815748
O O14 0.768594 0.750000 0.353747
#
# Coordination Sequence:
#
# PCOD9156936 Si02
#       7
#     4   4   4   4   4   2   2
#     4  12  27  48  66  83 126 181 227 257 326 371
#     4  10  23  37  62  93 128 168 213 257 303 401
#     4  10  20  36  61  98 138 169 198 255 329 387
#     4   9  21  33  61 100 131 162 200 252 325 380
#     4  11  24  41  71  95 125 168 202 274 317 389
#     4  10  22  38  64 100 125 153 210 254 323 375
#     4  10  18  30  58  92 139 167 182 240 333 403
#
# _framework density 24.847066999999999
#
# number of rings (size 3 to 8) (size 9 to 14) (size 15 to 20)
#    1.000    0.667    0.833    4.000    8.167    1.333 
#    0.000    0.000   11.000    0.000    0.000    0.000 
#    0.000    0.000    0.000    0.000    0.000    0.000 
#
# Total GULP energy -134146.538115 kJ/mol
# GULP energy per Si atom -5589.439088 kJ/mol
# Density = 2.479051 g / cm^3
# Si number density = 24.847067 Si / 1000 Ang^3
#
#
#
# Elastic Constant Matrix: (Units=GPa)
#
#
# Indices 1 2 3 4 5 6 
#
# 1 59.1010 7.7670 -12.0955 0.0000 -0.3141 0.0000
# 2 7.7670 126.0731 21.5585 0.0000 -0.0761 0.0000
# 3 -12.0955 21.5585 117.5859 0.0000 -8.0169 0.0000
# 4 0.0000 0.0000 0.0000 43.5193 0.0000 -11.6325
# 5 -0.3141 -0.0761 -8.0169 0.0000 18.5635 0.0000
# 6 0.0000 0.0000 0.0000 -11.6325 0.0000 29.2329
#
#
#
# Elastic Compliance Matrix: (Units=1/GPa)
#
#
# Indices 1 2 3 4 5 6 
#
# 1 0.017558 -0.001450 0.002155 0.000000 0.001222 0.000000
# 2 -0.001450 0.008316 -0.001724 0.000000 -0.000735 0.000000
# 3 0.002155 -0.001724 0.009319 0.000000 0.004054 0.000000
# 4 0.000000 0.000000 0.000000 0.025713 0.000000 0.010232
# 5 0.001222 -0.000735 0.004054 0.000000 0.055638 0.000000
# 6 0.000000 0.000000 0.000000 0.010232 0.000000 0.038280
#
#
# Mechanical properties :
#
#
# Convention : Reuss Voigt Hill
#
# Bulk Modulus (GPa) = 30.16035 37.46888 33.81462
# Shear Modulus (GPa) = 29.77768 37.29847 33.53808
#
# Velocity S-wave (km/s) = 3.46560 3.87863 3.67792
# Velocity P-wave (km/s) = 5.30835 5.93051 5.62804
#
# Compressibility (1/GPa) = 0.03315611
#
# Stress axis : x y z
#
# Youngs Moduli (GPa) = 56.95329 120.25685 107.31287
#
# Poissons Ratio (x) = 0.17431 -0.23128
# Poissons Ratio (y) = 0.08255 0.18499
# Poissons Ratio (z) = -0.12275 0.20730
#
# Static dielectric constant tensor:
#      x y z
#    x 2.020690 0.000000 0.023820 
#    y 0.000000 2.048490 0.000000 
#    z 0.023820 0.000000 1.925280 
# 
# From -- ./inp_files/4782.got.cif
#   From: 2010.05.17/outbox.cif.g08.bks.cpg/sg11_3_cif.got.tgz:4782.got - 2010.06.03 12:22:45.
