data_PCOD9156839
_publ_section_title
;
Structure prediction by ZEFSAII (Michael W. Deem and Ramdas Pophale) SiO2 
 PCOD9156839
Probable space group: P 21/M
;
_chemical_formula_sum "Si O2"
_cell_formula_units_Z 28
_cell_length_a 14.787277
_cell_length_b 9.073272
_cell_length_c 29.665280
_cell_angle_alpha 90.000000
_cell_angle_beta 153.190629
_cell_angle_gamma 90.000000
_cell_volume 1795.146026
_symmetry_space_group_name_H-M "P 21/M"
_symmetry_group_IT_number 11
_symmetry_cell_setting 'monoclinic'
loop_
_space_group_symop_operation_xyz
x,y,z
-x,1/2+y,-z
-x,-y,-z
x,1/2-y,z
loop_
_atom_site_type_symbol
_atom_site_label
_atom_site_fract_x
_atom_site_fract_y
_atom_site_fract_z
Si Si1 0.297355 0.074477 0.251295
Si Si2 0.708932 0.922865 0.412533
Si Si3 0.375332 0.075981 0.725937
Si Si4 0.175460 0.573413 0.106694
Si Si5 0.675708 0.573288 0.635421
Si Si6 0.215922 0.925971 0.407611
Si Si7 0.054980 0.923216 0.639436
O O1 0.277688 0.250000 0.236836
O O2 0.244588 0.036019 0.279395
O O3 0.528691 0.026332 0.348253
O O4 0.181644 0.990801 0.160111
O O5 0.645789 0.750000 0.388391
O O6 0.736357 0.950486 0.371633
O O7 0.900086 0.944388 0.528879
O O8 0.362722 0.250000 0.730056
O O9 0.607335 0.038815 0.819074
O O10 0.265515 0.987242 0.716140
O O11 0.155975 0.750000 0.099216
O O12 0.000000 0.500000 0.000000
O O13 0.691197 0.750000 0.636127
O O14 0.783199 0.491011 0.642341
O O15 0.437787 0.535999 0.526114
O O16 0.199069 0.750000 0.399492
O O17 0.045679 0.995154 0.363228
O O18 0.069163 0.750000 0.654979
#
# Coordination Sequence:
#
# PCOD9156839 Si02
#       7
#     4   4   4   4   4   4   4
#     4  10  18  30  50  73  98 128 162 201 244 289
#     4   9  18  30  43  64  95 130 165 200 234 278
#     4   9  19  33  47  66  94 125 160 198 238 287
#     4  10  21  37  55  76  99 124 157 200 247 293
#     4   9  18  31  45  67  95 128 168 205 241 281
#     4  10  19  30  45  65  94 133 170 205 241 278
#     4  11  20  29  44  67  96 131 167 201 238 281
#
# _framework density 15.597617
#
# number of rings (size 3 to 8) (size 9 to 14) (size 15 to 20)
#    0.000    2.286    1.429    3.000    0.000    5.143 
#    0.000    0.000    0.000    0.000    0.000    1.000 
#    0.000    0.000    0.000    0.000    0.000    0.000 
#
# Total GULP energy -156133.926698 kJ/mol
# GULP energy per Si atom -5576.211668 kJ/mol
# Density = 1.556212 g / cm^3
# Si number density = 15.597617 Si / 1000 Ang^3
#
#
#
# Elastic Constant Matrix: (Units=GPa)
#
#
# Indices 1 2 3 4 5 6 
#
# 1 139.4293 70.8727 52.0507 0.0000 -8.7813 0.0000
# 2 70.8727 59.3385 44.0455 0.0000 -6.1656 0.0000
# 3 52.0507 44.0455 66.8100 0.0000 -13.2283 0.0000
# 4 0.0000 0.0000 0.0000 21.4174 0.0000 -0.1957
# 5 -8.7813 -6.1656 -13.2283 0.0000 13.5498 0.0000
# 6 0.0000 0.0000 0.0000 -0.1957 0.0000 31.1378
#
#
#
# Elastic Compliance Matrix: (Units=1/GPa)
#
#
# Indices 1 2 3 4 5 6 
#
# 1 0.018334 -0.022344 0.000975 0.000000 0.002666 0.000000
# 2 -0.022344 0.060898 -0.024942 0.000000 -0.011120 0.000000
# 3 0.000975 -0.024942 0.035365 0.000000 0.023809 0.000000
# 4 0.000000 0.000000 0.000000 0.046694 0.000000 0.000294
# 5 0.002666 -0.011120 0.023809 0.000000 0.093714 0.000000
# 6 0.000000 0.000000 0.000000 0.000294 0.000000 0.032117
#
#
# Mechanical properties :
#
#
# Convention : Reuss Voigt Hill
#
# Bulk Modulus (GPa) = 45.50470 66.61285 56.05878
# Shear Modulus (GPa) = 12.91761 19.79492 16.35626
#
# Velocity S-wave (km/s) = 2.88093 3.56631 3.24178
# Velocity P-wave (km/s) = 6.34853 7.73032 7.07325
#
# Compressibility (1/GPa) = 0.02197575
#
# Stress axis : x y z
#
# Youngs Moduli (GPa) = 54.54460 16.42090 28.27619
#
# Poissons Ratio (x) = 0.36691 -0.02757
# Poissons Ratio (y) = 1.21875 0.70526
# Poissons Ratio (z) = -0.05319 0.40957
#
# Static dielectric constant tensor:
#      x y z
#    x 1.517790 0.000000 -0.008800 
#    y 0.000000 1.519280 0.000000 
#    z -0.008800 0.000000 1.504400 
# 
# From -- ./inp_files/51017.got.cif
#   From: 2010.05.17/outbox.cif.g08.bks.cpg/sg11_26_cif.got.tgz:51017.got - 2010.06.03 12:22:45.
