data_PCOD9156931
_publ_section_title
;
Structure prediction by ZEFSAII (Michael W. Deem and Ramdas Pophale) SiO2 
 PCOD9156931
Probable space group: P 21/M
;
_chemical_formula_sum "Si O2"
_cell_formula_units_Z 26
_cell_length_a 16.233179
_cell_length_b 15.031750
_cell_length_c 11.504692
_cell_angle_alpha 90.000000
_cell_angle_beta 27.835626
_cell_angle_gamma 90.000000
_cell_volume 1310.828910
_symmetry_space_group_name_H-M "P 21/M"
_symmetry_group_IT_number 11
_symmetry_cell_setting 'monoclinic'
loop_
_space_group_symop_operation_xyz
x,y,z
-x,1/2+y,-z
-x,-y,-z
x,1/2-y,z
loop_
_atom_site_type_symbol
_atom_site_label
_atom_site_fract_x
_atom_site_fract_y
_atom_site_fract_z
Si Si1 0.232203 0.750000 0.672614
Si Si2 0.508805 0.858555 0.838295
Si Si3 0.245624 0.146922 0.263172
Si Si4 0.862906 0.750000 0.041927
Si Si5 0.235298 0.080544 0.681188
Si Si6 0.144053 0.641446 0.203043
Si Si7 0.151761 0.919452 0.931746
Si Si8 0.364682 0.250000 0.906005
O O1 0.200340 0.834289 0.794440
O O2 0.429657 0.750000 0.379241
O O3 0.076476 0.750000 0.770499
O O4 0.516277 0.750000 0.821524
O O5 0.612489 0.890131 0.823722
O O6 0.608722 0.898202 0.602008
O O7 0.303752 0.883703 0.088698
O O8 0.221725 0.250000 0.334873
O O9 0.319087 0.163889 0.042764
O O10 0.048744 0.109866 0.515056
O O11 0.804823 0.665710 0.189971
O O12 0.761364 0.750000 0.047556
O O13 0.258817 0.999996 0.741182
O O14 0.057225 0.062313 0.828350
O O15 0.145878 0.750000 0.191928
O O16 0.180525 0.601807 0.030195
#
# Coordination Sequence:
#
# PCOD9156931 Si02
#       8
#     2   4   4   2   4   4   4   2
#     4  10  22  37  55  81 119 150 182 225 276 350
#     4  10  18  30  55  86 107 136 186 235 274 320
#     4   8  18  34  53  79 106 141 187 239 263 316
#     4  10  22  37  55  81 119 150 182 225 276 350
#     4  10  20  34  56  87 120 147 177 229 292 339
#     4  10  18  30  55  86 107 136 186 235 274 320
#     4  10  20  34  56  87 120 147 177 229 292 339
#     4  10  22  36  58  82 108 160 192 218 284 342
#
# _framework density 19.834778
#
# number of rings (size 3 to 8) (size 9 to 14) (size 15 to 20)
#    0.462    1.846    3.077    0.000    2.154    1.846 
#    0.000    0.000    0.000    1.846    0.000    0.000 
#    0.000    0.000    0.000    0.000    0.000    0.000 
#
# Total GULP energy -144938.996274 kJ/mol
# GULP energy per Si atom -5574.576780 kJ/mol
# Density = 1.978963 g / cm^3
# Si number density = 19.834778 Si / 1000 Ang^3
#
#
#
# Elastic Constant Matrix: (Units=GPa)
#
#
# Indices 1 2 3 4 5 6 
#
# 1 77.9661 -18.0487 46.2465 0.0000 -20.8943 0.0000
# 2 -18.0487 37.2247 -17.5654 0.0000 -3.8908 0.0000
# 3 46.2465 -17.5654 83.0726 0.0000 -21.8798 0.0000
# 4 0.0000 0.0000 0.0000 -210.0818 0.0000 -235.7820
# 5 -20.8943 -3.8908 -21.8798 0.0000 25.3619 0.0000
# 6 0.0000 0.0000 0.0000 -235.7820 0.0000 -238.6069
#
#
#
# Elastic Compliance Matrix: (Units=1/GPa)
#
#
# Indices 1 2 3 4 5 6 
#
# 1 0.023004 0.009304 -0.007080 0.000000 0.014271 0.000000
# 2 0.009304 0.037310 0.008069 0.000000 0.020351 0.000000
# 3 -0.007080 0.008069 0.021319 0.000000 0.013797 0.000000
# 4 0.000000 0.000000 0.000000 0.043651 0.000000 -0.043134
# 5 0.014271 0.020351 0.013797 0.000000 0.066211 0.000000
# 6 0.000000 0.000000 0.000000 -0.043134 0.000000 0.038433
#
#
# Mechanical properties :
#
#
# Convention : Reuss Voigt Hill
#
# Bulk Modulus (GPa) = 9.78274 24.39200 17.08737
# Shear Modulus (GPa) = 20.54097 -72.15661 -25.80782
#
# Velocity S-wave (km/s) = 3.22157 -6.03803 -3.61104
# Velocity P-wave (km/s) = 4.33369 6.02380 2.95849
#
# Compressibility (1/GPa) = 0.10222083
#
# Stress axis : x y z
#
# Youngs Moduli (GPa) = 43.47002 26.80239 46.90552
#
# Poissons Ratio (x) = -0.24938 0.33211
# Poissons Ratio (y) = -0.40447 -0.37850
# Poissons Ratio (z) = 0.30778 -0.21628
#
# Static dielectric constant tensor:
#      x y z
#    x 1.692970 0.000000 -0.044150 
#    y 0.000000 1.679560 0.000000 
#    z -0.044150 0.000000 1.698300 
# 
# From -- ./inp_files/39840.got.cif
#   From: 2010.05.17/outbox.cif.g08.bks.cpg/sg11_20_cif.got.tgz:39840.got - 2010.06.03 12:22:45.
