data_PCOD9156788
_publ_section_title
;
Structure prediction by ZEFSAII (Michael W. Deem and Ramdas Pophale) SiO2 
 PCOD9156788
Probable space group: P 21/M
;
_chemical_formula_sum "Si O2"
_cell_formula_units_Z 26
_cell_length_a 19.155027
_cell_length_b 12.691451
_cell_length_c 13.304160
_cell_angle_alpha 90.000000
_cell_angle_beta 19.216060
_cell_angle_gamma 90.000000
_cell_volume 1064.512453
_symmetry_space_group_name_H-M "P 21/M"
_symmetry_group_IT_number 11
_symmetry_cell_setting 'monoclinic'
loop_
_space_group_symop_operation_xyz
x,y,z
-x,1/2+y,-z
-x,-y,-z
x,1/2-y,z
loop_
_atom_site_type_symbol
_atom_site_label
_atom_site_fract_x
_atom_site_fract_y
_atom_site_fract_z
Si Si1 0.759010 0.424564 0.031049
Si Si2 0.490634 0.750000 0.509749
Si Si3 0.268934 0.250000 0.010700
Si Si4 0.741024 0.627852 0.657827
Si Si5 0.789196 0.876178 0.369978
Si Si6 0.247545 0.030782 0.156364
Si Si7 0.123332 0.453262 0.953556
Si Si8 0.984114 0.750000 0.835128
O O1 0.628814 0.346677 0.277757
O O2 0.769416 0.531715 0.083393
O O3 0.675209 0.447837 0.033010
O O4 0.000379 0.381339 0.692214
O O5 0.737018 0.750000 0.206508
O O6 0.525394 0.750000 0.342773
O O7 0.267473 0.145521 0.078706
O O8 0.053733 0.250000 0.232962
O O9 0.682515 0.750000 0.757713
O O10 0.677683 0.603259 0.628793
O O11 0.670656 0.549349 0.841744
O O12 0.806522 0.750000 0.338840
O O13 0.736517 0.925236 0.333113
O O14 0.014317 0.935461 0.079182
O O15 0.000000 0.000000 0.500000
O O16 0.945916 0.361343 0.214299
#
# Coordination Sequence:
#
# PCOD9156788 Si02
#       8
#     4   2   2   4   4   4   4   2
#     4  10  18  32  49  75 101 141 170 208 258 306
#     4  10  22  33  52  73 108 144 180 215 248 315
#     4  10  20  33  44  73 104 134 168 210 255 303
#     4   9  16  28  48  71 100 131 164 206 249 316
#     4   9  18  30  49  75  99 136 173 205 265 317
#     4  10  19  29  49  72 103 133 168 208 263 316
#     4  10  18  30  49  72 106 131 165 220 262 312
#     4  10  20  32  46  72 108 132 166 213 259 296
#
# _framework density 24.424326000000001
#
# number of rings (size 3 to 8) (size 9 to 14) (size 15 to 20)
#    0.462    1.846    3.846    0.000    1.077    2.462 
#    0.000    0.000    0.000    0.000    0.000    6.462 
#    0.000    0.000    0.000    0.000    0.000    0.000 
#
# Total GULP energy -144890.956644 kJ/mol
# GULP energy per Si atom -5572.729102 kJ/mol
# Density = 2.436874 g / cm^3
# Si number density = 24.424326 Si / 1000 Ang^3
#
#
#
# Elastic Constant Matrix: (Units=GPa)
#
#
# Indices 1 2 3 4 5 6 
#
# 1 110.8022 7.9207 29.8643 0.0000 48.4168 0.0000
# 2 7.9207 82.7079 51.6937 0.0000 17.6955 0.0000
# 3 29.8643 51.6937 95.3729 0.0000 34.1922 0.0000
# 4 0.0000 0.0000 0.0000 43.5198 0.0000 19.0085
# 5 48.4168 17.6955 34.1922 0.0000 45.5950 0.0000
# 6 0.0000 0.0000 0.0000 19.0085 0.0000 21.6744
#
#
#
# Elastic Compliance Matrix: (Units=1/GPa)
#
#
# Indices 1 2 3 4 5 6 
#
# 1 0.017297 0.002316 0.000322 0.000000 -0.019508 0.000000
# 2 0.002316 0.018602 -0.010036 0.000000 -0.002152 0.000000
# 3 0.000322 -0.010036 0.019901 0.000000 -0.011371 0.000000
# 4 0.000000 0.000000 0.000000 0.037245 0.000000 -0.032664
# 5 -0.019508 -0.002152 -0.011371 0.000000 0.052010 0.000000
# 6 0.000000 0.000000 0.000000 -0.032664 0.000000 0.074784
#
#
# Mechanical properties :
#
#
# Convention : Reuss Voigt Hill
#
# Bulk Modulus (GPa) = 24.38798 51.98226 38.18512
# Shear Modulus (GPa) = 20.13674 35.45146 27.79410
#
# Velocity S-wave (km/s) = 2.87445 3.81396 3.37704
# Velocity P-wave (km/s) = 4.58513 6.38156 5.55642
#
# Compressibility (1/GPa) = 0.04100380
#
# Stress axis : x y z
#
# Youngs Moduli (GPa) = 57.81353 53.75689 50.24978
#
# Poissons Ratio (x) = -0.12449 -0.01620
# Poissons Ratio (y) = -0.13388 0.50432
# Poissons Ratio (z) = -0.01864 0.53951
#
# Static dielectric constant tensor:
#      x y z
#    x 2.027780 0.000000 0.009510 
#    y 0.000000 2.110910 0.000000 
#    z 0.009510 0.000000 1.956490 
# 
# From -- ./inp_files/56267.got.cif
#   From: 2010.05.17/outbox.cif.g08.bks.cpg/sg11_29_cif.got.tgz:56267.got - 2010.06.03 12:22:45.
