data_PCOD9156893
_publ_section_title
;
Structure prediction by ZEFSAII (Michael W. Deem and Ramdas Pophale) SiO2 
 PCOD9156893
Probable space group: P 21/M
;
_chemical_formula_sum "Si O2"
_cell_formula_units_Z 32
_cell_length_a 24.778743
_cell_length_b 8.396846
_cell_length_c 12.067829
_cell_angle_alpha 90.000000
_cell_angle_beta 136.211047
_cell_angle_gamma 90.000000
_cell_volume 1737.533604
_symmetry_space_group_name_H-M "P 21/M"
_symmetry_group_IT_number 11
_symmetry_cell_setting 'monoclinic'
loop_
_space_group_symop_operation_xyz
x,y,z
-x,1/2+y,-z
-x,-y,-z
x,1/2-y,z
loop_
_atom_site_type_symbol
_atom_site_label
_atom_site_fract_x
_atom_site_fract_y
_atom_site_fract_z
Si Si1 0.171650 0.057597 0.805573
Si Si2 0.923466 0.941001 0.950741
Si Si3 0.525214 0.061108 0.659060
Si Si4 0.028813 0.443886 0.733264
Si Si5 0.219902 0.942110 0.406668
Si Si6 0.365226 0.559679 0.483455
Si Si7 0.849441 0.442267 0.463590
Si Si8 0.683446 0.560124 0.831370
O O1 0.171650 0.250000 0.803665
O O2 0.086537 0.002136 0.721680
O O3 0.187470 0.995712 0.706396
O O4 0.237320 0.007949 0.991320
O O5 0.920746 0.750000 0.942688
O O6 0.847413 0.008413 0.778663
O O7 0.932923 0.989254 0.092679
O O8 0.000000 0.000000 0.000000
O O9 0.533400 0.250000 0.669408
O O10 0.500000 0.000000 0.500000
O O11 0.451615 0.012218 0.624153
O O12 0.609744 0.983660 0.799955
O O13 0.026689 0.250000 0.727057
O O14 0.939605 0.499626 0.597656
O O15 0.222005 0.750000 0.412964
O O16 0.302878 0.996890 0.481981
O O17 0.194865 0.998814 0.491696
O O18 0.372054 0.750000 0.497995
O O19 0.331560 0.514975 0.311709
O O20 0.851058 0.250000 0.469818
O O21 0.685637 0.750000 0.818994
#
# Coordination Sequence:
#
# PCOD9156893 Si02
#       8
#     4   4   4   4   4   4   4   4
#     4  10  21  35  52  75  99 131 175 218 255 300
#     4  11  20  33  53  75 103 136 170 210 258 309
#     4  10  18  30  51  78 108 136 167 203 251 311
#     4   9  18  34  53  72 101 134 168 212 262 304
#     4  10  21  36  52  75 106 139 174 210 256 308
#     4  10  19  32  53  80 109 136 168 207 250 309
#     4  10  20  36  53  69  99 139 174 214 258 301
#     4  10  19  33  52  76 109 138 167 209 259 307
#
# _framework density 18.416909
#
# number of rings (size 3 to 8) (size 9 to 14) (size 15 to 20)
#    0.000    2.000    1.250    4.875    0.000    3.500 
#    0.000    1.250    0.000    0.750    0.000    0.000 
#    0.000    0.000    0.000    0.000    0.000    0.000 
#
# Total GULP energy -178581.159447 kJ/mol
# GULP energy per Si atom -5580.661233 kJ/mol
# Density = 1.837499 g / cm^3
# Si number density = 18.416909 Si / 1000 Ang^3
#
#
#
# Elastic Constant Matrix: (Units=GPa)
#
#
# Indices 1 2 3 4 5 6 
#
# 1 115.3019 6.8792 33.5613 0.0000 12.7861 0.0000
# 2 6.8792 13.5979 1.6629 0.0000 1.2286 0.0000
# 3 33.5613 1.6629 37.8653 0.0000 -0.5067 0.0000
# 4 0.0000 0.0000 0.0000 23.8620 0.0000 1.6304
# 5 12.7861 1.2286 -0.5067 0.0000 30.9709 0.0000
# 6 0.0000 0.0000 0.0000 1.6304 0.0000 16.8463
#
#
#
# Elastic Compliance Matrix: (Units=1/GPa)
#
#
# Indices 1 2 3 4 5 6 
#
# 1 0.012798 -0.004626 -0.011211 0.000000 -0.005283 0.000000
# 2 -0.004626 0.075887 0.000753 0.000000 -0.001088 0.000000
# 3 -0.011211 0.000753 0.036382 0.000000 0.005194 0.000000
# 4 0.000000 0.000000 0.000000 0.042187 0.000000 -0.004083
# 5 -0.005283 -0.001088 0.005194 0.000000 0.034598 0.000000
# 6 0.000000 0.000000 0.000000 -0.004083 0.000000 0.059755
#
#
# Mechanical properties :
#
#
# Convention : Reuss Voigt Hill
#
# Bulk Modulus (GPa) = 10.53742 27.88576 19.21159
# Shear Modulus (GPa) = 15.46035 22.64662 19.05349
#
# Velocity S-wave (km/s) = 2.90050 3.51046 3.21995
# Velocity P-wave (km/s) = 4.11718 5.62187 4.92730
#
# Compressibility (1/GPa) = 0.09489991
#
# Stress axis : x y z
#
# Youngs Moduli (GPa) = 78.13754 13.17745 27.48590
#
# Poissons Ratio (x) = 0.06096 0.30814
# Poissons Ratio (y) = 0.36148 -0.02070
# Poissons Ratio (z) = 0.87598 -0.00992
#
# Static dielectric constant tensor:
#      x y z
#    x 1.670050 0.000000 0.022200 
#    y 0.000000 1.631490 0.000000 
#    z 0.022200 0.000000 1.609240 
# 
# From -- ./inp_files/42910.got.cif
#   From: 2010.05.17/outbox.cif.g08.bks.cpg/sg11_22_cif.got.tgz:42910.got - 2010.06.03 12:22:45.
