data_PCOD9156825
_publ_section_title
;
Structure prediction by ZEFSAII (Michael W. Deem and Ramdas Pophale) SiO2 
 PCOD9156825
Probable space group: P 21/M
;
_chemical_formula_sum "Si O2"
_cell_formula_units_Z 32
_cell_length_a 17.566115
_cell_length_b 19.650252
_cell_length_c 9.655293
_cell_angle_alpha 90.000000
_cell_angle_beta 144.242400
_cell_angle_gamma 90.000000
_cell_volume 1947.546276
_symmetry_space_group_name_H-M "P 21/M"
_symmetry_group_IT_number 11
_symmetry_cell_setting 'monoclinic'
loop_
_space_group_symop_operation_xyz
x,y,z
-x,1/2+y,-z
-x,-y,-z
x,1/2-y,z
loop_
_atom_site_type_symbol
_atom_site_label
_atom_site_fract_x
_atom_site_fract_y
_atom_site_fract_z
Si Si1 0.174016 0.829518 0.536092
Si Si2 0.865594 0.528351 0.868000
Si Si3 0.014608 0.329077 0.976599
Si Si4 0.861861 0.674304 0.556701
Si Si5 0.967533 0.612360 0.443956
Si Si6 0.631702 0.060046 0.055484
Si Si7 0.331899 0.053697 0.657906
Si Si8 0.179698 0.511658 0.890728
O O1 0.204111 0.750000 0.597104
O O2 0.290141 0.876885 0.761670
O O3 0.122921 0.841235 0.303364
O O4 0.049594 0.850387 0.446396
O O5 0.751377 0.520274 0.588180
O O6 0.891578 0.609237 0.932224
O O7 0.828585 0.492551 0.956538
O O8 0.000000 0.500000 0.000000
O O9 0.050744 0.250000 0.994712
O O10 0.025753 0.334106 0.159829
O O11 0.809405 0.750000 0.496245
O O12 0.915304 0.662866 0.482674
O O13 0.751523 0.619131 0.422553
O O14 0.856040 0.563723 0.217617
O O15 0.065646 0.561173 0.667928
O O16 0.692142 0.040031 0.995999
O O17 0.659642 0.997127 0.200068
O O18 0.477577 0.071210 0.825743
#
# Coordination Sequence:
#
# PCOD9156825 Si02
#       8
#     4   4   4   4   4   4   4   4
#     4  10  19  32  52  76 102 134 169 209 259 310
#     4  11  20  32  55  80 102 134 173 217 268 317
#     4   9  18  30  46  73 104 128 158 207 259 306
#     4  10  19  32  51  76 104 133 170 216 266 310
#     4  10  18  30  49  78 105 131 163 214 262 306
#     4  10  21  36  51  72 105 140 178 217 249 311
#     4  10  21  35  52  74 103 140 178 215 260 302
#     4  10  19  31  51  75 106 136 168 214 261 306
#
# _framework density 16.430931999999999
#
# number of rings (size 3 to 8) (size 9 to 14) (size 15 to 20)
#    0.000    2.000    2.500    2.625    1.750    1.000 
#    0.000    0.000    0.000    0.000    0.000    0.000 
#    0.000    0.000    0.000    0.000    0.000    0.000 
#
# Total GULP energy -178295.261391 kJ/mol
# GULP energy per Si atom -5571.726918 kJ/mol
# Density = 1.639353 g / cm^3
# Si number density = 16.430932 Si / 1000 Ang^3
#
#
#
# Elastic Constant Matrix: (Units=GPa)
#
#
# Indices 1 2 3 4 5 6 
#
# 1 78.8026 20.1210 48.6577 0.0000 -0.8839 0.0000
# 2 20.1210 68.7320 23.0293 0.0000 3.9729 0.0000
# 3 48.6577 23.0293 89.9093 0.0000 4.4780 0.0000
# 4 0.0000 0.0000 0.0000 19.7927 0.0000 -7.1490
# 5 -0.8839 3.9729 4.4780 0.0000 22.1198 0.0000
# 6 0.0000 0.0000 0.0000 -7.1490 0.0000 14.7533
#
#
#
# Elastic Compliance Matrix: (Units=1/GPa)
#
#
# Indices 1 2 3 4 5 6 
#
# 1 0.019637 -0.002541 -0.010140 0.000000 0.003294 0.000000
# 2 -0.002541 0.016337 -0.002685 0.000000 -0.002492 0.000000
# 3 -0.010140 -0.002685 0.017470 0.000000 -0.003460 0.000000
# 4 0.000000 0.000000 0.000000 0.061243 0.000000 0.029676
# 5 0.003294 -0.002492 -0.003460 0.000000 0.046488 0.000000
# 6 0.000000 0.000000 0.000000 0.029676 0.000000 0.082162
#
#
# Mechanical properties :
#
#
# Convention : Reuss Voigt Hill
#
# Bulk Modulus (GPa) = 44.03244 46.78444 45.40844
# Shear Modulus (GPa) = 17.75312 21.04223 19.39767
#
# Velocity S-wave (km/s) = 3.29062 3.58250 3.43965
# Velocity P-wave (km/s) = 6.42606 6.75630 6.59325
#
# Compressibility (1/GPa) = 0.02271053
#
# Stress axis : x y z
#
# Youngs Moduli (GPa) = 50.92391 61.21092 57.24025
#
# Poissons Ratio (x) = 0.15556 0.58044
# Poissons Ratio (y) = 0.12942 0.15369
# Poissons Ratio (z) = 0.51639 0.16435
#
# Static dielectric constant tensor:
#      x y z
#    x 1.549970 0.000000 -0.025260 
#    y 0.000000 1.567260 0.000000 
#    z -0.025260 0.000000 1.547230 
# 
# From -- ./inp_files/23101.got.cif
#   From: 2010.05.17/outbox.cif.g08.bks.cpg/sg11_12_cif.got.tgz:23101.got - 2010.06.03 12:22:45.
