data_PCOD9156575
_publ_section_title
;
Structure prediction by ZEFSAII (Michael W. Deem and Ramdas Pophale) SiO2 
 PCOD9156575
Probable space group: P 21/M
;
_chemical_formula_sum "Si O2"
_cell_formula_units_Z 32
_cell_length_a 20.593792
_cell_length_b 7.478019
_cell_length_c 29.810888
_cell_angle_alpha 90.000000
_cell_angle_beta 19.654123
_cell_angle_gamma 90.000000
_cell_volume 1544.109202
_symmetry_space_group_name_H-M "P 21/M"
_symmetry_group_IT_number 11
_symmetry_cell_setting 'monoclinic'
loop_
_space_group_symop_operation_xyz
x,y,z
-x,1/2+y,-z
-x,-y,-z
x,1/2-y,z
loop_
_atom_site_type_symbol
_atom_site_label
_atom_site_fract_x
_atom_site_fract_y
_atom_site_fract_z
Si Si1 0.319021 0.469002 0.379489
Si Si2 0.913643 0.966720 0.895244
Si Si3 0.121196 0.465565 0.181777
Si Si4 0.289339 0.967632 0.826539
Si Si5 0.461962 0.460022 0.191491
Si Si6 0.090489 0.542244 0.868986
Si Si7 0.045420 0.538100 0.328076
Si Si8 0.445467 0.545952 0.101166
O O1 0.319126 0.250000 0.378899
O O2 0.505936 0.522737 0.286774
O O3 0.350105 0.527114 0.308001
O O4 0.124105 0.531646 0.530039
O O5 0.920170 0.750000 0.891820
O O6 0.953283 0.026254 0.818440
O O7 0.052565 0.034794 0.844299
O O8 0.691594 0.017140 0.050030
O O9 0.131130 0.250000 0.172974
O O10 0.005373 0.514532 0.301488
O O11 0.341959 0.535081 0.043748
O O12 0.281428 0.750000 0.831865
O O13 0.240877 0.031506 0.807648
O O14 0.115840 0.031021 0.971375
O O15 0.422535 0.250000 0.211940
O O16 0.414007 0.547748 0.175241
O O17 0.141831 0.750000 0.829465
O O18 0.056948 0.750000 0.329749
O O19 0.257571 0.461596 0.200915
O O20 0.459656 0.750000 0.075401
#
# Coordination Sequence:
#
# PCOD9156575 Si02
#       8
#     4   4   4   4   4   4   4   4
#     4   9  18  31  46  67  98 127 152 187 227 271
#     4   9  17  30  47  70  98 122 149 190 234 274
#     4   9  18  32  48  67  91 115 149 201 243 268
#     4   9  16  28  45  68  98 126 150 183 223 267
#     4  10  18  29  47  70  95 123 152 185 229 278
#     4   9  16  26  46  72  95 122 154 183 222 273
#     4  10  20  34  50  66  88 124 162 191 228 277
#     4   9  19  34  50  68  92 118 149 197 242 274
#
# _framework density 20.723924
#
# number of rings (size 3 to 8) (size 9 to 14) (size 15 to 20)
#    0.000    2.750    1.250    1.500    0.000    3.000 
#    0.000    1.875    0.000    0.750    0.000    0.000 
#    0.000    0.000    0.000    0.000    0.000    0.250 
#
# Total GULP energy -178493.158956 kJ/mol
# GULP energy per Si atom -5577.911217 kJ/mol
# Density = 2.067676 g / cm^3
# Si number density = 20.723924 Si / 1000 Ang^3
#
#
#
# Elastic Constant Matrix: (Units=GPa)
#
#
# Indices 1 2 3 4 5 6 
#
# 1 113.5942 -7.0551 26.9618 0.0000 21.1149 0.0000
# 2 -7.0551 62.6414 -2.3314 0.0000 -3.0418 0.0000
# 3 26.9618 -2.3314 35.2176 0.0000 24.1991 0.0000
# 4 0.0000 0.0000 0.0000 9.9851 0.0000 6.7741
# 5 21.1149 -3.0418 24.1991 0.0000 29.2725 0.0000
# 6 0.0000 0.0000 0.0000 6.7741 0.0000 16.8650
#
#
#
# Elastic Compliance Matrix: (Units=1/GPa)
#
#
# Indices 1 2 3 4 5 6 
#
# 1 0.010867 0.000868 -0.006801 0.000000 -0.002126 0.000000
# 2 0.000868 0.016115 -0.000736 0.000000 0.001657 0.000000
# 3 -0.006801 -0.000736 0.069994 0.000000 -0.053034 0.000000
# 4 0.000000 0.000000 0.000000 0.137663 0.000000 -0.055295
# 5 -0.002126 0.001657 -0.053034 0.000000 0.079709 0.000000
# 6 0.000000 0.000000 0.000000 -0.055295 0.000000 0.081505
#
#
# Mechanical properties :
#
#
# Convention : Reuss Voigt Hill
#
# Bulk Modulus (GPa) = 11.95661 27.40041 19.67851
# Shear Modulus (GPa) = 11.43981 24.14971 17.79476
#
# Velocity S-wave (km/s) = 2.35204 3.41736 2.93347
# Velocity P-wave (km/s) = 3.62741 5.36856 4.58146
#
# Compressibility (1/GPa) = 0.08363573
#
# Stress axis : x y z
#
# Youngs Moduli (GPa) = 92.02575 62.05527 14.28697
#
# Poissons Ratio (x) = -0.05383 0.09717
# Poissons Ratio (y) = -0.07983 0.01052
# Poissons Ratio (z) = 0.62587 0.04568
#
# Static dielectric constant tensor:
#      x y z
#    x 1.778400 0.000000 0.003040 
#    y 0.000000 1.772160 0.000000 
#    z 0.003040 0.000000 1.704480 
# 
# From -- ./inp_files/40650.got.cif
#   From: 2010.05.17/outbox.cif.g08.bks.cpg/sg11_21_cif.got.tgz:40650.got - 2010.06.03 12:22:45.
