data_PCOD9156504
_publ_section_title
;
Structure prediction by ZEFSAII (Michael W. Deem and Ramdas Pophale) SiO2 
 PCOD9156504
Probable space group: P 21/M
;
_chemical_formula_sum "Si O2"
_cell_formula_units_Z 28
_cell_length_a 12.170531
_cell_length_b 16.683644
_cell_length_c 5.617720
_cell_angle_alpha 90.000000
_cell_angle_beta 114.336711
_cell_angle_gamma 90.000000
_cell_volume 1039.310625
_symmetry_space_group_name_H-M "P 21/M"
_symmetry_group_IT_number 11
_symmetry_cell_setting 'monoclinic'
loop_
_space_group_symop_operation_xyz
x,y,z
-x,1/2+y,-z
-x,-y,-z
x,1/2-y,z
loop_
_atom_site_type_symbol
_atom_site_label
_atom_site_fract_x
_atom_site_fract_y
_atom_site_fract_z
Si Si1 0.950256 0.250000 0.928255
Si Si2 0.661758 0.116095 0.875425
Si Si3 0.160641 0.380392 0.625008
Si Si4 0.952545 0.250000 0.428500
Si Si5 0.605343 0.867325 0.352133
Si Si6 0.674567 0.156591 0.388452
Si Si7 0.912099 0.576154 0.933583
Si Si8 0.421557 0.436504 0.167509
O O1 0.883505 0.250000 0.615082
O O2 0.030280 0.167125 0.009073
O O3 0.884625 0.250000 0.120886
O O4 0.532688 0.163472 0.775390
O O5 0.731830 0.138416 0.697882
O O6 0.612134 0.026344 0.795440
O O7 0.730468 0.129574 0.185523
O O8 0.041689 0.325839 0.519286
O O9 0.277872 0.327816 0.664998
O O10 0.160274 0.425059 0.879243
O O11 0.152596 0.433177 0.379796
O O12 0.630539 0.885518 0.652093
O O13 0.604766 0.934549 0.140658
O O14 0.638332 0.250000 0.344562
O O15 0.555267 0.100851 0.289517
O O16 0.000000 0.500000 0.000000
#
# Coordination Sequence:
#
# PCOD9156504 Si02
#       8
#     2   4   4   2   4   4   4   4
#     4   8  16  30  50  70 100 130 167 188 239 296
#     4  10  19  33  49  64  96 132 166 202 245 291
#     4  10  19  32  47  74 106 132 169 189 242 294
#     4   8  16  30  44  64 100 148 147 180 223 304
#     4  10  18  30  47  69  95 127 169 202 232 293
#     4  10  18  29  44  67  93 116 154 212 245 280
#     4  10  19  33  53  74 106 135 165 209 242 294
#     4  10  19  33  48  67  94 133 168 202 244 289
#
# _framework density 26.940933000000001
#
# number of rings (size 3 to 8) (size 9 to 14) (size 15 to 20)
#    0.000    2.286    0.000    6.000    0.000    0.000 
#   10.286    0.000    3.143    0.000    0.000    0.000 
#   72.857    0.000    0.000    0.000    0.000    0.000 
#
# Total GULP energy -155918.402696 kJ/mol
# GULP energy per Si atom -5568.514382 kJ/mol
# Density = 2.687961 g / cm^3
# Si number density = 26.940933 Si / 1000 Ang^3
#
#
#
# Elastic Constant Matrix: (Units=GPa)
#
#
# Indices 1 2 3 4 5 6 
#
# 1 117.1790 6.1384 32.2408 0.0000 -41.4705 0.0000
# 2 6.1384 103.8640 8.8252 0.0000 0.3704 0.0000
# 3 32.2408 8.8252 245.9030 0.0000 -48.6508 0.0000
# 4 0.0000 0.0000 0.0000 9.7339 0.0000 25.3461
# 5 -41.4705 0.3704 -48.6508 0.0000 58.1555 0.0000
# 6 0.0000 0.0000 0.0000 25.3461 0.0000 61.9931
#
#
#
# Elastic Compliance Matrix: (Units=1/GPa)
#
#
# Indices 1 2 3 4 5 6 
#
# 1 0.011472 -0.000722 0.000169 0.000000 0.008327 0.000000
# 2 -0.000722 0.009711 -0.000441 0.000000 -0.000946 0.000000
# 3 0.000169 -0.000441 0.004895 0.000000 0.004218 0.000000
# 4 0.000000 0.000000 0.000000 -1.589929 0.000000 0.650049
# 5 0.008327 -0.000946 0.004218 0.000000 0.026668 0.000000
# 6 0.000000 0.000000 0.000000 0.650049 0.000000 -0.249644
#
#
# Mechanical properties :
#
#
# Convention : Reuss Voigt Hill
#
# Bulk Modulus (GPa) = 41.50945 62.37276 51.94110
# Shear Modulus (GPa) = -2.81403 53.95928 25.57263
#
# Velocity S-wave (km/s) = -1.02313 4.48020 3.08427
# Velocity P-wave (km/s) = 3.74771 7.06858 5.65730
#
# Compressibility (1/GPa) = 0.02409090
#
# Stress axis : x y z
#
# Youngs Moduli (GPa) = 87.16742 102.97077 204.29576
#
# Poissons Ratio (x) = 0.07435 -0.03457
# Poissons Ratio (y) = 0.06294 0.09008
# Poissons Ratio (z) = -0.01475 0.04541
#
# Static dielectric constant tensor:
#      x y z
#    x 2.269480 0.000000 0.105400 
#    y 0.000000 2.312330 0.000000 
#    z 0.105400 0.000000 2.216270 
# 
# From -- ./inp_files/6680.got.cif
#   From: 2010.05.17/outbox.cif.g08.bks.cpg/sg11_4_cif.got.tgz:6680.got - 2010.06.03 12:22:45.
