data_PCOD9156382
_publ_section_title
;
Structure prediction by ZEFSAII (Michael W. Deem and Ramdas Pophale) SiO2 
 PCOD9156382
Probable space group: P 21/M
;
_chemical_formula_sum "Si O2"
_cell_formula_units_Z 32
_cell_length_a 15.987470
_cell_length_b 23.806153
_cell_length_c 15.885533
_cell_angle_alpha 90.000000
_cell_angle_beta 161.522258
_cell_angle_gamma 90.000000
_cell_volume 1916.207980
_symmetry_space_group_name_H-M "P 21/M"
_symmetry_group_IT_number 11
_symmetry_cell_setting 'monoclinic'
loop_
_space_group_symop_operation_xyz
x,y,z
-x,1/2+y,-z
-x,-y,-z
x,1/2-y,z
loop_
_atom_site_type_symbol
_atom_site_label
_atom_site_fract_x
_atom_site_fract_y
_atom_site_fract_z
Si Si1 0.686009 0.449713 0.708443
Si Si2 0.183052 0.185259 0.138258
Si Si3 0.908745 0.936901 0.617616
Si Si4 0.147014 0.404776 0.248173
Si Si5 0.469447 0.069646 0.060559
Si Si6 0.736289 0.365250 0.608969
Si Si7 0.076637 0.572897 0.378196
Si Si8 0.453421 0.565816 0.053562
O O1 0.500000 0.500000 0.500000
O O2 0.461949 0.415331 0.545411
O O3 0.765633 0.417646 0.700215
O O4 0.951740 0.451552 0.018067
O O5 0.233171 0.250000 0.206365
O O6 0.110952 0.149609 0.153692
O O7 0.441008 0.157499 0.341302
O O8 0.944491 0.179082 0.844474
O O9 0.924771 0.906716 0.722719
O O10 0.651337 0.921423 0.318354
O O11 0.909230 0.005589 0.630159
O O12 0.158406 0.920532 0.799408
O O13 0.740927 0.082815 0.366393
O O14 0.455733 0.001852 0.046315
O O15 0.464874 0.089280 0.959568
O O16 0.221504 0.087557 0.880488
O O17 0.811343 0.389152 0.589916
#
# Coordination Sequence:
#
# PCOD9156382 Si02
#       8
#     4   4   4   4   4   4   4   4
#     4  10  19  30  44  64  96 126 151 182 225 280
#     4  10  21  37  52  66  91 121 154 201 244 280
#     4  10  18  28  44  66  96 126 158 192 221 266
#     4  10  20  31  46  68  90 122 159 191 231 277
#     4   9  17  28  42  62  93 131 162 184 216 261
#     4  10  20  32  49  71  91 121 159 192 234 282
#     4  10  18  28  44  67  96 124 154 192 223 265
#     4   9  17  28  42  62  92 132 162 183 217 262
#
# _framework density 16.699649000000001
#
# number of rings (size 3 to 8) (size 9 to 14) (size 15 to 20)
#    0.000    2.250    0.000    3.750    0.000    7.000 
#    0.000    0.000    0.000    0.000    0.000    0.000 
#    0.000   20.000    0.000    0.000    0.000    0.000 
#
# Total GULP energy -178179.344127 kJ/mol
# GULP energy per Si atom -5568.104504 kJ/mol
# Density = 1.666164 g / cm^3
# Si number density = 16.699649 Si / 1000 Ang^3
#
#
#
# Elastic Constant Matrix: (Units=GPa)
#
#
# Indices 1 2 3 4 5 6 
#
# 1 92.3343 23.5698 12.1815 0.0000 -10.0127 0.0000
# 2 23.5698 39.7181 5.2335 0.0000 -0.6231 0.0000
# 3 12.1815 5.2335 64.9850 0.0000 6.0314 0.0000
# 4 0.0000 0.0000 0.0000 11.8011 0.0000 0.0644
# 5 -10.0127 -0.6231 6.0314 0.0000 12.9436 0.0000
# 6 0.0000 0.0000 0.0000 0.0644 0.0000 6.9939
#
#
#
# Elastic Compliance Matrix: (Units=1/GPa)
#
#
# Indices 1 2 3 4 5 6 
#
# 1 0.014678 -0.008085 -0.003259 0.000000 0.012483 0.000000
# 2 -0.008085 0.029965 -0.000472 0.000000 -0.004592 0.000000
# 3 -0.003259 -0.000472 0.017009 0.000000 -0.010469 0.000000
# 4 0.000000 0.000000 0.000000 0.084742 0.000000 -0.000780
# 5 0.012483 -0.004592 -0.010469 0.000000 0.091572 0.000000
# 6 0.000000 0.000000 0.000000 -0.000780 0.000000 0.142989
#
#
# Mechanical properties :
#
#
# Convention : Reuss Voigt Hill
#
# Bulk Modulus (GPa) = 26.30114 31.00078 28.65096
# Shear Modulus (GPa) = 11.98297 16.75124 14.36710
#
# Velocity S-wave (km/s) = 2.68163 3.17059 2.93631
# Velocity P-wave (km/s) = 5.03705 5.65753 5.35628
#
# Compressibility (1/GPa) = 0.03802117
#
# Stress axis : x y z
#
# Youngs Moduli (GPa) = 68.13089 33.37194 58.79353
#
# Poissons Ratio (x) = 0.26981 0.19160
# Poissons Ratio (y) = 0.55083 0.02772
# Poissons Ratio (z) = 0.22203 0.01574
#
# Static dielectric constant tensor:
#      x y z
#    x 1.565170 0.000000 0.001410 
#    y 0.000000 1.589760 0.000000 
#    z 0.001410 0.000000 1.607850 
# 
# From -- ./inp_files/52757.got.cif
#   From: 2010.05.17/outbox.cif.g08.bks.cpg/sg11_27_cif.got.tgz:52757.got - 2010.06.03 12:22:45.
