data_PCOD9156711
_publ_section_title
;
Structure prediction by ZEFSAII (Michael W. Deem and Ramdas Pophale) SiO2 
 PCOD9156711
Probable space group: P 21/M
;
_chemical_formula_sum "Si O2"
_cell_formula_units_Z 32
_cell_length_a 32.871854
_cell_length_b 7.950848
_cell_length_c 21.223902
_cell_angle_alpha 90.000000
_cell_angle_beta 160.987941
_cell_angle_gamma 90.000000
_cell_volume 1807.050003
_symmetry_space_group_name_H-M "P 21/M"
_symmetry_group_IT_number 11
_symmetry_cell_setting 'monoclinic'
loop_
_space_group_symop_operation_xyz
x,y,z
-x,1/2+y,-z
-x,-y,-z
x,1/2-y,z
loop_
_atom_site_type_symbol
_atom_site_label
_atom_site_fract_x
_atom_site_fract_y
_atom_site_fract_z
Si Si1 0.584141 0.549992 0.683683
Si Si2 0.375118 0.947292 0.630778
Si Si3 0.900811 0.943776 0.772626
Si Si4 0.435417 0.956558 0.587202
Si Si5 0.850852 0.450383 0.027083
Si Si6 0.888909 0.050627 0.612429
Si Si7 0.833658 0.455444 0.856937
Si Si8 0.613859 0.048164 0.210913
O O1 0.500000 0.500000 0.500000
O O2 0.577096 0.750000 0.676085
O O3 0.526656 0.484693 0.665286
O O4 0.727684 0.500106 0.884348
O O5 0.403950 0.750000 0.677134
O O6 0.451138 0.015713 0.682235
O O7 0.395899 0.019301 0.731281
O O8 0.226949 0.962701 0.397978
O O9 0.889480 0.750000 0.775441
O O10 0.904009 0.953209 0.700588
O O11 0.038935 0.013781 0.990204
O O12 0.438608 0.750000 0.592508
O O13 0.295773 0.007301 0.362717
O O14 0.856877 0.250000 0.034551
O O15 0.987436 0.515725 0.246902
O O16 0.831645 0.511281 0.926800
O O17 0.886163 0.250000 0.623013
O O18 0.751773 0.001257 0.387014
O O19 0.838693 0.250000 0.863694
O O20 0.613625 0.250000 0.214672
O O21 0.500000 0.000000 0.000000
#
# Coordination Sequence:
#
# PCOD9156711 Si02
#       8
#     4   4   4   4   4   4   4   4
#     4  11  20  31  48  68  91 126 170 211 246 277
#     4   9  18  32  47  64  90 123 159 194 229 279
#     4   9  16  26  42  63  91 123 155 191 231 272
#     4   9  17  30  46  62  87 125 163 200 238 273
#     4  10  18  30  47  68  96 126 160 202 245 280
#     4   9  17  30  47  71  97 122 157 193 230 281
#     4   8  14  25  41  61  85 118 157 191 226 268
#     4   9  18  31  50  75  99 122 150 186 230 286
#
# _framework density 17.708418999999999
#
# number of rings (size 3 to 8) (size 9 to 14) (size 15 to 20)
#    0.000    2.750    1.250    3.000    0.000    3.000 
#    0.000    1.250    0.000    0.000    0.000    0.875 
#    0.000    0.000    0.000    0.000    0.000    0.000 
#
# Total GULP energy -178252.523907 kJ/mol
# GULP energy per Si atom -5570.391372 kJ/mol
# Density = 1.766811 g / cm^3
# Si number density = 17.708419 Si / 1000 Ang^3
#
#
#
# Elastic Constant Matrix: (Units=GPa)
#
#
# Indices 1 2 3 4 5 6 
#
# 1 112.9003 6.1375 75.3764 0.0000 21.4625 0.0000
# 2 6.1375 28.0860 9.8798 0.0000 -2.6767 0.0000
# 3 75.3764 9.8798 128.7989 0.0000 16.3392 0.0000
# 4 0.0000 0.0000 0.0000 23.7412 0.0000 3.0779
# 5 21.4625 -2.6767 16.3392 0.0000 17.1885 0.0000
# 6 0.0000 0.0000 0.0000 3.0779 0.0000 11.8692
#
#
#
# Elastic Compliance Matrix: (Units=1/GPa)
#
#
# Indices 1 2 3 4 5 6 
#
# 1 0.016959 -0.002224 -0.007987 0.000000 -0.013930 0.000000
# 2 -0.002224 0.038305 -0.003122 0.000000 0.011710 0.000000
# 3 -0.007987 -0.003122 0.013048 0.000000 -0.002916 0.000000
# 4 0.000000 0.000000 0.000000 0.043586 0.000000 -0.011303
# 5 -0.013930 0.011710 -0.002916 0.000000 0.080167 0.000000
# 6 0.000000 0.000000 0.000000 -0.011303 0.000000 0.087183
#
#
# Mechanical properties :
#
#
# Convention : Reuss Voigt Hill
#
# Bulk Modulus (GPa) = 24.01239 50.28586 37.14913
# Shear Modulus (GPa) = 15.63498 22.45255 19.04376
#
# Velocity S-wave (km/s) = 2.97461 3.56462 3.28290
# Velocity P-wave (km/s) = 5.03855 6.73797 5.94926
#
# Compressibility (1/GPa) = 0.04164517
#
# Stress axis : x y z
#
# Youngs Moduli (GPa) = 58.96677 26.10613 76.64185
#
# Poissons Ratio (x) = 0.05806 0.61214
# Poissons Ratio (y) = 0.13113 0.23930
# Poissons Ratio (z) = 0.47097 0.08151
#
# Static dielectric constant tensor:
#      x y z
#    x 1.641100 0.000000 -0.003930 
#    y 0.000000 1.624190 0.000000 
#    z -0.003930 0.000000 1.543670 
# 
# From -- ./inp_files/67443.got.cif
#   From: 2010.05.17/outbox.cif.g08.bks.cpg/sg11_34_cif.got.tgz:67443.got - 2010.06.03 12:22:45.
