data_PCOD9156715
_publ_section_title
;
Structure prediction by ZEFSAII (Michael W. Deem and Ramdas Pophale) SiO2 
 PCOD9156715
Probable space group: P 21/M
;
_chemical_formula_sum "Si O2"
_cell_formula_units_Z 32
_cell_length_a 28.208787
_cell_length_b 8.323044
_cell_length_c 19.966887
_cell_angle_alpha 90.000000
_cell_angle_beta 24.246082
_cell_angle_gamma 90.000000
_cell_volume 1925.110520
_symmetry_space_group_name_H-M "P 21/M"
_symmetry_group_IT_number 11
_symmetry_cell_setting 'monoclinic'
loop_
_space_group_symop_operation_xyz
x,y,z
-x,1/2+y,-z
-x,-y,-z
x,1/2-y,z
loop_
_atom_site_type_symbol
_atom_site_label
_atom_site_fract_x
_atom_site_fract_y
_atom_site_fract_z
Si Si1 0.621932 0.557620 0.373626
Si Si2 0.601131 0.555514 0.820098
Si Si3 0.770470 0.944526 0.820354
Si Si4 0.515713 0.554076 0.643041
Si Si5 0.728357 0.058542 0.107784
Si Si6 0.164083 0.443714 0.412413
Si Si7 0.087600 0.441549 0.232589
Si Si8 0.507545 0.055730 0.177395
O O1 0.500000 0.500000 0.500000
O O2 0.626633 0.750000 0.365604
O O3 0.611244 0.505403 0.464952
O O4 0.716504 0.491355 0.200597
O O5 0.601973 0.750000 0.819158
O O6 0.724515 0.499985 0.689213
O O7 0.569319 0.500467 0.786193
O O8 0.500000 0.500000 0.000000
O O9 0.769854 0.750000 0.821664
O O10 0.821633 0.998529 0.683133
O O11 0.845658 0.002012 0.786614
O O12 0.639257 0.002471 0.996308
O O13 0.514199 0.750000 0.645044
O O14 0.389006 0.501936 0.779355
O O15 0.531655 0.499376 0.698536
O O16 0.728820 0.250000 0.103508
O O17 0.838109 0.993206 0.927126
O O18 0.166625 0.250000 0.408534
O O19 0.042714 0.497413 0.598413
O O20 0.086148 0.250000 0.237652
O O21 0.505464 0.250000 0.180541
#
# Coordination Sequence:
#
# PCOD9156715 Si02
#       8
#     4   4   4   4   4   4   4   4
#     4   9  16  27  43  66  97 130 160 194 234 286
#     4  10  20  33  52  72  94 125 164 204 244 285
#     4  10  20  33  48  69  98 127 160 202 244 285
#     4   8  15  27  44  68  97 125 156 190 233 283
#     4  10  18  30  47  68  96 131 160 192 241 292
#     4  10  21  36  49  66  96 131 164 203 246 284
#     4  11  22  33  48  72  96 127 168 203 239 289
#     4  10  18  30  50  74  96 127 164 196 236 290
#
# _framework density 16.622422
#
# number of rings (size 3 to 8) (size 9 to 14) (size 15 to 20)
#    0.000    2.250    2.500    2.250    0.000    1.500 
#    0.000    0.625    0.000    0.000    0.000    0.875 
#    0.000    0.000    0.000    0.000    0.000    0.000 
#
# Total GULP energy -178417.641916 kJ/mol
# GULP energy per Si atom -5575.551310 kJ/mol
# Density = 1.658459 g / cm^3
# Si number density = 16.622422 Si / 1000 Ang^3
#
#
#
# Elastic Constant Matrix: (Units=GPa)
#
#
# Indices 1 2 3 4 5 6 
#
# 1 102.0230 13.3681 90.6267 0.0000 22.8755 0.0000
# 2 13.3681 8.6547 11.9325 0.0000 -2.1023 0.0000
# 3 90.6267 11.9325 138.6378 0.0000 15.2592 0.0000
# 4 0.0000 0.0000 0.0000 26.5730 0.0000 2.1016
# 5 22.8755 -2.1023 15.2592 0.0000 29.8831 0.0000
# 6 0.0000 0.0000 0.0000 2.1016 0.0000 9.7808
#
#
#
# Elastic Compliance Matrix: (Units=1/GPa)
#
#
# Indices 1 2 3 4 5 6 
#
# 1 0.033520 -0.033131 -0.016931 0.000000 -0.019345 0.000000
# 2 -0.033131 0.171365 0.002956 0.000000 0.035908 0.000000
# 3 -0.016931 0.002956 0.017564 0.000000 0.004200 0.000000
# 4 0.000000 0.000000 0.000000 0.038283 0.000000 -0.008226
# 5 -0.019345 0.035908 0.004200 0.000000 0.048654 0.000000
# 6 0.000000 0.000000 0.000000 -0.008226 0.000000 0.104009
#
#
# Mechanical properties :
#
#
# Convention : Reuss Voigt Hill
#
# Bulk Modulus (GPa) = 7.79807 53.46333 30.63070
# Shear Modulus (GPa) = 9.08508 22.13994 15.61251
#
# Velocity S-wave (km/s) = 2.34039 3.65352 3.06803
# Velocity P-wave (km/s) = 3.46478 7.07325 5.56936
#
# Compressibility (1/GPa) = 0.12823690
#
# Stress axis : x y z
#
# Youngs Moduli (GPa) = 29.83260 5.83550 56.93396
#
# Poissons Ratio (x) = 0.19334 0.96396
# Poissons Ratio (y) = 0.98838 -0.16830
# Poissons Ratio (z) = 0.50510 -0.01725
#
# Static dielectric constant tensor:
#      x y z
#    x 1.581250 0.000000 0.027210 
#    y 0.000000 1.571360 0.000000 
#    z 0.027210 0.000000 1.539020 
# 
# From -- ./inp_files/42815.got.cif
#   From: 2010.05.17/outbox.cif.g08.bks.cpg/sg11_22_cif.got.tgz:42815.got - 2010.06.03 12:22:45.
