data_PCOD9156554
_publ_section_title
;
Structure prediction by ZEFSAII (Michael W. Deem and Ramdas Pophale) SiO2 
 PCOD9156554
Probable space group: P 21/M
;
_chemical_formula_sum "Si O2"
_cell_formula_units_Z 32
_cell_length_a 17.976624
_cell_length_b 8.708339
_cell_length_c 24.097015
_cell_angle_alpha 90.000000
_cell_angle_beta 31.535805
_cell_angle_gamma 90.000000
_cell_volume 1973.033146
_symmetry_space_group_name_H-M "P 21/M"
_symmetry_group_IT_number 11
_symmetry_cell_setting 'monoclinic'
loop_
_space_group_symop_operation_xyz
x,y,z
-x,1/2+y,-z
-x,-y,-z
x,1/2-y,z
loop_
_atom_site_type_symbol
_atom_site_label
_atom_site_fract_x
_atom_site_fract_y
_atom_site_fract_z
Si Si1 0.841726 0.565673 0.737452
Si Si2 0.929281 0.932511 0.489131
Si Si3 0.345176 0.934232 0.811591
Si Si4 0.615498 0.432581 0.692436
Si Si5 0.105915 0.934661 0.886084
Si Si6 0.554147 0.566902 0.852108
Si Si7 0.259287 0.435253 0.077286
Si Si8 0.868035 0.935514 0.959453
O O1 0.864398 0.750000 0.720369
O O2 0.696903 0.532194 0.795692
O O3 0.816019 0.520793 0.817526
O O4 0.971265 0.482745 0.624959
O O5 0.923658 0.750000 0.497885
O O6 0.770737 0.997393 0.584023
O O7 0.000000 0.000000 0.500000
O O8 0.357292 0.750000 0.805708
O O9 0.262097 0.981594 0.807897
O O10 0.498048 0.008240 0.723876
O O11 0.244186 0.988622 0.926780
O O12 0.622978 0.250000 0.686697
O O13 0.564323 0.487204 0.785853
O O14 0.104331 0.750000 0.889872
O O15 0.027312 0.977636 0.878823
O O16 0.000000 0.000000 0.000000
O O17 0.546174 0.750000 0.849221
O O18 0.414614 0.508838 0.972440
O O19 0.275737 0.250000 0.067376
O O20 0.170592 0.477811 0.078687
O O21 0.852790 0.750000 0.974065
#
# Coordination Sequence:
#
# PCOD9156554 Si02
#       8
#     4   4   4   4   4   4   4   4
#     4  10  22  38  53  73 102 138 175 213 252 298
#     4  12  24  39  58  77  98 129 169 214 260 304
#     4  10  18  29  46  71 102 133 168 210 251 299
#     4  12  23  35  53  75 101 134 170 210 258 306
#     4   8  15  26  42  66  98 134 167 200 245 297
#     4  11  21  33  51  73 103 137 173 211 251 299
#     4  10  20  33  51  75 106 140 175 209 248 298
#     4   9  16  28  46  70 102 138 170 202 245 301
#
# _framework density 16.218684
#
# number of rings (size 3 to 8) (size 9 to 14) (size 15 to 20)
#    0.000    1.750    2.500    3.375    0.000    1.500 
#    0.000    0.000    0.000    0.000    0.000    0.875 
#    0.000    0.000    0.000    0.000    0.000    0.000 
#
# Total GULP energy -178535.738847 kJ/mol
# GULP energy per Si atom -5579.241839 kJ/mol
# Density = 1.618177 g / cm^3
# Si number density = 16.218684 Si / 1000 Ang^3
#
#
#
# Elastic Constant Matrix: (Units=GPa)
#
#
# Indices 1 2 3 4 5 6 
#
# 1 86.1682 39.1491 54.8118 0.0000 -31.5420 0.0000
# 2 39.1491 53.7514 42.4701 0.0000 -9.4178 0.0000
# 3 54.8118 42.4701 106.8567 0.0000 -14.9428 0.0000
# 4 0.0000 0.0000 0.0000 25.4794 0.0000 -3.6815
# 5 -31.5420 -9.4178 -14.9428 0.0000 24.5311 0.0000
# 6 0.0000 0.0000 0.0000 -3.6815 0.0000 17.0131
#
#
#
# Elastic Compliance Matrix: (Units=1/GPa)
#
#
# Indices 1 2 3 4 5 6 
#
# 1 0.036350 -0.013670 -0.008101 0.000000 0.036557 0.000000
# 2 -0.013670 0.032664 -0.007296 0.000000 -0.009481 0.000000
# 3 -0.008101 -0.007296 0.015921 0.000000 -0.003519 0.000000
# 4 0.000000 0.000000 0.000000 0.040514 0.000000 0.008767
# 5 0.036557 -0.009481 -0.003519 0.000000 0.081986 0.000000
# 6 0.000000 0.000000 0.000000 0.008767 0.000000 0.060675
#
#
# Mechanical properties :
#
#
# Convention : Reuss Voigt Hill
#
# Bulk Modulus (GPa) = 37.30981 57.73759 47.52370
# Shear Modulus (GPa) = 14.91742 20.76107 17.83924
#
# Velocity S-wave (km/s) = 3.03606 3.58169 3.32010
# Velocity P-wave (km/s) = 5.94511 7.26508 6.63799
#
# Compressibility (1/GPa) = 0.02680260
#
# Stress axis : x y z
#
# Youngs Moduli (GPa) = 27.51008 30.61471 62.80849
#
# Poissons Ratio (x) = 0.41849 0.50879
# Poissons Ratio (y) = 0.37605 0.45827
# Poissons Ratio (z) = 0.22285 0.22337
#
# Static dielectric constant tensor:
#      x y z
#    x 1.577900 0.000000 -0.019140 
#    y 0.000000 1.542720 0.000000 
#    z -0.019140 0.000000 1.508860 
# 
# From -- ./inp_files/42895.got.cif
#   From: 2010.05.17/outbox.cif.g08.bks.cpg/sg11_22_cif.got.tgz:42895.got - 2010.06.03 12:22:45.
