data_PCOD9156875
_publ_section_title
;
Structure prediction by ZEFSAII (Michael W. Deem and Ramdas Pophale) SiO2 
 PCOD9156875
Probable space group: P 21/M
;
_chemical_formula_sum "Si O2"
_cell_formula_units_Z 32
_cell_length_a 22.263831
_cell_length_b 8.713265
_cell_length_c 12.116849
_cell_angle_alpha 90.000000
_cell_angle_beta 128.886919
_cell_angle_gamma 90.000000
_cell_volume 1829.640681
_symmetry_space_group_name_H-M "P 21/M"
_symmetry_group_IT_number 11
_symmetry_cell_setting 'monoclinic'
loop_
_space_group_symop_operation_xyz
x,y,z
-x,1/2+y,-z
-x,-y,-z
x,1/2-y,z
loop_
_atom_site_type_symbol
_atom_site_label
_atom_site_fract_x
_atom_site_fract_y
_atom_site_fract_z
Si Si1 0.533553 0.433645 0.152763
Si Si2 0.714596 0.066050 0.352703
Si Si3 0.323130 0.427016 0.261783
Si Si4 0.771545 0.066222 0.658346
Si Si5 0.836402 0.927112 0.064109
Si Si6 0.079904 0.435376 0.047766
Si Si7 0.406244 0.932969 0.156467
Si Si8 0.738965 0.934850 0.145621
O O1 0.524208 0.250000 0.142114
O O2 0.623990 0.470160 0.261828
O O3 0.485586 0.503809 0.198400
O O4 0.500000 0.500000 0.000000
O O5 0.720789 0.250000 0.344305
O O6 0.757002 0.024396 0.514759
O O7 0.745007 0.983674 0.278694
O O8 0.343420 0.250000 0.305297
O O9 0.299585 0.510889 0.347097
O O10 0.385345 0.506412 0.254336
O O11 0.243461 0.428478 0.098285
O O12 0.777572 0.250000 0.674248
O O13 0.849152 0.990330 0.794643
O O14 0.858358 0.750000 0.108547
O O15 0.810242 0.992201 0.151593
O O16 0.899444 0.993000 0.052881
O O17 0.078790 0.250000 0.044786
O O18 0.000000 0.500000 0.000000
O O19 0.405333 0.750000 0.153864
O O20 0.338871 0.994977 0.996992
O O21 0.734027 0.750000 0.129729
#
# Coordination Sequence:
#
# PCOD9156875 Si02
#       8
#     4   4   4   4   4   4   4   4
#     4  11  21  34  50  72 102 138 179 226 273 319
#     4  10  22  36  51  73 106 141 176 219 269 319
#     4   9  17  32  52  74 100 133 173 219 265 312
#     4  10  20  36  55  78 107 140 174 212 262 321
#     4   7  14  28  47  74 103 129 161 207 255 298
#     4  10  19  34  57  84 112 138 169 211 258 311
#     4  11  20  31  49  74 102 133 175 226 273 317
#     4  10  18  30  51  75 101 136 178 219 262 311
#
# _framework density 17.489771999999999
#
# number of rings (size 3 to 8) (size 9 to 14) (size 15 to 20)
#    0.000    2.250    1.250    4.500    0.000    1.500 
#    0.000    2.500    0.000    0.750    0.000    0.000 
#    0.000    0.000    0.000    0.000    0.000    0.000 
#
# Total GULP energy -178439.938027 kJ/mol
# GULP energy per Si atom -5576.248063 kJ/mol
# Density = 1.744996 g / cm^3
# Si number density = 17.489772 Si / 1000 Ang^3
#
#
#
# Elastic Constant Matrix: (Units=GPa)
#
#
# Indices 1 2 3 4 5 6 
#
# 1 165.9423 53.0793 53.5581 0.0000 -27.5869 0.0000
# 2 53.0793 69.6071 33.2000 0.0000 -10.5997 0.0000
# 3 53.5581 33.2000 66.0287 0.0000 -20.6038 0.0000
# 4 0.0000 0.0000 0.0000 19.1246 0.0000 -5.9623
# 5 -27.5869 -10.5997 -20.6038 0.0000 24.2129 0.0000
# 6 0.0000 0.0000 0.0000 -5.9623 0.0000 30.9084
#
#
#
# Elastic Compliance Matrix: (Units=1/GPa)
#
#
# Indices 1 2 3 4 5 6 
#
# 1 0.009702 -0.004768 -0.003641 0.000000 0.005868 0.000000
# 2 -0.004768 0.021243 -0.007634 0.000000 -0.002629 0.000000
# 3 -0.003641 -0.007634 0.026685 0.000000 0.015217 0.000000
# 4 0.000000 0.000000 0.000000 0.055635 0.000000 0.010732
# 5 0.005868 -0.002629 0.015217 0.000000 0.059785 0.000000
# 6 0.000000 0.000000 0.000000 0.010732 0.000000 0.034424
#
#
# Mechanical properties :
#
#
# Convention : Reuss Voigt Hill
#
# Bulk Modulus (GPa) = 39.14822 64.58366 51.86594
# Shear Modulus (GPa) = 20.15520 25.63187 22.89354
#
# Velocity S-wave (km/s) = 3.39838 3.83238 3.62189
# Velocity P-wave (km/s) = 6.15067 7.52260 6.87097
#
# Compressibility (1/GPa) = 0.02554395
#
# Stress axis : x y z
#
# Youngs Moduli (GPa) = 103.07063 47.07402 37.47380
#
# Poissons Ratio (x) = 0.22445 0.13644
# Poissons Ratio (y) = 0.49145 0.28608
# Poissons Ratio (z) = 0.37528 0.35937
#
# Static dielectric constant tensor:
#      x y z
#    x 1.616160 0.000000 -0.024850 
#    y 0.000000 1.593890 0.000000 
#    z -0.024850 0.000000 1.577360 
# 
# From -- ./inp_files/42552.got.cif
#   From: 2010.05.17/outbox.cif.g08.bks.cpg/sg11_22_cif.got.tgz:42552.got - 2010.06.03 12:22:45.
