data_PCOD9156199
_publ_section_title
;
Structure prediction by ZEFSAII (Michael W. Deem and Ramdas Pophale) SiO2 
 PCOD9156199
Probable space group: P 21/M
;
_chemical_formula_sum "Si O2"
_cell_formula_units_Z 28
_cell_length_a 9.410219
_cell_length_b 14.953538
_cell_length_c 11.097761
_cell_angle_alpha 90.000000
_cell_angle_beta 61.969783
_cell_angle_gamma 90.000000
_cell_volume 1378.453509
_symmetry_space_group_name_H-M "P 21/M"
_symmetry_group_IT_number 11
_symmetry_cell_setting 'monoclinic'
loop_
_space_group_symop_operation_xyz
x,y,z
-x,1/2+y,-z
-x,-y,-z
x,1/2-y,z
loop_
_atom_site_type_symbol
_atom_site_label
_atom_site_fract_x
_atom_site_fract_y
_atom_site_fract_z
Si Si1 0.753536 0.544846 0.064080
Si Si2 0.064412 0.646400 0.032211
Si Si3 0.743158 0.062910 0.411449
Si Si4 0.712253 0.928725 0.811324
Si Si5 0.493412 0.965022 0.684664
Si Si6 0.020750 0.930990 0.294920
Si Si7 0.988954 0.652647 0.557321
O O1 0.902759 0.610350 0.031186
O O2 0.619640 0.544812 0.221025
O O3 0.677603 0.574017 0.966413
O O4 0.815522 0.440137 0.033358
O O5 0.105435 0.750000 0.981479
O O6 0.031574 0.643654 0.189329
O O7 0.623742 0.093250 0.353474
O O8 0.839806 0.135325 0.449011
O O9 0.634539 0.003280 0.544288
O O10 0.890006 0.003131 0.299841
O O11 0.568185 0.921600 0.774307
O O12 0.850689 0.861590 0.711021
O O13 0.805061 0.023516 0.759700
O O14 0.965226 0.909473 0.451453
O O15 0.980941 0.750000 0.508698
#
# Coordination Sequence:
#
# PCOD9156199 Si02
#       7
#     4   4   4   4   4   4   4
#     4  10  22  37  60  87 115 157 195 234 295 350
#     4  10  21  38  60  86 114 151 200 244 282 345
#     4  10  20  35  62  83 113 149 193 238 284 347
#     4  10  20  36  60  82 113 151 193 235 282 350
#     4  11  19  37  62  84 111 150 194 233 293 347
#     4  10  17  38  60  84 108 149 199 234 282 335
#     4  11  21  36  57  86 116 151 192 239 288 338
#
# _framework density 20.312621
#
# number of rings (size 3 to 8) (size 9 to 14) (size 15 to 20)
#    0.000    1.714    4.286    1.714    2.000    0.571 
#    0.000    2.143    0.000    1.714    0.000    0.000 
#    0.000    0.000    0.000    0.000    0.000    0.000 
#
# Total GULP energy -155932.278467 kJ/mol
# GULP energy per Si atom -5569.009945 kJ/mol
# Density = 2.026639 g / cm^3
# Si number density = 20.312621 Si / 1000 Ang^3
#
#
#
# Elastic Constant Matrix: (Units=GPa)
#
#
# Indices 1 2 3 4 5 6 
#
# 1 126.0317 10.3896 14.7845 0.0000 25.4913 0.0000
# 2 10.3896 64.3312 -4.9999 0.0000 9.1509 0.0000
# 3 14.7845 -4.9999 56.1362 0.0000 14.6474 0.0000
# 4 0.0000 0.0000 0.0000 12.3834 0.0000 6.9644
# 5 25.4913 9.1509 14.6474 0.0000 32.4555 0.0000
# 6 0.0000 0.0000 0.0000 6.9644 0.0000 8.7667
#
#
#
# Elastic Compliance Matrix: (Units=1/GPa)
#
#
# Indices 1 2 3 4 5 6 
#
# 1 0.009474 -0.000600 -0.000738 0.000000 -0.006939 0.000000
# 2 -0.000600 0.016686 0.003116 0.000000 -0.005639 0.000000
# 3 -0.000738 0.003116 0.020815 0.000000 -0.009693 0.000000
# 4 0.000000 0.000000 0.000000 0.145968 0.000000 -0.115960
# 5 -0.006939 -0.005639 -0.009693 0.000000 0.042225 0.000000
# 6 0.000000 0.000000 0.000000 -0.115960 0.000000 0.206189
#
#
# Mechanical properties :
#
#
# Convention : Reuss Voigt Hill
#
# Bulk Modulus (GPa) = 19.79070 31.87193 25.83131
# Shear Modulus (GPa) = 10.99758 25.80945 18.40351
#
# Velocity S-wave (km/s) = 2.32936 3.56843 3.01327
# Velocity P-wave (km/s) = 4.12295 5.71866 4.98507
#
# Compressibility (1/GPa) = 0.05052879
#
# Stress axis : x y z
#
# Youngs Moduli (GPa) = 105.55182 59.93104 48.04287
#
# Poissons Ratio (x) = 0.03599 0.03546
# Poissons Ratio (y) = 0.06338 -0.14969
# Poissons Ratio (z) = 0.07791 -0.18673
#
# Static dielectric constant tensor:
#      x y z
#    x 1.745880 0.000000 0.015850 
#    y 0.000000 1.735920 0.000000 
#    z 0.015850 0.000000 1.771390 
# 
# From -- ./inp_files/31669.got.cif
#   From: 2010.05.17/outbox.cif.g08.bks.cpg/sg11_16_cif.got.tgz:31669.got - 2010.06.03 12:22:45.
