data_PCOD9156654
_publ_section_title
;
Structure prediction by ZEFSAII (Michael W. Deem and Ramdas Pophale) SiO2 
 PCOD9156654
Probable space group: P 21/M
;
_chemical_formula_sum "Si O2"
_cell_formula_units_Z 24
_cell_length_a 13.682498
_cell_length_b 10.484763
_cell_length_c 19.556363
_cell_angle_alpha 90.000000
_cell_angle_beta 154.321688
_cell_angle_gamma 90.000000
_cell_volume 1215.678687
_symmetry_space_group_name_H-M "P 21/M"
_symmetry_group_IT_number 11
_symmetry_cell_setting 'monoclinic'
loop_
_space_group_symop_operation_xyz
x,y,z
-x,1/2+y,-z
-x,-y,-z
x,1/2-y,z
loop_
_atom_site_type_symbol
_atom_site_label
_atom_site_fract_x
_atom_site_fract_y
_atom_site_fract_z
Si Si1 0.310357 0.250000 0.198064
Si Si2 0.214331 0.750000 0.097993
Si Si3 0.173066 0.596347 0.647684
Si Si4 0.729007 0.250000 0.706170
Si Si5 0.306096 0.250000 0.339643
Si Si6 0.525118 0.496688 0.771959
Si Si7 0.127128 0.401756 0.419261
Si Si8 0.225064 0.997731 0.334313
O O1 0.439739 0.250000 0.352690
O O2 0.366504 0.378271 0.193558
O O3 0.051514 0.250000 0.057252
O O4 0.301477 0.750000 0.232372
O O5 0.308509 0.876802 0.121372
O O6 0.147768 0.750000 0.615010
O O7 0.411735 0.544641 0.770949
O O8 0.000000 0.500000 0.500000
O O9 0.103805 0.582874 0.683294
O O10 0.486433 0.250000 0.515180
O O11 0.852658 0.374321 0.755257
O O12 0.157945 0.125250 0.253291
O O13 0.325538 0.447468 0.595321
O O14 0.149568 0.250000 0.419074
O O15 0.151422 0.483746 0.365735
O O16 0.500000 0.000000 0.500000
#
# Coordination Sequence:
#
# PCOD9156654 Si02
#       8
#     2   2   4   2   2   4   4   4
#     4  12  24  36  54  86 116 150 201 237 275 341
#     4  12  24  38  56  80 118 168 189 223 291 349
#     4   9  19  33  53  82 112 146 189 234 288 342
#     4  10  20  34  51  78 110 148 185 227 283 335
#     4  10  18  32  51  76 104 142 185 231 277 329
#     4  11  20  36  54  77 115 154 192 234 282 335
#     4  10  18  33  56  83 114 148 182 232 298 345
#     4  10  18  29  49  77 107 140 179 218 280 336
#
# _framework density 19.742059000000001
#
# number of rings (size 3 to 8) (size 9 to 14) (size 15 to 20)
#    0.000    1.667    2.500    5.500    1.167    0.000 
#    1.500    0.000    0.000    0.000    0.000    7.000 
#    0.000    0.000    0.000    0.000    0.000    0.000 
#
# Total GULP energy -133749.407314 kJ/mol
# GULP energy per Si atom -5572.891971 kJ/mol
# Density = 1.969712 g / cm^3
# Si number density = 19.742059 Si / 1000 Ang^3
#
#
#
# Elastic Constant Matrix: (Units=GPa)
#
#
# Indices 1 2 3 4 5 6 
#
# 1 148.3541 56.0938 33.3503 0.0000 35.6861 0.0000
# 2 56.0938 163.9474 15.8508 0.0000 17.9272 0.0000
# 3 33.3503 15.8508 47.0190 0.0000 15.4563 0.0000
# 4 0.0000 0.0000 0.0000 2.0597 0.0000 13.7626
# 5 35.6861 17.9272 15.4563 0.0000 28.1909 0.0000
# 6 0.0000 0.0000 0.0000 13.7626 0.0000 38.3172
#
#
#
# Elastic Compliance Matrix: (Units=1/GPa)
#
#
# Indices 1 2 3 4 5 6 
#
# 1 0.010892 -0.002245 -0.003545 0.000000 -0.010417 0.000000
# 2 -0.002245 0.007059 -0.000300 0.000000 -0.001483 0.000000
# 3 -0.003545 -0.000300 0.027258 0.000000 -0.010267 0.000000
# 4 0.000000 0.000000 0.000000 -0.346804 0.000000 0.124564
# 5 -0.010417 -0.001483 -0.010267 0.000000 0.055231 0.000000
# 6 0.000000 0.000000 0.000000 0.124564 0.000000 -0.018642
#
#
# Mechanical properties :
#
#
# Convention : Reuss Voigt Hill
#
# Bulk Modulus (GPa) = 30.27515 63.32337 46.79926
# Shear Modulus (GPa) = -20.67679 30.64859 4.98590
#
# Velocity S-wave (km/s) = -3.23979 3.94439 1.59091
# Velocity P-wave (km/s) = 1.17205 7.27250 5.20879
#
# Compressibility (1/GPa) = 0.03303039
#
# Stress axis : x y z
#
# Youngs Moduli (GPa) = 91.81021 141.66892 36.68591
#
# Poissons Ratio (x) = 0.31803 0.13003
# Poissons Ratio (y) = 0.20610 0.01100
# Poissons Ratio (z) = 0.32543 0.04249
#
# Static dielectric constant tensor:
#      x y z
#    x 1.730590 0.000000 -0.002800 
#    y 0.000000 1.716870 0.000000 
#    z -0.002800 0.000000 1.765750 
# 
# From -- ./inp_files/45425.got.cif
#   From: 2010.05.17/outbox.cif.g08.bks.cpg/sg11_23_cif.got.tgz:45425.got - 2010.06.03 12:22:45.
