data_PCOD9156632
_publ_section_title
;
Structure prediction by ZEFSAII (Michael W. Deem and Ramdas Pophale) SiO2 
 PCOD9156632
Probable space group: P 21/M
;
_chemical_formula_sum "Si O2"
_cell_formula_units_Z 32
_cell_length_a 30.838647
_cell_length_b 7.726103
_cell_length_c 13.154556
_cell_angle_alpha 90.000000
_cell_angle_beta 151.432162
_cell_angle_gamma 90.000000
_cell_volume 1498.789405
_symmetry_space_group_name_H-M "P 21/M"
_symmetry_group_IT_number 11
_symmetry_cell_setting 'monoclinic'
loop_
_space_group_symop_operation_xyz
x,y,z
-x,1/2+y,-z
-x,-y,-z
x,1/2-y,z
loop_
_atom_site_type_symbol
_atom_site_label
_atom_site_fract_x
_atom_site_fract_y
_atom_site_fract_z
Si Si1 0.152147 0.948750 0.348279
Si Si2 0.396491 0.045983 0.317357
Si Si3 0.066462 0.046148 0.386156
Si Si4 0.327923 0.047440 0.811335
Si Si5 0.761182 0.546188 0.151099
Si Si6 0.871066 0.463124 0.930528
Si Si7 0.480172 0.957240 0.843823
Si Si8 0.679484 0.459050 0.618457
O O1 0.122231 0.750000 0.287702
O O2 0.132719 0.019149 0.195872
O O3 0.105280 0.033060 0.350350
O O4 0.259782 0.957469 0.592903
O O5 0.392894 0.250000 0.292449
O O6 0.500000 0.000000 0.500000
O O7 0.369585 0.007454 0.377812
O O8 0.312684 0.969274 0.078326
O O9 0.060693 0.250000 0.396656
O O10 0.139159 0.971347 0.616586
O O11 0.964717 0.976419 0.173482
O O12 0.330510 0.250000 0.786774
O O13 0.286222 0.038636 0.836781
O O14 0.429627 0.978598 0.026578
O O15 0.774193 0.750000 0.151094
O O16 0.871347 0.250000 0.929037
O O17 0.781619 0.519576 0.807299
O O18 0.476210 0.750000 0.823478
O O19 0.386595 0.024468 0.606841
O O20 0.500000 0.000000 0.000000
O O21 0.683682 0.250000 0.624565
#
# Coordination Sequence:
#
# PCOD9156632 Si02
#       8
#     4   4   4   4   4   4   4   4
#     4  10  18  29  48  78 108 135 169 215 259 296
#     4  11  22  38  59  82 104 132 169 215 266 316
#     4   9  17  33  54  75 100 138 178 209 248 308
#     4   9  17  31  49  70  96 134 172 202 245 308
#     4   8  16  32  54  74  96 126 166 209 252 301
#     4   9  18  32  52  74 102 140 177 208 251 306
#     4  10  20  33  51  73 104 141 174 207 251 304
#     4  10  21  38  55  76 106 140 175 215 259 309
#
# _framework density 21.350563000000001
#
# number of rings (size 3 to 8) (size 9 to 14) (size 15 to 20)
#    0.000    2.500    0.000    3.375    0.000    4.000 
#    0.000   10.625    0.000    0.000    0.000    0.000 
#    0.000    0.000    0.000    0.000    0.000    0.000 
#
# Total GULP energy -178402.424073 kJ/mol
# GULP energy per Si atom -5575.075752 kJ/mol
# Density = 2.130197 g / cm^3
# Si number density = 21.350563 Si / 1000 Ang^3
#
#
#
# Elastic Constant Matrix: (Units=GPa)
#
#
# Indices 1 2 3 4 5 6 
#
# 1 72.3609 -2.8474 81.8177 0.0000 19.6190 0.0000
# 2 -2.8474 29.6537 13.0225 0.0000 2.2847 0.0000
# 3 81.8177 13.0225 207.9222 0.0000 23.0066 0.0000
# 4 0.0000 0.0000 0.0000 10.7983 0.0000 -2.8770
# 5 19.6190 2.2847 23.0066 0.0000 37.7992 0.0000
# 6 0.0000 0.0000 0.0000 -2.8770 0.0000 17.6508
#
#
#
# Elastic Compliance Matrix: (Units=1/GPa)
#
#
# Indices 1 2 3 4 5 6 
#
# 1 0.028859 0.008236 -0.010893 0.000000 -0.008846 0.000000
# 2 0.008236 0.037051 -0.005190 0.000000 -0.003355 0.000000
# 3 -0.010893 -0.005190 0.009393 0.000000 0.000250 0.000000
# 4 0.000000 0.000000 0.000000 0.096811 0.000000 0.015780
# 5 -0.008846 -0.003355 0.000250 0.000000 0.031098 0.000000
# 6 0.000000 0.000000 0.000000 0.015780 0.000000 0.059227
#
#
# Mechanical properties :
#
#
# Convention : Reuss Voigt Hill
#
# Bulk Modulus (GPa) = 16.77589 54.88028 35.82808
# Shear Modulus (GPa) = 16.77836 27.77928 22.27882
#
# Velocity S-wave (km/s) = 2.80634 3.61099 3.23379
# Velocity P-wave (km/s) = 4.28663 6.56855 5.54622
#
# Compressibility (1/GPa) = 0.05960937
#
# Stress axis : x y z
#
# Youngs Moduli (GPa) = 34.65148 26.98964 106.45910
#
# Poissons Ratio (x) = -0.22230 1.15966
# Poissons Ratio (y) = -0.28540 0.55256
# Poissons Ratio (z) = 0.37746 0.14008
#
# Static dielectric constant tensor:
#      x y z
#    x 1.636020 0.000000 0.012700 
#    y 0.000000 1.805560 0.000000 
#    z 0.012700 0.000000 1.829490 
# 
# From -- ./inp_files/45356.got.cif
#   From: 2010.05.17/outbox.cif.g08.bks.cpg/sg11_23_cif.got.tgz:45356.got - 2010.06.03 12:22:45.
