data_PCOD9156559
_publ_section_title
;
Structure prediction by ZEFSAII (Michael W. Deem and Ramdas Pophale) SiO2 
 PCOD9156559
Probable space group: P 21/M
;
_chemical_formula_sum "Si O2"
_cell_formula_units_Z 32
_cell_length_a 9.380975
_cell_length_b 17.102570
_cell_length_c 7.826333
_cell_angle_alpha 90.000000
_cell_angle_beta 78.227605
_cell_angle_gamma 90.000000
_cell_volume 1229.235795
_symmetry_space_group_name_H-M "P 21/M"
_symmetry_group_IT_number 11
_symmetry_cell_setting 'monoclinic'
loop_
_space_group_symop_operation_xyz
x,y,z
-x,1/2+y,-z
-x,-y,-z
x,1/2-y,z
loop_
_atom_site_type_symbol
_atom_site_label
_atom_site_fract_x
_atom_site_fract_y
_atom_site_fract_z
Si Si1 0.618578 0.660240 0.310766
Si Si2 0.855289 0.104592 0.455592
Si Si3 0.562626 0.500670 0.177298
Si Si4 0.094439 0.171141 0.972303
Si Si5 0.339461 0.837930 0.795465
Si Si6 0.837670 0.359409 0.815985
Si Si7 0.176977 0.469005 0.101163
Si Si8 0.195640 0.076149 0.449680
O O1 0.560036 0.750000 0.343342
O O2 0.524074 0.581637 0.284810
O O3 0.738733 0.666857 0.128439
O O4 0.714109 0.633251 0.450843
O O5 0.791379 0.146947 0.305365
O O6 0.791422 0.152563 0.634378
O O7 0.029023 0.102324 0.452479
O O8 0.806189 0.012445 0.472206
O O9 0.558263 0.414055 0.258153
O O10 0.500000 0.500000 0.000000
O O11 0.733537 0.510306 0.088710
O O12 0.074195 0.250000 0.082426
O O13 0.989660 0.175404 0.837175
O O14 0.057053 0.092088 0.076359
O O15 0.399172 0.750000 0.757186
O O16 0.278192 0.841584 0.006427
O O17 0.874655 0.451087 0.810172
O O18 0.260086 0.430767 0.241430
#
# Coordination Sequence:
#
# PCOD9156559 Si02
#       8
#     4   4   4   4   4   4   4   4
#     4  10  20  34  57  84 113 149 189 235 289 351
#     4  10  20  33  56  86 126 161 188 223 280 353
#     4  10  22  43  62  80 108 148 200 260 308 349
#     4  10  18  29  46  76 114 151 185 220 271 339
#     4  11  23  37  59  88 118 155 200 244 288 349
#     4  10  19  33  53  81 121 158 189 223 279 348
#     4   9  20  32  55  80 106 149 191 241 288 339
#     4  10  18  33  54  86 119 154 189 223 280 354
#
# _framework density 26.032432
#
# number of rings (size 3 to 8) (size 9 to 14) (size 15 to 20)
#    0.000    2.000    2.500    1.500    0.000    2.500 
#    0.000    0.625    0.000    0.000    0.000    0.000 
#    0.000    0.000    0.000    0.000    0.000    0.000 
#
# Total GULP energy -178514.015660 kJ/mol
# GULP energy per Si atom -5578.562989 kJ/mol
# Density = 2.597318 g / cm^3
# Si number density = 26.032432 Si / 1000 Ang^3
#
#
#
# Elastic Constant Matrix: (Units=GPa)
#
#
# Indices 1 2 3 4 5 6 
#
# 1 62.3273 35.1961 16.4557 0.0000 7.3347 0.0000
# 2 35.1961 223.0317 24.4807 0.0000 27.9117 0.0000
# 3 16.4557 24.4807 111.3057 0.0000 13.0534 0.0000
# 4 0.0000 0.0000 0.0000 28.4939 0.0000 15.6554
# 5 7.3347 27.9117 13.0534 0.0000 37.9359 0.0000
# 6 0.0000 0.0000 0.0000 15.6554 0.0000 1.5090
#
#
#
# Elastic Compliance Matrix: (Units=1/GPa)
#
#
# Indices 1 2 3 4 5 6 
#
# 1 0.018110 -0.002517 -0.002011 0.000000 -0.000957 0.000000
# 2 -0.002517 0.005339 -0.000415 0.000000 -0.003299 0.000000
# 3 -0.002011 -0.000415 0.009682 0.000000 -0.002637 0.000000
# 4 0.000000 0.000000 0.000000 -0.007467 0.000000 0.077466
# 5 -0.000957 -0.003299 -0.002637 0.000000 0.029880 0.000000
# 6 0.000000 0.000000 0.000000 0.077466 0.000000 -0.140992
#
#
# Mechanical properties :
#
#
# Convention : Reuss Voigt Hill
#
# Bulk Modulus (GPa) = 43.02356 60.99220 52.00788
# Shear Modulus (GPa) = -73.73302 34.95657 -19.38823
#
# Velocity S-wave (km/s) = -5.32776 3.66841 -2.73201
# Velocity P-wave (km/s) = 4.61345 6.43608 3.17327
#
# Compressibility (1/GPa) = 0.02324308
#
# Stress axis : x y z
#
# Youngs Moduli (GPa) = 55.21957 187.28911 103.28171
#
# Poissons Ratio (x) = 0.47145 0.20775
# Poissons Ratio (y) = 0.13900 0.04289
# Poissons Ratio (z) = 0.11107 0.07778
#
# Static dielectric constant tensor:
#      x y z
#    x 2.135930 0.000000 -0.039380 
#    y 0.000000 2.180500 0.000000 
#    z -0.039380 0.000000 2.085030 
# 
# From -- ./inp_files/18049.got.cif
#   From: 2010.05.17/outbox.cif.g08.bks.cpg/sg11_10_cif.got.tgz:18049.got - 2010.06.03 12:22:45.
