data_PCOD9156547
_publ_section_title
;
Structure prediction by ZEFSAII (Michael W. Deem and Ramdas Pophale) SiO2 
 PCOD9156547
Probable space group: P 21/M
;
_chemical_formula_sum "Si O2"
_cell_formula_units_Z 32
_cell_length_a 22.054207
_cell_length_b 8.585730
_cell_length_c 31.795140
_cell_angle_alpha 90.000000
_cell_angle_beta 19.459491
_cell_angle_gamma 90.000000
_cell_volume 2005.656731
_symmetry_space_group_name_H-M "P 21/M"
_symmetry_group_IT_number 11
_symmetry_cell_setting 'monoclinic'
loop_
_space_group_symop_operation_xyz
x,y,z
-x,1/2+y,-z
-x,-y,-z
x,1/2-y,z
loop_
_atom_site_type_symbol
_atom_site_label
_atom_site_fract_x
_atom_site_fract_y
_atom_site_fract_z
Si Si1 0.167359 0.938276 0.513901
Si Si2 0.172982 0.936985 0.412130
Si Si3 0.216633 0.062764 0.949757
Si Si4 0.566434 0.062111 0.021334
Si Si5 0.215171 0.062103 0.197655
Si Si6 0.555819 0.437072 0.279066
Si Si7 0.113128 0.937454 0.886295
Si Si8 0.449446 0.936921 0.871991
O O1 0.173609 0.750000 0.510963
O O2 0.163167 0.984999 0.467521
O O3 0.982757 0.990275 0.657563
O O4 0.350935 0.003048 0.414190
O O5 0.172699 0.750000 0.410913
O O6 0.358932 0.999001 0.270372
O O7 0.000000 0.000000 0.500000
O O8 0.227232 0.250000 0.944281
O O9 0.346062 0.005184 0.826856
O O10 0.293600 0.994135 0.942339
O O11 0.009455 0.014349 0.073327
O O12 0.571884 0.250000 0.016925
O O13 0.372803 0.013338 0.127561
O O14 0.580458 0.011215 0.060381
O O15 0.721417 0.998832 0.889048
O O16 0.214714 0.250000 0.197173
O O17 0.557397 0.250000 0.274666
O O18 0.680382 0.484176 0.237826
O O19 0.109353 0.750000 0.889262
O O20 0.000000 0.000000 0.000000
O O21 0.457151 0.750000 0.866283
#
# Coordination Sequence:
#
# PCOD9156547 Si02
#       8
#     4   4   4   4   4   4   4   4
#     4  10  20  33  48  69  99 130 158 196 241 284
#     4  11  22  34  48  67  97 132 163 194 236 286
#     4  10  18  30  46  67  97 130 161 196 238 283
#     4   9  19  35  52  70  93 121 157 206 247 279
#     4   9  18  34  53  70  91 122 160 200 242 287
#     4  10  18  29  46  69  96 128 163 197 234 283
#     4   8  16  28  43  64  92 125 160 195 233 278
#     4  11  21  33  49  71  99 128 161 198 240 287
#
# _framework density 15.954874
#
# number of rings (size 3 to 8) (size 9 to 14) (size 15 to 20)
#    0.000    2.250    1.250    2.250    0.000    5.000 
#    0.000    2.500    0.000    0.000    0.000    0.875 
#    0.000    0.000    0.000    0.000    0.000    0.000 
#
# Total GULP energy -178399.544761 kJ/mol
# GULP energy per Si atom -5574.985774 kJ/mol
# Density = 1.591856 g / cm^3
# Si number density = 15.954874 Si / 1000 Ang^3
#
#
#
# Elastic Constant Matrix: (Units=GPa)
#
#
# Indices 1 2 3 4 5 6 
#
# 1 143.7648 29.5210 96.4758 0.0000 -15.2234 0.0000
# 2 29.5210 23.4956 26.5290 0.0000 -2.2008 0.0000
# 3 96.4758 26.5290 122.0506 0.0000 -9.2267 0.0000
# 4 0.0000 0.0000 0.0000 23.4406 0.0000 -1.7169
# 5 -15.2234 -2.2008 -9.2267 0.0000 26.6281 0.0000
# 6 0.0000 0.0000 0.0000 -1.7169 0.0000 23.0895
#
#
#
# Elastic Compliance Matrix: (Units=1/GPa)
#
#
# Indices 1 2 3 4 5 6 
#
# 1 0.016390 -0.007851 -0.010875 0.000000 0.004953 0.000000
# 2 -0.007851 0.060169 -0.007020 0.000000 -0.001948 0.000000
# 3 -0.010875 -0.007020 0.018280 0.000000 -0.000463 0.000000
# 4 0.000000 0.000000 0.000000 0.042895 0.000000 0.003190
# 5 0.004953 -0.001948 -0.000463 0.000000 0.040065 0.000000
# 6 0.000000 0.000000 0.000000 0.003190 0.000000 0.043547
#
#
# Mechanical properties :
#
#
# Convention : Reuss Voigt Hill
#
# Bulk Modulus (GPa) = 23.06889 66.04027 44.55458
# Shear Modulus (GPa) = 17.40428 23.75066 20.57747
#
# Velocity S-wave (km/s) = 3.30638 3.86244 3.59518
# Velocity P-wave (km/s) = 5.39132 7.83410 6.72456
#
# Compressibility (1/GPa) = 0.04334842
#
# Stress axis : x y z
#
# Youngs Moduli (GPa) = 61.01256 16.61989 54.70381
#
# Poissons Ratio (x) = 0.13047 0.59489
# Poissons Ratio (y) = 0.47898 0.38403
# Poissons Ratio (z) = 0.66350 0.11667
#
# Static dielectric constant tensor:
#      x y z
#    x 1.544440 0.000000 -0.028750 
#    y 0.000000 1.544850 0.000000 
#    z -0.028750 0.000000 1.518250 
# 
# From -- ./inp_files/40667.got.cif
#   From: 2010.05.17/outbox.cif.g08.bks.cpg/sg11_21_cif.got.tgz:40667.got - 2010.06.03 12:22:45.
