data_PCOD9156622
_publ_section_title
;
Structure prediction by ZEFSAII (Michael W. Deem and Ramdas Pophale) SiO2 
 PCOD9156622
Probable space group: P 21/M
;
_chemical_formula_sum "Si O2"
_cell_formula_units_Z 32
_cell_length_a 22.873758
_cell_length_b 8.206398
_cell_length_c 11.413560
_cell_angle_alpha 90.000000
_cell_angle_beta 48.404711
_cell_angle_gamma 90.000000
_cell_volume 1602.238920
_symmetry_space_group_name_H-M "P 21/M"
_symmetry_group_IT_number 11
_symmetry_cell_setting 'monoclinic'
loop_
_space_group_symop_operation_xyz
x,y,z
-x,1/2+y,-z
-x,-y,-z
x,1/2-y,z
loop_
_atom_site_type_symbol
_atom_site_label
_atom_site_fract_x
_atom_site_fract_y
_atom_site_fract_z
Si Si1 0.756139 0.557642 0.690545
Si Si2 0.334755 0.562481 0.972963
Si Si3 0.198534 0.549563 0.005437
Si Si4 0.663231 0.051829 0.591211
Si Si5 0.494795 0.442990 0.871772
Si Si6 0.040811 0.553289 0.325593
Si Si7 0.094956 0.445965 0.657719
Si Si8 0.188379 0.945647 0.754595
O O1 0.758817 0.750000 0.716073
O O2 0.726705 0.455390 0.838847
O O3 0.693908 0.526840 0.670323
O O4 0.838329 0.504916 0.525085
O O5 0.351529 0.750000 0.925847
O O6 0.284307 0.492921 0.932285
O O7 0.415222 0.488541 0.911974
O O8 0.199928 0.750000 0.005809
O O9 0.178576 0.496948 0.900250
O O10 0.129098 0.496259 0.184898
O O11 0.667158 0.250000 0.596252
O O12 0.573080 0.002230 0.698990
O O13 0.726854 0.002925 0.409365
O O14 0.497529 0.250000 0.873725
O O15 0.500000 0.500000 0.000000
O O16 0.041532 0.750000 0.324983
O O17 0.000000 0.500000 0.500000
O O18 0.987074 0.499788 0.287052
O O19 0.095400 0.250000 0.660691
O O20 0.122959 0.503949 0.747441
O O21 0.188037 0.750000 0.758086
#
# Coordination Sequence:
#
# PCOD9156622 Si02
#       8
#     4   4   4   4   4   4   4   4
#     4  10  18  29  48  74 105 137 169 211 264 318
#     4  11  21  33  50  74 105 139 177 217 263 316
#     4   9  20  37  56  76 103 143 183 219 260 311
#     4   9  18  32  52  75 101 132 170 215 258 309
#     4  11  21  33  51  79 109 136 169 216 269 319
#     4  10  20  36  56  80 112 143 175 217 266 319
#     4   9  19  33  51  79 110 138 171 220 273 310
#     4   9  18  36  58  77 100 138 186 222 253 308
#
# _framework density 19.972052000000001
#
# number of rings (size 3 to 8) (size 9 to 14) (size 15 to 20)
#    0.000    2.250    1.250    1.875    0.000    2.000 
#    0.000    3.125    0.000    0.000    0.000    0.000 
#    0.000    0.000    0.000    0.000    0.000    0.000 
#
# Total GULP energy -178483.332274 kJ/mol
# GULP energy per Si atom -5577.604134 kJ/mol
# Density = 1.992659 g / cm^3
# Si number density = 19.972052 Si / 1000 Ang^3
#
#
#
# Elastic Constant Matrix: (Units=GPa)
#
#
# Indices 1 2 3 4 5 6 
#
# 1 134.7779 8.1096 52.5788 0.0000 -20.8403 0.0000
# 2 8.1096 5.3649 6.4827 0.0000 -5.9750 0.0000
# 3 52.5788 6.4827 61.2748 0.0000 -1.5414 0.0000
# 4 0.0000 0.0000 0.0000 15.0452 0.0000 -0.3263
# 5 -20.8403 -5.9750 -1.5414 0.0000 31.7854 0.0000
# 6 0.0000 0.0000 0.0000 -0.3263 0.0000 20.5726
#
#
#
# Elastic Compliance Matrix: (Units=1/GPa)
#
#
# Indices 1 2 3 4 5 6 
#
# 1 0.012925 0.003669 -0.011262 0.000000 0.008618 0.000000
# 2 0.003669 0.277663 -0.031189 0.000000 0.053088 0.000000
# 3 -0.011262 -0.031189 0.028985 0.000000 -0.011841 0.000000
# 4 0.000000 0.000000 0.000000 0.066489 0.000000 0.001055
# 5 0.008618 0.053088 -0.011841 0.000000 0.046517 0.000000
# 6 0.000000 0.000000 0.000000 0.001055 0.000000 0.048625
#
#
# Mechanical properties :
#
#
# Convention : Reuss Voigt Hill
#
# Bulk Modulus (GPa) = 4.13207 37.30664 20.71935
# Shear Modulus (GPa) = 7.81937 22.43042 15.12489
#
# Velocity S-wave (km/s) = 1.98082 3.35489 2.75490
# Velocity P-wave (km/s) = 2.70277 5.80750 4.52946
#
# Compressibility (1/GPa) = 0.24200971
#
# Stress axis : x y z
#
# Youngs Moduli (GPa) = 77.37024 3.60149 34.50001
#
# Poissons Ratio (x) = -0.01322 0.38854
# Poissons Ratio (y) = -0.28390 1.07603
# Poissons Ratio (z) = 0.87134 0.11233
#
# Static dielectric constant tensor:
#      x y z
#    x 1.737090 0.000000 -0.012500 
#    y 0.000000 1.693490 0.000000 
#    z -0.012500 0.000000 1.724240 
# 
# From -- ./inp_files/42733.got.cif
#   From: 2010.05.17/outbox.cif.g08.bks.cpg/sg11_22_cif.got.tgz:42733.got - 2010.06.03 12:22:45.
