data_PCOD9156376
_publ_section_title
;
Structure prediction by ZEFSAII (Michael W. Deem and Ramdas Pophale) SiO2 
 PCOD9156376
Probable space group: P 21/M
;
_chemical_formula_sum "Si O2"
_cell_formula_units_Z 32
_cell_length_a 31.788253
_cell_length_b 9.087259
_cell_length_c 20.371145
_cell_angle_alpha 90.000000
_cell_angle_beta 160.373000
_cell_angle_gamma 90.000000
_cell_volume 1976.601632
_symmetry_space_group_name_H-M "P 21/M"
_symmetry_group_IT_number 11
_symmetry_cell_setting 'monoclinic'
loop_
_space_group_symop_operation_xyz
x,y,z
-x,1/2+y,-z
-x,-y,-z
x,1/2-y,z
loop_
_atom_site_type_symbol
_atom_site_label
_atom_site_fract_x
_atom_site_fract_y
_atom_site_fract_z
Si Si1 0.085467 0.572126 0.182419
Si Si2 0.389151 0.581952 0.089846
Si Si3 0.661871 0.421072 0.637363
Si Si4 0.410860 0.580498 0.280957
Si Si5 0.112530 0.928542 0.705604
Si Si6 0.360738 0.921116 0.553781
Si Si7 0.915092 0.575156 0.053870
Si Si8 0.152397 0.074632 0.904149
O O1 0.084583 0.750000 0.171163
O O2 0.229497 0.520591 0.389332
O O3 0.000000 0.500000 0.000000
O O4 0.025320 0.540208 0.164946
O O5 0.394765 0.750000 0.075674
O O6 0.404049 0.581054 0.191103
O O7 0.508233 0.497363 0.236439
O O8 0.247218 0.526674 0.872002
O O9 0.653065 0.250000 0.641453
O O10 0.543860 0.508789 0.492675
O O11 0.654301 0.431807 0.547172
O O12 0.792759 0.488133 0.851366
O O13 0.401280 0.750000 0.288138
O O14 0.291315 0.485007 0.126139
O O15 0.107547 0.750000 0.698978
O O16 0.111675 0.989830 0.778751
O O17 0.000000 0.000000 0.500000
O O18 0.370585 0.750000 0.585850
O O19 0.889412 0.750000 0.010061
O O20 0.933235 0.546274 0.157857
O O21 0.157554 0.250000 0.899369
#
# Coordination Sequence:
#
# PCOD9156376 Si02
#       8
#     4   4   4   4   4   4   4   4
#     4  10  19  32  47  67  93 127 171 216 254 289
#     4   8  16  29  46  70  97 123 153 187 234 288
#     4  10  18  28  44  66  90 123 167 210 247 287
#     4   9  17  30  46  64  90 126 163 201 243 288
#     4  10  20  35  56  81 104 128 154 188 236 294
#     4   9  17  28  44  67  94 124 163 207 247 282
#     4  10  21  33  46  64  93 130 167 206 250 291
#     4  10  20  34  49  69  96 128 162 198 239 290
#
# _framework density 16.189402000000001
#
# number of rings (size 3 to 8) (size 9 to 14) (size 15 to 20)
#    0.000    2.500    1.250    2.250    0.000    6.000 
#    0.000    0.000    0.000    0.000    0.000    0.875 
#    0.000    0.000    0.000    0.000    0.000    0.000 
#
# Total GULP energy -178377.253846 kJ/mol
# GULP energy per Si atom -5574.289183 kJ/mol
# Density = 1.615255 g / cm^3
# Si number density = 16.189402 Si / 1000 Ang^3
#
#
#
# Elastic Constant Matrix: (Units=GPa)
#
#
# Indices 1 2 3 4 5 6 
#
# 1 70.8539 36.8645 54.0675 0.0000 18.6614 0.0000
# 2 36.8645 55.8937 50.1860 0.0000 6.4864 0.0000
# 3 54.0675 50.1860 135.0382 0.0000 15.5659 0.0000
# 4 0.0000 0.0000 0.0000 28.1276 0.0000 1.6697
# 5 18.6614 6.4864 15.5659 0.0000 18.4064 0.0000
# 6 0.0000 0.0000 0.0000 1.6697 0.0000 11.9068
#
#
#
# Elastic Compliance Matrix: (Units=1/GPa)
#
#
# Indices 1 2 3 4 5 6 
#
# 1 0.030475 -0.013304 -0.004694 0.000000 -0.022239 0.000000
# 2 -0.013304 0.032681 -0.007807 0.000000 0.008574 0.000000
# 3 -0.004694 -0.007807 0.012543 0.000000 -0.003097 0.000000
# 4 0.000000 0.000000 0.000000 0.035851 0.000000 -0.005027
# 5 -0.022239 0.008574 -0.003097 0.000000 0.076474 0.000000
# 6 0.000000 0.000000 0.000000 -0.005027 0.000000 0.084691
#
#
# Mechanical properties :
#
#
# Convention : Reuss Voigt Hill
#
# Bulk Modulus (GPa) = 41.51374 60.44687 50.98031
# Shear Modulus (GPa) = 15.04424 19.73267 17.38845
#
# Velocity S-wave (km/s) = 3.05169 3.49501 3.28085
# Velocity P-wave (km/s) = 6.17376 7.32838 6.77571
#
# Compressibility (1/GPa) = 0.02408841
#
# Stress axis : x y z
#
# Youngs Moduli (GPa) = 32.81428 30.59919 79.72513
#
# Poissons Ratio (x) = 0.40710 0.37421
# Poissons Ratio (y) = 0.43657 0.62242
# Poissons Ratio (z) = 0.15402 0.23889
#
# Static dielectric constant tensor:
#      x y z
#    x 1.562070 0.000000 0.015850 
#    y 0.000000 1.547320 0.000000 
#    z 0.015850 0.000000 1.535150 
# 
# From -- ./inp_files/67430.got.cif
#   From: 2010.05.17/outbox.cif.g08.bks.cpg/sg11_34_cif.got.tgz:67430.got - 2010.06.03 12:22:45.
