data_PCOD9156444
_publ_section_title
;
Structure prediction by ZEFSAII (Michael W. Deem and Ramdas Pophale) SiO2 
 PCOD9156444
Probable space group: P 21/M
;
_chemical_formula_sum "Si O2"
_cell_formula_units_Z 32
_cell_length_a 15.722206
_cell_length_b 7.683261
_cell_length_c 15.240121
_cell_angle_alpha 90.000000
_cell_angle_beta 60.942124
_cell_angle_gamma 90.000000
_cell_volume 1609.249125
_symmetry_space_group_name_H-M "P 21/M"
_symmetry_group_IT_number 11
_symmetry_cell_setting 'monoclinic'
loop_
_space_group_symop_operation_xyz
x,y,z
-x,1/2+y,-z
-x,-y,-z
x,1/2-y,z
loop_
_atom_site_type_symbol
_atom_site_label
_atom_site_fract_x
_atom_site_fract_y
_atom_site_fract_z
Si Si1 0.080833 0.953545 0.854678
Si Si2 0.684232 0.050995 0.744347
Si Si3 0.647894 0.459941 0.573343
Si Si4 0.134707 0.950976 0.016225
Si Si5 0.465790 0.953807 0.881346
Si Si6 0.573649 0.538955 0.292191
Si Si7 0.260768 0.043744 0.657413
Si Si8 0.286729 0.535488 0.082486
O O1 0.060171 0.750000 0.880472
O O2 0.156997 0.971173 0.738555
O O3 0.129970 0.025811 0.919917
O O4 0.976328 0.040294 0.894533
O O5 0.719085 0.250000 0.720872
O O6 0.691979 0.972071 0.643301
O O7 0.729420 0.973295 0.810060
O O8 0.567967 0.050707 0.821418
O O9 0.645135 0.250000 0.581157
O O10 0.534997 0.517850 0.624439
O O11 0.706837 0.507285 0.457656
O O12 0.164933 0.750000 0.991018
O O13 0.207519 0.026267 0.051695
O O14 0.486837 0.750000 0.883632
O O15 0.412250 0.975700 0.814263
O O16 0.392792 0.015675 0.993043
O O17 0.574732 0.750000 0.290663
O O18 0.655667 0.476293 0.318137
O O19 0.255559 0.250000 0.671863
O O20 0.285904 0.750000 0.085113
#
# Coordination Sequence:
#
# PCOD9156444 Si02
#       8
#     4   4   4   4   4   4   4   4
#     4  10  20  34  52  75 103 129 153 190 241 292
#     4   9  18  33  49  67  97 134 166 198 239 283
#     4   9  18  32  48  67  95 130 164 199 239 281
#     4   9  18  34  54  75  99 127 159 194 235 286
#     4  10  18  28  46  73 102 131 163 198 235 279
#     4   9  19  33  47  68  99 132 163 196 239 287
#     4  11  21  32  50  73  96 126 164 202 239 285
#     4   9  17  30  50  73  97 128 164 199 238 284
#
# _framework density 19.885048999999999
#
# number of rings (size 3 to 8) (size 9 to 14) (size 15 to 20)
#    0.000    2.500    0.000    3.375    0.000    4.500 
#    0.000    2.500    0.000    0.750    0.000    0.000 
#    0.000    0.000    0.000    0.000    0.000    0.000 
#
# Total GULP energy -178578.508651 kJ/mol
# GULP energy per Si atom -5580.578395 kJ/mol
# Density = 1.983979 g / cm^3
# Si number density = 19.885049 Si / 1000 Ang^3
#
#
#
# Elastic Constant Matrix: (Units=GPa)
#
#
# Indices 1 2 3 4 5 6 
#
# 1 51.8819 -5.8449 14.9610 0.0000 15.0805 0.0000
# 2 -5.8449 41.6357 -8.5710 0.0000 0.1909 0.0000
# 3 14.9610 -8.5710 95.8697 0.0000 5.0277 0.0000
# 4 0.0000 0.0000 0.0000 15.8764 0.0000 -3.3610
# 5 15.0805 0.1909 5.0277 0.0000 21.8268 0.0000
# 6 0.0000 0.0000 0.0000 -3.3610 0.0000 8.6334
#
#
#
# Elastic Compliance Matrix: (Units=1/GPa)
#
#
# Indices 1 2 3 4 5 6 
#
# 1 0.025333 0.003058 -0.002794 0.000000 -0.016886 0.000000
# 2 0.003058 0.024849 0.001889 0.000000 -0.002766 0.000000
# 3 -0.002794 0.001889 0.011069 0.000000 -0.000636 0.000000
# 4 0.000000 0.000000 0.000000 0.068644 0.000000 0.026723
# 5 -0.016886 -0.002766 -0.000636 0.000000 0.057653 0.000000
# 6 0.000000 0.000000 0.000000 0.026723 0.000000 0.126233
#
#
# Mechanical properties :
#
#
# Convention : Reuss Voigt Hill
#
# Bulk Modulus (GPa) = 15.25370 21.16419 18.20895
# Shear Modulus (GPa) = 15.09088 21.85681 18.47385
#
# Velocity S-wave (km/s) = 2.75781 3.31895 3.05131
# Velocity P-wave (km/s) = 4.22236 5.03524 4.64661
#
# Compressibility (1/GPa) = 0.06555785
#
# Stress axis : x y z
#
# Youngs Moduli (GPa) = 39.47396 40.24341 90.34125
#
# Poissons Ratio (x) = -0.12308 0.25245
# Poissons Ratio (y) = -0.12073 -0.17068
# Poissons Ratio (z) = 0.11031 -0.07603
#
# Static dielectric constant tensor:
#      x y z
#    x 1.714530 0.000000 0.038540 
#    y 0.000000 1.719530 0.000000 
#    z 0.038540 0.000000 1.693510 
# 
# From -- ./inp_files/51617.got.cif
#   From: 2010.05.17/outbox.cif.g08.bks.cpg/sg11_26_cif.got.tgz:51617.got - 2010.06.03 12:22:45.
