data_PCOD9156583
_publ_section_title
;
Structure prediction by ZEFSAII (Michael W. Deem and Ramdas Pophale) SiO2 
 PCOD9156583
Probable space group: P 21/M
;
_chemical_formula_sum "Si O2"
_cell_formula_units_Z 32
_cell_length_a 16.306503
_cell_length_b 7.599195
_cell_length_c 15.083715
_cell_angle_alpha 90.000000
_cell_angle_beta 60.729102
_cell_angle_gamma 90.000000
_cell_volume 1630.464852
_symmetry_space_group_name_H-M "P 21/M"
_symmetry_group_IT_number 11
_symmetry_cell_setting 'monoclinic'
loop_
_space_group_symop_operation_xyz
x,y,z
-x,1/2+y,-z
-x,-y,-z
x,1/2-y,z
loop_
_atom_site_type_symbol
_atom_site_label
_atom_site_fract_x
_atom_site_fract_y
_atom_site_fract_z
Si Si1 0.357973 0.462276 0.924527
Si Si2 0.428668 0.535805 0.192705
Si Si3 0.123477 0.452569 0.528626
Si Si4 0.350018 0.034646 0.728297
Si Si5 0.737647 0.456556 0.845129
Si Si6 0.739519 0.952927 0.397365
Si Si7 0.086002 0.045496 0.355432
Si Si8 0.434389 0.537230 0.393468
O O1 0.360197 0.250000 0.922120
O O2 0.465329 0.522891 0.886350
O O3 0.331408 0.520396 0.839234
O O4 0.289273 0.517924 0.038745
O O5 0.429873 0.750000 0.188493
O O6 0.348627 0.471253 0.168705
O O7 0.409400 0.488324 0.305145
O O8 0.155976 0.250000 0.503377
O O9 0.186977 0.534939 0.572069
O O10 0.127503 0.527829 0.426641
O O11 0.013617 0.457525 0.611858
O O12 0.349004 0.250000 0.727604
O O13 0.279471 0.970193 0.689875
O O14 0.457529 0.983742 0.649052
O O15 0.744153 0.250000 0.823336
O O16 0.835922 0.533602 0.760927
O O17 0.768941 0.750000 0.367679
O O18 0.639227 0.958002 0.499788
O O19 0.063217 0.250000 0.383759
O O20 0.429444 0.750000 0.402566
#
# Coordination Sequence:
#
# PCOD9156583 Si02
#       8
#     4   4   4   4   4   4   4   4
#     4   9  17  32  49  65  91 128 165 193 222 267
#     4   8  16  29  45  66  95 129 159 188 225 272
#     4   9  19  34  51  72  97 121 148 188 233 275
#     4   8  16  30  47  66  93 129 161 190 226 269
#     4  11  20  30  47  71  96 122 155 195 236 271
#     4  10  18  29  47  71  96 122 154 191 233 274
#     4  10  20  34  51  71  95 123 152 183 228 285
#     4   9  16  28  45  67  96 129 161 187 219 269
#
# _framework density 19.626303
#
# number of rings (size 3 to 8) (size 9 to 14) (size 15 to 20)
#    0.000    2.750    0.000    3.750    0.000    1.000 
#    0.000    4.375    0.000    0.750    0.000    0.000 
#    0.000    0.000    0.000    0.000    0.000    0.000 
#
# Total GULP energy -178545.926246 kJ/mol
# GULP energy per Si atom -5579.560195 kJ/mol
# Density = 1.958163 g / cm^3
# Si number density = 19.626303 Si / 1000 Ang^3
#
#
#
# Elastic Constant Matrix: (Units=GPa)
#
#
# Indices 1 2 3 4 5 6 
#
# 1 93.9317 -2.5254 38.1884 0.0000 28.1552 0.0000
# 2 -2.5254 45.4602 -10.9593 0.0000 1.8755 0.0000
# 3 38.1884 -10.9593 94.3367 0.0000 0.8696 0.0000
# 4 0.0000 0.0000 0.0000 14.7651 0.0000 -5.5413
# 5 28.1552 1.8755 0.8696 0.0000 18.5323 0.0000
# 6 0.0000 0.0000 0.0000 -5.5413 0.0000 2.2230
#
#
#
# Elastic Compliance Matrix: (Units=1/GPa)
#
#
# Indices 1 2 3 4 5 6 
#
# 1 0.027235 0.000654 -0.010572 0.000000 -0.040947 0.000000
# 2 0.000654 0.022755 0.002410 0.000000 -0.003409 0.000000
# 3 -0.010572 0.002410 0.015021 0.000000 0.015112 0.000000
# 4 0.000000 0.000000 0.000000 1.050170 0.000000 2.617765
# 5 -0.040947 -0.003409 0.015112 0.000000 0.115805 0.000000
# 6 0.000000 0.000000 0.000000 2.617765 0.000000 6.975161
#
#
# Mechanical properties :
#
#
# Convention : Reuss Voigt Hill
#
# Bulk Modulus (GPa) = 20.00169 31.45954 25.73062
# Shear Modulus (GPa) = 0.60696 21.03907 10.82301
#
# Velocity S-wave (km/s) = 0.55671 3.27767 2.35085
# Velocity P-wave (km/s) = 3.25985 5.51255 4.52851
#
# Compressibility (1/GPa) = 0.04999577
#
# Stress axis : x y z
#
# Youngs Moduli (GPa) = 36.71722 43.94580 66.57543
#
# Poissons Ratio (x) = -0.02873 0.70381
# Poissons Ratio (y) = -0.02400 -0.16047
# Poissons Ratio (z) = 0.38816 -0.10592
#
# Static dielectric constant tensor:
#      x y z
#    x 1.706460 0.000000 0.032850 
#    y 0.000000 1.729690 0.000000 
#    z 0.032850 0.000000 1.665350 
# 
# From -- ./inp_files/51618.got.cif
#   From: 2010.05.17/outbox.cif.g08.bks.cpg/sg11_26_cif.got.tgz:51618.got - 2010.06.03 12:22:45.
