data_PCOD9156157
_publ_section_title
;
Structure prediction by ZEFSAII (Michael W. Deem and Ramdas Pophale) SiO2 
 PCOD9156157
Probable space group: P 21/M
;
_chemical_formula_sum "Si O2"
_cell_formula_units_Z 28
_cell_length_a 6.264239
_cell_length_b 19.239921
_cell_length_c 16.646105
_cell_angle_alpha 90.000000
_cell_angle_beta 46.006951
_cell_angle_gamma 90.000000
_cell_volume 1443.341826
_symmetry_space_group_name_H-M "P 21/M"
_symmetry_group_IT_number 11
_symmetry_cell_setting 'monoclinic'
loop_
_space_group_symop_operation_xyz
x,y,z
-x,1/2+y,-z
-x,-y,-z
x,1/2-y,z
loop_
_atom_site_type_symbol
_atom_site_label
_atom_site_fract_x
_atom_site_fract_y
_atom_site_fract_z
Si Si1 0.493152 0.044428 0.130251
Si Si2 0.973910 0.065223 0.595523
Si Si3 0.837425 0.432279 0.366349
Si Si4 0.094046 0.327185 0.705348
Si Si5 0.255185 0.916629 0.101570
Si Si6 0.777600 0.330860 0.520296
Si Si7 0.338362 0.991381 0.749810
O O1 0.692814 0.048475 0.157461
O O2 0.172038 0.069657 0.244285
O O3 0.459169 0.964475 0.106671
O O4 0.607096 0.084555 0.022568
O O5 0.986921 0.116420 0.515547
O O6 0.029155 0.115523 0.655632
O O7 0.642849 0.033816 0.677846
O O8 0.166611 0.997082 0.569100
O O9 0.759561 0.363621 0.435923
O O10 0.650574 0.447343 0.334979
O O11 0.059012 0.250000 0.681202
O O12 0.438048 0.333588 0.642053
O O13 0.849308 0.343304 0.836702
O O14 0.946162 0.959403 0.181517
O O15 0.869827 0.250000 0.497426
#
# Coordination Sequence:
#
# PCOD9156157 Si02
#       7
#     4   4   4   4   4   4   4
#     4   9  19  32  58  83 108 140 182 228 279 314
#     4  11  19  37  57  84 109 141 188 234 279 327
#     4  10  21  36  56  86 109 141 190 234 273 329
#     4  11  22  36  54  82 115 147 182 229 285 339
#     4  10  17  35  53  83 113 138 182 227 268 334
#     4  11  24  39  55  77 113 153 184 226 284 340
#     4  10  17  33  56  84 110 140 177 232 279 320
#
# _framework density 19.399422999999999
#
# number of rings (size 3 to 8) (size 9 to 14) (size 15 to 20)
#    0.000    1.714    5.714    1.286    0.000    4.571 
#    0.000    0.714    0.000    0.857    0.000    0.000 
#    0.000    0.000    0.000    0.000    0.000    0.000 
#
# Total GULP energy -156100.872233 kJ/mol
# GULP energy per Si atom -5575.031151 kJ/mol
# Density = 1.935527 g / cm^3
# Si number density = 19.399423 Si / 1000 Ang^3
#
#
#
# Elastic Constant Matrix: (Units=GPa)
#
#
# Indices 1 2 3 4 5 6 
#
# 1 77.3111 18.4494 13.9005 0.0000 17.4188 0.0000
# 2 18.4494 80.7091 28.8722 0.0000 8.9323 0.0000
# 3 13.9005 28.8722 87.8839 0.0000 14.8332 0.0000
# 4 0.0000 0.0000 0.0000 23.2803 0.0000 -2.1289
# 5 17.4188 8.9323 14.8332 0.0000 30.0738 0.0000
# 6 0.0000 0.0000 0.0000 -2.1289 0.0000 15.3351
#
#
#
# Elastic Compliance Matrix: (Units=1/GPa)
#
#
# Indices 1 2 3 4 5 6 
#
# 1 0.015397 -0.002543 -0.000242 0.000000 -0.008043 0.000000
# 2 -0.002543 0.014579 -0.004260 0.000000 -0.000756 0.000000
# 3 -0.000242 -0.004260 0.013721 0.000000 -0.005362 0.000000
# 4 0.000000 0.000000 0.000000 0.043507 0.000000 0.006040
# 5 -0.008043 -0.000756 -0.005362 0.000000 0.040780 0.000000
# 6 0.000000 0.000000 0.000000 0.006040 0.000000 0.066048
#
#
# Mechanical properties :
#
#
# Convention : Reuss Voigt Hill
#
# Bulk Modulus (GPa) = 33.77475 40.92759 37.35117
# Shear Modulus (GPa) = 22.93661 26.04999 24.49330
#
# Velocity S-wave (km/s) = 3.44224 3.66843 3.55713
# Velocity P-wave (km/s) = 5.76599 6.25190 6.01386
#
# Compressibility (1/GPa) = 0.02960791
#
# Stress axis : x y z
#
# Youngs Moduli (GPa) = 64.94604 68.59192 72.87851
#
# Poissons Ratio (x) = 0.17442 0.01767
# Poissons Ratio (y) = 0.16514 0.31044
# Poissons Ratio (z) = 0.01574 0.29218
#
# Static dielectric constant tensor:
#      x y z
#    x 1.740880 0.000000 0.009460 
#    y 0.000000 1.673350 0.000000 
#    z 0.009460 0.000000 1.725160 
# 
# From -- ./inp_files/45873.got.cif
#   From: 2010.05.17/outbox.cif.g08.bks.cpg/sg11_23_cif.got.tgz:45873.got - 2010.06.03 12:22:45.
