data_PCOD9156617
_publ_section_title
;
Structure prediction by ZEFSAII (Michael W. Deem and Ramdas Pophale) SiO2 
 PCOD9156617
Probable space group: P 21/M
;
_chemical_formula_sum "Si O2"
_cell_formula_units_Z 32
_cell_length_a 19.172440
_cell_length_b 13.722460
_cell_length_c 11.926066
_cell_angle_alpha 90.000000
_cell_angle_beta 152.954504
_cell_angle_gamma 90.000000
_cell_volume 1426.689563
_symmetry_space_group_name_H-M "P 21/M"
_symmetry_group_IT_number 11
_symmetry_cell_setting 'monoclinic'
loop_
_space_group_symop_operation_xyz
x,y,z
-x,1/2+y,-z
-x,-y,-z
x,1/2-y,z
loop_
_atom_site_type_symbol
_atom_site_label
_atom_site_fract_x
_atom_site_fract_y
_atom_site_fract_z
Si Si1 0.735250 0.501943 0.282953
Si Si2 0.965236 0.069491 0.218742
Si Si3 0.910450 0.863541 0.060525
Si Si4 0.067038 0.858577 0.588051
Si Si5 0.262033 0.864236 0.509381
Si Si6 0.712874 0.367229 0.703788
Si Si7 0.587147 0.635044 0.629465
Si Si8 0.695969 0.639007 0.042519
O O1 0.835636 0.434486 0.343035
O O2 0.684588 0.429938 0.309594
O O3 0.638380 0.565427 0.056208
O O4 0.851675 0.576765 0.512322
O O5 0.899480 0.122762 0.233156
O O6 0.880361 0.105959 0.987505
O O7 0.933616 0.954018 0.176714
O O8 0.901500 0.750000 0.088332
O O9 0.737622 0.887615 0.769349
O O10 0.073336 0.868354 0.230045
O O11 0.110997 0.750000 0.616016
O O12 0.882348 0.866057 0.314279
O O13 0.297971 0.750000 0.579147
O O14 0.318516 0.898340 0.468498
O O15 0.704100 0.250000 0.688013
O O16 0.585548 0.406735 0.610137
O O17 0.564122 0.750000 0.574566
O O18 0.643040 0.622664 0.839028
O O19 0.651922 0.750000 0.006865
#
# Coordination Sequence:
#
# PCOD9156617 Si02
#       8
#     4   4   4   4   4   4   4   4
#     4  10  18  29  48  73 100 128 164 206 247 292
#     4  10  19  31  50  74 101 129 162 204 253 295
#     4   9  17  30  49  71  95 126 166 204 236 280
#     4  10  18  29  48  75 103 128 160 208 255 291
#     4   9  18  33  52  73  98 131 167 203 246 295
#     4  10  21  35  50  72 103 133 163 202 249 300
#     4   9  17  31  50  71  98 132 168 204 241 288
#     4   9  16  27  45  69  97 128 164 204 244 287
#
# _framework density 22.429545999999998
#
# number of rings (size 3 to 8) (size 9 to 14) (size 15 to 20)
#    0.000    2.500    0.000    4.500    0.000    6.500 
#    0.000    0.625    0.000    0.750    0.000    2.625 
#    0.000   16.000    0.000    0.000    0.000    0.000 
#
# Total GULP energy -178154.322115 kJ/mol
# GULP energy per Si atom -5567.322566 kJ/mol
# Density = 2.237850 g / cm^3
# Si number density = 22.429546 Si / 1000 Ang^3
#
#
#
# Elastic Constant Matrix: (Units=GPa)
#
#
# Indices 1 2 3 4 5 6 
#
# 1 56.9974 16.2696 2.9976 0.0000 8.2543 0.0000
# 2 16.2696 51.9431 7.4352 0.0000 1.5098 0.0000
# 3 2.9976 7.4352 29.3911 0.0000 5.4969 0.0000
# 4 0.0000 0.0000 0.0000 2.5187 0.0000 -7.8596
# 5 8.2543 1.5098 5.4969 0.0000 38.4696 0.0000
# 6 0.0000 0.0000 0.0000 -7.8596 0.0000 16.8624
#
#
#
# Elastic Compliance Matrix: (Units=1/GPa)
#
#
# Indices 1 2 3 4 5 6 
#
# 1 0.019873 -0.006148 0.000288 0.000000 -0.004064 0.000000
# 2 -0.006148 0.021877 -0.005131 0.000000 0.001194 0.000000
# 3 0.000288 -0.005131 0.036235 0.000000 -0.005038 0.000000
# 4 0.000000 0.000000 0.000000 -0.873604 0.000000 -0.407189
# 5 -0.004064 0.001194 -0.005038 0.000000 0.027540 0.000000
# 6 0.000000 0.000000 0.000000 -0.407189 0.000000 -0.130488
#
#
# Mechanical properties :
#
#
# Convention : Reuss Voigt Hill
#
# Bulk Modulus (GPa) = 17.85558 21.30405 19.57982
# Shear Modulus (GPa) = -5.82805 19.01208 6.59201
#
# Velocity S-wave (km/s) = -1.61370 2.91458 1.71621
# Velocity P-wave (km/s) = 2.12273 4.56565 3.56028
#
# Compressibility (1/GPa) = 0.05600489
#
# Stress axis : x y z
#
# Youngs Moduli (GPa) = 50.31979 45.70979 27.59789
#
# Poissons Ratio (x) = 0.28101 -0.00796
# Poissons Ratio (y) = 0.30935 0.14159
# Poissons Ratio (z) = -0.01451 0.23452
#
# Static dielectric constant tensor:
#      x y z
#    x 1.849940 0.000000 0.050340 
#    y 0.000000 1.867400 0.000000 
#    z 0.050340 0.000000 1.927740 
# 
# From -- ./inp_files/35512.got.cif
#   From: 2010.05.17/outbox.cif.g08.bks.cpg/sg11_18_cif.got.tgz:35512.got - 2010.06.03 12:22:45.
