data_PCOD9156779
_publ_section_title
;
Structure prediction by ZEFSAII (Michael W. Deem and Ramdas Pophale) SiO2 
 PCOD9156779
Probable space group: P 21/M
;
_chemical_formula_sum "Si O2"
_cell_formula_units_Z 24
_cell_length_a 12.227527
_cell_length_b 8.962271
_cell_length_c 24.569620
_cell_angle_alpha 90.000000
_cell_angle_beta 32.419798
_cell_angle_gamma 90.000000
_cell_volume 1443.497200
_symmetry_space_group_name_H-M "P 21/M"
_symmetry_group_IT_number 11
_symmetry_cell_setting 'monoclinic'
loop_
_space_group_symop_operation_xyz
x,y,z
-x,1/2+y,-z
-x,-y,-z
x,1/2-y,z
loop_
_atom_site_type_symbol
_atom_site_label
_atom_site_fract_x
_atom_site_fract_y
_atom_site_fract_z
Si Si1 0.640933 0.071582 0.224485
Si Si2 0.014005 0.071644 0.861608
Si Si3 0.178386 0.072007 0.389898
Si Si4 0.286486 0.569849 0.109708
Si Si5 0.255174 0.077402 0.931690
Si Si6 0.733913 0.422281 0.758989
O O1 0.658709 0.250000 0.217502
O O2 0.401796 0.031583 0.320457
O O3 0.764592 0.000850 0.222461
O O4 0.742703 0.005845 0.126831
O O5 0.028284 0.250000 0.859981
O O6 0.893774 0.034049 0.856791
O O7 0.875834 0.006360 0.968238
O O8 0.161920 0.250000 0.397673
O O9 0.174560 0.014642 0.329313
O O10 0.000000 0.000000 0.500000
O O11 0.312163 0.750000 0.099993
O O12 0.232006 0.521891 0.193998
O O13 0.500000 0.500000 0.000000
O O14 0.189990 0.250000 0.953065
O O15 0.489528 0.076729 0.853176
O O16 0.802960 0.250000 0.725830
#
# Coordination Sequence:
#
# PCOD9156779 Si02
#       6
#     4   4   4   4   4   4
#     4  10  21  35  50  72 102 133 170 211 258 311
#     4  11  21  31  47  72 105 142 176 210 250 298
#     4  10  21  37  59  82 101 127 164 215 269 315
#     4  10  20  33  50  74 106 144 181 214 249 296
#     4  10  18  30  49  71 101 139 175 211 253 301
#     4   9  18  33  52  76 105 137 173 213 256 302
#
# _framework density 16.626287999999999
#
# number of rings (size 3 to 8) (size 9 to 14) (size 15 to 20)
#    0.000    2.000    1.667    2.500    0.000    4.000 
#    0.000    0.000    0.000    1.000    0.000    0.000 
#    0.000    0.000    0.000    0.000    0.000    0.000 
#
# Total GULP energy -133935.833064 kJ/mol
# GULP energy per Si atom -5580.659711 kJ/mol
# Density = 1.658845 g / cm^3
# Si number density = 16.626288 Si / 1000 Ang^3
#
#
#
# Elastic Constant Matrix: (Units=GPa)
#
#
# Indices 1 2 3 4 5 6 
#
# 1 151.0127 56.0304 66.3493 0.0000 3.8770 0.0000
# 2 56.0304 62.2076 42.4153 0.0000 0.1064 0.0000
# 3 66.3493 42.4153 101.6442 0.0000 10.9381 0.0000
# 4 0.0000 0.0000 0.0000 27.6676 0.0000 -0.9097
# 5 3.8770 0.1064 10.9381 0.0000 11.8102 0.0000
# 6 0.0000 0.0000 0.0000 -0.9097 0.0000 25.1822
#
#
#
# Elastic Compliance Matrix: (Units=1/GPa)
#
#
# Indices 1 2 3 4 5 6 
#
# 1 0.011156 -0.007058 -0.004387 0.000000 0.000464 0.000000
# 2 -0.007058 0.027918 -0.008069 0.000000 0.009539 0.000000
# 3 -0.004387 -0.008069 0.017667 0.000000 -0.014850 0.000000
# 4 0.000000 0.000000 0.000000 0.036186 0.000000 0.001307
# 5 0.000464 0.009539 -0.014850 0.000000 0.098187 0.000000
# 6 0.000000 0.000000 0.000000 0.001307 0.000000 0.039758
#
#
# Mechanical properties :
#
#
# Convention : Reuss Voigt Hill
#
# Bulk Modulus (GPa) = 56.45656 71.60606 64.03131
# Shear Modulus (GPa) = 18.12872 22.93662 20.53267
#
# Velocity S-wave (km/s) = 3.30565 3.71824 3.51800
# Velocity P-wave (km/s) = 6.97135 7.84827 7.42277
#
# Compressibility (1/GPa) = 0.01771273
#
# Stress axis : x y z
#
# Youngs Moduli (GPa) = 89.63530 35.81929 56.60208
#
# Poissons Ratio (x) = 0.25281 0.24832
# Poissons Ratio (y) = 0.63265 0.45673
# Poissons Ratio (z) = 0.39324 0.28903
#
# Static dielectric constant tensor:
#      x y z
#    x 1.589900 0.000000 -0.019610 
#    y 0.000000 1.560170 0.000000 
#    z -0.019610 0.000000 1.532970 
# 
# From -- ./inp_files/36971.got.cif
#   From: 2010.05.17/outbox.cif.g08.bks.cpg/sg11_19_cif.got.tgz:36971.got - 2010.06.03 12:22:45.
