data_PCOD9156344
_publ_section_title
;
Structure prediction by ZEFSAII (Michael W. Deem and Ramdas Pophale) SiO2 
 PCOD9156344
Probable space group: P 21/M
;
_chemical_formula_sum "Si O2"
_cell_formula_units_Z 32
_cell_length_a 19.919462
_cell_length_b 8.951426
_cell_length_c 29.861625
_cell_angle_alpha 90.000000
_cell_angle_beta 156.280021
_cell_angle_gamma 90.000000
_cell_volume 2141.892750
_symmetry_space_group_name_H-M "P 21/M"
_symmetry_group_IT_number 11
_symmetry_cell_setting 'monoclinic'
loop_
_space_group_symop_operation_xyz
x,y,z
-x,1/2+y,-z
-x,-y,-z
x,1/2-y,z
loop_
_atom_site_type_symbol
_atom_site_label
_atom_site_fract_x
_atom_site_fract_y
_atom_site_fract_z
Si Si1 0.896619 0.071425 0.075496
Si Si2 0.387893 0.924277 0.321727
Si Si3 0.780414 0.424604 0.685169
Si Si4 0.263642 0.070768 0.434999
Si Si5 0.064123 0.428261 0.084741
Si Si6 0.663148 0.571588 0.000790
Si Si7 0.090466 0.071733 0.764624
Si Si8 0.601386 0.571178 0.103228
O O1 0.882820 0.250000 0.070057
O O2 0.944894 0.029737 0.054059
O O3 0.053445 0.014236 0.200319
O O4 0.736984 0.994222 0.000182
O O5 0.372928 0.750000 0.299630
O O6 0.336725 0.934277 0.342948
O O7 0.581168 0.970715 0.438190
O O8 0.250152 0.016514 0.210770
O O9 0.821058 0.250000 0.702620
O O10 0.708920 0.494872 0.596553
O O11 0.265341 0.250000 0.431209
O O12 0.082979 0.014929 0.340569
O O13 0.063224 0.250000 0.080800
O O14 0.000000 0.500000 0.000000
O O15 0.649445 0.750000 0.990694
O O16 0.487450 0.499413 0.908018
O O17 0.797156 0.535846 0.122600
O O18 0.059356 0.250000 0.747075
O O19 0.206786 0.039332 0.792526
O O20 0.580289 0.750000 0.090300
O O21 0.500000 0.500000 0.000000
#
# Coordination Sequence:
#
# PCOD9156344 Si02
#       8
#     4   4   4   4   4   4   4   4
#     4  10  19  30  46  68  90 116 153 188 224 271
#     4   9  20  34  46  64  88 117 152 189 226 267
#     4  10  18  29  43  59  87 121 152 188 226 261
#     4  11  20  28  42  63  89 121 156 190 223 261
#     4  10  21  36  54  72  90 116 147 186 234 279
#     4  10  18  28  43  63  88 118 153 190 230 267
#     4   9  18  29  40  58  86 122 158 188 226 264
#     4   9  17  28  41  57  82 117 157 194 227 264
#
# _framework density 14.940056999999999
#
# number of rings (size 3 to 8) (size 9 to 14) (size 15 to 20)
#    0.000    2.250    1.250    3.375    0.000    5.500 
#    0.000    0.000    0.000    0.000    0.000    0.000 
#    0.000    1.000    0.000    3.250    0.000    4.000 
#
# Total GULP energy -178357.329300 kJ/mol
# GULP energy per Si atom -5573.666541 kJ/mol
# Density = 1.490605 g / cm^3
# Si number density = 14.940057 Si / 1000 Ang^3
#
#
#
# Elastic Constant Matrix: (Units=GPa)
#
#
# Indices 1 2 3 4 5 6 
#
# 1 73.4269 41.4443 49.4293 0.0000 2.8522 0.0000
# 2 41.4443 56.7980 37.8638 0.0000 2.6569 0.0000
# 3 49.4293 37.8638 69.8873 0.0000 2.0883 0.0000
# 4 0.0000 0.0000 0.0000 20.3977 0.0000 2.7387
# 5 2.8522 2.6569 2.0883 0.0000 18.1494 0.0000
# 6 0.0000 0.0000 0.0000 2.7387 0.0000 25.0770
#
#
#
# Elastic Compliance Matrix: (Units=1/GPa)
#
#
# Indices 1 2 3 4 5 6 
#
# 1 0.030761 -0.012378 -0.015012 0.000000 -0.001295 0.000000
# 2 -0.012378 0.032639 -0.008875 0.000000 -0.001812 0.000000
# 3 -0.015012 -0.008875 0.029727 0.000000 0.000238 0.000000
# 4 0.000000 0.000000 0.000000 0.049755 0.000000 -0.005434
# 5 -0.001295 -0.001812 0.000238 0.000000 0.055540 0.000000
# 6 0.000000 0.000000 0.000000 -0.005434 0.000000 0.040471
#
#
# Mechanical properties :
#
#
# Convention : Reuss Voigt Hill
#
# Bulk Modulus (GPa) = 48.54615 50.84299 49.69457
# Shear Modulus (GPa) = 15.70907 17.48314 16.59611
#
# Velocity S-wave (km/s) = 3.24616 3.42456 3.33655
# Velocity P-wave (km/s) = 6.82749 7.05280 6.94106
#
# Compressibility (1/GPa) = 0.02059896
#
# Stress axis : x y z
#
# Youngs Moduli (GPa) = 32.50834 30.63815 33.63924
#
# Poissons Ratio (x) = 0.37924 0.50499
# Poissons Ratio (y) = 0.40238 0.29854
# Poissons Ratio (z) = 0.48801 0.27190
#
# Static dielectric constant tensor:
#      x y z
#    x 1.524900 0.000000 0.035380 
#    y 0.000000 1.494190 0.000000 
#    z 0.035380 0.000000 1.478330 
# 
# From -- ./inp_files/52922.got.cif
#   From: 2010.05.17/outbox.cif.g08.bks.cpg/sg11_27_cif.got.tgz:52922.got - 2010.06.03 12:22:45.
