data_PCOD9156121
_publ_section_title
;
Structure prediction by ZEFSAII (Michael W. Deem and Ramdas Pophale) SiO2 
 PCOD9156121
Probable space group: P 21/M
;
_chemical_formula_sum "Si O2"
_cell_formula_units_Z 18
_cell_length_a 9.546371
_cell_length_b 10.451983
_cell_length_c 9.313881
_cell_angle_alpha 90.000000
_cell_angle_beta 56.249587
_cell_angle_gamma 90.000000
_cell_volume 772.701896
_symmetry_space_group_name_H-M "P 21/M"
_symmetry_group_IT_number 11
_symmetry_cell_setting 'monoclinic'
loop_
_space_group_symop_operation_xyz
x,y,z
-x,1/2+y,-z
-x,-y,-z
x,1/2-y,z
loop_
_atom_site_type_symbol
_atom_site_label
_atom_site_fract_x
_atom_site_fract_y
_atom_site_fract_z
Si Si1 0.630483 0.250000 0.874265
Si Si2 0.199598 0.750000 0.922175
Si Si3 0.223832 0.250000 0.034684
Si Si4 0.176252 0.250000 0.360412
Si Si5 0.400812 0.500254 0.211068
Si Si6 0.720897 0.970253 0.211623
Si Si7 0.134729 0.250000 0.696761
O O1 0.660989 0.250000 0.027891
O O2 0.706858 0.373554 0.754620
O O3 0.427260 0.250000 0.954334
O O4 0.028241 0.750000 0.110012
O O5 0.216032 0.616407 0.827458
O O6 0.104990 0.250000 0.240446
O O7 0.199408 0.381118 0.960780
O O8 0.292543 0.375751 0.293501
O O9 0.081437 0.250000 0.562982
O O10 0.527410 0.519784 0.271136
O O11 0.500000 0.500000 0.000000
O O12 0.758565 0.878162 0.324570
#
# Coordination Sequence:
#
# PCOD9156121 Si02
#       7
#     2   2   2   2   4   4   2
#     4  10  17  31  60  95 102 130 202 247 259 316
#     4  12  19  37  60  76 110 161 206 212 251 351
#     4   9  16  35  63  89 106 133 190 251 288 310
#     4  12  20  36  56  89 122 137 174 237 299 332
#     4  11  17  34  65  93 101 136 193 246 283 319
#     4  10  20  38  61  82 107 149 201 229 265 335
#     4  11  28  37  47  83 128 159 172 221 289 333
#
# _framework density 23.294882999999999
#
# number of rings (size 3 to 8) (size 9 to 14) (size 15 to 20)
#    0.000    1.333    6.667    2.000    0.000    0.889 
#    0.000    5.556    0.000    0.000    0.000    0.000 
#    0.000    0.000    0.000    0.000    0.000    0.000 
#
# Total GULP energy -100402.838488 kJ/mol
# GULP energy per Si atom -5577.935472 kJ/mol
# Density = 2.324186 g / cm^3
# Si number density = 23.294883 Si / 1000 Ang^3
#
#
#
# Elastic Constant Matrix: (Units=GPa)
#
#
# Indices 1 2 3 4 5 6 
#
# 1 56.7656 14.5254 5.5878 0.0000 2.3659 0.0000
# 2 14.5254 229.8593 29.4766 0.0000 0.5709 0.0000
# 3 5.5878 29.4766 45.2215 0.0000 15.7507 0.0000
# 4 0.0000 0.0000 0.0000 10.3737 0.0000 0.3433
# 5 2.3659 0.5709 15.7507 0.0000 16.0837 0.0000
# 6 0.0000 0.0000 0.0000 0.3433 0.0000 10.1069
#
#
#
# Elastic Compliance Matrix: (Units=1/GPa)
#
#
# Indices 1 2 3 4 5 6 
#
# 1 0.018041 -0.001007 -0.001003 0.000000 -0.001636 0.000000
# 2 -0.001007 0.005012 -0.004754 0.000000 0.004626 0.000000
# 3 -0.001003 -0.004754 0.038284 0.000000 -0.037175 0.000000
# 4 0.000000 0.000000 0.000000 0.096506 0.000000 -0.003278
# 5 -0.001636 0.004626 -0.037175 0.000000 0.098656 0.000000
# 6 0.000000 0.000000 0.000000 -0.003278 0.000000 0.099054
#
#
# Mechanical properties :
#
#
# Convention : Reuss Voigt Hill
#
# Bulk Modulus (GPa) = 20.91634 47.89179 34.40406
# Shear Modulus (GPa) = 12.98641 26.12997 19.55819
#
# Velocity S-wave (km/s) = 2.36366 3.35282 2.90071
# Velocity P-wave (km/s) = 4.05557 5.96591 5.10097
#
# Compressibility (1/GPa) = 0.04780952
#
# Stress axis : x y z
#
# Youngs Moduli (GPa) = 55.42941 199.51036 26.12059
#
# Poissons Ratio (x) = 0.20099 0.02619
# Poissons Ratio (y) = 0.05584 0.12417
# Poissons Ratio (z) = 0.05558 0.94842
#
# Static dielectric constant tensor:
#      x y z
#    x 1.959120 0.000000 0.023070 
#    y 0.000000 2.020020 0.000000 
#    z 0.023070 0.000000 1.915690 
# 
# From -- ./inp_files/11901.got.cif
#   From: 2010.05.17/outbox.cif.g08.bks.cpg/sg11_6_cif.got.tgz:11901.got - 2010.06.03 12:22:45.
