data_PCOD9156729
_publ_section_title
;
Structure prediction by ZEFSAII (Michael W. Deem and Ramdas Pophale) SiO2 
 PCOD9156729
Probable space group: P 21/M
;
_chemical_formula_sum "Si O2"
_cell_formula_units_Z 28
_cell_length_a 14.136522
_cell_length_b 7.317503
_cell_length_c 13.618406
_cell_angle_alpha 90.000000
_cell_angle_beta 58.733304
_cell_angle_gamma 90.000000
_cell_volume 1204.138071
_symmetry_space_group_name_H-M "P 21/M"
_symmetry_group_IT_number 11
_symmetry_cell_setting 'monoclinic'
loop_
_space_group_symop_operation_xyz
x,y,z
-x,1/2+y,-z
-x,-y,-z
x,1/2-y,z
loop_
_atom_site_type_symbol
_atom_site_label
_atom_site_fract_x
_atom_site_fract_y
_atom_site_fract_z
Si Si1 0.163218 0.030131 0.960969
Si Si2 0.031920 0.026710 0.227038
Si Si3 0.241043 0.026710 0.227038
Si Si4 0.188335 0.542249 0.731518
Si Si5 0.419853 0.042249 0.268482
Si Si6 0.375813 0.469869 0.960969
Si Si7 0.432520 0.532005 0.634960
O O1 0.157192 0.250000 0.958962
O O2 0.289074 0.979432 0.921851
O O3 0.135545 0.954928 0.869387
O O4 0.090461 0.971683 0.092993
O O5 0.029959 0.250000 0.228109
O O6 0.115847 0.971029 0.268307
O O7 0.905297 0.962975 0.289505
O O8 0.241932 0.250000 0.228109
O O9 0.305198 0.962975 0.289505
O O10 0.316546 0.971684 0.092993
O O11 0.207516 0.750000 0.687697
O O12 0.308827 0.457198 0.683576
O O13 0.395213 0.250000 0.312303
O O14 0.492404 0.957198 0.316424
O O15 0.504932 0.045072 0.130613
O O16 0.383847 0.250000 0.958961
O O17 0.500000 0.500000 0.500000
O O18 0.419830 0.750000 0.660339
#
# Coordination Sequence:
#
# PCOD9156729 Si02
#       7
#     4   4   4   4   4   4   4
#     4   9  16  26  42  67  98 130 157 178 216 276
#     4   8  15  27  44  68  97 127 155 181 216 273
#     4   8  15  27  44  68  97 127 155 181 216 273
#     4  10  18  30  48  68  92 119 154 198 233 267
#     4  10  18  30  48  68  92 119 154 198 233 267
#     4   9  16  26  42  67  98 130 157 178 216 276
#     4  10  22  36  50  70  90 116 156 202 249 282
#
# _framework density 23.253146999999998
#
# number of rings (size 3 to 8) (size 9 to 14) (size 15 to 20)
#    0.000    2.857    1.429    2.571    0.000    1.143 
#    0.000    0.000    0.000    1.714    0.000    0.000 
#    0.000    0.000    0.000    0.000    0.000    0.000 
#
# Total GULP energy -156226.878819 kJ/mol
# GULP energy per Si atom -5579.531386 kJ/mol
# Density = 2.320022 g / cm^3
# Si number density = 23.253147 Si / 1000 Ang^3
#
#
#
# Elastic Constant Matrix: (Units=GPa)
#
#
# Indices 1 2 3 4 5 6 
#
# 1 283.9224 8.6044 46.9064 0.0000 -19.0999 0.0000
# 2 8.6044 96.9430 -0.4998 0.0000 -0.8245 0.0000
# 3 46.9064 -0.4998 27.8093 0.0000 -4.0949 0.0000
# 4 0.0000 0.0000 0.0000 10.2434 0.0000 1.3191
# 5 -19.0999 -0.8245 -4.0949 0.0000 14.4175 0.0000
# 6 0.0000 0.0000 0.0000 1.3191 0.0000 -4.3219
#
#
#
# Elastic Compliance Matrix: (Units=1/GPa)
#
#
# Indices 1 2 3 4 5 6 
#
# 1 0.005174 -0.000462 -0.008068 0.000000 0.004537 0.000000
# 2 -0.000462 0.010364 0.001005 0.000000 0.000266 0.000000
# 3 -0.008068 0.001005 0.050116 0.000000 0.003604 0.000000
# 4 0.000000 0.000000 0.000000 0.093932 0.000000 0.028668
# 5 0.004537 0.000266 0.003604 0.000000 0.076409 0.000000
# 6 0.000000 0.000000 0.000000 0.028668 0.000000 -0.222631
#
#
# Mechanical properties :
#
#
# Convention : Reuss Voigt Hill
#
# Bulk Modulus (GPa) = 19.76121 57.63294 38.69708
# Shear Modulus (GPa) = 110.41943 27.64538 69.03241
#
# Velocity S-wave (km/s) = 6.89847 3.45177 5.45452
# Velocity P-wave (km/s) = 8.48343 6.38162 7.50645
#
# Compressibility (1/GPa) = 0.05060418
#
# Stress axis : x y z
#
# Youngs Moduli (GPa) = 193.26947 96.48960 19.95384
#
# Poissons Ratio (x) = 0.04460 0.16098
# Poissons Ratio (y) = 0.08934 -0.02006
# Poissons Ratio (z) = 1.55921 -0.09698
#
# Static dielectric constant tensor:
#      x y z
#    x 1.953800 0.000000 -0.012590 
#    y 0.000000 1.858810 0.000000 
#    z -0.012590 0.000000 1.814780 
# 
# From -- ./inp_files/51103.got.cif
#   From: 2010.05.17/outbox.cif.g08.bks.cpg/sg11_26_cif.got.tgz:51103.got - 2010.06.03 12:22:45.
