data_PCOD9156552
_publ_section_title
;
Structure prediction by ZEFSAII (Michael W. Deem and Ramdas Pophale) SiO2 
 PCOD9156552
Probable space group: P 21/M
;
_chemical_formula_sum "Si O2"
_cell_formula_units_Z 32
_cell_length_a 28.339819
_cell_length_b 8.510776
_cell_length_c 19.965764
_cell_angle_alpha 90.000000
_cell_angle_beta 155.974487
_cell_angle_gamma 90.000000
_cell_volume 1960.647662
_symmetry_space_group_name_H-M "P 21/M"
_symmetry_group_IT_number 11
_symmetry_cell_setting 'monoclinic'
loop_
_space_group_symop_operation_xyz
x,y,z
-x,1/2+y,-z
-x,-y,-z
x,1/2-y,z
loop_
_atom_site_type_symbol
_atom_site_label
_atom_site_fract_x
_atom_site_fract_y
_atom_site_fract_z
Si Si1 0.729644 0.060252 0.820104
Si Si2 0.004280 0.939578 0.811710
Si Si3 0.096143 0.438255 0.176545
Si Si4 0.971382 0.062445 0.625180
Si Si5 0.323790 0.559932 0.402000
Si Si6 0.879847 0.938250 0.375962
Si Si7 0.778969 0.558783 0.110810
Si Si8 0.585285 0.560145 0.757245
O O1 0.725460 0.250000 0.817510
O O2 0.698932 0.012433 0.704628
O O3 0.641886 0.992976 0.760849
O O4 0.861037 0.010178 0.007476
O O5 0.003198 0.750000 0.808444
O O6 0.937921 0.991008 0.792737
O O7 0.952899 0.002642 0.676027
O O8 0.091916 0.250000 0.170020
O O9 0.221250 0.495314 0.314786
O O10 0.000000 0.500000 0.000000
O O11 0.971877 0.250000 0.624671
O O12 0.100639 0.008380 0.768871
O O13 0.880395 0.002963 0.451767
O O14 0.319078 0.750000 0.397901
O O15 0.452330 0.508056 0.589694
O O16 0.882495 0.750000 0.381965
O O17 0.785837 0.986997 0.197985
O O18 0.000000 0.000000 0.500000
O O19 0.778824 0.750000 0.109027
O O20 0.669492 0.503744 0.926073
O O21 0.585308 0.750000 0.758346
#
# Coordination Sequence:
#
# PCOD9156552 Si02
#       8
#     4   4   4   4   4   4   4   4
#     4  10  19  32  47  69 101 130 163 203 244 291
#     4  10  20  33  49  70  97 129 161 202 250 292
#     4  11  22  37  55  72  96 127 167 211 253 297
#     4  10  18  29  46  70  98 126 163 201 240 298
#     4  10  21  36  51  70  99 132 169 209 246 288
#     4   9  16  27  43  65  97 131 163 197 238 292
#     4   8  15  27  43  67  96 127 160 191 232 287
#     4  10  19  32  50  72 100 133 168 203 240 288
#
# _framework density 16.321138000000001
#
# number of rings (size 3 to 8) (size 9 to 14) (size 15 to 20)
#    0.000    2.250    2.500    2.250    0.000    2.000 
#    0.000    0.625    0.000    0.000    0.000    0.875 
#    0.000    0.000    0.000    0.000    0.000    0.000 
#
# Total GULP energy -178422.059847 kJ/mol
# GULP energy per Si atom -5575.689370 kJ/mol
# Density = 1.628399 g / cm^3
# Si number density = 16.321138 Si / 1000 Ang^3
#
#
#
# Elastic Constant Matrix: (Units=GPa)
#
#
# Indices 1 2 3 4 5 6 
#
# 1 136.8833 25.9295 82.7860 0.0000 -15.1463 0.0000
# 2 25.9295 16.7286 19.8240 0.0000 -3.5546 0.0000
# 3 82.7860 19.8240 82.4842 0.0000 -5.2290 0.0000
# 4 0.0000 0.0000 0.0000 15.5750 0.0000 0.4036
# 5 -15.1463 -3.5546 -5.2290 0.0000 32.7717 0.0000
# 6 0.0000 0.0000 0.0000 0.4036 0.0000 25.0167
#
#
#
# Elastic Compliance Matrix: (Units=1/GPa)
#
#
# Indices 1 2 3 4 5 6 
#
# 1 0.020676 -0.009341 -0.018149 0.000000 0.005647 0.000000
# 2 -0.009341 0.088956 -0.011785 0.000000 0.003451 0.000000
# 3 -0.018149 -0.011785 0.032891 0.000000 -0.004418 0.000000
# 4 0.000000 0.000000 0.000000 0.064232 0.000000 -0.001036
# 5 0.005647 0.003451 -0.004418 0.000000 0.032793 0.000000
# 6 0.000000 0.000000 0.000000 -0.001036 0.000000 0.039990
#
#
# Mechanical properties :
#
#
# Convention : Reuss Voigt Hill
#
# Bulk Modulus (GPa) = 15.63165 54.79725 35.21445
# Shear Modulus (GPa) = 13.17826 21.84314 17.51070
#
# Velocity S-wave (km/s) = 2.84462 3.66229 3.27905
# Velocity P-wave (km/s) = 4.51525 7.17847 5.99658
#
# Compressibility (1/GPa) = 0.06397278
#
# Stress axis : x y z
#
# Youngs Moduli (GPa) = 48.36528 11.24150 30.40365
#
# Poissons Ratio (x) = 0.10501 0.55178
# Poissons Ratio (y) = 0.45180 0.35831
# Poissons Ratio (z) = 0.87776 0.13248
#
# Static dielectric constant tensor:
#      x y z
#    x 1.535410 0.000000 -0.027510 
#    y 0.000000 1.556230 0.000000 
#    z -0.027510 0.000000 1.555720 
# 
# From -- ./inp_files/42482.got.cif
#   From: 2010.05.17/outbox.cif.g08.bks.cpg/sg11_22_cif.got.tgz:42482.got - 2010.06.03 12:22:45.
