data_PCOD9156307
_publ_section_title
;
Structure prediction by ZEFSAII (Michael W. Deem and Ramdas Pophale) SiO2 
 PCOD9156307
Probable space group: P 21/M
;
_chemical_formula_sum "Si O2"
_cell_formula_units_Z 30
_cell_length_a 14.292596
_cell_length_b 7.533359
_cell_length_c 13.174981
_cell_angle_alpha 90.000000
_cell_angle_beta 126.713569
_cell_angle_gamma 90.000000
_cell_volume 1137.171475
_symmetry_space_group_name_H-M "P 21/M"
_symmetry_group_IT_number 11
_symmetry_cell_setting 'monoclinic'
loop_
_space_group_symop_operation_xyz
x,y,z
-x,1/2+y,-z
-x,-y,-z
x,1/2-y,z
loop_
_atom_site_type_symbol
_atom_site_label
_atom_site_fract_x
_atom_site_fract_y
_atom_site_fract_z
Si Si1 0.752039 0.543366 0.258793
Si Si2 0.822940 0.750000 0.835421
Si Si3 0.638125 0.044057 0.709389
Si Si4 0.617086 0.035576 0.459569
Si Si5 0.499236 0.038034 0.879039
Si Si6 0.999859 0.947805 0.804896
Si Si7 0.855138 0.044048 0.518317
Si Si8 0.755306 0.454365 0.029230
O O1 0.733531 0.750000 0.224078
O O2 0.631474 0.472735 0.232856
O O3 0.858694 0.532917 0.407282
O O4 0.767073 0.454302 0.160125
O O5 0.731581 0.592396 0.811892
O O6 0.906552 0.905969 0.832393
O O7 0.673989 0.250000 0.731594
O O8 0.624851 0.983505 0.582966
O O9 0.505082 0.032659 0.663770
O O10 0.614292 0.250000 0.453869
O O11 0.736346 0.964988 0.489594
O O12 0.502696 0.250000 0.865269
O O13 0.625964 0.967997 0.927212
O O14 0.500000 0.000000 0.000000
O O15 0.033265 0.750000 0.792020
O O16 0.946776 0.030670 0.668993
O O17 0.119317 0.036717 0.921056
O O18 0.162453 0.750000 0.512016
O O19 0.750252 0.250000 0.988415
#
# Coordination Sequence:
#
# PCOD9156307 Si02
#       8
#     4   2   4   4   4   4   4   4
#     4  10  20  31  47  69  94 125 158 204 245 283
#     4  10  18  32  46  70  96 130 164 202 242 290
#     4  10  18  27  46  67  92 129 164 198 241 292
#     4   9  17  28  42  63  89 124 160 201 240 286
#     4   8  15  29  49  69  88 112 151 203 246 286
#     4   9  19  31  47  65  93 128 155 201 237 280
#     4  11  21  32  46  65  95 134 164 195 239 291
#     4   9  17  33  51  68  88 121 164 201 239 289
#
# _framework density 26.381246000000001
#
# number of rings (size 3 to 8) (size 9 to 14) (size 15 to 20)
#    0.400    2.133    2.000    0.800    0.933    2.667 
#    0.000    0.000    0.000    0.000    0.000    0.000 
#    0.000    1.067    0.800    0.133    0.000    0.267 
#
# Total GULP energy -167028.901735 kJ/mol
# GULP energy per Si atom -5567.630058 kJ/mol
# Density = 2.632120 g / cm^3
# Si number density = 26.381246 Si / 1000 Ang^3
#
#
#
# Elastic Constant Matrix: (Units=GPa)
#
#
# Indices 1 2 3 4 5 6 
#
# 1 110.4820 3.0753 28.9115 0.0000 19.2963 0.0000
# 2 3.0753 97.7196 -5.9128 0.0000 11.9217 0.0000
# 3 28.9115 -5.9128 161.6995 0.0000 10.2469 0.0000
# 4 0.0000 0.0000 0.0000 -1.1173 0.0000 7.1404
# 5 19.2963 11.9217 10.2469 0.0000 37.7748 0.0000
# 6 0.0000 0.0000 0.0000 7.1404 0.0000 19.5812
#
#
#
# Elastic Compliance Matrix: (Units=1/GPa)
#
#
# Indices 1 2 3 4 5 6 
#
# 1 0.010302 0.000182 -0.001524 0.000000 -0.004907 0.000000
# 2 0.000182 0.010706 0.000589 0.000000 -0.003632 0.000000
# 3 -0.001524 0.000589 0.006553 0.000000 -0.001185 0.000000
# 4 0.000000 0.000000 0.000000 -0.268740 0.000000 0.097997
# 5 -0.004907 -0.003632 -0.001185 0.000000 0.030447 0.000000
# 6 0.000000 0.000000 0.000000 0.097997 0.000000 0.015334
#
#
# Mechanical properties :
#
#
# Convention : Reuss Voigt Hill
#
# Bulk Modulus (GPa) = 38.37958 46.89434 42.63696
# Shear Modulus (GPa) = -26.99702 34.16955 3.58626
#
# Velocity S-wave (km/s) = -3.20244 3.60282 1.16720
# Velocity P-wave (km/s) = 0.95156 5.92633 4.24422
#
# Compressibility (1/GPa) = 0.02605553
#
# Stress axis : x y z
#
# Youngs Moduli (GPa) = 97.06814 93.40255 152.59024
#
# Poissons Ratio (x) = -0.01701 0.23261
# Poissons Ratio (y) = -0.01768 -0.08989
# Poissons Ratio (z) = 0.14797 -0.05502
#
# Static dielectric constant tensor:
#      x y z
#    x 2.151660 0.000000 0.016580 
#    y 0.000000 1.936390 0.000000 
#    z 0.016580 0.000000 2.198340 
# 
# From -- ./inp_files/59999.got.cif
#   From: 2010.05.17/outbox.cif.g08.bks.cpg/sg11_30_cif.got.tgz:59999.got - 2010.06.03 12:22:45.
