data_PCOD9156842
_publ_section_title
;
Structure prediction by ZEFSAII (Michael W. Deem and Ramdas Pophale) SiO2 
 PCOD9156842
Probable space group: P 21/M
;
_chemical_formula_sum "Si O2"
_cell_formula_units_Z 28
_cell_length_a 15.255139
_cell_length_b 8.503376
_cell_length_c 19.122812
_cell_angle_alpha 90.000000
_cell_angle_beta 38.386952
_cell_angle_gamma 90.000000
_cell_volume 1540.385538
_symmetry_space_group_name_H-M "P 21/M"
_symmetry_group_IT_number 11
_symmetry_cell_setting 'monoclinic'
loop_
_space_group_symop_operation_xyz
x,y,z
-x,1/2+y,-z
-x,-y,-z
x,1/2-y,z
loop_
_atom_site_type_symbol
_atom_site_label
_atom_site_fract_x
_atom_site_fract_y
_atom_site_fract_z
Si Si1 0.241696 0.565396 0.744828
Si Si2 0.943467 0.064416 0.934457
Si Si3 0.357970 0.439576 0.879956
Si Si4 0.624670 0.561363 0.970030
Si Si5 0.775069 0.934998 0.401399
Si Si6 0.936417 0.560698 0.779740
Si Si7 0.484499 0.935384 0.352337
O O1 0.264767 0.750000 0.740858
O O2 0.242673 0.525447 0.661323
O O3 0.369466 0.469674 0.698655
O O4 0.086452 0.519123 0.870536
O O5 0.959042 0.250000 0.933306
O O6 0.937699 0.016511 0.855942
O O7 0.789933 0.008904 0.055300
O O8 0.341883 0.250000 0.890536
O O9 0.481845 0.479754 0.748788
O O10 0.385292 0.491958 0.942561
O O11 0.616895 0.750000 0.976004
O O12 0.782966 0.519905 0.844928
O O13 0.500000 0.500000 0.000000
O O14 0.785984 0.750000 0.379719
O O15 0.641772 0.971118 0.533023
O O16 0.921364 0.996346 0.343643
O O17 0.944682 0.750000 0.781943
O O18 0.452775 0.750000 0.376144
#
# Coordination Sequence:
#
# PCOD9156842 Si02
#       7
#     4   4   4   4   4   4   4
#     4  11  21  34  51  72 100 134 176 219 255 294
#     4  10  18  30  50  74 100 131 169 212 256 298
#     4   9  20  37  53  72 102 137 169 202 251 310
#     4   9  18  33  56  84 107 128 157 198 248 302
#     4  11  21  34  52  75 102 133 174 216 253 294
#     4   9  17  32  52  75 103 134 168 203 246 297
#     4  11  22  36  52  70  98 137 176 214 254 296
#
# _framework density 18.177268000000002
#
# number of rings (size 3 to 8) (size 9 to 14) (size 15 to 20)
#    0.000    2.000    0.000    7.714    0.000    4.571 
#    0.000    0.000    0.000    0.857    0.000    0.000 
#    0.000    0.000    0.000    0.000    0.000    0.000 
#
# Total GULP energy -156270.839999 kJ/mol
# GULP energy per Si atom -5581.101429 kJ/mol
# Density = 1.813590 g / cm^3
# Si number density = 18.177268 Si / 1000 Ang^3
#
#
#
# Elastic Constant Matrix: (Units=GPa)
#
#
# Indices 1 2 3 4 5 6 
#
# 1 92.6659 -5.9928 26.9965 0.0000 -15.8659 0.0000
# 2 -5.9928 27.1034 -3.7223 0.0000 4.8470 0.0000
# 3 26.9965 -3.7223 73.7688 0.0000 -6.9545 0.0000
# 4 0.0000 0.0000 0.0000 21.0929 0.0000 -11.2516
# 5 -15.8659 4.8470 -6.9545 0.0000 18.8921 0.0000
# 6 0.0000 0.0000 0.0000 -11.2516 0.0000 24.2620
#
#
#
# Elastic Compliance Matrix: (Units=1/GPa)
#
#
# Indices 1 2 3 4 5 6 
#
# 1 0.013701 0.000715 -0.004051 0.000000 0.009832 0.000000
# 2 0.000715 0.038786 0.000843 0.000000 -0.009040 0.000000
# 3 -0.004051 0.000843 0.015270 0.000000 0.002002 0.000000
# 4 0.000000 0.000000 0.000000 0.062992 0.000000 0.029213
# 5 0.009832 -0.009040 0.002002 0.000000 0.064246 0.000000
# 6 0.000000 0.000000 0.000000 0.029213 0.000000 0.054764
#
#
# Mechanical properties :
#
#
# Convention : Reuss Voigt Hill
#
# Bulk Modulus (GPa) = 15.93086 25.34454 20.63770
# Shear Modulus (GPa) = 18.13765 24.59985 21.36875
#
# Velocity S-wave (km/s) = 3.16226 3.68276 3.43239
# Velocity P-wave (km/s) = 4.70280 5.66188 5.20448
#
# Compressibility (1/GPa) = 0.06277124
#
# Stress axis : x y z
#
# Youngs Moduli (GPa) = 72.98583 25.78227 65.48887
#
# Poissons Ratio (x) = -0.01843 0.26531
# Poissons Ratio (y) = -0.05217 -0.05522
# Poissons Ratio (z) = 0.29568 -0.02174
#
# Static dielectric constant tensor:
#      x y z
#    x 1.626770 0.000000 0.010640 
#    y 0.000000 1.604970 0.000000 
#    z 0.010640 0.000000 1.689190 
# 
# From -- ./inp_files/53185.got.cif
#   From: 2010.05.17/outbox.cif.g08.bks.cpg/sg11_27_cif.got.tgz:53185.got - 2010.06.03 12:22:45.
