data_PCOD9156647
_publ_section_title
;
Structure prediction by ZEFSAII (Michael W. Deem and Ramdas Pophale) SiO2 
 PCOD9156647
Probable space group: P 21/M
;
_chemical_formula_sum "Si O2"
_cell_formula_units_Z 32
_cell_length_a 23.756880
_cell_length_b 7.569195
_cell_length_c 18.005374
_cell_angle_alpha 90.000000
_cell_angle_beta 29.246018
_cell_angle_gamma 90.000000
_cell_volume 1581.829561
_symmetry_space_group_name_H-M "P 21/M"
_symmetry_group_IT_number 11
_symmetry_cell_setting 'monoclinic'
loop_
_space_group_symop_operation_xyz
x,y,z
-x,1/2+y,-z
-x,-y,-z
x,1/2-y,z
loop_
_atom_site_type_symbol
_atom_site_label
_atom_site_fract_x
_atom_site_fract_y
_atom_site_fract_z
Si Si1 0.429073 0.038546 0.224139
Si Si2 0.363707 0.961960 0.738381
Si Si3 0.250252 0.956139 0.557007
Si Si4 0.071528 0.962971 0.644926
Si Si5 0.196299 0.961403 0.059611
Si Si6 0.761486 0.460154 0.674887
Si Si7 0.694521 0.033198 0.912404
Si Si8 0.370027 0.962837 0.563782
O O1 0.428724 0.250000 0.230940
O O2 0.357816 0.966926 0.376345
O O3 0.357136 0.989237 0.233578
O O4 0.560780 0.978568 0.069790
O O5 0.350609 0.750000 0.750270
O O6 0.345059 0.029532 0.675804
O O7 0.496152 0.998054 0.606843
O O8 0.275870 0.030949 0.901174
O O9 0.224513 0.750000 0.599847
O O10 0.142541 0.031160 0.634701
O O11 0.289452 0.032970 0.590641
O O12 0.084370 0.750000 0.630226
O O13 0.137470 0.029690 0.495100
O O14 0.937721 0.004082 0.798975
O O15 0.212516 0.750000 0.042360
O O16 0.239110 0.026634 0.090464
O O17 0.778811 0.250000 0.660992
O O18 0.750675 0.529250 0.770697
O O19 0.695130 0.250000 0.910538
O O20 0.359407 0.750000 0.577326
#
# Coordination Sequence:
#
# PCOD9156647 Si02
#       8
#     4   4   4   4   4   4   4   4
#     4  10  18  29  49  76 101 122 152 196 241 286
#     4   9  18  32  50  75 105 129 151 190 241 283
#     4   9  18  33  51  70  96 130 162 193 235 284
#     4   9  19  34  49  65  89 124 164 205 240 273
#     4  10  20  34  50  68  95 129 161 196 240 284
#     4   9  18  34  51  67  94 129 160 193 238 286
#     4   9  18  31  48  70  96 127 158 192 240 291
#     4   9  17  31  53  77  99 127 160 189 227 287
#
# _framework density 20.22974
#
# number of rings (size 3 to 8) (size 9 to 14) (size 15 to 20)
#    0.000    2.750    0.000    2.250    0.000    4.500 
#    0.000    3.125    0.000    0.000    0.000    0.000 
#    0.000    0.000    0.000    0.000    0.000    0.000 
#
# Total GULP energy -178558.324002 kJ/mol
# GULP energy per Si atom -5579.947625 kJ/mol
# Density = 2.018370 g / cm^3
# Si number density = 20.229740 Si / 1000 Ang^3
#
#
#
# Elastic Constant Matrix: (Units=GPa)
#
#
# Indices 1 2 3 4 5 6 
#
# 1 216.7527 21.9667 37.1022 0.0000 -88.5878 0.0000
# 2 21.9667 60.6140 -66.2680 0.0000 -85.5421 0.0000
# 3 37.1022 -66.2680 378.2862 0.0000 328.0208 0.0000
# 4 0.0000 0.0000 0.0000 6.2751 0.0000 -21.4146
# 5 -88.5878 -85.5421 328.0208 0.0000 430.6076 0.0000
# 6 0.0000 0.0000 0.0000 -21.4146 0.0000 -3.8636
#
#
#
# Elastic Compliance Matrix: (Units=1/GPa)
#
#
# Indices 1 2 3 4 5 6 
#
# 1 0.008872 -0.001072 -0.007235 0.000000 0.007124 0.000000
# 2 -0.001072 0.023059 0.001071 0.000000 0.003544 0.000000
# 3 -0.007235 0.001071 0.013689 0.000000 -0.011704 0.000000
# 4 0.000000 0.000000 0.000000 0.008002 0.000000 -0.044352
# 5 0.007124 0.003544 -0.011704 0.000000 0.013407 0.000000
# 6 0.000000 0.000000 0.000000 -0.044352 0.000000 -0.012996
#
#
# Mechanical properties :
#
#
# Convention : Reuss Voigt Hill
#
# Bulk Modulus (GPa) = 32.10302 71.25054 51.67678
# Shear Modulus (GPa) = 63.38101 130.79396 97.08748
#
# Velocity S-wave (km/s) = 5.60345 8.04951 6.93517
# Velocity P-wave (km/s) = 7.60056 11.03132 9.47255
#
# Compressibility (1/GPa) = 0.03114972
#
# Stress axis : x y z
#
# Youngs Moduli (GPa) = 112.71217 43.36632 73.04978
#
# Poissons Ratio (x) = 0.04648 0.52853
# Poissons Ratio (y) = 0.12081 -0.07827
# Poissons Ratio (z) = 0.81549 -0.04646
#
# Static dielectric constant tensor:
#      x y z
#    x 1.721990 0.000000 0.026230 
#    y 0.000000 1.747550 0.000000 
#    z 0.026230 0.000000 1.684650 
# 
# From -- ./inp_files/61774.got.cif
#   From: 2010.05.17/outbox.cif.g08.bks.cpg/sg11_31_cif.got.tgz:61774.got - 2010.06.03 12:22:45.
