data_PCOD9156943
_publ_section_title
;
Structure prediction by ZEFSAII (Michael W. Deem and Ramdas Pophale) SiO2 
 PCOD9156943
Probable space group: P 21/M
;
_chemical_formula_sum "Si O2"
_cell_formula_units_Z 28
_cell_length_a 13.682909
_cell_length_b 8.895881
_cell_length_c 22.224531
_cell_angle_alpha 90.000000
_cell_angle_beta 139.351062
_cell_angle_gamma 90.000000
_cell_volume 1762.230690
_symmetry_space_group_name_H-M "P 21/M"
_symmetry_group_IT_number 11
_symmetry_cell_setting 'monoclinic'
loop_
_space_group_symop_operation_xyz
x,y,z
-x,1/2+y,-z
-x,-y,-z
x,1/2-y,z
loop_
_atom_site_type_symbol
_atom_site_label
_atom_site_fract_x
_atom_site_fract_y
_atom_site_fract_z
Si Si1 0.232606 0.568827 0.597003
Si Si2 0.469416 0.925453 0.896535
Si Si3 0.452454 0.075213 0.208396
Si Si4 0.152040 0.070691 0.782297
Si Si5 0.005569 0.570501 0.599976
Si Si6 0.215284 0.930099 0.932311
Si Si7 0.855537 0.071038 0.963376
O O1 0.227459 0.750000 0.587153
O O2 0.405288 0.522758 0.686248
O O3 0.139185 0.535154 0.614545
O O4 0.144568 0.488893 0.502148
O O5 0.462677 0.750000 0.911613
O O6 0.492616 0.930186 0.835332
O O7 0.316287 0.008195 0.840946
O O8 0.615144 0.005964 0.991851
O O9 0.422269 0.250000 0.208523
O O10 0.298601 0.984481 0.139285
O O11 0.152209 0.250000 0.783709
O O12 0.041223 0.009094 0.679351
O O13 0.123464 0.003436 0.835106
O O14 0.002459 0.750000 0.606281
O O15 0.217486 0.750000 0.927849
O O16 0.155979 0.970841 0.971141
O O17 0.863842 0.250000 0.963907
O O18 0.000000 0.000000 0.000000
#
# Coordination Sequence:
#
# PCOD9156943 Si02
#       7
#     4   4   4   4   4   4   4
#     4   9  17  31  47  69  97 131 169 205 245 284
#     4  10  18  31  47  67  96 131 166 201 239 284
#     4   9  17  31  51  72  99 131 164 202 244 288
#     4  12  22  31  45  67  96 134 170 203 241 285
#     4  10  19  31  46  67  97 134 171 208 243 280
#     4  10  21  35  49  69  95 126 163 201 241 293
#     4  10  21  36  55  77  99 124 158 201 250 297
#
# _framework density 15.888953000000001
#
# number of rings (size 3 to 8) (size 9 to 14) (size 15 to 20)
#    0.000    2.000    1.429    3.429    0.000    3.429 
#    0.000    0.000    0.000    0.000    0.000    1.000 
#    0.000    0.000    0.000    0.000    0.000    0.000 
#
# Total GULP energy -156276.274880 kJ/mol
# GULP energy per Si atom -5581.295531 kJ/mol
# Density = 1.585279 g / cm^3
# Si number density = 15.888953 Si / 1000 Ang^3
#
#
#
# Elastic Constant Matrix: (Units=GPa)
#
#
# Indices 1 2 3 4 5 6 
#
# 1 67.1141 37.0211 53.0475 0.0000 9.9586 0.0000
# 2 37.0211 79.5635 61.2095 0.0000 -2.2103 0.0000
# 3 53.0475 61.2095 144.5495 0.0000 -2.7030 0.0000
# 4 0.0000 0.0000 0.0000 30.3936 0.0000 1.1300
# 5 9.9586 -2.2103 -2.7030 0.0000 17.7690 0.0000
# 6 0.0000 0.0000 0.0000 1.1300 0.0000 21.6146
#
#
#
# Elastic Compliance Matrix: (Units=1/GPa)
#
#
# Indices 1 2 3 4 5 6 
#
# 1 0.027354 -0.007769 -0.007074 0.000000 -0.017373 0.000000
# 2 -0.007769 0.020870 -0.005873 0.000000 0.006057 0.000000
# 3 -0.007074 -0.005873 0.012096 0.000000 0.005074 0.000000
# 4 0.000000 0.000000 0.000000 0.032966 0.000000 -0.001723
# 5 -0.017373 0.006057 0.005074 0.000000 0.067540 0.000000
# 6 0.000000 0.000000 0.000000 -0.001723 0.000000 0.046355
#
#
# Mechanical properties :
#
#
# Convention : Reuss Voigt Hill
#
# Bulk Modulus (GPa) = 52.94114 65.97592 59.45853
# Shear Modulus (GPa) = 19.61487 23.28538 21.45012
#
# Velocity S-wave (km/s) = 3.51735 3.83235 3.67822
# Velocity P-wave (km/s) = 7.06311 7.82277 7.45263
#
# Compressibility (1/GPa) = 0.01888890
#
# Stress axis : x y z
#
# Youngs Moduli (GPa) = 36.55710 47.91587 82.67243
#
# Poissons Ratio (x) = 0.37224 0.58482
# Poissons Ratio (y) = 0.28400 0.48555
# Poissons Ratio (z) = 0.25860 0.28142
#
# Static dielectric constant tensor:
#      x y z
#    x 1.514530 0.000000 -0.017830 
#    y 0.000000 1.528870 0.000000 
#    z -0.017830 0.000000 1.543280 
# 
# From -- ./inp_files/64275.got.cif
#   From: 2010.05.17/outbox.cif.g08.bks.cpg/sg11_33_cif.got.tgz:64275.got - 2010.06.03 12:22:45.
