data_PCOD9156954
_publ_section_title
;
Structure prediction by ZEFSAII (Michael W. Deem and Ramdas Pophale) SiO2 
 PCOD9156954
Probable space group: P 21/M
;
_chemical_formula_sum "Si O2"
_cell_formula_units_Z 32
_cell_length_a 14.247366
_cell_length_b 8.638822
_cell_length_c 32.106613
_cell_angle_alpha 90.000000
_cell_angle_beta 148.076294
_cell_angle_gamma 90.000000
_cell_volume 2089.615897
_symmetry_space_group_name_H-M "P 21/M"
_symmetry_group_IT_number 11
_symmetry_cell_setting 'monoclinic'
loop_
_space_group_symop_operation_xyz
x,y,z
-x,1/2+y,-z
-x,-y,-z
x,1/2-y,z
loop_
_atom_site_type_symbol
_atom_site_label
_atom_site_fract_x
_atom_site_fract_y
_atom_site_fract_z
Si Si1 0.450603 0.063150 0.436010
Si Si2 0.048725 0.064484 0.266021
Si Si3 0.211323 0.067124 0.894146
Si Si4 0.765268 0.063941 0.230411
Si Si5 0.801963 0.435082 0.416866
Si Si6 0.126060 0.065985 0.640859
Si Si7 0.501455 0.063466 0.062282
Si Si8 0.731598 0.564798 0.475902
O O1 0.458139 0.250000 0.438975
O O2 0.249731 0.013813 0.349185
O O3 0.500000 0.000000 0.500000
O O4 0.588409 0.997177 0.454489
O O5 0.045182 0.250000 0.264903
O O6 0.919724 0.015954 0.255670
O O7 0.963613 0.010235 0.190463
O O8 0.183878 0.250000 0.884089
O O9 0.363168 0.021911 0.917812
O O10 0.303015 0.021767 0.972647
O O11 0.779802 0.250000 0.241786
O O12 0.577950 0.031278 0.136853
O O13 0.793025 0.980989 0.284455
O O14 0.803355 0.250000 0.418094
O O15 0.762428 0.496486 0.355811
O O16 0.693415 0.500494 0.415091
O O17 0.000000 0.500000 0.500000
O O18 0.113830 0.250000 0.631629
O O19 0.926930 0.995889 0.562806
O O20 0.521769 0.250000 0.063497
O O21 0.735591 0.750000 0.476784
#
# Coordination Sequence:
#
# PCOD9156954 Si02
#       8
#     4   4   4   4   4   4   4   4
#     4  11  22  35  49  66  88 118 154 188 223 259
#     4   9  19  32  44  59  85 118 149 183 221 259
#     4   9  15  24  41  61  80 107 145 182 214 254
#     4   9  16  28  43  61  88 120 149 178 218 262
#     4  10  18  31  49  67  86 111 143 179 221 266
#     4  11  20  30  45  67  91 115 146 182 221 265
#     4   8  15  26  39  57  83 113 142 175 216 258
#     4  11  21  34  49  65  87 116 149 186 224 259
#
# _framework density 15.31382
#
# number of rings (size 3 to 8) (size 9 to 14) (size 15 to 20)
#    0.000    2.250    0.000    7.125    0.000    4.500 
#    0.000    0.000    0.000    0.000    0.000    0.000 
#    0.000    1.000    0.000    3.000    0.000    4.875 
#
# Total GULP energy -178285.576183 kJ/mol
# GULP energy per Si atom -5571.424256 kJ/mol
# Density = 1.527897 g / cm^3
# Si number density = 15.313820 Si / 1000 Ang^3
#
#
#
# Elastic Constant Matrix: (Units=GPa)
#
#
# Indices 1 2 3 4 5 6 
#
# 1 93.6258 36.8566 54.6080 0.0000 -18.1272 0.0000
# 2 36.8566 78.8926 38.3050 0.0000 -9.4606 0.0000
# 3 54.6080 38.3050 126.9844 0.0000 -14.8993 0.0000
# 4 0.0000 0.0000 0.0000 24.3295 0.0000 -4.7286
# 5 -18.1272 -9.4606 -14.8993 0.0000 18.4612 0.0000
# 6 0.0000 0.0000 0.0000 -4.7286 0.0000 20.9325
#
#
#
# Elastic Compliance Matrix: (Units=1/GPa)
#
#
# Indices 1 2 3 4 5 6 
#
# 1 0.017365 -0.004456 -0.004850 0.000000 0.010853 0.000000
# 2 -0.004456 0.016327 -0.002806 0.000000 0.001727 0.000000
# 3 -0.004850 -0.002806 0.011134 0.000000 0.002785 0.000000
# 4 0.000000 0.000000 0.000000 0.042990 0.000000 0.009711
# 5 0.010853 0.001727 0.002785 0.000000 0.067957 0.000000
# 6 0.000000 0.000000 0.000000 0.009711 0.000000 0.049966
#
#
# Mechanical properties :
#
#
# Convention : Reuss Voigt Hill
#
# Bulk Modulus (GPa) = 48.54075 62.11577 55.32826
# Shear Modulus (GPa) = 21.11208 24.06018 22.58613
#
# Velocity S-wave (km/s) = 3.71702 3.96806 3.84459
# Velocity P-wave (km/s) = 7.08433 7.85137 7.47769
#
# Compressibility (1/GPa) = 0.02060125
#
# Stress axis : x y z
#
# Youngs Moduli (GPa) = 57.58646 61.24904 89.81536
#
# Poissons Ratio (x) = 0.27294 0.43561
# Poissons Ratio (y) = 0.25662 0.25203
# Poissons Ratio (z) = 0.27930 0.17187
#
# Static dielectric constant tensor:
#      x y z
#    x 1.503710 0.000000 -0.015020 
#    y 0.000000 1.513470 0.000000 
#    z -0.015020 0.000000 1.550190 
# 
# From -- ./inp_files/73319.got.cif
#   From: 2010.05.17/outbox.cif.g08.bks.cpg/sg11_37_cif.got.tgz:73319.got - 2010.06.03 12:22:45.
