data_PCOD9156032
_publ_section_title
;
Structure prediction by ZEFSAII (Michael W. Deem and Ramdas Pophale) SiO2 
 PCOD9156032
Probable space group: P 21/M
;
_chemical_formula_sum "Si O2"
_cell_formula_units_Z 32
_cell_length_a 18.546159
_cell_length_b 16.666476
_cell_length_c 12.871422
_cell_angle_alpha 90.000000
_cell_angle_beta 27.431893
_cell_angle_gamma 90.000000
_cell_volume 1832.891495
_symmetry_space_group_name_H-M "P 21/M"
_symmetry_group_IT_number 11
_symmetry_cell_setting 'monoclinic'
loop_
_space_group_symop_operation_xyz
x,y,z
-x,1/2+y,-z
-x,-y,-z
x,1/2-y,z
loop_
_atom_site_type_symbol
_atom_site_label
_atom_site_fract_x
_atom_site_fract_y
_atom_site_fract_z
Si Si1 0.152498 0.551235 0.436490
Si Si2 0.036728 0.421517 0.018611
Si Si3 0.369843 0.417380 0.260844
Si Si4 0.322742 0.512819 0.023097
Si Si5 0.863529 0.019983 0.929128
Si Si6 0.779813 0.160461 0.480070
Si Si7 0.077084 0.343358 0.756030
Si Si8 0.584305 0.841994 0.020239
O O1 0.287599 0.495821 0.316092
O O2 0.173044 0.637160 0.463120
O O3 0.992183 0.514130 0.683102
O O4 0.187303 0.548377 0.271031
O O5 0.152300 0.451962 0.961594
O O6 0.877288 0.396772 0.280507
O O7 0.086150 0.357782 0.868749
O O8 0.000000 0.500000 0.000000
O O9 0.517236 0.447823 0.138547
O O10 0.238538 0.373424 0.497343
O O11 0.415460 0.362917 0.103262
O O12 0.327734 0.416451 0.037331
O O13 0.287447 0.532320 0.948853
O O14 0.940753 0.099078 0.882484
O O15 0.828658 0.250000 0.392375
O O16 0.593637 0.154284 0.711217
O O17 0.049882 0.250000 0.768260
O O18 0.641539 0.750000 0.962172
#
# Coordination Sequence:
#
# PCOD9156032 Si02
#       8
#     4   4   4   4   4   4   4   4
#     4   9  16  32  49  75 105 145 179 205 246 325
#     4   9  19  35  56  74  96 133 185 224 260 319
#     4  10  18  32  54  77 105 141 183 210 257 320
#     4  11  18  32  52  80 111 147 169 213 269 327
#     4   9  20  33  54  80 106 137 177 220 267 320
#     4  10  17  29  51  80 102 130 179 231 261 295
#     4  10  20  37  57  75 100 139 184 229 264 311
#     4  10  19  31  51  80 111 141 177 219 263 318
#
# _framework density 17.458753000000002
#
# number of rings (size 3 to 8) (size 9 to 14) (size 15 to 20)
#    0.000    2.250    2.500    2.625    0.000    0.000 
#    0.000    5.625    0.000    0.000    0.000    0.000 
#    0.000    0.000    0.000    0.000    0.000    0.000 
#
# Total GULP energy -178220.751804 kJ/mol
# GULP energy per Si atom -5569.398494 kJ/mol
# Density = 1.741902 g / cm^3
# Si number density = 17.458753 Si / 1000 Ang^3
#
#
#
# Elastic Constant Matrix: (Units=GPa)
#
#
# Indices 1 2 3 4 5 6 
#
# 1 99.6364 18.1916 22.1499 0.0000 11.6979 0.0000
# 2 18.1916 75.9981 20.1475 0.0000 6.1464 0.0000
# 3 22.1499 20.1475 50.7482 0.0000 17.9287 0.0000
# 4 0.0000 0.0000 0.0000 22.0432 0.0000 3.2980
# 5 11.6979 6.1464 17.9287 0.0000 19.9017 0.0000
# 6 0.0000 0.0000 0.0000 3.2980 0.0000 14.6278
#
#
#
# Elastic Compliance Matrix: (Units=1/GPa)
#
#
# Indices 1 2 3 4 5 6 
#
# 1 0.011430 -0.001628 -0.003149 0.000000 -0.003379 0.000000
# 2 -0.001628 0.014953 -0.005768 0.000000 0.001535 0.000000
# 3 -0.003149 -0.005768 0.032397 0.000000 -0.025553 0.000000
# 4 0.000000 0.000000 0.000000 0.046949 0.000000 -0.010585
# 5 -0.003379 0.001535 -0.025553 0.000000 0.074779 0.000000
# 6 0.000000 0.000000 0.000000 -0.010585 0.000000 0.070750
#
#
# Mechanical properties :
#
#
# Convention : Reuss Voigt Hill
#
# Bulk Modulus (GPa) = 26.53212 38.59563 32.56388
# Shear Modulus (GPa) = 17.54928 22.37410 19.96169
#
# Velocity S-wave (km/s) = 3.17391 3.58374 3.38503
# Velocity P-wave (km/s) = 5.35365 6.26730 5.82841
#
# Compressibility (1/GPa) = 0.03769016
#
# Stress axis : x y z
#
# Youngs Moduli (GPa) = 87.48526 66.87634 30.86695
#
# Poissons Ratio (x) = 0.10888 0.09720
# Poissons Ratio (y) = 0.14243 0.17805
# Poissons Ratio (z) = 0.27548 0.38576
#
# Static dielectric constant tensor:
#      x y z
#    x 1.623230 0.000000 0.005150 
#    y 0.000000 1.622520 0.000000 
#    z 0.005150 0.000000 1.608280 
# 
# From -- ./inp_files/41841.got.cif
#   From: 2010.05.17/outbox.cif.g08.bks.cpg/sg11_21_cif.got.tgz:41841.got - 2010.06.03 12:22:45.
