data_PCOD9156790
_publ_section_title
;
Structure prediction by ZEFSAII (Michael W. Deem and Ramdas Pophale) SiO2 
 PCOD9156790
Probable space group: P 21/M
;
_chemical_formula_sum "Si O2"
_cell_formula_units_Z 32
_cell_length_a 21.557365
_cell_length_b 7.585206
_cell_length_c 14.980556
_cell_angle_alpha 90.000000
_cell_angle_beta 42.694197
_cell_angle_gamma 90.000000
_cell_volume 1661.021577
_symmetry_space_group_name_H-M "P 21/M"
_symmetry_group_IT_number 11
_symmetry_cell_setting 'monoclinic'
loop_
_space_group_symop_operation_xyz
x,y,z
-x,1/2+y,-z
-x,-y,-z
x,1/2-y,z
loop_
_atom_site_type_symbol
_atom_site_label
_atom_site_fract_x
_atom_site_fract_y
_atom_site_fract_z
Si Si1 0.225972 0.967177 0.913218
Si Si2 0.832947 0.039131 0.355498
Si Si3 0.691133 0.464732 0.644956
Si Si4 0.604455 0.037794 0.916364
Si Si5 0.650564 0.455675 0.063516
Si Si6 0.313014 0.964939 0.638518
Si Si7 0.541393 0.037205 0.653954
Si Si8 0.974609 0.042820 0.924903
O O1 0.226624 0.750000 0.913342
O O2 0.268192 0.029611 0.961761
O O3 0.290599 0.021400 0.762088
O O4 0.123258 0.031044 0.001816
O O5 0.824106 0.250000 0.364554
O O6 0.783712 0.975526 0.497855
O O7 0.770621 0.977926 0.337829
O O8 0.938440 0.000350 0.228036
O O9 0.692546 0.250000 0.646430
O O10 0.668533 0.527539 0.767952
O O11 0.608399 0.512327 0.665290
O O12 0.611984 0.250000 0.911247
O O13 0.629502 0.967597 0.988008
O O14 0.500000 0.000000 0.000000
O O15 0.671657 0.250000 0.027025
O O16 0.558430 0.467003 0.219721
O O17 0.313404 0.750000 0.637697
O O18 0.406715 0.020997 0.491081
O O19 0.536195 0.250000 0.658264
O O20 0.962430 0.250000 0.935046
O O21 0.000000 0.000000 0.000000
#
# Coordination Sequence:
#
# PCOD9156790 Si02
#       8
#     4   4   4   4   4   4   4   4
#     4   9  18  32  47  65  94 129 156 185 234 286
#     4   9  16  30  51  72  92 120 158 197 234 277
#     4   8  15  28  48  70  94 124 155 188 234 286
#     4  10  18  30  49  72  94 122 160 196 231 274
#     4  10  20  31  46  69  96 125 158 193 230 276
#     4   8  14  27  47  66  89 128 162 182 221 284
#     4   9  16  28  47  67  91 126 162 189 223 274
#     4  11  20  32  52  73  95 124 158 197 238 278
#
# _framework density 19.265252
#
# number of rings (size 3 to 8) (size 9 to 14) (size 15 to 20)
#    0.000    2.750    2.500    1.875    0.000    0.500 
#    0.000    4.375    0.000    0.750    0.000    0.000 
#    0.000    0.000    0.000    0.000    0.000    0.125 
#
# Total GULP energy -178452.010480 kJ/mol
# GULP energy per Si atom -5576.625328 kJ/mol
# Density = 1.922140 g / cm^3
# Si number density = 19.265252 Si / 1000 Ang^3
#
#
#
# Elastic Constant Matrix: (Units=GPa)
#
#
# Indices 1 2 3 4 5 6 
#
# 1 135.7921 3.9240 83.0014 0.0000 11.9535 0.0000
# 2 3.9240 40.0072 0.3035 0.0000 4.9601 0.0000
# 3 83.0014 0.3035 133.7421 0.0000 10.2167 0.0000
# 4 0.0000 0.0000 0.0000 18.3325 0.0000 -5.6614
# 5 11.9535 4.9601 10.2167 0.0000 22.3095 0.0000
# 6 0.0000 0.0000 0.0000 -5.6614 0.0000 7.3330
#
#
#
# Elastic Compliance Matrix: (Units=1/GPa)
#
#
# Indices 1 2 3 4 5 6 
#
# 1 0.012097 -0.000762 -0.007278 0.000000 -0.002979 0.000000
# 2 -0.000762 0.025772 0.000851 0.000000 -0.005711 0.000000
# 3 -0.007278 0.000851 0.012133 0.000000 -0.001846 0.000000
# 4 0.000000 0.000000 0.000000 0.071625 0.000000 0.055298
# 5 -0.002979 -0.005711 -0.001846 0.000000 0.048535 0.000000
# 6 0.000000 0.000000 0.000000 0.055298 0.000000 0.179063
#
#
# Mechanical properties :
#
#
# Convention : Reuss Voigt Hill
#
# Bulk Modulus (GPa) = 28.07170 53.77767 40.92468
# Shear Modulus (GPa) = 13.31629 24.41584 18.86607
#
# Velocity S-wave (km/s) = 2.63194 3.56385 3.13274
# Velocity P-wave (km/s) = 4.88251 6.70147 5.86296
#
# Compressibility (1/GPa) = 0.03562307
#
# Stress axis : x y z
#
# Youngs Moduli (GPa) = 82.66322 38.80199 82.41889
#
# Poissons Ratio (x) = 0.02956 0.59987
# Poissons Ratio (y) = 0.06298 -0.07011
# Poissons Ratio (z) = 0.60165 -0.03301
#
# Static dielectric constant tensor:
#      x y z
#    x 1.676770 0.000000 0.005680 
#    y 0.000000 1.733010 0.000000 
#    z 0.005680 0.000000 1.684230 
# 
# From -- ./inp_files/51378.got.cif
#   From: 2010.05.17/outbox.cif.g08.bks.cpg/sg11_26_cif.got.tgz:51378.got - 2010.06.03 12:22:45.
