data_PCOD9156367
_publ_section_title
;
Structure prediction by ZEFSAII (Michael W. Deem and Ramdas Pophale) SiO2 
 PCOD9156367
Probable space group: P 21/M
;
_chemical_formula_sum "Si O2"
_cell_formula_units_Z 32
_cell_length_a 15.525565
_cell_length_b 7.414572
_cell_length_c 14.599992
_cell_angle_alpha 90.000000
_cell_angle_beta 92.319972
_cell_angle_gamma 90.000000
_cell_volume 1679.306624
_symmetry_space_group_name_H-M "P 21/M"
_symmetry_group_IT_number 11
_symmetry_cell_setting 'monoclinic'
loop_
_space_group_symop_operation_xyz
x,y,z
-x,1/2+y,-z
-x,-y,-z
x,1/2-y,z
loop_
_atom_site_type_symbol
_atom_site_label
_atom_site_fract_x
_atom_site_fract_y
_atom_site_fract_z
Si Si1 0.327155 0.029983 0.677244
Si Si2 0.754674 0.961676 0.882799
Si Si3 0.902420 0.533432 0.023734
Si Si4 0.198678 0.043664 0.815052
Si Si5 0.641949 0.467472 0.044579
Si Si6 0.602518 0.965611 0.512619
Si Si7 0.485466 0.958759 0.819076
Si Si8 0.649848 0.527987 0.715801
O O1 0.326868 0.250000 0.679329
O O2 0.239398 0.966825 0.723555
O O3 0.347554 0.968771 0.575430
O O4 0.406428 0.968429 0.743987
O O5 0.771845 0.750000 0.872948
O O6 0.730756 0.030545 0.781140
O O7 0.834544 0.037409 0.944737
O O8 0.669938 0.980571 0.943968
O O9 0.889923 0.750000 0.027621
O O10 0.875776 0.463214 0.123660
O O11 0.000000 0.500000 0.000000
O O12 0.174603 0.250000 0.793235
O O13 0.280327 0.039771 0.888326
O O14 0.642878 0.250000 0.050197
O O15 0.554297 0.535454 0.088559
O O16 0.612134 0.750000 0.513541
O O17 0.639527 0.032418 0.610961
O O18 0.500000 0.000000 0.500000
O O19 0.506001 0.750000 0.838157
O O20 0.566320 0.036253 0.769013
O O21 0.648729 0.750000 0.714394
#
# Coordination Sequence:
#
# PCOD9156367 Si02
#       8
#     4   4   4   4   4   4   4   4
#     4   9  16  26  42  63  86 112 146 183 211 241
#     4   9  18  32  45  58  82 116 144 169 208 257
#     4   9  17  29  47  67  85 106 133 169 213 262
#     4   8  15  28  43  62  88 114 138 167 208 257
#     4   9  16  25  39  60  84 110 143 178 208 242
#     4  10  18  28  44  64  85 114 151 188 216 241
#     4   9  16  26  40  58  82 114 146 177 213 246
#     4   9  17  29  43  58  82 116 150 178 209 249
#
# _framework density 19.055484
#
# number of rings (size 3 to 8) (size 9 to 14) (size 15 to 20)
#    0.000    3.000    1.250    1.125    0.000    3.000 
#    0.000    1.250    0.000    0.000    0.000    0.875 
#    0.000    0.000    0.000    0.000    0.000    0.000 
#
# Total GULP energy -178271.903731 kJ/mol
# GULP energy per Si atom -5570.996992 kJ/mol
# Density = 1.901211 g / cm^3
# Si number density = 19.055484 Si / 1000 Ang^3
#
#
#
# Elastic Constant Matrix: (Units=GPa)
#
#
# Indices 1 2 3 4 5 6 
#
# 1 100.9276 3.0020 75.4647 0.0000 -27.4387 0.0000
# 2 3.0020 68.5845 -5.6715 0.0000 2.1443 0.0000
# 3 75.4647 -5.6715 156.1912 0.0000 -16.4273 0.0000
# 4 0.0000 0.0000 0.0000 4.7022 0.0000 -0.3904
# 5 -27.4387 2.1443 -16.4273 0.0000 23.9921 0.0000
# 6 0.0000 0.0000 0.0000 -0.3904 0.0000 13.3680
#
#
#
# Elastic Compliance Matrix: (Units=1/GPa)
#
#
# Indices 1 2 3 4 5 6 
#
# 1 0.021438 -0.002229 -0.008448 0.000000 0.018933 0.000000
# 2 -0.002229 0.014879 0.001303 0.000000 -0.002987 0.000000
# 3 -0.008448 0.001303 0.010240 0.000000 -0.002766 0.000000
# 4 0.000000 0.000000 0.000000 0.213182 0.000000 0.006225
# 5 0.018933 -0.002987 -0.002766 0.000000 0.061706 0.000000
# 6 0.000000 0.000000 0.000000 0.006225 0.000000 0.074987
#
#
# Mechanical properties :
#
#
# Convention : Reuss Voigt Hill
#
# Bulk Modulus (GPa) = 35.95733 52.36596 44.16164
# Shear Modulus (GPa) = 11.77996 25.27301 18.52648
#
# Velocity S-wave (km/s) = 2.48905 3.64577 3.12146
# Velocity P-wave (km/s) = 5.21260 6.72775 6.01805
#
# Compressibility (1/GPa) = 0.02781074
#
# Stress axis : x y z
#
# Youngs Moduli (GPa) = 46.64642 67.20766 97.65366
#
# Poissons Ratio (x) = 0.14980 0.82493
# Poissons Ratio (y) = 0.10397 -0.12725
# Poissons Ratio (z) = 0.39405 -0.08757
#
# Static dielectric constant tensor:
#      x y z
#    x 1.661420 0.000000 -0.031450 
#    y 0.000000 1.706100 0.000000 
#    z -0.031450 0.000000 1.704490 
# 
# From -- ./inp_files/51308.got.cif
#   From: 2010.05.17/outbox.cif.g08.bks.cpg/sg11_26_cif.got.tgz:51308.got - 2010.06.03 12:22:45.
