data_PCOD9156206
_publ_section_title
;
Structure prediction by ZEFSAII (Michael W. Deem and Ramdas Pophale) SiO2 
 PCOD9156206
Probable space group: P 21/M
;
_chemical_formula_sum "Si O2"
_cell_formula_units_Z 18
_cell_length_a 13.735240
_cell_length_b 5.582097
_cell_length_c 21.826899
_cell_angle_alpha 90.000000
_cell_angle_beta 35.308464
_cell_angle_gamma 90.000000
_cell_volume 967.246383
_symmetry_space_group_name_H-M "P 21/M"
_symmetry_group_IT_number 11
_symmetry_cell_setting 'monoclinic'
loop_
_space_group_symop_operation_xyz
x,y,z
-x,1/2+y,-z
-x,-y,-z
x,1/2-y,z
loop_
_atom_site_type_symbol
_atom_site_label
_atom_site_fract_x
_atom_site_fract_y
_atom_site_fract_z
Si Si1 0.537203 0.750000 0.191669
Si Si2 0.188771 0.750000 0.768878
Si Si3 0.461882 0.250000 0.357517
Si Si4 0.063358 0.250000 0.998430
Si Si5 0.606496 0.750000 0.751174
Si Si6 0.014220 0.250000 0.454188
Si Si7 0.296914 0.999536 0.597252
Si Si8 0.660012 0.250000 0.575575
O O1 0.483861 0.500894 0.186430
O O2 0.437290 0.750000 0.307851
O O3 0.734988 0.750000 0.103848
O O4 0.336539 0.750000 0.743559
O O5 0.224648 0.967169 0.703628
O O6 0.014902 0.750000 0.893161
O O7 0.392791 0.250000 0.324070
O O8 0.401043 0.495907 0.419759
O O9 0.000000 0.500000 0.000000
O O10 0.800992 0.750000 0.670483
O O11 0.856275 0.250000 0.490027
O O12 0.000000 0.500000 0.500000
O O13 0.244889 0.750000 0.592935
O O14 0.500000 0.000000 0.500000
O O15 0.234914 0.250000 0.604434
#
# Coordination Sequence:
#
# PCOD9156206 Si02
#       8
#     2   2   2   2   2   2   4   2
#     4  10  18  30  40  53  78 104 144 186 214 232
#     4  10  22  30  50  61  89 120 159 184 230 258
#     4  10  18  26  38  58  81 106 134 176 213 250
#     4  12  24  34  43  60  88 129 166 188 212 255
#     4  10  18  30  42  57  77 108 143 188 218 256
#     4  12  16  28  44  61  73 102 150 185 225 259
#     4   8  16  30  47  65  81 101 143 193 230 275
#     4  10  18  28  39  56  80 105 144 181 212 254
#
# _framework density 18.609528999999998
#
# number of rings (size 3 to 8) (size 9 to 14) (size 15 to 20)
#    0.667    1.333    4.444    3.333    3.111    0.000 
#    0.000    0.000    0.000    0.000    0.000    0.000 
#    0.000    0.000    0.000    0.000    0.000   37.778 
#
# Total GULP energy -100239.919498 kJ/mol
# GULP energy per Si atom -5568.884417 kJ/mol
# Density = 1.856717 g / cm^3
# Si number density = 18.609529 Si / 1000 Ang^3
#
#
#
# Elastic Constant Matrix: (Units=GPa)
#
#
# Indices 1 2 3 4 5 6 
#
# 1 30.4955 9.3423 9.1920 0.0000 -14.3284 0.0000
# 2 9.3423 201.8532 18.3064 0.0000 -12.9295 0.0000
# 3 9.1920 18.3064 49.9644 0.0000 -22.4831 0.0000
# 4 0.0000 0.0000 0.0000 23.6527 0.0000 -2.9170
# 5 -14.3284 -12.9295 -22.4831 0.0000 41.2915 0.0000
# 6 0.0000 0.0000 0.0000 -2.9170 0.0000 20.6764
#
#
#
# Elastic Compliance Matrix: (Units=1/GPa)
#
#
# Indices 1 2 3 4 5 6 
#
# 1 0.039415 -0.000900 -0.001184 0.000000 0.012751 0.000000
# 2 -0.000900 0.005164 -0.001509 0.000000 0.000483 0.000000
# 3 -0.001184 -0.001509 0.027004 0.000000 0.013820 0.000000
# 4 0.000000 0.000000 0.000000 0.043027 0.000000 0.006070
# 5 0.012751 0.000483 0.013820 0.000000 0.036319 0.000000
# 6 0.000000 0.000000 0.000000 0.006070 0.000000 0.049221
#
#
# Mechanical properties :
#
#
# Convention : Reuss Voigt Hill
#
# Bulk Modulus (GPa) = 15.52873 39.55495 27.54184
# Shear Modulus (GPa) = 21.85306 33.48894 27.67100
#
# Velocity S-wave (km/s) = 3.43052 4.24672 3.86025
# Velocity P-wave (km/s) = 4.90447 6.73406 5.89073
#
# Compressibility (1/GPa) = 0.06439678
#
# Stress axis : x y z
#
# Youngs Moduli (GPa) = 25.37079 193.66569 37.03191
#
# Poissons Ratio (x) = 0.17433 0.04384
# Poissons Ratio (y) = 0.02284 0.05588
# Poissons Ratio (z) = 0.03003 0.29224
#
# Static dielectric constant tensor:
#      x y z
#    x 1.638150 0.000000 0.069970 
#    y 0.000000 1.766590 0.000000 
#    z 0.069970 0.000000 1.690450 
# 
# From -- ./inp_files/52784.got.cif
#   From: 2010.05.17/outbox.cif.g08.bks.cpg/sg11_27_cif.got.tgz:52784.got - 2010.06.03 12:22:45.
