data_PCOD9156341
_publ_section_title
;
Structure prediction by ZEFSAII (Michael W. Deem and Ramdas Pophale) SiO2 
 PCOD9156341
Probable space group: P 21/M
;
_chemical_formula_sum "Si O2"
_cell_formula_units_Z 32
_cell_length_a 19.947945
_cell_length_b 8.888829
_cell_length_c 17.777828
_cell_angle_alpha 90.000000
_cell_angle_beta 42.323729
_cell_angle_gamma 90.000000
_cell_volume 2122.472819
_symmetry_space_group_name_H-M "P 21/M"
_symmetry_group_IT_number 11
_symmetry_cell_setting 'monoclinic'
loop_
_space_group_symop_operation_xyz
x,y,z
-x,1/2+y,-z
-x,-y,-z
x,1/2-y,z
loop_
_atom_site_type_symbol
_atom_site_label
_atom_site_fract_x
_atom_site_fract_y
_atom_site_fract_z
Si Si1 0.391950 0.069983 0.106903
Si Si2 0.428085 0.575972 0.662182
Si Si3 0.730993 0.432252 0.327819
Si Si4 0.346930 0.430156 0.980438
Si Si5 0.625588 0.069591 0.559471
Si Si6 0.891066 0.929430 0.083882
Si Si7 0.580860 0.068403 0.762783
Si Si8 0.242457 0.575600 0.930002
O O1 0.399863 0.250000 0.105230
O O2 0.364807 0.002434 0.210175
O O3 0.330310 0.034298 0.082449
O O4 0.500000 0.000000 0.000000
O O5 0.459363 0.750000 0.628280
O O6 0.369550 0.529357 0.635498
O O7 0.520949 0.478399 0.609946
O O8 0.343515 0.567925 0.796583
O O9 0.742202 0.250000 0.313249
O O10 0.711678 0.478081 0.429950
O O11 0.821554 0.508635 0.209149
O O12 0.339706 0.250000 0.976663
O O13 0.462452 0.471164 0.864918
O O14 0.271932 0.510434 0.986280
O O15 0.628789 0.250000 0.559186
O O16 0.624949 0.016871 0.646308
O O17 0.895226 0.750000 0.082871
O O18 0.838567 0.983695 0.050187
O O19 0.000000 0.000000 0.000000
O O20 0.585799 0.250000 0.763957
O O21 0.212575 0.750000 0.959018
#
# Coordination Sequence:
#
# PCOD9156341 Si02
#       8
#     4   4   4   4   4   4   4   4
#     4   9  17  27  39  56  81 116 156 194 228 263
#     4   9  17  27  39  60  89 118 152 188 220 260
#     4   9  19  33  46  65  89 115 150 187 225 266
#     4   9  16  27  41  60  87 117 155 193 226 265
#     4  10  18  28  43  61  89 123 154 189 221 260
#     4  11  22  37  55  70  89 115 144 184 230 275
#     4   9  17  27  39  59  87 122 159 189 224 263
#     4  10  19  30  46  69  92 117 151 187 226 270
#
# _framework density 15.076753
#
# number of rings (size 3 to 8) (size 9 to 14) (size 15 to 20)
#    0.000    2.500    1.250    3.750    0.000    5.500 
#    0.000    0.000    0.000    0.000    0.000    0.000 
#    0.000    1.000    0.000    3.000    0.000    4.625 
#
# Total GULP energy -178278.794019 kJ/mol
# GULP energy per Si atom -5571.212313 kJ/mol
# Density = 1.504244 g / cm^3
# Si number density = 15.076753 Si / 1000 Ang^3
#
#
#
# Elastic Constant Matrix: (Units=GPa)
#
#
# Indices 1 2 3 4 5 6 
#
# 1 95.1179 43.6891 65.0821 0.0000 25.5809 0.0000
# 2 43.6891 44.7554 34.1079 0.0000 10.6969 0.0000
# 3 65.0821 34.1079 76.1513 0.0000 27.3342 0.0000
# 4 0.0000 0.0000 0.0000 16.7854 0.0000 2.6579
# 5 25.5809 10.6969 27.3342 0.0000 26.6815 0.0000
# 6 0.0000 0.0000 0.0000 2.6579 0.0000 25.5706
#
#
#
# Elastic Compliance Matrix: (Units=1/GPa)
#
#
# Indices 1 2 3 4 5 6 
#
# 1 0.031451 -0.015805 -0.017795 0.000000 -0.005587 0.000000
# 2 -0.015805 0.042029 -0.007446 0.000000 0.005931 0.000000
# 3 -0.017795 -0.007446 0.038717 0.000000 -0.019618 0.000000
# 4 0.000000 0.000000 0.000000 0.060573 0.000000 -0.006296
# 5 -0.005587 0.005931 -0.019618 0.000000 0.060556 0.000000
# 6 0.000000 0.000000 0.000000 -0.006296 0.000000 0.039762
#
#
# Mechanical properties :
#
#
# Convention : Reuss Voigt Hill
#
# Bulk Modulus (GPa) = 33.21710 55.75364 44.48537
# Shear Modulus (GPa) = 13.69059 18.68386 16.18723
#
# Velocity S-wave (km/s) = 3.01667 3.52412 3.28022
# Velocity P-wave (km/s) = 5.84924 7.32252 6.62695
#
# Compressibility (1/GPa) = 0.03010498
#
# Stress axis : x y z
#
# Youngs Moduli (GPa) = 31.79545 23.79301 25.82847
#
# Poissons Ratio (x) = 0.37605 0.45962
# Poissons Ratio (y) = 0.50252 0.19232
# Poissons Ratio (z) = 0.56580 0.17717
#
# Static dielectric constant tensor:
#      x y z
#    x 1.498480 0.000000 0.045370 
#    y 0.000000 1.502890 0.000000 
#    z 0.045370 0.000000 1.513940 
# 
# From -- ./inp_files/52969.got.cif
#   From: 2010.05.17/outbox.cif.g08.bks.cpg/sg11_27_cif.got.tgz:52969.got - 2010.06.03 12:22:45.
