data_PCOD9156764
_publ_section_title
;
Structure prediction by ZEFSAII (Michael W. Deem and Ramdas Pophale) SiO2 
 PCOD9156764
Probable space group: P 21/M
;
_chemical_formula_sum "Si O2"
_cell_formula_units_Z 24
_cell_length_a 24.958872
_cell_length_b 8.436342
_cell_length_c 18.863883
_cell_angle_alpha 90.000000
_cell_angle_beta 160.751815
_cell_angle_gamma 90.000000
_cell_volume 1309.415424
_symmetry_space_group_name_H-M "P 21/M"
_symmetry_group_IT_number 11
_symmetry_cell_setting 'monoclinic'
loop_
_space_group_symop_operation_xyz
x,y,z
-x,1/2+y,-z
-x,-y,-z
x,1/2-y,z
loop_
_atom_site_type_symbol
_atom_site_label
_atom_site_fract_x
_atom_site_fract_y
_atom_site_fract_z
Si Si1 0.338699 0.057011 0.084128
Si Si2 0.141537 0.062982 0.464198
Si Si3 0.668547 0.060479 0.421248
Si Si4 0.020837 0.062723 0.105054
Si Si5 0.831317 0.563010 0.992574
Si Si6 0.008838 0.059775 0.590882
O O1 0.340166 0.250000 0.087753
O O2 0.504513 0.004508 0.254707
O O3 0.308404 0.005904 0.127814
O O4 0.182134 0.010646 0.841880
O O5 0.111345 0.250000 0.419157
O O6 0.298274 0.016630 0.614021
O O7 0.129530 0.012998 0.530867
O O8 0.995152 0.967291 0.243157
O O9 0.661910 0.250000 0.404652
O O10 0.822038 0.016670 0.662225
O O11 0.044531 0.250000 0.134631
O O12 0.866890 0.021652 0.962967
O O13 0.000000 0.000000 0.000000
O O14 0.813158 0.750000 0.957133
O O15 0.998526 0.250000 0.580315
O O16 0.000000 0.000000 0.500000
#
# Coordination Sequence:
#
# PCOD9156764 Si02
#       6
#     4   4   4   4   4   4
#     4   8  17  32  53  76 101 129 163 202 248 297
#     4  10  18  30  48  73 100 132 168 203 240 293
#     4  10  18  33  54  76 100 131 164 203 248 294
#     4  11  21  34  51  75 101 131 167 206 246 294
#     4   9  16  31  52  74  98 130 166 204 244 293
#     4  10  19  34  53  76 101 131 167 208 250 295
#
# _framework density 18.328790999999999
#
# number of rings (size 3 to 8) (size 9 to 14) (size 15 to 20)
#    0.000    2.333    0.000    7.500    0.000    0.000 
#    0.000   11.667    0.000    0.000    0.000    0.000 
#    0.000    0.000    0.000    0.000    0.000    0.000 
#
# Total GULP energy -133788.123841 kJ/mol
# GULP energy per Si atom -5574.505160 kJ/mol
# Density = 1.828707 g / cm^3
# Si number density = 18.328791 Si / 1000 Ang^3
#
#
#
# Elastic Constant Matrix: (Units=GPa)
#
#
# Indices 1 2 3 4 5 6 
#
# 1 202.0921 17.0830 51.9943 0.0000 14.7946 0.0000
# 2 17.0830 40.4433 6.5627 0.0000 1.0700 0.0000
# 3 51.9943 6.5627 37.7396 0.0000 15.0250 0.0000
# 4 0.0000 0.0000 0.0000 5.6594 0.0000 -4.7804
# 5 14.7946 1.0700 15.0250 0.0000 33.9976 0.0000
# 6 0.0000 0.0000 0.0000 -4.7804 0.0000 33.6610
#
#
#
# Elastic Compliance Matrix: (Units=1/GPa)
#
#
# Indices 1 2 3 4 5 6 
#
# 1 0.007831 -0.001541 -0.011144 0.000000 0.001566 0.000000
# 2 -0.001541 0.025802 -0.002800 0.000000 0.001096 0.000000
# 3 -0.011144 -0.002800 0.048992 0.000000 -0.016714 0.000000
# 4 0.000000 0.000000 0.000000 0.200782 0.000000 0.028514
# 5 0.001566 0.001096 -0.016714 0.000000 0.036085 0.000000
# 6 0.000000 0.000000 0.000000 0.028514 0.000000 0.033757
#
#
# Mechanical properties :
#
#
# Convention : Reuss Voigt Hill
#
# Bulk Modulus (GPa) = 19.35944 47.95053 33.65499
# Shear Modulus (GPa) = 12.45519 28.30594 20.38056
#
# Velocity S-wave (km/s) = 2.60963 3.93408 3.33820
# Velocity P-wave (km/s) = 4.43458 6.84500 5.76713
#
# Compressibility (1/GPa) = 0.05165438
#
# Stress axis : x y z
#
# Youngs Moduli (GPa) = 127.69597 38.75630 20.41133
#
# Poissons Ratio (x) = 0.05972 0.22747
# Poissons Ratio (y) = 0.19676 0.05716
# Poissons Ratio (z) = 1.42310 0.10853
#
# Static dielectric constant tensor:
#      x y z
#    x 1.682240 0.000000 0.030270 
#    y 0.000000 1.613490 0.000000 
#    z 0.030270 0.000000 1.612050 
# 
# From -- ./inp_files/57410.got.cif
#   From: 2010.05.17/outbox.cif.g08.bks.cpg/sg11_29_cif.got.tgz:57410.got - 2010.06.03 12:22:45.
