data_PCOD9156299
_publ_section_title
;
Structure prediction by ZEFSAII (Michael W. Deem and Ramdas Pophale) SiO2 
 PCOD9156299
Probable space group: P 21/M
;
_chemical_formula_sum "Si O2"
_cell_formula_units_Z 32
_cell_length_a 20.563446
_cell_length_b 7.605923
_cell_length_c 20.950706
_cell_angle_alpha 90.000000
_cell_angle_beta 29.897859
_cell_angle_gamma 90.000000
_cell_volume 1633.325490
_symmetry_space_group_name_H-M "P 21/M"
_symmetry_group_IT_number 11
_symmetry_cell_setting 'monoclinic'
loop_
_space_group_symop_operation_xyz
x,y,z
-x,1/2+y,-z
-x,-y,-z
x,1/2-y,z
loop_
_atom_site_type_symbol
_atom_site_label
_atom_site_fract_x
_atom_site_fract_y
_atom_site_fract_z
Si Si1 0.148617 0.459260 0.353734
Si Si2 0.382620 0.965847 0.911749
Si Si3 0.086544 0.960028 0.774597
Si Si4 0.835671 0.456158 0.805668
Si Si5 0.785412 0.460475 0.063931
Si Si6 0.117915 0.042403 0.604386
Si Si7 0.320054 0.034352 0.327283
Si Si8 0.150824 0.539118 0.855129
O O1 0.160904 0.250000 0.340000
O O2 0.178197 0.529325 0.258256
O O3 0.246232 0.522883 0.325760
O O4 0.000000 0.500000 0.500000
O O5 0.384947 0.750000 0.909462
O O6 0.317167 0.024621 0.900955
O O7 0.530799 0.023961 0.794897
O O8 0.285938 0.025937 0.050498
O O9 0.093629 0.750000 0.768972
O O10 0.164141 0.027166 0.771275
O O11 0.136832 0.022393 0.663634
O O12 0.933379 0.007131 0.913541
O O13 0.841421 0.250000 0.817782
O O14 0.975920 0.533593 0.706679
O O15 0.770892 0.250000 0.079373
O O16 0.773543 0.529139 0.146772
O O17 0.111584 0.250000 0.595378
O O18 0.232923 0.974306 0.461517
O O19 0.321651 0.250000 0.325516
O O20 0.168672 0.750000 0.838189
O O21 0.000000 0.500000 0.000000
#
# Coordination Sequence:
#
# PCOD9156299 Si02
#       8
#     4   4   4   4   4   4   4   4
#     4  11  21  35  54  75 100 129 161 199 244 287
#     4   9  17  31  52  74  97 126 162 201 239 283
#     4  10  18  27  43  72 103 127 157 200 245 281
#     4  10  19  33  53  77  98 124 161 201 242 284
#     4   9  15  28  49  70  94 129 165 194 236 286
#     4  10  18  32  51  71  95 127 165 202 237 280
#     4   9  19  34  51  72  97 125 161 202 240 283
#     4   8  15  25  40  66  98 126 156 196 236 281
#
# _framework density 19.591930999999999
#
# number of rings (size 3 to 8) (size 9 to 14) (size 15 to 20)
#    0.000    2.500    2.500    0.750    0.000    1.500 
#    0.000    0.000    0.000    4.500    0.000    0.000 
#    0.000    0.000    0.000    0.000    0.000    0.625 
#
# Total GULP energy -178425.148603 kJ/mol
# GULP energy per Si atom -5575.785894 kJ/mol
# Density = 1.954734 g / cm^3
# Si number density = 19.591931 Si / 1000 Ang^3
#
#
#
# Elastic Constant Matrix: (Units=GPa)
#
#
# Indices 1 2 3 4 5 6 
#
# 1 143.9918 -10.0905 110.9245 0.0000 4.0625 0.0000
# 2 -10.0905 37.6320 3.4059 0.0000 -7.7498 0.0000
# 3 110.9245 3.4059 147.3787 0.0000 3.6339 0.0000
# 4 0.0000 0.0000 0.0000 6.9337 0.0000 6.4255
# 5 4.0625 -7.7498 3.6339 0.0000 27.5773 0.0000
# 6 0.0000 0.0000 0.0000 6.4255 0.0000 14.9575
#
#
#
# Elastic Compliance Matrix: (Units=1/GPa)
#
#
# Indices 1 2 3 4 5 6 
#
# 1 0.017802 0.006187 -0.013564 0.000000 0.000904 0.000000
# 2 0.006187 0.030462 -0.005567 0.000000 0.008383 0.000000
# 3 -0.013564 -0.005567 0.017168 0.000000 -0.001829 0.000000
# 4 0.000000 0.000000 0.000000 0.239609 0.000000 -0.102932
# 5 0.000904 0.008383 -0.001829 0.000000 0.038725 0.000000
# 6 0.000000 0.000000 0.000000 -0.102932 0.000000 0.111074
#
#
# Mechanical properties :
#
#
# Convention : Reuss Voigt Hill
#
# Bulk Modulus (GPa) = 25.28852 59.72024 42.50438
# Shear Modulus (GPa) = 10.12332 24.87789 17.50061
#
# Velocity S-wave (km/s) = 2.27559 3.56730 2.99198
# Velocity P-wave (km/s) = 4.45422 6.89316 5.80326
#
# Compressibility (1/GPa) = 0.03954364
#
# Stress axis : x y z
#
# Youngs Moduli (GPa) = 56.17416 32.82751 58.24880
#
# Poissons Ratio (x) = -0.20310 0.79007
# Poissons Ratio (y) = -0.34755 0.32429
# Poissons Ratio (z) = 0.76193 0.18276
#
# Static dielectric constant tensor:
#      x y z
#    x 1.713250 0.000000 0.016130 
#    y 0.000000 1.726530 0.000000 
#    z 0.016130 0.000000 1.649380 
# 
# From -- ./inp_files/66429.got.cif
#   From: 2010.05.17/outbox.cif.g08.bks.cpg/sg11_34_cif.got.tgz:66429.got - 2010.06.03 12:22:45.
