data_PCOD9156096
_publ_section_title
;
Structure prediction by ZEFSAII (Michael W. Deem and Ramdas Pophale) SiO2 
 PCOD9156096
Probable space group: P 21/M
;
_chemical_formula_sum "Si O2"
_cell_formula_units_Z 32
_cell_length_a 20.668585
_cell_length_b 19.948961
_cell_length_c 9.181737
_cell_angle_alpha 90.000000
_cell_angle_beta 27.206837
_cell_angle_gamma 90.000000
_cell_volume 1730.875976
_symmetry_space_group_name_H-M "P 21/M"
_symmetry_group_IT_number 11
_symmetry_cell_setting 'monoclinic'
loop_
_space_group_symop_operation_xyz
x,y,z
-x,1/2+y,-z
-x,-y,-z
x,1/2-y,z
loop_
_atom_site_type_symbol
_atom_site_label
_atom_site_fract_x
_atom_site_fract_y
_atom_site_fract_z
Si Si1 0.043516 0.823538 0.459973
Si Si2 0.733848 0.877041 0.613374
Si Si3 0.928676 0.623632 0.984551
Si Si4 0.331353 0.068136 0.688592
Si Si5 0.813966 0.469748 0.510793
Si Si6 0.478395 0.929224 0.962955
Si Si7 0.729526 0.673194 0.951838
Si Si8 0.844662 0.034757 0.790868
O O1 0.103769 0.750000 0.313032
O O2 0.135484 0.886372 0.225453
O O3 0.010091 0.833172 0.699387
O O4 0.892821 0.828843 0.679291
O O5 0.580446 0.877510 0.842305
O O6 0.724123 0.849683 0.795455
O O7 0.785268 0.955114 0.512423
O O8 0.852377 0.842155 0.274599
O O9 0.036979 0.565656 0.816877
O O10 0.797993 0.592514 0.155178
O O11 0.464352 0.063517 0.316332
O O12 0.348979 0.121538 0.783448
O O13 0.272703 0.999762 0.874758
O O14 0.804910 0.476079 0.703106
O O15 0.689551 0.420899 0.703761
O O16 0.500000 0.000000 0.000000
O O17 0.680663 0.750000 0.065631
O O18 0.000000 0.000000 0.500000
#
# Coordination Sequence:
#
# PCOD9156096 Si02
#       8
#     4   4   4   4   4   4   4   4
#     4   9  18  31  48  76 109 131 166 215 262 315
#     4  10  18  32  49  76 109 133 170 220 260 313
#     4   9  18  29  53  75 102 137 170 209 265 316
#     4  10  18  34  54  79 107 134 177 223 266 321
#     4  10  17  31  50  78 104 137 173 215 266 310
#     4   9  21  35  48  77 110 137 172 223 267 312
#     4  10  19  32  53  79 106 137 177 225 267 311
#     4  11  16  30  55  81 103 135 175 217 269 313
#
# _framework density 18.487749000000001
#
# number of rings (size 3 to 8) (size 9 to 14) (size 15 to 20)
#    0.000    2.250    5.000    0.375    0.000    1.000 
#    0.000    1.875    0.000    6.000    0.000    0.875 
#    0.000    0.000    0.000    0.000    0.000    0.000 
#
# Total GULP energy -178292.716476 kJ/mol
# GULP energy per Si atom -5571.647390 kJ/mol
# Density = 1.844567 g / cm^3
# Si number density = 18.487749 Si / 1000 Ang^3
#
#
#
# Elastic Constant Matrix: (Units=GPa)
#
#
# Indices 1 2 3 4 5 6 
#
# 1 83.9561 12.8119 28.0149 0.0000 12.8777 0.0000
# 2 12.8119 92.2349 24.0911 0.0000 14.8218 0.0000
# 3 28.0149 24.0911 55.1069 0.0000 18.3439 0.0000
# 4 0.0000 0.0000 0.0000 8.1604 0.0000 0.5250
# 5 12.8777 14.8218 18.3439 0.0000 30.5739 0.0000
# 6 0.0000 0.0000 0.0000 0.5250 0.0000 12.5366
#
#
#
# Elastic Compliance Matrix: (Units=1/GPa)
#
#
# Indices 1 2 3 4 5 6 
#
# 1 0.014452 0.000077 -0.006675 0.000000 -0.002119 0.000000
# 2 0.000077 0.012530 -0.004353 0.000000 -0.003495 0.000000
# 3 -0.006675 -0.004353 0.027246 0.000000 -0.011426 0.000000
# 4 0.000000 0.000000 0.000000 0.122874 0.000000 -0.005146
# 5 -0.002119 -0.003495 -0.011426 0.000000 0.042150 0.000000
# 6 0.000000 0.000000 0.000000 -0.005146 0.000000 0.079982
#
#
# Mechanical properties :
#
#
# Convention : Reuss Voigt Hill
#
# Bulk Modulus (GPa) = 30.93609 40.12595 35.53102
# Shear Modulus (GPa) = 15.06427 21.34619 18.20523
#
# Velocity S-wave (km/s) = 2.85761 3.40165 3.14143
# Velocity P-wave (km/s) = 5.25904 6.09750 5.69372
#
# Compressibility (1/GPa) = 0.03232470
#
# Stress axis : x y z
#
# Youngs Moduli (GPa) = 69.19614 79.80928 36.70217
#
# Poissons Ratio (x) = -0.00611 0.24498
# Poissons Ratio (y) = -0.00530 0.15978
# Poissons Ratio (z) = 0.46187 0.34744
#
# Static dielectric constant tensor:
#      x y z
#    x 1.659000 0.000000 0.001830 
#    y 0.000000 1.651430 0.000000 
#    z 0.001830 0.000000 1.645840 
# 
# From -- ./inp_files/27103.got.cif
#   From: 2010.05.17/outbox.cif.g08.bks.cpg/sg11_14_cif.got.tgz:27103.got - 2010.06.03 12:22:45.
