data_PCOD9156186
_publ_section_title
;
Structure prediction by ZEFSAII (Michael W. Deem and Ramdas Pophale) SiO2 
 PCOD9156186
Probable space group: P 21/M
;
_chemical_formula_sum "Si O2"
_cell_formula_units_Z 26
_cell_length_a 7.400404
_cell_length_b 19.431603
_cell_length_c 7.971533
_cell_angle_alpha 90.000000
_cell_angle_beta 86.915356
_cell_angle_gamma 90.000000
_cell_volume 1144.659226
_symmetry_space_group_name_H-M "P 21/M"
_symmetry_group_IT_number 11
_symmetry_cell_setting 'monoclinic'
loop_
_space_group_symop_operation_xyz
x,y,z
-x,1/2+y,-z
-x,-y,-z
x,1/2-y,z
loop_
_atom_site_type_symbol
_atom_site_label
_atom_site_fract_x
_atom_site_fract_y
_atom_site_fract_z
Si Si1 0.507143 0.250000 0.246382
Si Si2 0.299604 0.895453 0.067118
Si Si3 0.513854 0.098014 0.311616
Si Si4 0.310609 0.395822 0.819858
Si Si5 0.154895 0.750000 0.982993
Si Si6 0.248064 0.250000 0.931727
Si Si7 0.841416 0.019625 0.379856
Si Si8 0.830521 0.960286 0.828984
O O1 0.468806 0.178258 0.339615
O O2 0.719341 0.250000 0.187743
O O3 0.402155 0.250000 0.070188
O O4 0.473690 0.899083 0.178018
O O5 0.207944 0.820818 0.074359
O O6 0.174981 0.958880 0.126757
O O7 0.388329 0.906827 0.877560
O O8 0.666197 0.066345 0.425139
O O9 0.230526 0.079548 0.002566
O O10 0.260154 0.316520 0.814713
O O11 0.236749 0.448915 0.689862
O O12 0.942589 0.750000 0.963355
O O13 0.673874 0.942786 0.701299
O O14 0.968768 0.058902 0.237121
O O15 0.000000 0.000000 0.500000
#
# Coordination Sequence:
#
# PCOD9156186 Si02
#       8
#     2   4   4   4   2   2   4   4
#     4  10  20  34  57  91 125 144 191 253 305 356
#     4  10  17  35  58  88 116 151 188 250 306 341
#     4  10  20  37  58  88 121 151 192 252 299 353
#     4  11  20  38  60  91 122 147 200 254 298 357
#     4  10  20  28  50  89 129 144 176 237 314 362
#     4  12  20  32  61  94 122 148 189 256 315 348
#     4  12  26  39  57  89 122 165 205 240 295 358
#     4  11  20  36  65  85 114 149 202 255 301 340
#
# _framework density 22.714183999999999
#
# number of rings (size 3 to 8) (size 9 to 14) (size 15 to 20)
#    0.000    1.231    7.692    2.308    4.308    0.615 
#    0.000    0.769    0.000    0.000    0.000    0.000 
#    0.000    0.000    0.000    0.000    0.000    0.000 
#
# Total GULP energy -145372.337982 kJ/mol
# GULP energy per Si atom -5591.243769 kJ/mol
# Density = 2.266249 g / cm^3
# Si number density = 22.714184 Si / 1000 Ang^3
#
#
#
# Elastic Constant Matrix: (Units=GPa)
#
#
# Indices 1 2 3 4 5 6 
#
# 1 102.6488 19.2042 17.0459 0.0000 24.8705 0.0000
# 2 19.2042 139.8110 12.2894 0.0000 10.6368 0.0000
# 3 17.0459 12.2894 57.3588 0.0000 18.3307 0.0000
# 4 0.0000 0.0000 0.0000 4.7583 0.0000 8.3797
# 5 24.8705 10.6368 18.3307 0.0000 31.7144 0.0000
# 6 0.0000 0.0000 0.0000 8.3797 0.0000 6.8556
#
#
#
# Elastic Compliance Matrix: (Units=1/GPa)
#
#
# Indices 1 2 3 4 5 6 
#
# 1 0.012169 -0.000944 -0.000571 0.000000 -0.008896 0.000000
# 2 -0.000944 0.007457 -0.000925 0.000000 -0.001225 0.000000
# 3 -0.000571 -0.000925 0.021538 0.000000 -0.011691 0.000000
# 4 0.000000 0.000000 0.000000 -0.182337 0.000000 0.222873
# 5 -0.008896 -0.001225 -0.011691 0.000000 0.045676 0.000000
# 6 0.000000 0.000000 0.000000 0.222873 0.000000 -0.126554
#
#
# Mechanical properties :
#
#
# Convention : Reuss Voigt Hill
#
# Bulk Modulus (GPa) = 27.56169 44.09974 35.83071
# Shear Modulus (GPa) = -24.38124 25.41760 0.51818
#
# Velocity S-wave (km/s) = -3.27982 3.34880 0.47815
# Velocity P-wave (km/s) = 1.47733 5.86599 4.01418
#
# Compressibility (1/GPa) = 0.03628225
#
# Stress axis : x y z
#
# Youngs Moduli (GPa) = 82.17678 134.10551 46.42916
#
# Poissons Ratio (x) = 0.12666 0.02651
# Poissons Ratio (y) = 0.07762 0.04296
# Poissons Ratio (z) = 0.04692 0.12409
#
# Static dielectric constant tensor:
#      x y z
#    x 1.816470 0.000000 -0.017960 
#    y 0.000000 1.854730 0.000000 
#    z -0.017960 0.000000 1.955710 
# 
# From -- ./inp_files/14699.got.cif
#   From: 2010.05.17/outbox.cif.g08.bks.cpg/sg11_8_cif.got.tgz:14699.got - 2010.06.03 12:22:45.
