data_PCOD9156095
_publ_section_title
;
Structure prediction by ZEFSAII (Michael W. Deem and Ramdas Pophale) SiO2 
 PCOD9156095
Probable space group: P 21/M
;
_chemical_formula_sum "Si O2"
_cell_formula_units_Z 16
_cell_length_a 19.822893
_cell_length_b 5.510199
_cell_length_c 25.611926
_cell_angle_alpha 90.000000
_cell_angle_beta 12.642926
_cell_angle_gamma 90.000000
_cell_volume 612.310071
_symmetry_space_group_name_H-M "P 21/M"
_symmetry_group_IT_number 11
_symmetry_cell_setting 'monoclinic'
loop_
_space_group_symop_operation_xyz
x,y,z
-x,1/2+y,-z
-x,-y,-z
x,1/2-y,z
loop_
_atom_site_type_symbol
_atom_site_label
_atom_site_fract_x
_atom_site_fract_y
_atom_site_fract_z
Si Si1 0.746733 0.750000 0.162364
Si Si2 0.890704 0.250000 0.464866
Si Si3 0.201852 0.250000 0.125450
Si Si4 0.632684 0.750000 0.703111
Si Si5 0.421390 0.250000 0.144834
Si Si6 0.100377 0.250000 0.746505
Si Si7 0.254779 0.750000 0.626587
Si Si8 0.598642 0.250000 0.280558
O O1 0.558340 0.750000 0.360407
O O2 0.650155 0.496312 0.210205
O O3 0.110423 0.750000 0.899109
O O4 0.734807 0.499723 0.600096
O O5 0.938683 0.250000 0.367335
O O6 0.223301 0.250000 0.242298
O O7 0.035051 0.250000 0.195489
O O8 0.389079 0.498276 0.993797
O O9 0.777609 0.750000 0.651844
O O10 0.263097 0.750000 0.985931
O O11 0.209977 0.498459 0.690122
O O12 0.284223 0.250000 0.551462
#
# Coordination Sequence:
#
# PCOD9156095 Si02
#       8
#     2   2   2   2   2   2   2   2
#     4   8  14  23  41  67 102 124 160 204 256 289
#     4  12  26  38  55  81 109 135 177 225 269 313
#     4  12  22  39  58  80 105 140 177 219 268 314
#     4  12  22  39  56  80 106 140 174 222 266 313
#     4  12  23  41  60  76 102 141 182 220 266 317
#     4  10  18  31  52  73 103 134 174 206 254 308
#     4  10  17  31  50  76  99 136 170 212 251 310
#     4   8  14  24  40  69  98 130 156 206 252 294
#
# _framework density 26.130549999999999
#
# number of rings (size 3 to 8) (size 9 to 14) (size 15 to 20)
#    0.000    1.500    2.500    4.500    0.000    0.000 
#    0.000    0.000    0.000    0.000    0.000    1.750 
#    0.000    0.000    0.000    0.000    0.000    0.000 
#
# Total GULP energy -89631.123582 kJ/mol
# GULP energy per Si atom -5601.945224 kJ/mol
# Density = 2.607108 g / cm^3
# Si number density = 26.130550 Si / 1000 Ang^3
#
#
#
# Elastic Constant Matrix: (Units=GPa)
#
#
# Indices 1 2 3 4 5 6 
#
# 1 68.3485 22.6552 14.2624 0.0000 -21.8465 0.0000
# 2 22.6552 300.0776 62.1231 0.0000 -4.9717 0.0000
# 3 14.2624 62.1231 107.6979 0.0000 -21.1441 0.0000
# 4 0.0000 0.0000 0.0000 62.0426 0.0000 4.5627
# 5 -21.8465 -4.9717 -21.1441 0.0000 47.6518 0.0000
# 6 0.0000 0.0000 0.0000 4.5627 0.0000 6.5609
#
#
#
# Elastic Compliance Matrix: (Units=1/GPa)
#
#
# Indices 1 2 3 4 5 6 
#
# 1 0.017561 -0.001174 -0.000100 0.000000 0.007884 0.000000
# 2 -0.001174 0.003880 -0.002310 0.000000 -0.001159 0.000000
# 3 -0.000100 -0.002310 0.011584 0.000000 0.004853 0.000000
# 4 0.000000 0.000000 0.000000 0.016987 0.000000 -0.011813
# 5 0.007884 -0.001159 0.004853 0.000000 0.026633 0.000000
# 6 0.000000 0.000000 0.000000 -0.011813 0.000000 0.160633
#
#
# Mechanical properties :
#
#
# Convention : Reuss Voigt Hill
#
# Bulk Modulus (GPa) = 38.67665 74.91170 56.79418
# Shear Modulus (GPa) = 19.75773 48.38994 34.07384
#
# Velocity S-wave (km/s) = 2.75274 4.30798 3.61499
# Velocity P-wave (km/s) = 4.99368 7.31269 6.26148
#
# Compressibility (1/GPa) = 0.02585539
#
# Stress axis : x y z
#
# Youngs Moduli (GPa) = 56.94398 257.71875 86.32702
#
# Poissons Ratio (x) = 0.30267 0.00866
# Poissons Ratio (y) = 0.06688 0.19943
# Poissons Ratio (z) = 0.00571 0.59537
#
# Static dielectric constant tensor:
#      x y z
#    x 1.970600 0.000000 -0.009820 
#    y 0.000000 2.167040 0.000000 
#    z -0.009820 0.000000 2.022370 
# 
# From -- ./inp_files/23515.got.cif
#   From: 2010.05.17/outbox.cif.g08.bks.cpg/sg11_12_cif.got.tgz:23515.got - 2010.06.03 12:22:45.
