data_PCOD9156133
_publ_section_title
;
Structure prediction by ZEFSAII (Michael W. Deem and Ramdas Pophale) SiO2 
 PCOD9156133
Probable space group: P 21/M
;
_chemical_formula_sum "Si O2"
_cell_formula_units_Z 32
_cell_length_a 12.018699
_cell_length_b 14.010846
_cell_length_c 15.014956
_cell_angle_alpha 90.000000
_cell_angle_beta 32.020075
_cell_angle_gamma 90.000000
_cell_volume 1340.599371
_symmetry_space_group_name_H-M "P 21/M"
_symmetry_group_IT_number 11
_symmetry_cell_setting 'monoclinic'
loop_
_space_group_symop_operation_xyz
x,y,z
-x,1/2+y,-z
-x,-y,-z
x,1/2-y,z
loop_
_atom_site_type_symbol
_atom_site_label
_atom_site_fract_x
_atom_site_fract_y
_atom_site_fract_z
Si Si1 0.372418 0.867284 0.953477
Si Si2 0.325100 0.143621 0.397714
Si Si3 0.094108 0.132799 0.105506
Si Si4 0.114317 0.367072 0.717529
Si Si5 0.931407 0.108004 0.546324
Si Si6 0.281453 0.133297 0.796327
Si Si7 0.495593 0.135815 0.945793
Si Si8 0.243283 0.861641 0.528781
O O1 0.382572 0.750000 0.945130
O O2 0.493292 0.902850 0.784292
O O3 0.489362 0.900345 0.963472
O O4 0.129563 0.893004 0.123000
O O5 0.401858 0.250000 0.369486
O O6 0.242895 0.098000 0.544277
O O7 0.123854 0.153642 0.469414
O O8 0.090706 0.250000 0.108022
O O9 0.889821 0.099315 0.297830
O O10 0.131366 0.101961 0.978857
O O11 0.298636 0.101889 0.022737
O O12 0.118879 0.250000 0.710447
O O13 0.207079 0.395906 0.749193
O O14 0.715331 0.121827 0.746151
O O15 0.890373 0.135202 0.471784
O O16 0.000000 0.000000 0.500000
O O17 0.277042 0.250000 0.801881
O O18 0.522018 0.101646 0.647002
O O19 0.468549 0.250000 0.971065
O O20 0.274106 0.750000 0.528790
#
# Coordination Sequence:
#
# PCOD9156133 Si02
#       8
#     4   4   4   4   4   4   4   4
#     4   9  17  29  51  79 103 132 171 210 252 307
#     4  10  19  34  55  77 106 141 173 208 259 316
#     4   9  17  29  51  79 103 132 171 210 252 307
#     4   9  17  29  49  79 109 135 168 214 259 299
#     4  12  23  34  52  79 107 136 174 220 265 309
#     4   9  17  29  49  79 109 135 168 214 259 299
#     4  10  17  32  55  75 100 136 170 206 261 315
#     4  10  19  34  55  77 106 141 173 208 259 316
#
# _framework density 23.86992
#
# number of rings (size 3 to 8) (size 9 to 14) (size 15 to 20)
#    0.000    2.250    2.500    1.875    0.000    3.000 
#    0.000    7.500    0.000    0.750    0.000    1.750 
#    0.000    0.000    0.000    0.000    0.000    0.000 
#
# Total GULP energy -179015.093828 kJ/mol
# GULP energy per Si atom -5594.221682 kJ/mol
# Density = 2.381559 g / cm^3
# Si number density = 23.869920 Si / 1000 Ang^3
#
#
#
# Elastic Constant Matrix: (Units=GPa)
#
#
# Indices 1 2 3 4 5 6 
#
# 1 107.2322 5.3706 44.2341 0.0000 49.6561 0.0000
# 2 5.3706 63.8653 10.6179 0.0000 3.4304 0.0000
# 3 44.2341 10.6179 155.1672 0.0000 64.2499 0.0000
# 4 0.0000 0.0000 0.0000 20.3102 0.0000 1.3768
# 5 49.6561 3.4304 64.2499 0.0000 36.8765 0.0000
# 6 0.0000 0.0000 0.0000 1.3768 0.0000 0.6262
#
#
#
# Elastic Compliance Matrix: (Units=1/GPa)
#
#
# Indices 1 2 3 4 5 6 
#
# 1 -0.696473 0.058451 -0.687556 0.000000 2.130328 0.000000
# 2 0.058451 0.010956 0.056000 0.000000 -0.177294 0.000000
# 3 -0.687556 0.056000 -0.655434 0.000000 2.062583 0.000000
# 4 0.000000 0.000000 0.000000 0.057859 0.000000 -0.127205
# 5 2.130328 -0.177294 2.062583 0.000000 -6.418626 0.000000
# 6 0.000000 0.000000 0.000000 -0.127205 0.000000 1.876526
#
#
# Mechanical properties :
#
#
# Convention : Reuss Voigt Hill
#
# Bulk Modulus (GPa) = -0.40206 49.63444 24.61619
# Shear Modulus (GPa) = -0.90776 29.29873 14.19548
#
# Velocity S-wave (km/s) = -0.61735 3.50727 2.44130
# Velocity P-wave (km/s) = 0.82278 6.10247 4.27570
#
# Compressibility (1/GPa) = -2.48716243
#
# Stress axis : x y z
#
# Youngs Moduli (GPa) = -1.43581 91.27822 -1.52571
#
# Poissons Ratio (x) = -5.33530 -1.04901
# Poissons Ratio (y) = 0.08392 0.08544
# Poissons Ratio (z) = -0.98720 -5.11154
#
# Static dielectric constant tensor:
#      x y z
#    x 1.866160 0.000000 0.005070 
#    y 0.000000 1.913420 0.000000 
#    z 0.005070 0.000000 1.865160 
# 
# From -- ./inp_files/39941.got.cif
#   From: 2010.05.17/outbox.cif.g08.bks.cpg/sg11_20_cif.got.tgz:39941.got - 2010.06.03 12:22:45.
