data_PCOD9156857
_publ_section_title
;
Structure prediction by ZEFSAII (Michael W. Deem and Ramdas Pophale) SiO2 
 PCOD9156857
Probable space group: P 21/M
;
_chemical_formula_sum "Si O2"
_cell_formula_units_Z 28
_cell_length_a 13.807242
_cell_length_b 7.513535
_cell_length_c 17.876894
_cell_angle_alpha 90.000000
_cell_angle_beta 135.895705
_cell_angle_gamma 90.000000
_cell_volume 1290.719081
_symmetry_space_group_name_H-M "P 21/M"
_symmetry_group_IT_number 11
_symmetry_cell_setting 'monoclinic'
loop_
_space_group_symop_operation_xyz
x,y,z
-x,1/2+y,-z
-x,-y,-z
x,1/2-y,z
loop_
_atom_site_type_symbol
_atom_site_label
_atom_site_fract_x
_atom_site_fract_y
_atom_site_fract_z
Si Si1 0.335747 0.038446 0.183493
Si Si2 0.157966 0.963134 0.611972
Si Si3 0.905082 0.953558 0.849352
Si Si4 0.871865 0.465121 0.239539
Si Si5 0.797248 0.035558 0.037432
Si Si6 0.816013 0.040358 0.639106
Si Si7 0.633944 0.468571 0.402162
O O1 0.334703 0.250000 0.196902
O O2 0.198034 0.962911 0.147440
O O3 0.478403 0.970805 0.297912
O O4 0.321979 0.011705 0.087151
O O5 0.174902 0.750000 0.623737
O O6 0.178454 0.031236 0.707872
O O7 0.264094 0.028685 0.607997
O O8 0.000000 0.000000 0.500000
O O9 0.931755 0.750000 0.887441
O O10 0.056096 0.034296 0.915541
O O11 0.826392 0.953220 0.725999
O O12 0.865948 0.250000 0.237604
O O13 0.791516 0.526224 0.120210
O O14 0.033789 0.513900 0.316987
O O15 0.806289 0.250000 0.045329
O O16 0.796219 0.250000 0.640527
O O17 0.698395 0.974612 0.517043
O O18 0.635816 0.250000 0.403764
#
# Coordination Sequence:
#
# PCOD9156857 Si02
#       7
#     4   4   4   4   4   4   4
#     4  10  20  35  52  70  98 138 173 202 245 299
#     4  10  18  32  54  77 102 132 164 200 246 297
#     4   9  19  34  52  73  99 131 168 208 251 298
#     4   9  18  32  52  76 102 131 162 203 253 296
#     4   9  18  33  50  72  99 126 167 215 251 285
#     4  10  18  30  50  76 103 129 163 207 250 293
#     4   9  19  33  49  74 106 133 162 204 250 295
#
# _framework density 21.693334
#
# number of rings (size 3 to 8) (size 9 to 14) (size 15 to 20)
#    0.000    2.571    1.429    1.714    0.000    3.429 
#    0.000    2.857    0.000    0.000    0.000    0.000 
#    0.000    0.000    0.000    0.000    0.000    0.000 
#
# Total GULP energy -156289.220435 kJ/mol
# GULP energy per Si atom -5581.757873 kJ/mol
# Density = 2.164396 g / cm^3
# Si number density = 21.693334 Si / 1000 Ang^3
#
#
#
# Elastic Constant Matrix: (Units=GPa)
#
#
# Indices 1 2 3 4 5 6 
#
# 1 35.6386 0.6760 12.3527 0.0000 -20.2389 0.0000
# 2 0.6760 60.3094 -7.4977 0.0000 1.7704 0.0000
# 3 12.3527 -7.4977 132.8968 0.0000 -24.8160 0.0000
# 4 0.0000 0.0000 0.0000 22.0566 0.0000 -2.4680
# 5 -20.2389 1.7704 -24.8160 0.0000 21.6700 0.0000
# 6 0.0000 0.0000 0.0000 -2.4680 0.0000 7.8453
#
#
#
# Elastic Compliance Matrix: (Units=1/GPa)
#
#
# Indices 1 2 3 4 5 6 
#
# 1 0.064255 -0.001892 0.006558 0.000000 0.067676 0.000000
# 2 -0.001892 0.016756 0.000681 0.000000 -0.002355 0.000000
# 3 0.006558 0.000681 0.010287 0.000000 0.017849 0.000000
# 4 0.000000 0.000000 0.000000 0.046992 0.000000 0.014783
# 5 0.067676 -0.002355 0.017849 0.000000 0.129987 0.000000
# 6 0.000000 0.000000 0.000000 0.014783 0.000000 0.132115
#
#
# Mechanical properties :
#
#
# Convention : Reuss Voigt Hill
#
# Bulk Modulus (GPa) = 9.80453 26.65631 18.23042
# Shear Modulus (GPa) = 11.80099 25.20198 18.50149
#
# Velocity S-wave (km/s) = 2.33489 3.41213 2.92355
# Velocity P-wave (km/s) = 3.43488 5.27617 4.45176
#
# Compressibility (1/GPa) = 0.10199372
#
# Stress axis : x y z
#
# Youngs Moduli (GPa) = 15.56298 59.67940 97.21454
#
# Poissons Ratio (x) = 0.11288 -0.63754
# Poissons Ratio (y) = 0.02944 -0.06624
# Poissons Ratio (z) = -0.10206 -0.04066
#
# Static dielectric constant tensor:
#      x y z
#    x 1.787370 0.000000 -0.019720 
#    y 0.000000 1.814980 0.000000 
#    z -0.019720 0.000000 1.794030 
# 
# From -- ./inp_files/37194.got.cif
#   From: 2010.05.17/outbox.cif.g08.bks.cpg/sg11_19_cif.got.tgz:37194.got - 2010.06.03 12:22:45.
