data_PCOD9156180
_publ_section_title
;
Structure prediction by ZEFSAII (Michael W. Deem and Ramdas Pophale) SiO2 
 PCOD9156180
Probable space group: P 21/M
;
_chemical_formula_sum "Si O2"
_cell_formula_units_Z 24
_cell_length_a 11.361523
_cell_length_b 17.275677
_cell_length_c 16.734182
_cell_angle_alpha 90.000000
_cell_angle_beta 157.490619
_cell_angle_gamma 90.000000
_cell_volume 1257.440382
_symmetry_space_group_name_H-M "P 21/M"
_symmetry_group_IT_number 11
_symmetry_cell_setting 'monoclinic'
loop_
_space_group_symop_operation_xyz
x,y,z
-x,1/2+y,-z
-x,-y,-z
x,1/2-y,z
loop_
_atom_site_type_symbol
_atom_site_label
_atom_site_fract_x
_atom_site_fract_y
_atom_site_fract_z
Si Si1 0.168145 0.661540 0.294989
Si Si2 0.190378 0.397542 0.776352
Si Si3 0.150801 0.914715 0.764768
Si Si4 0.812925 0.079404 0.392471
Si Si5 0.885790 0.970476 0.014038
Si Si6 0.730369 0.926304 0.638912
O O1 0.131189 0.750000 0.249774
O O2 0.518979 0.641763 0.539778
O O3 0.955238 0.639547 0.236291
O O4 0.071268 0.604330 0.162427
O O5 0.167889 0.491145 0.772123
O O6 0.992317 0.375531 0.574586
O O7 0.553139 0.382254 0.002844
O O8 0.176797 0.885330 0.690027
O O9 0.842361 0.901824 0.621346
O O10 0.469707 0.054699 0.203375
O O11 0.000000 0.000000 0.500000
O O12 0.972898 0.041324 0.128253
O O13 0.000000 0.000000 0.000000
O O14 0.500000 0.000000 0.500000
#
# Coordination Sequence:
#
# PCOD9156180 Si02
#       6
#     4   4   4   4   4   4
#     4  11  23  40  59  84 125 166 200 255 325 376
#     4  10  18  35  58  89 117 149 195 248 302 361
#     4  10  17  34  58  90 121 145 195 257 291 344
#     4  10  20  30  59  97 115 143 190 253 307 345
#     4  11  21  36  59  92 120 156 209 262 300 357
#     4  10  19  35  58  84 117 157 203 251 296 356
#
# _framework density 19.086392
#
# number of rings (size 3 to 8) (size 9 to 14) (size 15 to 20)
#    0.000    1.667    5.000    3.000    7.000    0.000 
#    0.000    4.167    0.000    0.000    0.000    0.000 
#    0.000    0.000    0.000    0.000    0.000    0.000 
#
# Total GULP energy -133687.077525 kJ/mol
# GULP energy per Si atom -5570.294897 kJ/mol
# Density = 1.904295 g / cm^3
# Si number density = 19.086392 Si / 1000 Ang^3
#
#
#
# Elastic Constant Matrix: (Units=GPa)
#
#
# Indices 1 2 3 4 5 6 
#
# 1 136.6165 29.8576 54.0983 0.0000 8.6041 0.0000
# 2 29.8576 61.7060 19.6437 0.0000 -8.2447 0.0000
# 3 54.0983 19.6437 115.7930 0.0000 4.5374 0.0000
# 4 0.0000 0.0000 0.0000 8.2647 0.0000 -1.3544
# 5 8.6041 -8.2447 4.5374 0.0000 34.2686 0.0000
# 6 0.0000 0.0000 0.0000 -1.3544 0.0000 7.4001
#
#
#
# Elastic Compliance Matrix: (Units=1/GPa)
#
#
# Indices 1 2 3 4 5 6 
#
# 1 0.009886 -0.003954 -0.003833 0.000000 -0.002926 0.000000
# 2 -0.003954 0.019442 -0.001682 0.000000 0.005893 0.000000
# 3 -0.003833 -0.001682 0.010746 0.000000 -0.000865 0.000000
# 4 0.000000 0.000000 0.000000 0.124738 0.000000 0.022830
# 5 -0.002926 0.005893 -0.000865 0.000000 0.031448 0.000000
# 6 0.000000 0.000000 0.000000 0.022830 0.000000 0.139312
#
#
# Mechanical properties :
#
#
# Convention : Reuss Voigt Hill
#
# Bulk Modulus (GPa) = 47.31322 57.92387 52.61854
# Shear Modulus (GPa) = 13.82910 24.02105 18.92507
#
# Velocity S-wave (km/s) = 2.69467 3.55144 3.15230
# Velocity P-wave (km/s) = 5.87575 6.87249 6.39358
#
# Compressibility (1/GPa) = 0.02113574
#
# Stress axis : x y z
#
# Youngs Moduli (GPa) = 101.15115 51.43506 93.05594
#
# Poissons Ratio (x) = 0.20339 0.35671
# Poissons Ratio (y) = 0.39998 0.15650
# Poissons Ratio (z) = 0.38775 0.08650
#
# Static dielectric constant tensor:
#      x y z
#    x 1.719500 0.000000 -0.043010 
#    y 0.000000 1.663240 0.000000 
#    z -0.043010 0.000000 1.741120 
# 
# From -- ./inp_files/32601.got.cif
#   From: 2010.05.17/outbox.cif.g08.bks.cpg/sg11_17_cif.got.tgz:32601.got - 2010.06.03 12:22:45.
