data_PCOD9156332
_publ_section_title
;
Structure prediction by ZEFSAII (Michael W. Deem and Ramdas Pophale) SiO2 
 PCOD9156332
Probable space group: P 21/M
;
_chemical_formula_sum "Si O2"
_cell_formula_units_Z 32
_cell_length_a 17.399510
_cell_length_b 7.813253
_cell_length_c 25.238528
_cell_angle_alpha 90.000000
_cell_angle_beta 27.999795
_cell_angle_gamma 90.000000
_cell_volume 1610.791375
_symmetry_space_group_name_H-M "P 21/M"
_symmetry_group_IT_number 11
_symmetry_cell_setting 'monoclinic'
loop_
_space_group_symop_operation_xyz
x,y,z
-x,1/2+y,-z
-x,-y,-z
x,1/2-y,z
loop_
_atom_site_type_symbol
_atom_site_label
_atom_site_fract_x
_atom_site_fract_y
_atom_site_fract_z
Si Si1 0.484341 0.546633 0.816373
Si Si2 0.037665 0.939992 0.717524
Si Si3 0.160762 0.544935 0.061325
Si Si4 0.121048 0.448319 0.844037
Si Si5 0.316305 0.444995 0.618418
Si Si6 0.603212 0.541146 0.250470
Si Si7 0.169111 0.044998 0.424765
Si Si8 0.246481 0.952400 0.496961
O O1 0.493854 0.750000 0.820146
O O2 0.421532 0.516206 0.794722
O O3 0.669932 0.480005 0.704781
O O4 0.342789 0.477119 0.940598
O O5 0.978528 0.750000 0.739981
O O6 0.111140 0.025924 0.619824
O O7 0.199498 0.936778 0.655417
O O8 0.907784 0.016220 0.837961
O O9 0.159482 0.750000 0.054778
O O10 0.036833 0.476745 0.090600
O O11 0.081932 0.250000 0.881128
O O12 0.257530 0.448768 0.714563
O O13 0.223910 0.522074 0.830614
O O14 0.500000 0.500000 0.500000
O O15 0.291108 0.250000 0.615187
O O16 0.604846 0.750000 0.251286
O O17 0.435665 0.483611 0.382821
O O18 0.181211 0.250000 0.421419
O O19 0.185534 0.974115 0.474127
O O20 0.000000 0.000000 0.500000
O O21 0.256561 0.750000 0.503288
#
# Coordination Sequence:
#
# PCOD9156332 Si02
#       8
#     4   4   4   4   4   4   4   4
#     4   9  19  34  50  71  99 129 160 198 246 296
#     4  10  19  31  48  71  98 129 168 209 246 289
#     4   9  18  33  49  66  96 137 173 203 241 288
#     4   8  15  27  42  61  89 128 169 206 244 282
#     4  10  18  28  42  61  90 129 172 216 259 298
#     4   9  16  28  46  67  93 128 168 206 246 288
#     4  10  20  35  57  82 104 125 154 195 245 302
#     4   9  18  32  50  73 103 133 160 199 249 294
#
# _framework density 19.866011
#
# number of rings (size 3 to 8) (size 9 to 14) (size 15 to 20)
#    0.000    2.750    0.000    2.625    0.000    4.500 
#    0.000    5.625    0.000    0.750    0.000    0.000 
#    0.000    0.000    0.000    0.000    0.000    0.000 
#
# Total GULP energy -178214.842191 kJ/mol
# GULP energy per Si atom -5569.213818 kJ/mol
# Density = 1.982079 g / cm^3
# Si number density = 19.866011 Si / 1000 Ang^3
#
#
#
# Elastic Constant Matrix: (Units=GPa)
#
#
# Indices 1 2 3 4 5 6 
#
# 1 29.5415 -11.2229 29.2226 0.0000 -6.4871 0.0000
# 2 -11.2229 23.8414 -3.7920 0.0000 -2.4053 0.0000
# 3 29.2226 -3.7920 152.2771 0.0000 -9.4050 0.0000
# 4 0.0000 0.0000 0.0000 7.1054 0.0000 4.0131
# 5 -6.4871 -2.4053 -9.4050 0.0000 16.8981 0.0000
# 6 0.0000 0.0000 0.0000 4.0131 0.0000 16.4350
#
#
#
# Elastic Compliance Matrix: (Units=1/GPa)
#
#
# Indices 1 2 3 4 5 6 
#
# 1 0.058274 0.028119 -0.009169 0.000000 0.021271 0.000000
# 2 0.028119 0.056450 -0.002928 0.000000 0.017200 0.000000
# 3 -0.009169 -0.002928 0.008296 0.000000 0.000680 0.000000
# 4 0.000000 0.000000 0.000000 0.163252 0.000000 -0.039863
# 5 0.021271 0.017200 0.000680 0.000000 0.070171 0.000000
# 6 0.000000 0.000000 0.000000 -0.039863 0.000000 0.070580
#
#
# Mechanical properties :
#
#
# Convention : Reuss Voigt Hill
#
# Bulk Modulus (GPa) = 6.44897 26.00838 16.22867
# Shear Modulus (GPa) = 11.19403 20.85117 16.02260
#
# Velocity S-wave (km/s) = 2.37634 3.24325 2.84303
# Velocity P-wave (km/s) = 3.28369 5.21011 4.35476
#
# Compressibility (1/GPa) = 0.15506351
#
# Stress axis : x y z
#
# Youngs Moduli (GPa) = 17.16022 17.71481 120.54471
#
# Poissons Ratio (x) = -0.49812 1.10529
# Poissons Ratio (y) = -0.48253 0.35297
# Poissons Ratio (z) = 0.15734 0.05187
#
# Static dielectric constant tensor:
#      x y z
#    x 1.679770 0.000000 0.015090 
#    y 0.000000 1.742160 0.000000 
#    z 0.015090 0.000000 1.763260 
# 
# From -- ./inp_files/69433.got.cif
#   From: 2010.05.17/outbox.cif.g08.bks.cpg/sg11_35_cif.got.tgz:69433.got - 2010.06.03 12:22:45.
