data_PCOD9156225
_publ_section_title
;
Structure prediction by ZEFSAII (Michael W. Deem and Ramdas Pophale) SiO2 
 PCOD9156225
Probable space group: P 21/M
;
_chemical_formula_sum "Si O2"
_cell_formula_units_Z 32
_cell_length_a 20.842959
_cell_length_b 8.990855
_cell_length_c 12.295757
_cell_angle_alpha 90.000000
_cell_angle_beta 117.090280
_cell_angle_gamma 90.000000
_cell_volume 2051.384976
_symmetry_space_group_name_H-M "P 21/M"
_symmetry_group_IT_number 11
_symmetry_cell_setting 'monoclinic'
loop_
_space_group_symop_operation_xyz
x,y,z
-x,1/2+y,-z
-x,-y,-z
x,1/2-y,z
loop_
_atom_site_type_symbol
_atom_site_label
_atom_site_fract_x
_atom_site_fract_y
_atom_site_fract_z
Si Si1 0.755352 0.576859 0.423747
Si Si2 0.966029 0.427507 0.866977
Si Si3 0.993031 0.425688 0.319967
Si Si4 0.888492 0.074803 0.434270
Si Si5 0.811097 0.925147 0.715739
Si Si6 0.529875 0.570821 0.634762
Si Si7 0.329509 0.923399 0.317807
Si Si8 0.616913 0.077959 0.388344
O O1 0.758755 0.750000 0.398509
O O2 0.807840 0.483038 0.387385
O O3 0.786898 0.558997 0.570884
O O4 0.673350 0.520229 0.365895
O O5 0.967596 0.250000 0.873986
O O6 0.007792 0.485733 0.792593
O O7 0.884343 0.485953 0.790819
O O8 0.000000 0.500000 0.000000
O O9 0.002751 0.250000 0.306701
O O10 0.060258 0.484985 0.443136
O O11 0.923149 0.446908 0.342089
O O12 0.893009 0.250000 0.463830
O O13 0.821483 0.750000 0.744783
O O14 0.746159 0.991332 0.737472
O O15 0.500000 0.500000 0.500000
O O16 0.533306 0.750000 0.626960
O O17 0.609167 0.502070 0.707262
O O18 0.467488 0.535387 0.674383
O O19 0.321481 0.750000 0.283642
O O20 0.357760 0.929351 0.465280
O O21 0.623411 0.250000 0.360072
#
# Coordination Sequence:
#
# PCOD9156225 Si02
#       8
#     4   4   4   4   4   4   4   4
#     4  10  18  26  41  62  87 115 147 186 223 264
#     4  12  24  37  53  69  90 119 150 189 233 277
#     4  10  20  34  49  69  91 114 149 187 227 274
#     4  10  19  30  48  68  91 119 147 186 229 270
#     4  10  19  31  45  63  86 112 147 188 224 266
#     4   9  15  23  34  50  73 104 141 180 217 258
#     4   9  16  25  38  55  76 106 142 180 219 261
#     4   8  15  24  34  50  77 109 144 178 215 261
#
# _framework density 15.599216
#
# number of rings (size 3 to 8) (size 9 to 14) (size 15 to 20)
#    0.000    2.250    1.250    4.125    0.000    6.000 
#    0.000    0.000    0.000    0.000    0.000    0.000 
#    0.000    0.000    0.000    1.125    0.000   14.875 
#
# Total GULP energy -178349.970963 kJ/mol
# GULP energy per Si atom -5573.436593 kJ/mol
# Density = 1.556371 g / cm^3
# Si number density = 15.599216 Si / 1000 Ang^3
#
#
#
# Elastic Constant Matrix: (Units=GPa)
#
#
# Indices 1 2 3 4 5 6 
#
# 1 127.3747 73.9408 16.3276 0.0000 0.1116 0.0000
# 2 73.9408 119.6247 29.0081 0.0000 -2.6709 0.0000
# 3 16.3276 29.0081 28.2326 0.0000 -8.1549 0.0000
# 4 0.0000 0.0000 0.0000 14.5946 0.0000 1.7766
# 5 0.1116 -2.6709 -8.1549 0.0000 7.6321 0.0000
# 6 0.0000 0.0000 0.0000 1.7766 0.0000 31.7718
#
#
#
# Elastic Compliance Matrix: (Units=1/GPa)
#
#
# Indices 1 2 3 4 5 6 
#
# 1 0.012306 -0.007642 -0.000130 0.000000 -0.002993 0.000000
# 2 -0.007642 0.016701 -0.015939 0.000000 -0.011074 0.000000
# 3 -0.000130 -0.015939 0.072698 0.000000 0.072102 0.000000
# 4 0.000000 0.000000 0.000000 0.068988 0.000000 -0.003858
# 5 -0.002993 -0.011074 0.072102 0.000000 0.204235 0.000000
# 6 0.000000 0.000000 0.000000 -0.003858 0.000000 0.031690
#
#
# Mechanical properties :
#
#
# Convention : Reuss Voigt Hill
#
# Bulk Modulus (GPa) = 18.42152 57.08722 37.75437
# Shear Modulus (GPa) = 10.59023 21.19674 15.89348
#
# Velocity S-wave (km/s) = 2.60839 3.69023 3.19543
# Velocity P-wave (km/s) = 4.57236 7.40491 6.15383
#
# Compressibility (1/GPa) = 0.05428433
#
# Stress axis : x y z
#
# Youngs Moduli (GPa) = 81.25971 59.87730 13.75555
#
# Poissons Ratio (x) = 0.45758 0.00178
# Poissons Ratio (y) = 0.62098 0.21925
# Poissons Ratio (z) = 0.01053 0.95437
#
# Static dielectric constant tensor:
#      x y z
#    x 1.557790 0.000000 0.006330 
#    y 0.000000 1.519010 0.000000 
#    z 0.006330 0.000000 1.487320 
# 
# From -- ./inp_files/42499.got.cif
#   From: 2010.05.17/outbox.cif.g08.bks.cpg/sg11_22_cif.got.tgz:42499.got - 2010.06.03 12:22:45.
