data_PCOD9156076
_publ_section_title
;
Structure prediction by ZEFSAII (Michael W. Deem and Ramdas Pophale) SiO2 
 PCOD9156076
Probable space group: P 21/M
;
_chemical_formula_sum "Si O2"
_cell_formula_units_Z 20
_cell_length_a 7.160019
_cell_length_b 15.665174
_cell_length_c 12.672078
_cell_angle_alpha 90.000000
_cell_angle_beta 40.077131
_cell_angle_gamma 90.000000
_cell_volume 915.083092
_symmetry_space_group_name_H-M "P 21/M"
_symmetry_group_IT_number 11
_symmetry_cell_setting 'monoclinic'
loop_
_space_group_symop_operation_xyz
x,y,z
-x,1/2+y,-z
-x,-y,-z
x,1/2-y,z
loop_
_atom_site_type_symbol
_atom_site_label
_atom_site_fract_x
_atom_site_fract_y
_atom_site_fract_z
Si Si1 0.442676 0.930751 0.611611
Si Si2 0.983002 0.845856 0.920148
Si Si3 0.519036 0.022894 0.805537
Si Si4 0.553650 0.843118 0.824700
Si Si5 0.976616 0.656409 0.445797
O O1 0.138877 0.881601 0.747609
O O2 0.693577 0.860019 0.497228
O O3 0.500000 0.000000 0.500000
O O4 0.472874 0.982639 0.708897
O O5 0.869793 0.750000 0.958822
O O6 0.251030 0.840282 0.887969
O O7 0.745501 0.914386 0.055694
O O8 0.804397 0.080687 0.673506
O O9 0.543049 0.940113 0.872323
O O10 0.562716 0.750000 0.876435
O O11 0.831351 0.844932 0.625305
O O12 0.105055 0.750000 0.372883
#
# Coordination Sequence:
#
# PCOD9156076 Si02
#       5
#     4   4   4   4   4
#     4  10  19  33  52  75 105 141 171 211 263 315
#     4   9  17  31  50  73 102 137 173 212 255 305
#     4  10  17  30  53  78  98 131 178 216 250 301
#     4   8  14  25  43  67  97 128 161 203 248 290
#     4   9  17  31  50  73 102 137 173 212 255 305
#
# _framework density 21.855937000000001
#
# number of rings (size 3 to 8) (size 9 to 14) (size 15 to 20)
#    0.000    3.200    0.000    7.200    0.000    0.000 
#    0.000    5.000    0.000    4.800    0.000   11.200 
#    0.000    0.000    0.000    0.000    0.000    0.000 
#
# Total GULP energy -111355.032787 kJ/mol
# GULP energy per Si atom -5567.751639 kJ/mol
# Density = 2.180619 g / cm^3
# Si number density = 21.855937 Si / 1000 Ang^3
#
#
#
# Elastic Constant Matrix: (Units=GPa)
#
#
# Indices 1 2 3 4 5 6 
#
# 1 27.9083 16.1559 8.0305 0.0000 -0.1174 0.0000
# 2 16.1559 239.0086 65.8342 0.0000 -9.2043 0.0000
# 3 8.0305 65.8342 87.8344 0.0000 -26.3432 0.0000
# 4 0.0000 0.0000 0.0000 35.2471 0.0000 -8.0842
# 5 -0.1174 -9.2043 -26.3432 0.0000 14.2741 0.0000
# 6 0.0000 0.0000 0.0000 -8.0842 0.0000 16.8140
#
#
#
# Elastic Compliance Matrix: (Units=1/GPa)
#
#
# Indices 1 2 3 4 5 6 
#
# 1 0.038290 -0.001411 -0.005871 0.000000 -0.011431 0.000000
# 2 -0.001411 0.005858 -0.007016 0.000000 -0.009181 0.000000
# 3 -0.005871 -0.007016 0.035407 0.000000 0.060773 0.000000
# 4 0.000000 0.000000 0.000000 0.031888 0.000000 0.015332
# 5 -0.011431 -0.009181 0.060773 0.000000 0.176200 0.000000
# 6 0.000000 0.000000 0.000000 0.015332 0.000000 0.066846
#
#
# Mechanical properties :
#
#
# Convention : Reuss Voigt Hill
#
# Bulk Modulus (GPa) = 19.62366 59.42139 39.52253
# Shear Modulus (GPa) = 12.49777 30.91573 21.70675
#
# Velocity S-wave (km/s) = 2.39388 3.76510 3.15489
# Velocity P-wave (km/s) = 4.07909 6.79323 5.60299
#
# Compressibility (1/GPa) = 0.05095890
#
# Stress axis : x y z
#
# Youngs Moduli (GPa) = 26.11648 170.70211 28.24296
#
# Poissons Ratio (x) = 0.24089 0.16583
# Poissons Ratio (y) = 0.03685 0.19814
# Poissons Ratio (z) = 0.15334 1.19756
#
# Static dielectric constant tensor:
#      x y z
#    x 1.578030 0.000000 0.122780 
#    y 0.000000 1.851110 0.000000 
#    z 0.122780 0.000000 1.733690 
# 
# From -- ./inp_files/22647.got.cif
#   From: 2010.05.17/outbox.cif.g08.bks.cpg/sg11_12_cif.got.tgz:22647.got - 2010.06.03 12:22:45.
