data_PCOD9156469
_publ_section_title
;
Structure prediction by ZEFSAII (Michael W. Deem and Ramdas Pophale) SiO2 
 PCOD9156469
Probable space group: P 21/M
;
_chemical_formula_sum "Si O2"
_cell_formula_units_Z 28
_cell_length_a 15.018845
_cell_length_b 7.509100
_cell_length_c 13.531159
_cell_angle_alpha 90.000000
_cell_angle_beta 55.919112
_cell_angle_gamma 90.000000
_cell_volume 1263.919601
_symmetry_space_group_name_H-M "P 21/M"
_symmetry_group_IT_number 11
_symmetry_cell_setting 'monoclinic'
loop_
_space_group_symop_operation_xyz
x,y,z
-x,1/2+y,-z
-x,-y,-z
x,1/2-y,z
loop_
_atom_site_type_symbol
_atom_site_label
_atom_site_fract_x
_atom_site_fract_y
_atom_site_fract_z
Si Si1 0.110939 0.463274 0.485928
Si Si2 0.338552 0.040846 0.033982
Si Si3 0.665774 0.969038 0.741969
Si Si4 0.875833 0.034902 0.938383
Si Si5 0.537187 0.047922 0.238524
Si Si6 0.101007 0.462880 0.715376
Si Si7 0.744451 0.463750 0.209548
O O1 0.122635 0.250000 0.484233
O O2 0.215289 0.527586 0.361883
O O3 0.108266 0.532619 0.599658
O O4 0.000000 0.500000 0.500000
O O5 0.364260 0.250000 0.012127
O O6 0.362491 0.974446 0.129007
O O7 0.211997 0.017474 0.089153
O O8 0.401306 0.948634 0.905659
O O9 0.662794 0.750000 0.745413
O O10 0.577852 0.031757 0.717191
O O11 0.878895 0.250000 0.940346
O O12 0.994181 0.968660 0.837592
O O13 0.827334 0.971148 0.073123
O O14 0.516719 0.250000 0.285018
O O15 0.625475 0.966193 0.257200
O O16 0.088155 0.250000 0.716793
O O17 0.205638 0.497055 0.715918
O O18 0.738318 0.250000 0.202334
#
# Coordination Sequence:
#
# PCOD9156469 Si02
#       7
#     4   4   4   4   4   4   4
#     4  10  21  37  55  76 100 130 165 202 243 289
#     4  10  18  28  48  78 103 127 161 204 247 289
#     4   9  18  33  52  72  99 134 168 198 241 297
#     4   9  18  32  48  71 102 135 164 195 244 301
#     4   9  18  34  52  71  99 134 165 198 242 297
#     4  10  20  33  51  73  99 130 166 206 246 285
#     4   9  18  31  49  71  96 128 166 203 245 294
#
# _framework density 22.153307000000002
#
# number of rings (size 3 to 8) (size 9 to 14) (size 15 to 20)
#    0.000    2.571    0.000    3.000    0.000    3.429 
#    0.000    2.857    0.000    0.000    0.000    0.000 
#    0.000    0.000    0.000    0.000    0.000    0.000 
#
# Total GULP energy -156357.013019 kJ/mol
# GULP energy per Si atom -5584.179036 kJ/mol
# Density = 2.210289 g / cm^3
# Si number density = 22.153307 Si / 1000 Ang^3
#
#
#
# Elastic Constant Matrix: (Units=GPa)
#
#
# Indices 1 2 3 4 5 6 
#
# 1 156.8653 -13.5256 42.1452 0.0000 5.9590 0.0000
# 2 -13.5256 62.6656 -3.0039 0.0000 -0.1662 0.0000
# 3 42.1452 -3.0039 38.0571 0.0000 10.1929 0.0000
# 4 0.0000 0.0000 0.0000 4.7791 0.0000 3.5878
# 5 5.9590 -0.1662 10.1929 0.0000 38.1930 0.0000
# 6 0.0000 0.0000 0.0000 3.5878 0.0000 18.3932
#
#
#
# Elastic Compliance Matrix: (Units=1/GPa)
#
#
# Indices 1 2 3 4 5 6 
#
# 1 0.009280 0.001502 -0.010525 0.000000 0.001367 0.000000
# 2 0.001502 0.016264 -0.000362 0.000000 -0.000067 0.000000
# 3 -0.010525 -0.000362 0.040348 0.000000 -0.009127 0.000000
# 4 0.000000 0.000000 0.000000 0.245144 0.000000 -0.047818
# 5 0.001367 -0.000067 -0.009127 0.000000 0.028405 0.000000
# 6 0.000000 0.000000 0.000000 -0.047818 0.000000 0.063695
#
#
# Mechanical properties :
#
#
# Convention : Reuss Voigt Hill
#
# Bulk Modulus (GPa) = 21.22081 34.31324 27.76703
# Shear Modulus (GPa) = 11.42561 27.73788 19.58174
#
# Velocity S-wave (km/s) = 2.27348 3.54232 2.97630
# Velocity P-wave (km/s) = 4.06097 5.67920 4.93684
#
# Compressibility (1/GPa) = 0.04712354
#
# Stress axis : x y z
#
# Youngs Moduli (GPa) = 107.75675 61.48390 24.78458
#
# Poissons Ratio (x) = -0.09236 0.26085
# Poissons Ratio (y) = -0.16187 0.00897
# Poissons Ratio (z) = 1.13411 0.02224
#
# Static dielectric constant tensor:
#      x y z
#    x 1.825060 0.000000 -0.010360 
#    y 0.000000 1.843410 0.000000 
#    z -0.010360 0.000000 1.781380 
# 
# From -- ./inp_files/37884.got.cif
#   From: 2010.05.17/outbox.cif.g08.bks.cpg/sg11_19_cif.got.tgz:37884.got - 2010.06.03 12:22:45.
