data_PCOD9156722
_publ_section_title
;
Structure prediction by ZEFSAII (Michael W. Deem and Ramdas Pophale) SiO2 
 PCOD9156722
Probable space group: P 21/M
;
_chemical_formula_sum "Si O2"
_cell_formula_units_Z 32
_cell_length_a 10.725287
_cell_length_b 7.438405
_cell_length_c 25.992272
_cell_angle_alpha 90.000000
_cell_angle_beta 128.200935
_cell_angle_gamma 90.000000
_cell_volume 1629.561952
_symmetry_space_group_name_H-M "P 21/M"
_symmetry_group_IT_number 11
_symmetry_cell_setting 'monoclinic'
loop_
_space_group_symop_operation_xyz
x,y,z
-x,1/2+y,-z
-x,-y,-z
x,1/2-y,z
loop_
_atom_site_type_symbol
_atom_site_label
_atom_site_fract_x
_atom_site_fract_y
_atom_site_fract_z
Si Si1 0.270934 0.470440 0.351320
Si Si2 0.536913 0.964619 0.929315
Si Si3 0.854510 0.534974 0.569831
Si Si4 0.251162 0.535380 0.929493
Si Si5 0.783816 0.029563 0.351593
Si Si6 0.326618 0.531301 0.786976
Si Si7 0.376614 0.535553 0.584396
Si Si8 0.965827 0.468700 0.212841
O O1 0.272546 0.250000 0.352132
O O2 0.217198 0.529964 0.394462
O O3 0.446976 0.532713 0.382372
O O4 0.136176 0.528053 0.276499
O O5 0.523021 0.750000 0.924648
O O6 0.399111 0.034467 0.932784
O O7 0.481489 0.027582 0.858893
O O8 0.703593 0.999996 0.999874
O O9 0.866499 0.750000 0.577812
O O10 0.739244 0.496356 0.493080
O O11 0.033145 0.470028 0.605304
O O12 0.251033 0.750000 0.924820
O O13 0.095277 0.472414 0.859133
O O14 0.784649 0.250000 0.352410
O O15 0.694221 0.971954 0.276764
O O16 0.700803 0.967280 0.382624
O O17 0.327214 0.750000 0.785866
O O18 0.170984 0.481099 0.780796
O O19 0.391106 0.750000 0.594090
O O20 0.969744 0.250000 0.213943
#
# Coordination Sequence:
#
# PCOD9156722 Si02
#       8
#     4   4   4   4   4   4   4   4
#     4   9  16  27  43  63  83 106 138 172 203 237
#     4   8  13  20  33  54  78 101 125 158 196 231
#     4  10  18  30  48  62  77 110 144 164 195 254
#     4   8  13  20  33  54  78 101 125 158 196 231
#     4   9  16  27  43  63  83 106 138 172 203 237
#     4   8  12  21  38  58  77 102 138 168 189 229
#     4  10  20  30  42  64  89 104 126 176 221 236
#     4   8  12  21  38  58  77 102 138 168 189 229
#
# _framework density 19.637179
#
# number of rings (size 3 to 8) (size 9 to 14) (size 15 to 20)
#    0.000    3.250    1.250    2.250    0.000    0.000 
#    0.000    0.000    0.000    3.000    0.000    0.875 
#    0.000    0.000    0.000    0.000    0.000    0.000 
#
# Total GULP energy -178279.475428 kJ/mol
# GULP energy per Si atom -5571.233607 kJ/mol
# Density = 1.959248 g / cm^3
# Si number density = 19.637179 Si / 1000 Ang^3
#
#
#
# Elastic Constant Matrix: (Units=GPa)
#
#
# Indices 1 2 3 4 5 6 
#
# 1 119.7262 8.0961 100.9174 0.0000 -1.4416 0.0000
# 2 8.0961 58.4458 1.8152 0.0000 -0.4981 0.0000
# 3 100.9174 1.8152 253.2135 0.0000 14.2980 0.0000
# 4 0.0000 0.0000 0.0000 18.9314 0.0000 2.1359
# 5 -1.4416 -0.4981 14.2980 0.0000 -1.1366 0.0000
# 6 0.0000 0.0000 0.0000 2.1359 0.0000 -6.0606
#
#
#
# Elastic Compliance Matrix: (Units=1/GPa)
#
#
# Indices 1 2 3 4 5 6 
#
# 1 0.009600 -0.001569 -0.001851 0.000000 -0.034776 0.000000
# 2 -0.001569 0.017316 0.000478 0.000000 0.000412 0.000000
# 3 -0.001851 0.000478 0.002668 0.000000 0.035699 0.000000
# 4 0.000000 0.000000 0.000000 0.050802 0.000000 0.017904
# 5 -0.034776 0.000412 0.035699 0.000000 -0.386815 0.000000
# 6 0.000000 0.000000 0.000000 0.017904 0.000000 -0.158691
#
#
# Mechanical properties :
#
#
# Convention : Reuss Voigt Hill
#
# Bulk Modulus (GPa) = 42.19481 72.56033 57.37757
# Shear Modulus (GPa) = -11.07821 23.71729 6.31954
#
# Velocity S-wave (km/s) = -2.37775 3.47908 1.79587
# Velocity P-wave (km/s) = 3.74107 7.29173 5.79504
#
# Compressibility (1/GPa) = 0.02369960
#
# Stress axis : x y z
#
# Youngs Moduli (GPa) = 104.16563 57.75056 374.83824
#
# Poissons Ratio (x) = 0.09059 0.69389
# Poissons Ratio (y) = 0.16341 -0.17910
# Poissons Ratio (z) = 0.19283 -0.02759
#
# Static dielectric constant tensor:
#      x y z
#    x 1.640770 0.000000 0.008050 
#    y 0.000000 1.762320 0.000000 
#    z 0.008050 0.000000 1.732940 
# 
# From -- ./inp_files/61433.got.cif
#   From: 2010.05.17/outbox.cif.g08.bks.cpg/sg11_31_cif.got.tgz:61433.got - 2010.06.03 12:22:45.
