data_PCOD9156730
_publ_section_title
;
Structure prediction by ZEFSAII (Michael W. Deem and Ramdas Pophale) SiO2 
 PCOD9156730
Probable space group: P 21/M
;
_chemical_formula_sum "Si O2"
_cell_formula_units_Z 28
_cell_length_a 10.361597
_cell_length_b 8.982824
_cell_length_c 32.902940
_cell_angle_alpha 90.000000
_cell_angle_beta 146.341417
_cell_angle_gamma 90.000000
_cell_volume 1697.361810
_symmetry_space_group_name_H-M "P 21/M"
_symmetry_group_IT_number 11
_symmetry_cell_setting 'monoclinic'
loop_
_space_group_symop_operation_xyz
x,y,z
-x,1/2+y,-z
-x,-y,-z
x,1/2-y,z
loop_
_atom_site_type_symbol
_atom_site_label
_atom_site_fract_x
_atom_site_fract_y
_atom_site_fract_z
Si Si1 0.012230 0.429207 0.047692
Si Si2 0.788944 0.075537 0.659577
Si Si3 0.385238 0.929985 0.510403
Si Si4 0.524202 0.428776 0.962239
Si Si5 0.927770 0.922803 0.351907
Si Si6 0.786092 0.428550 0.188343
Si Si7 0.481044 0.572332 0.797492
O O1 0.023391 0.250000 0.046214
O O2 0.251536 0.478428 0.132147
O O3 0.000000 0.500000 0.000000
O O4 0.779471 0.465618 0.011219
O O5 0.761101 0.250000 0.661443
O O6 0.927748 0.065403 0.652742
O O7 0.541159 0.996208 0.587381
O O8 0.958340 0.993698 0.735505
O O9 0.403107 0.750000 0.513709
O O10 0.112127 0.971012 0.434790
O O11 0.500000 0.000000 0.500000
O O12 0.501726 0.250000 0.957966
O O13 0.334872 0.496922 0.881911
O O14 0.500000 0.500000 0.000000
O O15 0.875200 0.750000 0.344595
O O16 0.689366 0.008046 0.281372
O O17 0.793795 0.250000 0.186404
O O18 0.628775 0.465017 0.187012
O O19 0.476356 0.750000 0.792825
#
# Coordination Sequence:
#
# PCOD9156730 Si02
#       7
#     4   4   4   4   4   4   4
#     4  10  20  34  52  74  97 126 163 206 248 294
#     4   9  16  25  38  58  85 118 157 195 235 284
#     4   9  15  23  34  52  81 118 157 192 233 283
#     4  11  23  37  53  72  99 131 165 206 252 297
#     4   8  15  24  35  55  85 119 153 190 233 280
#     4  10  18  30  48  68  93 123 159 200 244 293
#     4   9  17  28  44  67  92 119 156 197 239 287
#
# _framework density 16.496186999999999
#
# number of rings (size 3 to 8) (size 9 to 14) (size 15 to 20)
#    0.000    2.571    1.429    2.571    0.000    5.714 
#    0.000    0.000    0.000    0.000    0.000    0.000 
#    0.000    1.143    0.000    3.429    0.000    6.286 
#
# Total GULP energy -155954.787415 kJ/mol
# GULP energy per Si atom -5569.813836 kJ/mol
# Density = 1.645864 g / cm^3
# Si number density = 16.496187 Si / 1000 Ang^3
#
#
#
# Elastic Constant Matrix: (Units=GPa)
#
#
# Indices 1 2 3 4 5 6 
#
# 1 48.7796 32.3050 52.1847 0.0000 2.7963 0.0000
# 2 32.3050 54.4673 67.3182 0.0000 1.8858 0.0000
# 3 52.1847 67.3182 204.0177 0.0000 20.8183 0.0000
# 4 0.0000 0.0000 0.0000 36.1625 0.0000 0.7776
# 5 2.7963 1.8858 20.8183 0.0000 12.5997 0.0000
# 6 0.0000 0.0000 0.0000 0.7776 0.0000 12.0363
#
#
#
# Elastic Compliance Matrix: (Units=1/GPa)
#
#
# Indices 1 2 3 4 5 6 
#
# 1 0.035247 -0.016374 -0.003686 0.000000 0.000719 0.000000
# 2 -0.016374 0.041069 -0.010953 0.000000 0.015585 0.000000
# 3 -0.003686 -0.010953 0.011075 0.000000 -0.015842 0.000000
# 4 0.000000 0.000000 0.000000 0.027691 0.000000 -0.001789
# 5 0.000719 0.015585 -0.015842 0.000000 0.103050 0.000000
# 6 0.000000 0.000000 0.000000 -0.001789 0.000000 0.083198
#
#
# Mechanical properties :
#
#
# Convention : Reuss Voigt Hill
#
# Bulk Modulus (GPa) = 39.42626 67.87559 53.65093
# Shear Modulus (GPa) = 13.44767 22.52349 17.98558
#
# Velocity S-wave (km/s) = 2.85827 3.69911 3.30553
# Velocity P-wave (km/s) = 5.90297 7.71233 6.86750
#
# Compressibility (1/GPa) = 0.02536381
#
# Stress axis : x y z
#
# Youngs Moduli (GPa) = 28.37160 24.34901 90.29247
#
# Poissons Ratio (x) = 0.39869 0.33282
# Poissons Ratio (y) = 0.46456 0.98902
# Poissons Ratio (z) = 0.10458 0.26671
#
# Static dielectric constant tensor:
#      x y z
#    x 1.528350 0.000000 0.016060 
#    y 0.000000 1.431840 0.000000 
#    z 0.016060 0.000000 1.591780 
# 
# From -- ./inp_files/70893.got.cif
#   From: 2010.05.17/outbox.cif.g08.bks.cpg/sg11_36_cif.got.tgz:70893.got - 2010.06.03 12:22:45.
