data_PCOD9156101
_publ_section_title
;
Structure prediction by ZEFSAII (Michael W. Deem and Ramdas Pophale) SiO2 
 PCOD9156101
Probable space group: P 21/M
;
_chemical_formula_sum "Si O2"
_cell_formula_units_Z 28
_cell_length_a 17.368708
_cell_length_b 8.522092
_cell_length_c 20.346758
_cell_angle_alpha 90.000000
_cell_angle_beta 148.784299
_cell_angle_gamma 90.000000
_cell_volume 1560.837916
_symmetry_space_group_name_H-M "P 21/M"
_symmetry_group_IT_number 11
_symmetry_cell_setting 'monoclinic'
loop_
_space_group_symop_operation_xyz
x,y,z
-x,1/2+y,-z
-x,-y,-z
x,1/2-y,z
loop_
_atom_site_type_symbol
_atom_site_label
_atom_site_fract_x
_atom_site_fract_y
_atom_site_fract_z
Si Si1 0.854393 0.063130 0.355528
Si Si2 0.306167 0.436514 0.643347
Si Si3 0.984973 0.061463 0.646057
Si Si4 0.094503 0.439932 0.007087
Si Si5 0.406286 0.939232 0.492407
Si Si6 0.439003 0.439907 0.258838
Si Si7 0.065015 0.941244 0.243002
O O1 0.853556 0.250000 0.356234
O O2 0.721215 0.998073 0.302675
O O3 0.882314 0.003118 0.302358
O O4 0.000000 0.000000 0.500000
O O5 0.292885 0.250000 0.632888
O O6 0.462157 0.491136 0.727475
O O7 0.172304 0.505096 0.500002
O O8 0.984609 0.250000 0.642490
O O9 0.995133 0.011076 0.729369
O O10 0.090472 0.250000 0.005846
O O11 0.267063 0.488200 0.135305
O O12 0.000000 0.500000 0.000000
O O13 0.023216 0.493047 0.885912
O O14 0.406173 0.750000 0.491493
O O15 0.481357 0.988905 0.615361
O O16 0.236208 0.992559 0.363885
O O17 0.500000 0.000000 0.500000
O O18 0.444371 0.250000 0.258402
O O19 0.063493 0.750000 0.241561
#
# Coordination Sequence:
#
# PCOD9156101 Si02
#       7
#     4   4   4   4   4   4   4
#     4  10  18  29  47  75 110 141 171 210 258 311
#     4  11  20  31  50  78 107 137 176 216 260 310
#     4  10  17  31  52  75 107 141 174 213 260 311
#     4  10  21  37  56  77 103 139 179 216 261 316
#     4  10  19  32  49  72 100 131 166 210 262 307
#     4  10  20  35  53  74 104 139 174 215 263 311
#     4   9  18  33  53  74 103 138 172 211 260 313
#
# _framework density 17.939081999999999
#
# number of rings (size 3 to 8) (size 9 to 14) (size 15 to 20)
#    0.000    2.000    1.429    5.571    0.000    1.143 
#    0.000    1.429    0.000    0.857    0.000    0.000 
#    0.000    0.000    0.000    0.000    0.000    0.000 
#
# Total GULP energy -156241.947592 kJ/mol
# GULP energy per Si atom -5580.069557 kJ/mol
# Density = 1.789825 g / cm^3
# Si number density = 17.939082 Si / 1000 Ang^3
#
#
#
# Elastic Constant Matrix: (Units=GPa)
#
#
# Indices 1 2 3 4 5 6 
#
# 1 187.2609 38.2074 58.3592 0.0000 8.2465 0.0000
# 2 38.2074 57.9438 21.4081 0.0000 4.6763 0.0000
# 3 58.3592 21.4081 95.8574 0.0000 5.2897 0.0000
# 4 0.0000 0.0000 0.0000 6.1661 0.0000 3.5067
# 5 8.2465 4.6763 5.2897 0.0000 25.7247 0.0000
# 6 0.0000 0.0000 0.0000 3.5067 0.0000 35.6087
#
#
#
# Elastic Compliance Matrix: (Units=1/GPa)
#
#
# Indices 1 2 3 4 5 6 
#
# 1 0.007176 -0.003335 -0.003571 0.000000 -0.000960 0.000000
# 2 -0.003335 0.020531 -0.002436 0.000000 -0.002162 0.000000
# 3 -0.003571 -0.002436 0.013212 0.000000 -0.001129 0.000000
# 4 0.000000 0.000000 0.000000 0.171798 0.000000 -0.016918
# 5 -0.000960 -0.002162 -0.001129 0.000000 0.039806 0.000000
# 6 0.000000 0.000000 0.000000 -0.016918 0.000000 0.029749
#
#
# Mechanical properties :
#
#
# Convention : Reuss Voigt Hill
#
# Bulk Modulus (GPa) = 44.97070 64.11239 54.54154
# Shear Modulus (GPa) = 16.21442 28.37238 22.29340
#
# Velocity S-wave (km/s) = 3.00969 3.98124 3.52906
# Velocity P-wave (km/s) = 6.09923 7.54654 6.86115
#
# Compressibility (1/GPa) = 0.02223670
#
# Stress axis : x y z
#
# Youngs Moduli (GPa) = 139.35969 48.70580 75.68593
#
# Poissons Ratio (x) = 0.16242 0.27027
# Poissons Ratio (y) = 0.46473 0.18435
# Poissons Ratio (z) = 0.49764 0.11864
#
# Static dielectric constant tensor:
#      x y z
#    x 1.630610 0.000000 -0.007160 
#    y 0.000000 1.611630 0.000000 
#    z -0.007160 0.000000 1.596980 
# 
# From -- ./inp_files/42316.got.cif
#   From: 2010.05.17/outbox.cif.g08.bks.cpg/sg11_22_cif.got.tgz:42316.got - 2010.06.03 12:22:45.
