data_PCOD9156586
_publ_section_title
;
Structure prediction by ZEFSAII (Michael W. Deem and Ramdas Pophale) SiO2 
 PCOD9156586
Probable space group: P 21/M
;
_chemical_formula_sum "Si O2"
_cell_formula_units_Z 24
_cell_length_a 25.132303
_cell_length_b 7.922118
_cell_length_c 19.050094
_cell_angle_alpha 90.000000
_cell_angle_beta 160.488295
_cell_angle_gamma 90.000000
_cell_volume 1266.824449
_symmetry_space_group_name_H-M "P 21/M"
_symmetry_group_IT_number 11
_symmetry_cell_setting 'monoclinic'
loop_
_space_group_symop_operation_xyz
x,y,z
-x,1/2+y,-z
-x,-y,-z
x,1/2-y,z
loop_
_atom_site_type_symbol
_atom_site_label
_atom_site_fract_x
_atom_site_fract_y
_atom_site_fract_z
Si Si1 0.989582 0.546295 0.406221
Si Si2 0.658181 0.457255 0.416337
Si Si3 0.123253 0.944656 0.937152
Si Si4 0.325906 0.046151 0.068540
Si Si5 0.813982 0.443612 0.473782
Si Si6 0.019858 0.951101 0.105084
O O1 0.992188 0.750000 0.403860
O O2 0.134301 0.480846 0.536747
O O3 0.000000 0.500000 0.500000
O O4 0.822678 0.488748 0.164466
O O5 0.658237 0.250000 0.414482
O O6 0.690252 0.517437 0.376249
O O7 0.809512 0.509419 0.651559
O O8 0.492914 0.512909 0.244729
O O9 0.083913 0.750000 0.875223
O O10 0.282923 0.988369 0.093709
O O11 0.981456 0.053104 0.725238
O O12 0.113577 0.978125 0.007782
O O13 0.327864 0.250000 0.070655
O O14 0.765153 0.250000 0.400781
O O15 0.015488 0.750000 0.105065
O O16 0.000000 0.000000 0.000000
#
# Coordination Sequence:
#
# PCOD9156586 Si02
#       6
#     4   4   4   4   4   4
#     4   9  17  28  45  67  94 124 157 193 233 277
#     4   8  15  30  53  72  89 117 158 198 234 275
#     4  10  18  29  47  71  96 125 157 191 229 278
#     4   9  17  32  51  70  91 122 159 196 234 277
#     4   8  15  30  49  68  89 122 161 195 231 279
#     4  10  19  33  52  74  97 124 156 193 233 278
#
# _framework density 18.945008999999999
#
# number of rings (size 3 to 8) (size 9 to 14) (size 15 to 20)
#    0.000    3.000    0.000    4.000    0.000    2.667 
#    0.000    5.833    0.000    0.000    0.000    0.000 
#    0.000    0.000    0.000    0.000    0.000    0.000 
#
# Total GULP energy -133648.717462 kJ/mol
# GULP energy per Si atom -5568.696561 kJ/mol
# Density = 1.890189 g / cm^3
# Si number density = 18.945009 Si / 1000 Ang^3
#
#
#
# Elastic Constant Matrix: (Units=GPa)
#
#
# Indices 1 2 3 4 5 6 
#
# 1 235.6412 10.0535 72.8239 0.0000 21.6864 0.0000
# 2 10.0535 34.9320 8.0070 0.0000 3.3461 0.0000
# 3 72.8239 8.0070 51.1886 0.0000 18.5636 0.0000
# 4 0.0000 0.0000 0.0000 5.7628 0.0000 -7.6763
# 5 21.6864 3.3461 18.5636 0.0000 36.4882 0.0000
# 6 0.0000 0.0000 0.0000 -7.6763 0.0000 25.9525
#
#
#
# Elastic Compliance Matrix: (Units=1/GPa)
#
#
# Indices 1 2 3 4 5 6 
#
# 1 0.007620 0.000287 -0.011322 0.000000 0.001205 0.000000
# 2 0.000287 0.029708 -0.004911 0.000000 -0.000396 0.000000
# 3 -0.011322 -0.004911 0.041456 0.000000 -0.013912 0.000000
# 4 0.000000 0.000000 0.000000 0.286340 0.000000 0.084694
# 5 0.001205 -0.000396 -0.013912 0.000000 0.033804 0.000000
# 6 0.000000 0.000000 0.000000 0.084694 0.000000 0.063583
#
#
# Mechanical properties :
#
#
# Convention : Reuss Voigt Hill
#
# Bulk Modulus (GPa) = 21.32610 55.94784 38.63697
# Shear Modulus (GPa) = 9.80326 29.03253 19.41790
#
# Velocity S-wave (km/s) = 2.27724 3.91892 3.20497
# Velocity P-wave (km/s) = 4.26564 7.07623 5.84246
#
# Compressibility (1/GPa) = 0.04689090
#
# Stress axis : x y z
#
# Youngs Moduli (GPa) = 131.24032 33.66068 24.12179
#
# Poissons Ratio (x) = -0.00965 0.27311
# Poissons Ratio (y) = -0.03764 0.11847
# Poissons Ratio (z) = 1.48591 0.16532
#
# Static dielectric constant tensor:
#      x y z
#    x 1.710650 0.000000 0.021290 
#    y 0.000000 1.687730 0.000000 
#    z 0.021290 0.000000 1.632550 
# 
# From -- ./inp_files/25508.got.cif
#   From: 2010.05.17/outbox.cif.g08.bks.cpg/sg11_13_cif.got.tgz:25508.got - 2010.06.03 12:22:45.
