data_PCOD9156816
_publ_section_title
;
Structure prediction by ZEFSAII (Michael W. Deem and Ramdas Pophale) SiO2 
 PCOD9156816
Probable space group: P 21/M
;
_chemical_formula_sum "Si O2"
_cell_formula_units_Z 32
_cell_length_a 10.478486
_cell_length_b 17.253013
_cell_length_c 11.486586
_cell_angle_alpha 90.000000
_cell_angle_beta 115.161503
_cell_angle_gamma 90.000000
_cell_volume 1879.564458
_symmetry_space_group_name_H-M "P 21/M"
_symmetry_group_IT_number 11
_symmetry_cell_setting 'monoclinic'
loop_
_space_group_symop_operation_xyz
x,y,z
-x,1/2+y,-z
-x,-y,-z
x,1/2-y,z
loop_
_atom_site_type_symbol
_atom_site_label
_atom_site_fract_x
_atom_site_fract_y
_atom_site_fract_z
Si Si1 0.967139 0.335846 0.177069
Si Si2 0.146845 0.903022 0.094008
Si Si3 0.189999 0.968732 0.480907
Si Si4 0.330949 0.840879 0.375628
Si Si5 0.172391 0.439170 0.964516
Si Si6 0.593056 0.577359 0.541454
Si Si7 0.118647 0.986000 0.711271
Si Si8 0.284624 0.339499 0.197510
O O1 0.948578 0.250000 0.219492
O O2 0.926487 0.405035 0.246745
O O3 0.128260 0.343702 0.194976
O O4 0.875252 0.347027 0.024456
O O5 0.256514 0.871953 0.229876
O O6 0.186494 0.986392 0.055210
O O7 0.992494 0.914459 0.092066
O O8 0.263775 0.894068 0.451791
O O9 0.201165 0.970775 0.624345
O O10 0.262307 0.047117 0.458938
O O11 0.026194 0.970766 0.380771
O O12 0.304653 0.750000 0.380863
O O13 0.498201 0.858923 0.439911
O O14 0.266036 0.373360 0.060898
O O15 0.197935 0.465584 0.842503
O O16 0.500000 0.500000 0.500000
O O17 0.620093 0.608343 0.681590
O O18 0.329185 0.250000 0.215012
#
# Coordination Sequence:
#
# PCOD9156816 Si02
#       8
#     4   4   4   4   4   4   4   4
#     4   9  17  28  49  76 103 130 162 214 266 305
#     4   9  16  28  49  76 102 126 170 211 260 303
#     4  10  20  34  50  74 103 138 172 204 244 317
#     4  11  21  33  52  76 105 134 170 220 260 296
#     4   9  16  29  51  75 101 133 163 210 260 310
#     4  10  20  34  53  72  99 136 177 212 249 296
#     4  10  18  32  53  73 105 138 166 202 256 309
#     4  10  18  30  49  76 104 130 169 217 265 303
#
# _framework density 17.025220999999998
#
# number of rings (size 3 to 8) (size 9 to 14) (size 15 to 20)
#    0.000    2.250    2.500    3.000    0.000    1.000 
#    0.000    0.000    0.000   13.500    0.000    0.000 
#    0.000    0.000    0.000    0.000    0.000    0.000 
#
# Total GULP energy -178283.941232 kJ/mol
# GULP energy per Si atom -5571.373163 kJ/mol
# Density = 1.698647 g / cm^3
# Si number density = 17.025221 Si / 1000 Ang^3
#
#
#
# Elastic Constant Matrix: (Units=GPa)
#
#
# Indices 1 2 3 4 5 6 
#
# 1 17.8363 11.8115 20.4384 0.0000 -6.3955 0.0000
# 2 11.8115 87.3094 45.5946 0.0000 -8.2147 0.0000
# 3 20.4384 45.5946 121.7159 0.0000 -10.2393 0.0000
# 4 0.0000 0.0000 0.0000 18.0767 0.0000 3.8741
# 5 -6.3955 -8.2147 -10.2393 0.0000 26.1342 0.0000
# 6 0.0000 0.0000 0.0000 3.8741 0.0000 11.9646
#
#
#
# Elastic Compliance Matrix: (Units=1/GPa)
#
#
# Indices 1 2 3 4 5 6 
#
# 1 0.074749 -0.003599 -0.010093 0.000000 0.013207 0.000000
# 2 -0.003599 0.014568 -0.004696 0.000000 0.001858 0.000000
# 3 -0.010093 -0.004696 0.011724 0.000000 0.000648 0.000000
# 4 0.000000 0.000000 0.000000 0.059445 0.000000 -0.019248
# 5 0.013207 0.001858 0.000648 0.000000 0.042334 0.000000
# 6 0.000000 0.000000 0.000000 -0.019248 0.000000 0.089812
#
#
# Mechanical properties :
#
#
# Convention : Reuss Voigt Hill
#
# Bulk Modulus (GPa) = 15.56052 42.50562 29.03307
# Shear Modulus (GPa) = 14.25192 21.16960 17.71076
#
# Velocity S-wave (km/s) = 2.89642 3.53005 3.22881
# Velocity P-wave (km/s) = 4.51056 6.45255 5.56690
#
# Compressibility (1/GPa) = 0.06426520
#
# Stress axis : x y z
#
# Youngs Moduli (GPa) = 13.37805 68.64458 85.29294
#
# Poissons Ratio (x) = 0.24707 0.86082
# Poissons Ratio (y) = 0.04815 0.40057
# Poissons Ratio (z) = 0.13502 0.32238
#
# Static dielectric constant tensor:
#      x y z
#    x 1.584710 0.000000 0.013340 
#    y 0.000000 1.591230 0.000000 
#    z 0.013340 0.000000 1.590130 
# 
# From -- ./inp_files/35872.got.cif
#   From: 2010.05.17/outbox.cif.g08.bks.cpg/sg11_18_cif.got.tgz:35872.got - 2010.06.03 12:22:45.
