data_PCOD9156995
_publ_section_title
;
Structure prediction by ZEFSAII (Michael W. Deem and Ramdas Pophale) SiO2 
 PCOD9156995
Probable space group: P 21/M
;
_chemical_formula_sum "Si O2"
_cell_formula_units_Z 28
_cell_length_a 31.005611
_cell_length_b 8.568936
_cell_length_c 9.869434
_cell_angle_alpha 90.000000
_cell_angle_beta 143.161187
_cell_angle_gamma 90.000000
_cell_volume 1572.158602
_symmetry_space_group_name_H-M "P 21/M"
_symmetry_group_IT_number 11
_symmetry_cell_setting 'monoclinic'
loop_
_space_group_symop_operation_xyz
x,y,z
-x,1/2+y,-z
-x,-y,-z
x,1/2-y,z
loop_
_atom_site_type_symbol
_atom_site_label
_atom_site_fract_x
_atom_site_fract_y
_atom_site_fract_z
Si Si1 0.220186 0.937877 0.464821
Si Si2 0.652511 0.563940 0.029879
Si Si3 0.939694 0.062168 0.247812
Si Si4 0.649004 0.061987 0.714203
Si Si5 0.062419 0.063494 0.060837
Si Si6 0.501844 0.063650 0.658894
Si Si7 0.777356 0.060813 0.842370
O O1 0.221368 0.750000 0.475104
O O2 0.234014 0.985277 0.342796
O O3 0.280307 0.007566 0.713426
O O4 0.140416 0.997465 0.299391
O O5 0.648672 0.750000 0.014459
O O6 0.658663 0.498981 0.891911
O O7 0.577755 0.498558 0.904136
O O8 0.941924 0.250000 0.248130
O O9 0.858481 0.014185 0.086385
O O10 0.000000 0.000000 0.500000
O O11 0.950785 0.996168 0.125096
O O12 0.646946 0.250000 0.712898
O O13 0.714823 0.007832 0.785593
O O14 0.572312 0.000487 0.466478
O O15 0.063814 0.250000 0.066862
O O16 0.000000 0.000000 0.000000
O O17 0.501520 0.250000 0.657286
O O18 0.500000 0.000000 0.500000
O O19 0.775892 0.250000 0.841060
#
# Coordination Sequence:
#
# PCOD9156995 Si02
#       7
#     4   4   4   4   4   4   4
#     4  10  20  38  58  79 107 141 176 219 268 318
#     4  11  21  34  52  79 108 140 179 219 260 314
#     4  10  20  37  57  81 110 144 182 224 269 321
#     4  10  18  33  55  79 104 137 176 220 267 316
#     4  11  22  38  58  82 109 143 181 223 271 323
#     4  10  18  31  50  75 104 137 173 218 268 314
#     4   8  18  35  56  77 104 138 174 213 264 318
#
# _framework density 17.809909000000001
#
# number of rings (size 3 to 8) (size 9 to 14) (size 15 to 20)
#    0.000    2.000    0.000    7.714    0.000    1.143 
#    0.000   13.571    0.000    0.000    0.000    0.000 
#    0.000    0.000    0.000    0.000    0.000    0.000 
#
# Total GULP energy -156267.405278 kJ/mol
# GULP energy per Si atom -5580.978760 kJ/mol
# Density = 1.776937 g / cm^3
# Si number density = 17.809909 Si / 1000 Ang^3
#
#
#
# Elastic Constant Matrix: (Units=GPa)
#
#
# Indices 1 2 3 4 5 6 
#
# 1 152.4673 47.6204 82.2711 0.0000 37.7942 0.0000
# 2 47.6204 127.1330 51.8264 0.0000 13.6904 0.0000
# 3 82.2711 51.8264 155.8436 0.0000 30.2631 0.0000
# 4 0.0000 0.0000 0.0000 31.0334 0.0000 5.3667
# 5 37.7942 13.6904 30.2631 0.0000 18.8432 0.0000
# 6 0.0000 0.0000 0.0000 5.3667 0.0000 23.2202
#
#
#
# Elastic Compliance Matrix: (Units=1/GPa)
#
#
# Indices 1 2 3 4 5 6 
#
# 1 0.014188 -0.001845 -0.002341 0.000000 -0.023358 0.000000
# 2 -0.001845 0.009424 -0.002251 0.000000 0.000469 0.000000
# 3 -0.002341 -0.002251 0.010422 0.000000 -0.010408 0.000000
# 4 0.000000 0.000000 0.000000 0.033565 0.000000 -0.007758
# 5 -0.023358 0.000469 -0.010408 0.000000 0.116294 0.000000
# 6 0.000000 0.000000 0.000000 -0.007758 0.000000 0.044859
#
#
# Mechanical properties :
#
#
# Convention : Reuss Voigt Hill
#
# Bulk Modulus (GPa) = 47.25713 88.76440 68.01076
# Shear Modulus (GPa) = 20.10622 31.53441 25.82032
#
# Velocity S-wave (km/s) = 3.36361 4.21243 3.81172
# Velocity P-wave (km/s) = 6.45577 8.57948 7.59225
#
# Compressibility (1/GPa) = 0.02116083
#
# Stress axis : x y z
#
# Youngs Moduli (GPa) = 70.48212 106.11180 95.94992
#
# Poissons Ratio (x) = 0.19577 0.22458
# Poissons Ratio (y) = 0.13004 0.21599
# Poissons Ratio (z) = 0.16497 0.23886
#
# Static dielectric constant tensor:
#      x y z
#    x -0.909680 0.000000 2.391530 
#    y 0.000000 1.599630 0.000000 
#    z 2.391530 0.000000 -0.619440 
# 
# From -- ./inp_files/29115.got.cif
#   From: 2010.05.17/outbox.cif.g08.bks.cpg/sg11_15_cif.got.tgz:29115.got - 2010.06.03 12:22:45.
