data_PCOD9156820
_publ_section_title
;
Structure prediction by ZEFSAII (Michael W. Deem and Ramdas Pophale) SiO2 
 PCOD9156820
Probable space group: P 21/M
;
_chemical_formula_sum "Si O2"
_cell_formula_units_Z 20
_cell_length_a 10.379197
_cell_length_b 8.650067
_cell_length_c 21.802128
_cell_angle_alpha 90.000000
_cell_angle_beta 35.451240
_cell_angle_gamma 90.000000
_cell_volume 1135.318015
_symmetry_space_group_name_H-M "P 21/M"
_symmetry_group_IT_number 11
_symmetry_cell_setting 'monoclinic'
loop_
_space_group_symop_operation_xyz
x,y,z
-x,1/2+y,-z
-x,-y,-z
x,1/2-y,z
loop_
_atom_site_type_symbol
_atom_site_label
_atom_site_fract_x
_atom_site_fract_y
_atom_site_fract_z
Si Si1 0.975131 0.065489 0.212831
Si Si2 0.969405 0.065090 0.444061
Si Si3 0.243165 0.565480 0.226369
Si Si4 0.488342 0.065240 0.573401
Si Si5 0.634216 0.434837 0.006880
O O1 0.991481 0.250000 0.206710
O O2 0.722019 0.010554 0.311738
O O3 0.087274 0.002450 0.232363
O O4 0.118819 0.996888 0.101006
O O5 0.999881 0.250000 0.431281
O O6 0.720505 0.031721 0.516629
O O7 0.000000 0.000000 0.500000
O O8 0.139509 0.988093 0.330430
O O9 0.245151 0.750000 0.220189
O O10 0.490483 0.499681 0.118841
O O11 0.457756 0.250000 0.582689
O O12 0.500000 0.000000 0.500000
O O13 0.630557 0.250000 0.007811
O O14 0.500000 0.500000 0.000000
#
# Coordination Sequence:
#
# PCOD9156820 Si02
#       5
#     4   4   4   4   4
#     4  11  20  32  52  81 114 145 184 230 280 332
#     4  11  24  40  58  82 113 150 191 231 278 336
#     4  11  20  33  54  79 111 147 186 230 279 331
#     4  11  22  36  57  83 113 148 187 231 281 333
#     4  10  18  30  49  76 110 144 182 227 279 331
#
# _framework density 17.616209000000001
#
# number of rings (size 3 to 8) (size 9 to 14) (size 15 to 20)
#    0.000    1.200    2.000    9.000    0.000    2.400 
#    0.000    0.000    0.000    1.200    0.000    0.000 
#    0.000    0.000    0.000    0.000    0.000    0.000 
#
# Total GULP energy -111730.862926 kJ/mol
# GULP energy per Si atom -5586.543146 kJ/mol
# Density = 1.757611 g / cm^3
# Si number density = 17.616209 Si / 1000 Ang^3
#
#
#
# Elastic Constant Matrix: (Units=GPa)
#
#
# Indices 1 2 3 4 5 6 
#
# 1 67.4603 54.4445 50.3776 0.0000 6.8938 0.0000
# 2 54.4445 168.9096 96.7921 0.0000 -1.5976 0.0000
# 3 50.3776 96.7921 201.2250 0.0000 1.5929 0.0000
# 4 0.0000 0.0000 0.0000 38.3548 0.0000 0.5543
# 5 6.8938 -1.5976 1.5929 0.0000 18.6085 0.0000
# 6 0.0000 0.0000 0.0000 0.5543 0.0000 20.9616
#
#
#
# Elastic Compliance Matrix: (Units=1/GPa)
#
#
# Indices 1 2 3 4 5 6 
#
# 1 0.022378 -0.005691 -0.002798 0.000000 -0.008539 0.000000
# 2 -0.005691 0.009640 -0.003238 0.000000 0.003213 0.000000
# 3 -0.002798 -0.003238 0.007226 0.000000 0.000140 0.000000
# 4 0.000000 0.000000 0.000000 0.026082 0.000000 -0.000690
# 5 -0.008539 0.003213 0.000140 0.000000 0.057166 0.000000
# 6 0.000000 0.000000 0.000000 -0.000690 0.000000 0.047725
#
#
# Mechanical properties :
#
#
# Convention : Reuss Voigt Hill
#
# Bulk Modulus (GPa) = 63.32146 93.42482 78.37314
# Shear Modulus (GPa) = 25.13389 31.31702 28.22546
#
# Velocity S-wave (km/s) = 3.78133 4.22090 4.00715
# Velocity P-wave (km/s) = 7.42210 8.76945 8.12376
#
# Compressibility (1/GPa) = 0.01579244
#
# Stress axis : x y z
#
# Youngs Moduli (GPa) = 44.68652 103.72914 138.38307
#
# Poissons Ratio (x) = 0.59030 0.38713
# Poissons Ratio (y) = 0.25430 0.44807
# Poissons Ratio (z) = 0.12501 0.33587
#
# Static dielectric constant tensor:
#      x y z
#    x 1.577120 0.000000 -0.007110 
#    y 0.000000 1.571820 0.000000 
#    z -0.007110 0.000000 1.643720 
# 
# From -- ./inp_files/63137.got.cif
#   From: 2010.05.17/outbox.cif.g08.bks.cpg/sg11_32_cif.got.tgz:63137.got - 2010.06.03 12:22:45.
