data_PCOD9156404
_publ_section_title
;
Structure prediction by ZEFSAII (Michael W. Deem and Ramdas Pophale) SiO2 
 PCOD9156404
Probable space group: P 21/M
;
_chemical_formula_sum "Si O2"
_cell_formula_units_Z 32
_cell_length_a 14.616433
_cell_length_b 7.587955
_cell_length_c 28.428705
_cell_angle_alpha 90.000000
_cell_angle_beta 149.757388
_cell_angle_gamma 90.000000
_cell_volume 1588.045401
_symmetry_space_group_name_H-M "P 21/M"
_symmetry_group_IT_number 11
_symmetry_cell_setting 'monoclinic'
loop_
_space_group_symop_operation_xyz
x,y,z
-x,1/2+y,-z
-x,-y,-z
x,1/2-y,z
loop_
_atom_site_type_symbol
_atom_site_label
_atom_site_fract_x
_atom_site_fract_y
_atom_site_fract_z
Si Si1 0.107602 0.960516 0.618953
Si Si2 0.394919 0.539317 0.315318
Si Si3 0.706837 0.034943 0.202870
Si Si4 0.046600 0.036517 0.295325
Si Si5 0.392475 0.039326 0.499913
Si Si6 0.019879 0.953606 0.178242
Si Si7 0.389654 0.462120 0.999087
Si Si8 0.261909 0.540570 0.588464
O O1 0.132192 0.750000 0.630468
O O2 0.210144 0.027962 0.710830
O O3 0.194674 0.030993 0.609064
O O4 0.890816 0.988212 0.517814
O O5 0.376593 0.750000 0.313220
O O6 0.502481 0.466047 0.408603
O O7 0.188235 0.469732 0.223119
O O8 0.534820 0.511367 0.335117
O O9 0.705603 0.250000 0.204125
O O10 0.510849 0.977475 0.097304
O O11 0.848626 0.985323 0.225052
O O12 0.055578 0.250000 0.295700
O O13 0.189834 0.977550 0.398316
O O14 0.087214 0.960955 0.262255
O O15 0.381859 0.250000 0.501644
O O16 0.500000 0.000000 0.500000
O O17 0.997505 0.750000 0.153825
O O18 0.816779 0.032424 0.089761
O O19 0.379173 0.250000 0.996082
O O20 0.500000 0.500000 0.000000
O O21 0.256224 0.750000 0.588486
#
# Coordination Sequence:
#
# PCOD9156404 Si02
#       8
#     4   4   4   4   4   4   4   4
#     4   9  18  35  56  76 102 132 162 202 253 306
#     4  10  20  34  49  66  98 141 170 197 247 301
#     4   9  17  31  52  73  96 130 165 198 246 305
#     4  10  18  28  45  68  93 126 164 197 236 288
#     4  10  19  29  43  64  92 128 166 198 235 287
#     4  10  20  32  47  69  97 130 167 202 239 284
#     4  10  19  32  51  74  99 129 168 208 246 292
#     4  10  20  33  53  80 102 126 166 211 250 293
#
# _framework density 20.150558
#
# number of rings (size 3 to 8) (size 9 to 14) (size 15 to 20)
#    0.000    2.250    2.500    1.125    0.000    3.500 
#    0.000    2.500    0.000    0.750    0.000    0.000 
#    0.000    0.000    0.000    0.000    0.000    0.375 
#
# Total GULP energy -178479.118059 kJ/mol
# GULP energy per Si atom -5577.472439 kJ/mol
# Density = 2.010469 g / cm^3
# Si number density = 20.150558 Si / 1000 Ang^3
#
#
#
# Elastic Constant Matrix: (Units=GPa)
#
#
# Indices 1 2 3 4 5 6 
#
# 1 87.3846 -3.0349 51.8645 0.0000 21.3997 0.0000
# 2 -3.0349 44.7115 6.3419 0.0000 1.7491 0.0000
# 3 51.8645 6.3419 131.0964 0.0000 24.7903 0.0000
# 4 0.0000 0.0000 0.0000 9.3941 0.0000 3.1403
# 5 21.3997 1.7491 24.7903 0.0000 33.7917 0.0000
# 6 0.0000 0.0000 0.0000 3.1403 0.0000 17.6072
#
#
#
# Elastic Compliance Matrix: (Units=1/GPa)
#
#
# Indices 1 2 3 4 5 6 
#
# 1 0.016260 0.002111 -0.005303 0.000000 -0.006516 0.000000
# 2 0.002111 0.022799 -0.001698 0.000000 -0.001271 0.000000
# 3 -0.005303 -0.001698 0.010631 0.000000 -0.004353 0.000000
# 4 0.000000 0.000000 0.000000 0.113198 0.000000 -0.020189
# 5 -0.006516 -0.001271 -0.004353 0.000000 0.036979 0.000000
# 6 0.000000 0.000000 0.000000 -0.020189 0.000000 0.060396
#
#
# Mechanical properties :
#
#
# Convention : Reuss Voigt Hill
#
# Bulk Modulus (GPa) = 25.05545 41.50397 33.27971
# Shear Modulus (GPa) = 17.64624 26.02667 21.83645
#
# Velocity S-wave (km/s) = 2.96247 3.59780 3.29548
# Velocity P-wave (km/s) = 4.91556 6.15634 5.57060
#
# Compressibility (1/GPa) = 0.03991147
#
# Stress axis : x y z
#
# Youngs Moduli (GPa) = 61.50067 43.86085 94.06328
#
# Poissons Ratio (x) = -0.09258 0.49879
# Poissons Ratio (y) = -0.12981 0.15968
# Poissons Ratio (z) = 0.32612 0.07446
#
# Static dielectric constant tensor:
#      x y z
#    x 1.721530 0.000000 0.027730 
#    y 0.000000 1.750470 0.000000 
#    z 0.027730 0.000000 1.758430 
# 
# From -- ./inp_files/73323.got.cif
#   From: 2010.05.17/outbox.cif.g08.bks.cpg/sg11_37_cif.got.tgz:73323.got - 2010.06.03 12:22:45.
