data_PCOD9156675
_publ_section_title
;
Structure prediction by ZEFSAII (Michael W. Deem and Ramdas Pophale) SiO2 
 PCOD9156675
Probable space group: P 21/M
;
_chemical_formula_sum "Si O2"
_cell_formula_units_Z 32
_cell_length_a 22.857420
_cell_length_b 8.818413
_cell_length_c 16.559833
_cell_angle_alpha 90.000000
_cell_angle_beta 30.766177
_cell_angle_gamma 90.000000
_cell_volume 1707.456132
_symmetry_space_group_name_H-M "P 21/M"
_symmetry_group_IT_number 11
_symmetry_cell_setting 'monoclinic'
loop_
_space_group_symop_operation_xyz
x,y,z
-x,1/2+y,-z
-x,-y,-z
x,1/2-y,z
loop_
_atom_site_type_symbol
_atom_site_label
_atom_site_fract_x
_atom_site_fract_y
_atom_site_fract_z
Si Si1 0.253571 0.931317 0.342636
Si Si2 0.874771 0.067993 0.665511
Si Si3 0.178087 0.067724 0.098760
Si Si4 0.409718 0.430275 0.280457
Si Si5 0.897767 0.929158 0.172406
Si Si6 0.569314 0.931436 0.208458
Si Si7 0.056844 0.931810 0.707569
Si Si8 0.330850 0.929834 0.534572
O O1 0.272676 0.750000 0.321389
O O2 0.212609 0.977085 0.302258
O O3 0.146439 0.964307 0.529448
O O4 0.364115 0.013123 0.248862
O O5 0.883022 0.250000 0.654389
O O6 0.834830 0.009383 0.799280
O O7 0.000000 0.000000 0.500000
O O8 0.173092 0.250000 0.115482
O O9 0.070099 0.027107 0.172117
O O10 0.303529 0.028527 0.916184
O O11 0.401123 0.250000 0.296964
O O12 0.532503 0.485968 0.168524
O O13 0.329597 0.512790 0.442719
O O14 0.899850 0.750000 0.162755
O O15 0.771678 0.989711 0.298000
O O16 0.916542 0.981295 0.242176
O O17 0.000000 0.000000 0.000000
O O18 0.564043 0.750000 0.200827
O O19 0.464421 0.966411 0.394289
O O20 0.061685 0.750000 0.717019
O O21 0.313755 0.750000 0.557803
#
# Coordination Sequence:
#
# PCOD9156675 Si02
#       8
#     4   4   4   4   4   4   4   4
#     4  10  19  33  52  74 107 146 183 223 277 328
#     4  11  22  35  51  76 109 148 186 231 278 325
#     4  10  20  37  57  80 109 146 187 226 271 323
#     4  10  18  29  51  78 101 131 179 227 264 312
#     4  12  24  37  57  87 117 142 173 217 270 323
#     4   8  17  33  55  77 105 144 183 220 268 324
#     4  10  19  34  56  79 110 145 178 219 268 324
#     4   9  17  33  55  78 106 140 177 216 265 320
#
# _framework density 18.741330000000001
#
# number of rings (size 3 to 8) (size 9 to 14) (size 15 to 20)
#    0.750    1.250    2.500    2.625    0.000    2.000 
#    0.000    0.625    0.000    0.750    0.000    0.000 
#    0.000    0.000    0.000    0.000    0.000    0.000 
#
# Total GULP energy -178287.760729 kJ/mol
# GULP energy per Si atom -5571.492523 kJ/mol
# Density = 1.869867 g / cm^3
# Si number density = 18.741330 Si / 1000 Ang^3
#
#
#
# Elastic Constant Matrix: (Units=GPa)
#
#
# Indices 1 2 3 4 5 6 
#
# 1 14.0961 6.7042 5.3555 0.0000 -14.3406 0.0000
# 2 6.7042 47.2444 20.4014 0.0000 -3.1497 0.0000
# 3 5.3555 20.4014 70.9631 0.0000 -14.5865 0.0000
# 4 0.0000 0.0000 0.0000 22.3314 0.0000 2.6420
# 5 -14.3406 -3.1497 -14.5865 0.0000 27.7464 0.0000
# 6 0.0000 0.0000 0.0000 2.6420 0.0000 20.3047
#
#
#
# Elastic Compliance Matrix: (Units=1/GPa)
#
#
# Indices 1 2 3 4 5 6 
#
# 1 0.171925 -0.023804 0.012981 0.000000 0.092981 0.000000
# 2 -0.023804 0.027488 -0.008962 0.000000 -0.013894 0.000000
# 3 0.012981 -0.008962 0.018901 0.000000 0.015628 0.000000
# 4 0.000000 0.000000 0.000000 0.045480 0.000000 -0.005918
# 5 0.092981 -0.013894 0.015628 0.000000 0.090736 0.000000
# 6 0.000000 0.000000 0.000000 -0.005918 0.000000 0.050020
#
#
# Mechanical properties :
#
#
# Convention : Reuss Voigt Hill
#
# Bulk Modulus (GPa) = 5.59457 21.91395 13.75426
# Shear Modulus (GPa) = 9.92650 20.73267 15.32959
#
# Velocity S-wave (km/s) = 2.30393 3.32965 2.86310
# Velocity P-wave (km/s) = 3.17318 5.14784 4.27606
#
# Compressibility (1/GPa) = 0.17874460
#
# Stress axis : x y z
#
# Youngs Moduli (GPa) = 5.81648 36.37923 52.90699
#
# Poissons Ratio (x) = 0.86596 -0.68677
# Poissons Ratio (y) = 0.13845 0.47416
# Poissons Ratio (z) = -0.07550 0.32603
#
# Static dielectric constant tensor:
#      x y z
#    x 1.656240 0.000000 -0.036180 
#    y 0.000000 1.622160 0.000000 
#    z -0.036180 0.000000 1.688210 
# 
# From -- ./inp_files/61778.got.cif
#   From: 2010.05.17/outbox.cif.g08.bks.cpg/sg11_31_cif.got.tgz:61778.got - 2010.06.03 12:22:45.
