data_PCOD9156115
_publ_section_title
;
Structure prediction by ZEFSAII (Michael W. Deem and Ramdas Pophale) SiO2 
 PCOD9156115
Probable space group: P 21/M
;
_chemical_formula_sum "Si O2"
_cell_formula_units_Z 32
_cell_length_a 7.032311
_cell_length_b 26.344632
_cell_length_c 10.753256
_cell_angle_alpha 90.000000
_cell_angle_beta 137.155948
_cell_angle_gamma 90.000000
_cell_volume 1354.697862
_symmetry_space_group_name_H-M "P 21/M"
_symmetry_group_IT_number 11
_symmetry_cell_setting 'monoclinic'
loop_
_space_group_symop_operation_xyz
x,y,z
-x,1/2+y,-z
-x,-y,-z
x,1/2-y,z
loop_
_atom_site_type_symbol
_atom_site_label
_atom_site_fract_x
_atom_site_fract_y
_atom_site_fract_z
Si Si1 0.006046 0.451820 0.409732
Si Si2 0.511332 0.416926 0.767354
Si Si3 0.540736 0.807038 0.176308
Si Si4 0.879481 0.306055 0.680405
Si Si5 0.174058 0.465948 0.831919
Si Si6 0.956762 0.694181 0.959476
Si Si7 0.175073 0.418814 0.092540
Si Si8 0.681279 0.091980 0.472062
O O1 0.331493 0.437597 0.565844
O O2 0.000000 0.500000 0.500000
O O3 0.871560 0.474824 0.221620
O O4 0.831202 0.410901 0.406279
O O5 0.434203 0.357522 0.731553
O O6 0.378956 0.441543 0.827817
O O7 0.841195 0.425110 0.932940
O O8 0.578804 0.750000 0.247284
O O9 0.210752 0.809450 0.980720
O O10 0.791264 0.812455 0.197537
O O11 0.791145 0.250000 0.595095
O O12 0.882896 0.306235 0.830793
O O13 0.702187 0.351206 0.536004
O O14 0.261742 0.449398 0.010952
O O15 0.877697 0.439412 0.659449
O O16 0.822149 0.750000 0.883131
O O17 0.782883 0.642621 0.884165
O O18 0.381763 0.433432 0.302590
#
# Coordination Sequence:
#
# PCOD9156115 Si02
#       8
#     4   4   4   4   4   4   4   4
#     4   8  17  35  56  71 106 143 168 220 268 305
#     4   9  17  34  53  78 105 137 178 209 259 321
#     4   9  15  26  50  77 100 132 173 209 247 308
#     4  10  17  31  55  75 101 140 174 208 255 308
#     4  10  20  40  55  72 109 144 170 222 270 301
#     4   9  18  31  49  76 104 135 168 205 261 310
#     4  11  21  32  57  80 105 137 174 219 257 316
#     4  10  19  35  53  82 105 133 180 215 258 313
#
# _framework density 23.621503000000001
#
# number of rings (size 3 to 8) (size 9 to 14) (size 15 to 20)
#    0.000    2.750    3.750    0.000    0.000    1.500 
#    0.000    9.375    0.000    0.000    0.000    7.000 
#    0.000    0.000    0.000    0.000    0.000    0.000 
#
# Total GULP energy -178342.445004 kJ/mol
# GULP energy per Si atom -5573.201406 kJ/mol
# Density = 2.356774 g / cm^3
# Si number density = 23.621503 Si / 1000 Ang^3
#
#
#
# Elastic Constant Matrix: (Units=GPa)
#
#
# Indices 1 2 3 4 5 6 
#
# 1 84.0963 4.3830 32.6123 0.0000 12.5398 0.0000
# 2 4.3830 48.5868 22.8571 0.0000 5.8559 0.0000
# 3 32.6123 22.8571 109.5925 0.0000 2.0329 0.0000
# 4 0.0000 0.0000 0.0000 15.9677 0.0000 0.5469
# 5 12.5398 5.8559 2.0329 0.0000 29.9662 0.0000
# 6 0.0000 0.0000 0.0000 0.5469 0.0000 14.9503
#
#
#
# Elastic Compliance Matrix: (Units=1/GPa)
#
#
# Indices 1 2 3 4 5 6 
#
# 1 0.014463 0.001548 -0.004515 0.000000 -0.006049 0.000000
# 2 0.001548 0.023512 -0.005274 0.000000 -0.004885 0.000000
# 3 -0.004515 -0.005274 0.011528 0.000000 0.002138 0.000000
# 4 0.000000 0.000000 0.000000 0.062705 0.000000 -0.002294
# 5 -0.006049 -0.004885 0.002138 0.000000 0.036712 0.000000
# 6 0.000000 0.000000 0.000000 -0.002294 0.000000 0.066972
#
#
# Mechanical properties :
#
#
# Convention : Reuss Voigt Hill
#
# Bulk Modulus (GPa) = 30.28211 40.22005 35.25108
# Shear Modulus (GPa) = 20.54396 24.33837 22.44116
#
# Velocity S-wave (km/s) = 2.95229 3.21339 3.08560
# Velocity P-wave (km/s) = 4.94661 5.55262 5.25835
#
# Compressibility (1/GPa) = 0.03302280
#
# Stress axis : x y z
#
# Youngs Moduli (GPa) = 69.14141 42.53183 86.74207
#
# Poissons Ratio (x) = -0.06584 0.39160
# Poissons Ratio (y) = -0.10704 0.45746
# Poissons Ratio (z) = 0.31214 0.22430
#
# Static dielectric constant tensor:
#      x y z
#    x 1.997560 0.000000 0.062690 
#    y 0.000000 1.949480 0.000000 
#    z 0.062690 0.000000 1.896070 
# 
# From -- ./inp_files/48548.got.cif
#   From: 2010.05.17/outbox.cif.g08.bks.cpg/sg11_25_cif.got.tgz:48548.got - 2010.06.03 12:22:45.
