data_PCOD9156799
_publ_section_title
;
Structure prediction by ZEFSAII (Michael W. Deem and Ramdas Pophale) SiO2 
 PCOD9156799
Probable space group: P 21/M
;
_chemical_formula_sum "Si O2"
_cell_formula_units_Z 32
_cell_length_a 26.303194
_cell_length_b 7.928783
_cell_length_c 21.385583
_cell_angle_alpha 90.000000
_cell_angle_beta 157.640953
_cell_angle_gamma 90.000000
_cell_volume 1696.631035
_symmetry_space_group_name_H-M "P 21/M"
_symmetry_group_IT_number 11
_symmetry_cell_setting 'monoclinic'
loop_
_space_group_symop_operation_xyz
x,y,z
-x,1/2+y,-z
-x,-y,-z
x,1/2-y,z
loop_
_atom_site_type_symbol
_atom_site_label
_atom_site_fract_x
_atom_site_fract_y
_atom_site_fract_z
Si Si1 0.936681 0.457178 0.613787
Si Si2 0.658634 0.447286 0.753530
Si Si3 0.910131 0.451826 0.838143
Si Si4 0.913522 0.953568 0.340876
Si Si5 0.638518 0.548951 0.587891
Si Si6 0.654774 0.453529 0.245275
Si Si7 0.055754 0.449704 0.879511
Si Si8 0.358890 0.046797 0.915105
O O1 0.938588 0.250000 0.615663
O O2 0.783005 0.511005 0.429866
O O3 0.018475 0.513496 0.645614
O O4 0.001485 0.516989 0.752058
O O5 0.663362 0.250000 0.773443
O O6 0.671401 0.471537 0.693145
O O7 0.509489 0.512026 0.600059
O O8 0.786103 0.528291 0.931155
O O9 0.908280 0.250000 0.833172
O O10 0.759349 0.511809 0.678782
O O11 0.978795 0.519200 0.852975
O O12 0.000000 0.500000 0.000000
O O13 0.910079 0.750000 0.334005
O O14 0.762680 0.015950 0.180867
O O15 0.000000 0.000000 0.500000
O O16 0.629707 0.750000 0.587351
O O17 0.652805 0.250000 0.245596
O O18 0.671100 0.502265 0.191159
O O19 0.508481 0.516047 0.099621
O O20 0.028927 0.250000 0.848300
O O21 0.361396 0.250000 0.922491
#
# Coordination Sequence:
#
# PCOD9156799 Si02
#       8
#     4   4   4   4   4   4   4   4
#     4   9  18  33  51  71 100 137 170 203 252 308
#     4  10  20  34  54  79 106 137 173 213 263 316
#     4  11  21  33  53  80 107 137 178 223 264 308
#     4  10  18  30  49  74 101 128 166 211 253 297
#     4  10  20  34  54  80 107 135 171 218 264 312
#     4   9  16  29  48  69  97 131 162 199 249 298
#     4  10  21  36  53  75 106 140 175 214 258 314
#     4   9  17  27  45  74 100 122 160 209 249 292
#
# _framework density 18.860907999999998
#
# number of rings (size 3 to 8) (size 9 to 14) (size 15 to 20)
#    0.000    2.250    2.500    1.125    0.000    2.000 
#    0.000    2.500    0.000    4.500    0.000    3.500 
#    0.000    0.000    0.000    0.000    0.000    0.000 
#
# Total GULP energy -178496.024070 kJ/mol
# GULP energy per Si atom -5578.000752 kJ/mol
# Density = 1.881798 g / cm^3
# Si number density = 18.860908 Si / 1000 Ang^3
#
#
#
# Elastic Constant Matrix: (Units=GPa)
#
#
# Indices 1 2 3 4 5 6 
#
# 1 125.6366 4.3564 101.0289 0.0000 6.2991 0.0000
# 2 4.3564 13.5643 -2.2235 0.0000 2.3309 0.0000
# 3 101.0289 -2.2235 174.0224 0.0000 12.0228 0.0000
# 4 0.0000 0.0000 0.0000 20.5304 0.0000 1.4195
# 5 6.2991 2.3309 12.0228 0.0000 30.5662 0.0000
# 6 0.0000 0.0000 0.0000 1.4195 0.0000 16.5471
#
#
#
# Elastic Compliance Matrix: (Units=1/GPa)
#
#
# Indices 1 2 3 4 5 6 
#
# 1 0.015497 -0.006632 -0.009145 0.000000 0.000909 0.000000
# 2 -0.006632 0.077867 0.005305 0.000000 -0.006658 0.000000
# 3 -0.009145 0.005305 0.011329 0.000000 -0.002976 0.000000
# 4 0.000000 0.000000 0.000000 0.048999 0.000000 -0.004203
# 5 0.000909 -0.006658 -0.002976 0.000000 0.034207 0.000000
# 6 0.000000 0.000000 0.000000 -0.004203 0.000000 0.060794
#
#
# Mechanical properties :
#
#
# Convention : Reuss Voigt Hill
#
# Bulk Modulus (GPa) = 11.94034 57.72745 34.83390
# Shear Modulus (GPa) = 16.80374 27.53281 22.16828
#
# Velocity S-wave (km/s) = 2.98808 3.82485 3.43207
# Velocity P-wave (km/s) = 4.27192 7.08374 5.84930
#
# Compressibility (1/GPa) = 0.08374968
#
# Stress axis : x y z
#
# Youngs Moduli (GPa) = 64.52739 12.84243 88.27188
#
# Poissons Ratio (x) = 0.08518 0.80720
# Poissons Ratio (y) = 0.42797 -0.46831
# Poissons Ratio (z) = 0.59007 -0.06813
#
# Static dielectric constant tensor:
#      x y z
#    x 1.641530 0.000000 0.033250 
#    y 0.000000 1.688870 0.000000 
#    z 0.033250 0.000000 1.659890 
# 
# From -- ./inp_files/67273.got.cif
#   From: 2010.05.17/outbox.cif.g08.bks.cpg/sg11_34_cif.got.tgz:67273.got - 2010.06.03 12:22:45.
