data_PCOD9156435
_publ_section_title
;
Structure prediction by ZEFSAII (Michael W. Deem and Ramdas Pophale) SiO2 
 PCOD9156435
Probable space group: P 21/M
;
_chemical_formula_sum "Si O2"
_cell_formula_units_Z 24
_cell_length_a 12.410671
_cell_length_b 8.923032
_cell_length_c 24.251264
_cell_angle_alpha 90.000000
_cell_angle_beta 146.402707
_cell_angle_gamma 90.000000
_cell_volume 1486.085275
_symmetry_space_group_name_H-M "P 21/M"
_symmetry_group_IT_number 11
_symmetry_cell_setting 'monoclinic'
loop_
_space_group_symop_operation_xyz
x,y,z
-x,1/2+y,-z
-x,-y,-z
x,1/2-y,z
loop_
_atom_site_type_symbol
_atom_site_label
_atom_site_fract_x
_atom_site_fract_y
_atom_site_fract_z
Si Si1 0.260868 0.071820 0.342543
Si Si2 0.943370 0.427873 0.843056
Si Si3 0.819742 0.428166 0.455177
Si Si4 0.685882 0.928247 0.508529
Si Si5 0.164850 0.929261 0.030910
Si Si6 0.561597 0.072583 0.757254
O O1 0.277003 0.250000 0.340288
O O2 0.228726 0.046044 0.393938
O O3 0.099517 0.002347 0.233879
O O4 0.467456 0.994965 0.416242
O O5 0.969001 0.250000 0.849509
O O6 0.746372 0.453797 0.795523
O O7 0.120782 0.500320 0.952794
O O8 0.836617 0.250000 0.463832
O O9 0.803198 0.493820 0.509795
O O10 0.620490 0.477317 0.339933
O O11 0.000000 0.500000 0.500000
O O12 0.674252 0.750000 0.493892
O O13 0.140533 0.750000 0.018669
O O14 0.363945 0.960292 0.148942
O O15 0.000000 0.000000 0.000000
O O16 0.515149 0.250000 0.733691
#
# Coordination Sequence:
#
# PCOD9156435 Si02
#       6
#     4   4   4   4   4   4
#     4  10  19  30  49  73  99 133 165 199 246 297
#     4  10  18  28  46  71 102 133 161 200 243 293
#     4  12  24  36  53  72  96 132 171 209 248 293
#     4  10  20  34  49  70 100 129 165 207 246 294
#     4   9  17  28  44  66  96 129 162 199 242 295
#     4   9  18  32  47  67  97 130 163 205 247 286
#
# _framework density 16.149813999999999
#
# number of rings (size 3 to 8) (size 9 to 14) (size 15 to 20)
#    0.000    2.000    1.667    4.500    0.000    5.333 
#    0.000    0.000    0.000    0.000    0.000    1.167 
#    0.000    0.000    0.000    0.000    0.000    0.000 
#
# Total GULP energy -133864.684367 kJ/mol
# GULP energy per Si atom -5577.695182 kJ/mol
# Density = 1.611306 g / cm^3
# Si number density = 16.149814 Si / 1000 Ang^3
#
#
#
# Elastic Constant Matrix: (Units=GPa)
#
#
# Indices 1 2 3 4 5 6 
#
# 1 88.3207 60.5955 44.9498 0.0000 -16.6186 0.0000
# 2 60.5955 111.4177 60.7333 0.0000 -17.4015 0.0000
# 3 44.9498 60.7333 80.6196 0.0000 -35.9345 0.0000
# 4 0.0000 0.0000 0.0000 29.5789 0.0000 -5.3205
# 5 -16.6186 -17.4015 -35.9345 0.0000 29.3544 0.0000
# 6 0.0000 0.0000 0.0000 -5.3205 0.0000 23.1862
#
#
#
# Elastic Compliance Matrix: (Units=1/GPa)
#
#
# Indices 1 2 3 4 5 6 
#
# 1 0.019101 -0.007899 -0.004328 0.000000 0.000833 0.000000
# 2 -0.007899 0.020315 -0.016563 0.000000 -0.012704 0.000000
# 3 -0.004328 -0.016563 0.048037 0.000000 0.046536 0.000000
# 4 0.000000 0.000000 0.000000 0.035263 0.000000 0.008092
# 5 0.000833 -0.012704 0.046536 0.000000 0.083974 0.000000
# 6 0.000000 0.000000 0.000000 0.008092 0.000000 0.044986
#
#
# Mechanical properties :
#
#
# Convention : Reuss Voigt Hill
#
# Bulk Modulus (GPa) = 33.47436 68.10171 50.78804
# Shear Modulus (GPa) = 15.66347 24.02918 19.84632
#
# Velocity S-wave (km/s) = 3.11768 3.86150 3.50935
# Velocity P-wave (km/s) = 5.80795 7.88301 6.92366
#
# Compressibility (1/GPa) = 0.02987361
#
# Stress axis : x y z
#
# Youngs Moduli (GPa) = 52.35247 49.22407 20.81747
#
# Poissons Ratio (x) = 0.38883 0.09010
# Poissons Ratio (y) = 0.41354 0.34479
# Poissons Ratio (z) = 0.22658 0.81528
#
# Static dielectric constant tensor:
#      x y z
#    x 1.534220 0.000000 -0.043340 
#    y 0.000000 1.533030 0.000000 
#    z -0.043340 0.000000 1.559810 
# 
# From -- ./inp_files/36985.got.cif
#   From: 2010.05.17/outbox.cif.g08.bks.cpg/sg11_19_cif.got.tgz:36985.got - 2010.06.03 12:22:45.
