data_PCOD9156302
_publ_section_title
;
Structure prediction by ZEFSAII (Michael W. Deem and Ramdas Pophale) SiO2 
 PCOD9156302
Probable space group: P 21/M
;
_chemical_formula_sum "Si O2"
_cell_formula_units_Z 16
_cell_length_a 21.157068
_cell_length_b 5.392368
_cell_length_c 13.443194
_cell_angle_alpha 90.000000
_cell_angle_beta 35.282801
_cell_angle_gamma 90.000000
_cell_volume 885.878450
_symmetry_space_group_name_H-M "P 21/M"
_symmetry_group_IT_number 11
_symmetry_cell_setting 'monoclinic'
loop_
_space_group_symop_operation_xyz
x,y,z
-x,1/2+y,-z
-x,-y,-z
x,1/2-y,z
loop_
_atom_site_type_symbol
_atom_site_label
_atom_site_fract_x
_atom_site_fract_y
_atom_site_fract_z
Si Si1 0.052149 0.250000 0.888260
Si Si2 0.610680 0.250000 0.383833
Si Si3 0.933530 0.750000 0.560268
Si Si4 0.525389 0.250000 0.264275
Si Si5 0.298854 0.250000 0.645486
Si Si6 0.408546 0.250000 0.801841
Si Si7 0.160019 0.250000 0.115311
Si Si8 0.024357 0.750000 0.238624
O O1 0.179502 0.250000 0.753023
O O2 0.027748 0.250000 0.802611
O O3 0.000000 0.500000 0.000000
O O4 0.571850 0.250000 0.319645
O O5 0.678115 0.496256 0.323868
O O6 0.502623 0.250000 0.594146
O O7 0.839140 0.750000 0.764468
O O8 0.000000 0.500000 0.500000
O O9 0.930423 0.750000 0.444878
O O10 0.395201 0.250000 0.439293
O O11 0.570487 0.502367 0.163276
O O12 0.285339 0.250000 0.921590
O O13 0.097728 0.500220 0.159715
#
# Coordination Sequence:
#
# PCOD9156302 Si02
#       8
#     2   2   2   2   2   2   2   2
#     4  12  26  37  49  72 101 138 178 203 227 280
#     4  10  19  31  48  66  88 124 163 197 241 294
#     4   8  16  32  51  72  96 125 161 201 252 300
#     4  10  19  30  46  67  91 123 160 195 242 298
#     4  10  20  34  46  61  91 127 158 198 235 274
#     4  10  18  27  44  73  94 114 148 193 250 294
#     4  10  19  32  54  78 101 124 157 214 259 287
#     4  10  21  35  50  71 102 137 167 197 242 297
#
# _framework density 18.061167000000001
#
# number of rings (size 3 to 8) (size 9 to 14) (size 15 to 20)
#    0.000    2.000    0.000    6.000    0.000    8.000 
#    0.000    0.000    0.000    0.000    0.000    7.000 
#    0.000    0.000    0.000    0.000    0.000    0.000 
#
# Total GULP energy -89217.899729 kJ/mol
# GULP energy per Si atom -5576.118733 kJ/mol
# Density = 1.802006 g / cm^3
# Si number density = 18.061167 Si / 1000 Ang^3
#
#
#
# Elastic Constant Matrix: (Units=GPa)
#
#
# Indices 1 2 3 4 5 6 
#
# 1 107.9582 48.2130 70.4122 0.0000 -8.2650 0.0000
# 2 48.2130 187.7811 41.7742 0.0000 -13.1742 0.0000
# 3 70.4122 41.7742 89.3944 0.0000 -9.1288 0.0000
# 4 0.0000 0.0000 0.0000 19.8958 0.0000 -4.5211
# 5 -8.2650 -13.1742 -9.1288 0.0000 38.4242 0.0000
# 6 0.0000 0.0000 0.0000 -4.5211 0.0000 20.6759
#
#
#
# Elastic Compliance Matrix: (Units=1/GPa)
#
#
# Indices 1 2 3 4 5 6 
#
# 1 0.019568 -0.001773 -0.014570 0.000000 0.000140 0.000000
# 2 -0.001773 0.006180 -0.001346 0.000000 0.001417 0.000000
# 3 -0.014570 -0.001346 0.023495 0.000000 0.001986 0.000000
# 4 0.000000 0.000000 0.000000 0.052890 0.000000 0.011565
# 5 0.000140 0.001417 0.001986 0.000000 0.027013 0.000000
# 6 0.000000 0.000000 0.000000 0.011565 0.000000 0.050894
#
#
# Mechanical properties :
#
#
# Convention : Reuss Voigt Hill
#
# Bulk Modulus (GPa) = 72.13387 78.43696 75.28541
# Shear Modulus (GPa) = 22.72304 30.78148 26.75226
#
# Velocity S-wave (km/s) = 3.55084 4.13278 3.85282
# Velocity P-wave (km/s) = 7.53901 8.14224 7.84642
#
# Compressibility (1/GPa) = 0.01386311
#
# Stress axis : x y z
#
# Youngs Moduli (GPa) = 51.10273 161.82391 42.56247
#
# Poissons Ratio (x) = 0.28692 0.62015
# Poissons Ratio (y) = 0.09061 0.05731
# Poissons Ratio (z) = 0.74459 0.21788
#
# Static dielectric constant tensor:
#      x y z
#    x 1.581440 0.000000 0.018200 
#    y 0.000000 1.708710 0.000000 
#    z 0.018200 0.000000 1.660210 
# 
# From -- ./inp_files/33284.got.cif
#   From: 2010.05.17/outbox.cif.g08.bks.cpg/sg11_17_cif.got.tgz:33284.got - 2010.06.03 12:22:45.
