data_PCOD9156786
_publ_section_title
;
Structure prediction by ZEFSAII (Michael W. Deem and Ramdas Pophale) SiO2 
 PCOD9156786
Probable space group: P 21/M
;
_chemical_formula_sum "Si O2"
_cell_formula_units_Z 24
_cell_length_a 15.913038
_cell_length_b 17.811790
_cell_length_c 7.650675
_cell_angle_alpha 90.000000
_cell_angle_beta 136.151197
_cell_angle_gamma 90.000000
_cell_volume 1502.248505
_symmetry_space_group_name_H-M "P 21/M"
_symmetry_group_IT_number 11
_symmetry_cell_setting 'monoclinic'
loop_
_space_group_symop_operation_xyz
x,y,z
-x,1/2+y,-z
-x,-y,-z
x,1/2-y,z
loop_
_atom_site_type_symbol
_atom_site_label
_atom_site_fract_x
_atom_site_fract_y
_atom_site_fract_z
Si Si1 0.691216 0.043836 0.286824
Si Si2 0.859606 0.511491 0.244633
Si Si3 0.140394 0.488509 0.165815
Si Si4 0.555649 0.617232 0.083473
Si Si5 0.272617 0.333429 0.954403
Si Si6 0.272617 0.166571 0.363451
O O1 0.776524 0.039833 0.244624
O O2 0.776524 0.039834 0.584947
O O3 0.616298 0.965622 0.174447
O O4 0.588609 0.107475 0.132913
O O5 0.000000 0.500000 0.500000
O O6 0.839119 0.496974 0.008679
O O7 0.818831 0.597862 0.219392
O O8 0.181169 0.402139 0.262901
O O9 0.000000 0.500000 0.000000
O O10 0.611729 0.656157 0.338402
O O11 0.611727 0.656156 0.996780
O O12 0.220825 0.250000 0.846386
O O13 0.305921 0.338972 0.208883
O O14 0.220824 0.250000 0.316089
#
# Coordination Sequence:
#
# PCOD9156786 Si02
#       6
#     4   4   4   4   4   4
#     4   9  18  30  46  72  98 125 156 196 247 293
#     4  10  18  30  49  72 102 132 163 205 246 290
#     4  10  18  30  49  72 102 132 163 205 246 290
#     4   9  17  30  48  70  97 123 158 198 244 294
#     4   9  18  31  49  72  95 126 167 208 248 294
#     4   9  18  31  49  72  95 126 167 208 248 294
#
# _framework density 15.976053
#
# number of rings (size 3 to 8) (size 9 to 14) (size 15 to 20)
#    0.000    2.667    1.667    0.500    0.000    1.333 
#    0.000    6.667    0.000    4.000    0.000    0.000 
#    0.000    0.000    0.000    0.000    0.000    0.000 
#
# Total GULP energy -133601.690242 kJ/mol
# GULP energy per Si atom -5566.737093 kJ/mol
# Density = 1.593969 g / cm^3
# Si number density = 15.976053 Si / 1000 Ang^3
#
#
#
# Elastic Constant Matrix: (Units=GPa)
#
#
# Indices 1 2 3 4 5 6 
#
# 1 104.7106 41.5169 68.0090 0.0000 7.6750 0.0000
# 2 41.5169 62.1471 42.7900 0.0000 1.8349 0.0000
# 3 68.0090 42.7900 116.6132 0.0000 9.4748 0.0000
# 4 0.0000 0.0000 0.0000 16.6996 0.0000 -1.1168
# 5 7.6750 1.8349 9.4748 0.0000 23.6081 0.0000
# 6 0.0000 0.0000 0.0000 -1.1168 0.0000 17.4746
#
#
#
# Elastic Compliance Matrix: (Units=1/GPa)
#
#
# Indices 1 2 3 4 5 6 
#
# 1 0.017003 -0.006135 -0.007499 0.000000 -0.002041 0.000000
# 2 -0.006135 0.023799 -0.005341 0.000000 0.002288 0.000000
# 3 -0.007499 -0.005341 0.015171 0.000000 -0.003236 0.000000
# 4 0.000000 0.000000 0.000000 0.060139 0.000000 0.003843
# 5 -0.002041 0.002288 -0.003236 0.000000 0.044143 0.000000
# 6 0.000000 0.000000 0.000000 0.003843 0.000000 0.057472
#
#
# Mechanical properties :
#
#
# Convention : Reuss Voigt Hill
#
# Bulk Modulus (GPa) = 55.48273 65.34475 60.41374
# Shear Modulus (GPa) = 19.10701 20.30011 19.70356
#
# Velocity S-wave (km/s) = 3.46204 3.56850 3.51567
# Velocity P-wave (km/s) = 7.12636 7.61376 7.37409
#
# Compressibility (1/GPa) = 0.01802363
#
# Stress axis : x y z
#
# Youngs Moduli (GPa) = 58.81382 42.01849 65.91327
#
# Poissons Ratio (x) = 0.25779 0.49429
# Poissons Ratio (y) = 0.36083 0.35203
# Poissons Ratio (z) = 0.44105 0.22441
#
# Static dielectric constant tensor:
#      x y z
#    x 1.536180 0.000000 -0.021300 
#    y 0.000000 1.556420 0.000000 
#    z -0.021300 0.000000 1.521400 
# 
# From -- ./inp_files/18284.got.cif
#   From: 2010.05.17/outbox.cif.g08.bks.cpg/sg11_10_cif.got.tgz:18284.got - 2010.06.03 12:22:45.
