data_PCOD9156819
_publ_section_title
;
Structure prediction by ZEFSAII (Michael W. Deem and Ramdas Pophale) SiO2 
 PCOD9156819
Probable space group: P 21/M
;
_chemical_formula_sum "Si O2"
_cell_formula_units_Z 32
_cell_length_a 14.891656
_cell_length_b 15.478878
_cell_length_c 9.401130
_cell_angle_alpha 90.000000
_cell_angle_beta 38.447658
_cell_angle_gamma 90.000000
_cell_volume 1347.450601
_symmetry_space_group_name_H-M "P 21/M"
_symmetry_group_IT_number 11
_symmetry_cell_setting 'monoclinic'
loop_
_space_group_symop_operation_xyz
x,y,z
-x,1/2+y,-z
-x,-y,-z
x,1/2-y,z
loop_
_atom_site_type_symbol
_atom_site_label
_atom_site_fract_x
_atom_site_fract_y
_atom_site_fract_z
Si Si1 0.802382 0.350556 0.142489
Si Si2 0.421411 0.403791 0.435427
Si Si3 0.980597 0.655049 0.761214
Si Si4 0.854705 0.485524 0.586223
Si Si5 0.887302 0.849837 0.199265
Si Si6 0.319453 0.654788 0.024793
Si Si7 0.510939 0.399335 0.638614
Si Si8 0.723793 0.653422 0.846108
O O1 0.828208 0.250000 0.143789
O O2 0.737588 0.356884 0.065666
O O3 0.680693 0.379971 0.404400
O O4 0.961999 0.389828 0.934506
O O5 0.255199 0.404664 0.602979
O O6 0.509641 0.350226 0.210026
O O7 0.439773 0.370078 0.575851
O O8 0.495683 0.497425 0.343295
O O9 0.050875 0.750000 0.656023
O O10 0.852084 0.650153 0.805248
O O11 0.086971 0.573933 0.613566
O O12 0.910570 0.653798 0.001717
O O13 0.771047 0.576526 0.681764
O O14 0.000000 0.500000 0.500000
O O15 0.746492 0.421002 0.801820
O O16 0.866840 0.750000 0.275607
O O17 0.275790 0.750000 0.128119
O O18 0.423906 0.362611 0.881081
O O19 0.722036 0.750000 0.787408
#
# Coordination Sequence:
#
# PCOD9156819 Si02
#       8
#     4   4   4   4   4   4   4   4
#     4   9  20  33  51  80 115 149 180 219 273 332
#     4  10  19  30  52  79 110 143 179 228 275 322
#     4   9  18  31  53  80 109 145 184 226 268 317
#     4  10  20  33  52  79 111 138 183 236 274 321
#     4  10  19  34  53  82 115 149 185 218 269 333
#     4  10  19  34  55  84 114 146 181 225 280 325
#     4  10  18  30  49  76 109 138 180 224 275 327
#     4  10  18  31  51  75 102 139 183 231 278 322
#
# _framework density 23.748553000000001
#
# number of rings (size 3 to 8) (size 9 to 14) (size 15 to 20)
#    0.000    2.250    2.500    1.125    0.000    2.000 
#    0.000    0.000    0.000    0.750    6.500    0.000 
#    0.000    1.000    0.000    0.000    0.000    0.000 
#
# Total GULP energy -178738.706944 kJ/mol
# GULP energy per Si atom -5585.584592 kJ/mol
# Density = 2.369450 g / cm^3
# Si number density = 23.748553 Si / 1000 Ang^3
#
#
#
# Elastic Constant Matrix: (Units=GPa)
#
#
# Indices 1 2 3 4 5 6 
#
# 1 32.5160 9.5465 30.5150 0.0000 -10.5747 0.0000
# 2 9.5465 128.0646 48.3986 0.0000 0.7379 0.0000
# 3 30.5150 48.3986 132.9303 0.0000 -19.8263 0.0000
# 4 0.0000 0.0000 0.0000 10.8821 0.0000 -15.5303
# 5 -10.5747 0.7379 -19.8263 0.0000 31.5854 0.0000
# 6 0.0000 0.0000 0.0000 -15.5303 0.0000 3.4210
#
#
#
# Elastic Compliance Matrix: (Units=1/GPa)
#
#
# Indices 1 2 3 4 5 6 
#
# 1 0.041248 -0.000042 -0.008157 0.000000 0.008690 0.000000
# 2 -0.000042 0.009239 -0.003739 0.000000 -0.002577 0.000000
# 3 -0.008157 -0.003739 0.011433 0.000000 0.004533 0.000000
# 4 0.000000 0.000000 0.000000 -0.016772 0.000000 -0.076143
# 5 0.008690 -0.002577 0.004533 0.000000 0.037475 0.000000
# 6 0.000000 0.000000 0.000000 -0.076143 0.000000 -0.053353
#
#
# Mechanical properties :
#
#
# Convention : Reuss Voigt Hill
#
# Bulk Modulus (GPa) = 26.28534 52.27010 39.27772
# Shear Modulus (GPa) = 75.95680 22.84774 49.40227
#
# Velocity S-wave (km/s) = 5.66155 3.10509 4.56589
# Velocity P-wave (km/s) = 7.33688 5.90872 6.66119
#
# Compressibility (1/GPa) = 0.03804402
#
# Stress axis : x y z
#
# Youngs Moduli (GPa) = 24.24361 108.23136 87.46979
#
# Poissons Ratio (x) = 0.00455 0.71351
# Poissons Ratio (y) = 0.00102 0.32702
# Poissons Ratio (z) = 0.19776 0.40464
#
# Static dielectric constant tensor:
#      x y z
#    x 1.740860 0.000000 0.007360 
#    y 0.000000 1.936820 0.000000 
#    z 0.007360 0.000000 1.891260 
# 
# From -- ./inp_files/41623.got.cif
#   From: 2010.05.17/outbox.cif.g08.bks.cpg/sg11_21_cif.got.tgz:41623.got - 2010.06.03 12:22:45.
