data_PCOD9156573
_publ_section_title
;
Structure prediction by ZEFSAII (Michael W. Deem and Ramdas Pophale) SiO2 
 PCOD9156573
Probable space group: P 21/M
;
_chemical_formula_sum "Si O2"
_cell_formula_units_Z 28
_cell_length_a 15.487391
_cell_length_b 14.558841
_cell_length_c 8.122076
_cell_angle_alpha 90.000000
_cell_angle_beta 121.626457
_cell_angle_gamma 90.000000
_cell_volume 1559.369583
_symmetry_space_group_name_H-M "P 21/M"
_symmetry_group_IT_number 11
_symmetry_cell_setting 'monoclinic'
loop_
_space_group_symop_operation_xyz
x,y,z
-x,1/2+y,-z
-x,-y,-z
x,1/2-y,z
loop_
_atom_site_type_symbol
_atom_site_label
_atom_site_fract_x
_atom_site_fract_y
_atom_site_fract_z
Si Si1 0.026362 0.856667 0.034301
Si Si2 0.755925 0.003816 0.188570
Si Si3 0.157763 0.024000 0.061361
Si Si4 0.427707 0.049364 0.796035
Si Si5 0.391456 0.647723 0.144139
Si Si6 0.164092 0.647059 0.487840
Si Si7 0.334265 0.569726 0.430502
O O1 0.030475 0.750000 0.987115
O O2 0.095774 0.926958 0.999229
O O3 0.073487 0.862238 0.265869
O O4 0.914860 0.900042 0.932008
O O5 0.830059 0.064941 0.375617
O O6 0.682516 0.942155 0.229660
O O7 0.810841 0.953404 0.093562
O O8 0.681112 0.077305 0.024941
O O9 0.256169 0.003148 0.270345
O O10 0.493437 0.135002 0.802001
O O11 0.412411 0.982944 0.624419
O O12 0.500000 0.000000 0.000000
O O13 0.355059 0.750000 0.077554
O O14 0.382992 0.623681 0.328192
O O15 0.161675 0.750000 0.556251
O O16 0.265761 0.634053 0.478978
#
# Coordination Sequence:
#
# PCOD9156573 Si02
#       7
#     4   4   4   4   4   4   4
#     4   9  18  32  49  70  95 122 156 196 235 280
#     4   9  18  30  47  68  94 125 154 188 237 287
#     4   9  18  32  50  70  94 126 159 194 237 283
#     4   9  18  32  48  67  93 124 153 190 237 284
#     4  10  18  29  47  70  94 120 158 201 235 272
#     4   9  16  27  45  70  95 117 149 194 239 280
#     4   9  17  30  48  67  92 125 158 191 234 284
#
# _framework density 17.955973
#
# number of rings (size 3 to 8) (size 9 to 14) (size 15 to 20)
#    0.000    2.857    0.000    1.286    0.000    4.571 
#    0.000    2.143    0.000    0.000    0.000    0.000 
#    0.000    0.000    0.000    0.000    0.000    0.000 
#
# Total GULP energy -155945.489024 kJ/mol
# GULP energy per Si atom -5569.481751 kJ/mol
# Density = 1.791510 g / cm^3
# Si number density = 17.955973 Si / 1000 Ang^3
#
#
#
# Elastic Constant Matrix: (Units=GPa)
#
#
# Indices 1 2 3 4 5 6 
#
# 1 34.5985 2.0450 5.8316 0.0000 -3.1646 0.0000
# 2 2.0450 32.5856 2.3231 0.0000 5.4991 0.0000
# 3 5.8316 2.3231 36.2670 0.0000 -0.3969 0.0000
# 4 0.0000 0.0000 0.0000 14.2009 0.0000 0.5281
# 5 -3.1646 5.4991 -0.3969 0.0000 20.5453 0.0000
# 6 0.0000 0.0000 0.0000 0.5281 0.0000 9.0792
#
#
#
# Elastic Compliance Matrix: (Units=1/GPa)
#
#
# Indices 1 2 3 4 5 6 
#
# 1 0.030312 -0.002454 -0.004660 0.000000 0.005236 0.000000
# 2 -0.002454 0.032508 -0.001787 0.000000 -0.009113 0.000000
# 3 -0.004660 -0.001787 0.028440 0.000000 0.000310 0.000000
# 4 0.000000 0.000000 0.000000 0.070571 0.000000 -0.004105
# 5 0.005236 -0.009113 0.000310 0.000000 0.051925 0.000000
# 6 0.000000 0.000000 0.000000 -0.004105 0.000000 0.110381
#
#
# Mechanical properties :
#
#
# Convention : Reuss Voigt Hill
#
# Bulk Modulus (GPa) = 13.61307 13.76117 13.68712
# Shear Modulus (GPa) = 13.64536 14.98182 14.31359
#
# Velocity S-wave (km/s) = 2.75968 2.89167 2.82645
# Velocity P-wave (km/s) = 4.21334 4.33930 4.27678
#
# Compressibility (1/GPa) = 0.07345884
#
# Stress axis : x y z
#
# Youngs Moduli (GPa) = 32.98992 30.76181 35.16121
#
# Poissons Ratio (x) = 0.07548 0.16384
# Poissons Ratio (y) = 0.08095 0.06285
# Poissons Ratio (z) = 0.15372 0.05499
#
# Static dielectric constant tensor:
#      x y z
#    x 1.647400 0.000000 0.002420 
#    y 0.000000 1.595310 0.000000 
#    z 0.002420 0.000000 1.621900 
# 
# From -- ./inp_files/21742.got.cif
#   From: 2010.05.17/outbox.cif.g08.bks.cpg/sg11_11_cif.got.tgz:21742.got - 2010.06.03 12:22:45.
