data_PCOD9156324
_publ_section_title
;
Structure prediction by ZEFSAII (Michael W. Deem and Ramdas Pophale) SiO2 
 PCOD9156324
Probable space group: P 21/M
;
_chemical_formula_sum "Si O2"
_cell_formula_units_Z 32
_cell_length_a 18.930404
_cell_length_b 9.092958
_cell_length_c 27.261752
_cell_angle_alpha 90.000000
_cell_angle_beta 151.960856
_cell_angle_gamma 90.000000
_cell_volume 2205.899312
_symmetry_space_group_name_H-M "P 21/M"
_symmetry_group_IT_number 11
_symmetry_cell_setting 'monoclinic'
loop_
_space_group_symop_operation_xyz
x,y,z
-x,1/2+y,-z
-x,-y,-z
x,1/2-y,z
loop_
_atom_site_type_symbol
_atom_site_label
_atom_site_fract_x
_atom_site_fract_y
_atom_site_fract_z
Si Si1 0.765490 0.581509 0.343348
Si Si2 0.707318 0.575772 0.664878
Si Si3 0.991876 0.418947 0.418557
Si Si4 0.641212 0.424545 0.522772
Si Si5 0.212002 0.075841 0.102457
Si Si6 0.111032 0.924698 0.138872
Si Si7 0.260452 0.072616 0.517408
Si Si8 0.453120 0.575001 0.721576
O O1 0.721242 0.750000 0.308805
O O2 0.888359 0.578377 0.462938
O O3 0.627898 0.486635 0.279643
O O4 0.852225 0.516461 0.349771
O O5 0.729946 0.750000 0.672297
O O6 0.708926 0.493788 0.613758
O O7 0.539230 0.554339 0.583809
O O8 0.824711 0.507838 0.774808
O O9 0.943866 0.250000 0.383025
O O10 0.092642 0.465165 0.433994
O O11 0.669736 0.250000 0.537728
O O12 0.703000 0.506016 0.512852
O O13 0.208562 0.250000 0.113193
O O14 0.369300 0.046230 0.172403
O O15 0.195751 0.983679 0.142311
O O16 0.065192 0.046074 0.979605
O O17 0.132878 0.750000 0.157339
O O18 0.273384 0.250000 0.525796
O O19 0.375067 0.004192 0.627349
O O20 0.427888 0.750000 0.702401
#
# Coordination Sequence:
#
# PCOD9156324 Si02
#       8
#     4   4   4   4   4   4   4   4
#     4   9  16  25  38  57  80 107 141 176 208 245
#     4  10  20  33  47  63  85 112 142 176 214 254
#     4   8  15  26  38  54  79 111 141 168 204 249
#     4  10  20  32  46  64  85 111 143 176 211 252
#     4   9  19  32  44  62  86 113 145 177 211 253
#     4  10  19  31  47  64  84 111 143 179 216 252
#     4  10  19  29  42  62  87 113 143 178 212 248
#     4  10  18  28  42  59  84 116 146 176 210 250
#
# _framework density 14.506554
#
# number of rings (size 3 to 8) (size 9 to 14) (size 15 to 20)
#    0.000    2.500    0.000    3.750    0.000    9.500 
#    0.000    0.000    0.000    0.000    0.000    0.000 
#    0.000    1.000    0.000    3.000    0.000    4.250 
#
# Total GULP energy -178376.586767 kJ/mol
# GULP energy per Si atom -5574.268336 kJ/mol
# Density = 1.447354 g / cm^3
# Si number density = 14.506554 Si / 1000 Ang^3
#
#
#
# Elastic Constant Matrix: (Units=GPa)
#
#
# Indices 1 2 3 4 5 6 
#
# 1 118.3646 67.2663 40.3887 0.0000 10.2617 0.0000
# 2 67.2663 82.7091 41.8855 0.0000 6.8404 0.0000
# 3 40.3887 41.8855 55.4959 0.0000 2.6219 0.0000
# 4 0.0000 0.0000 0.0000 18.6499 0.0000 0.1736
# 5 10.2617 6.8404 2.6219 0.0000 18.3216 0.0000
# 6 0.0000 0.0000 0.0000 0.1736 0.0000 27.6803
#
#
#
# Elastic Compliance Matrix: (Units=1/GPa)
#
#
# Indices 1 2 3 4 5 6 
#
# 1 0.016350 -0.011344 -0.003126 0.000000 -0.004475 0.000000
# 2 -0.011344 0.027952 -0.012734 0.000000 -0.002260 0.000000
# 3 -0.003126 -0.012734 0.029799 0.000000 0.002241 0.000000
# 4 0.000000 0.000000 0.000000 0.053623 0.000000 -0.000336
# 5 -0.004475 -0.002260 0.002241 0.000000 0.057610 0.000000
# 6 0.000000 0.000000 0.000000 -0.000336 0.000000 0.036129
#
#
# Mechanical properties :
#
#
# Convention : Reuss Voigt Hill
#
# Bulk Modulus (GPa) = 50.77804 61.73895 56.25850
# Shear Modulus (GPa) = 17.70315 20.06564 18.88439
#
# Velocity S-wave (km/s) = 3.49715 3.72319 3.61194
# Velocity P-wave (km/s) = 7.16842 7.81886 7.50069
#
# Compressibility (1/GPa) = 0.01969355
#
# Stress axis : x y z
#
# Youngs Moduli (GPa) = 61.16296 35.77509 33.55768
#
# Poissons Ratio (x) = 0.40584 0.10489
# Poissons Ratio (y) = 0.69384 0.42733
# Poissons Ratio (z) = 0.19117 0.45557
#
# Static dielectric constant tensor:
#      x y z
#    x 1.477500 0.000000 0.014120 
#    y 0.000000 1.485630 0.000000 
#    z 0.014120 0.000000 1.453930 
# 
# From -- ./inp_files/61809.got.cif
#   From: 2010.05.17/outbox.cif.g08.bks.cpg/sg11_31_cif.got.tgz:61809.got - 2010.06.03 12:22:45.
