data_PCOD9156375
_publ_section_title
;
Structure prediction by ZEFSAII (Michael W. Deem and Ramdas Pophale) SiO2 
 PCOD9156375
Probable space group: P 21/M
;
_chemical_formula_sum "Si O2"
_cell_formula_units_Z 32
_cell_length_a 24.879021
_cell_length_b 7.713529
_cell_length_c 18.473447
_cell_angle_alpha 90.000000
_cell_angle_beta 149.924768
_cell_angle_gamma 90.000000
_cell_volume 1776.603654
_symmetry_space_group_name_H-M "P 21/M"
_symmetry_group_IT_number 11
_symmetry_cell_setting 'monoclinic'
loop_
_space_group_symop_operation_xyz
x,y,z
-x,1/2+y,-z
-x,-y,-z
x,1/2-y,z
loop_
_atom_site_type_symbol
_atom_site_label
_atom_site_fract_x
_atom_site_fract_y
_atom_site_fract_z
Si Si1 0.238595 0.963513 0.811188
Si Si2 0.108074 0.549214 0.795376
Si Si3 0.820820 0.456269 0.657269
Si Si4 0.298635 0.452336 0.623186
Si Si5 0.119559 0.950341 0.527741
Si Si6 0.478271 0.541972 0.058308
Si Si7 0.123412 0.541902 0.124760
Si Si8 0.932396 0.039423 0.093390
O O1 0.237485 0.750000 0.808729
O O2 0.184639 0.024622 0.822590
O O3 0.168411 0.017942 0.659893
O O4 0.361095 0.022427 0.944604
O O5 0.139909 0.750000 0.840602
O O6 0.106751 0.472711 0.874590
O O7 0.986552 0.543282 0.624070
O O8 0.805736 0.250000 0.640283
O O9 0.740887 0.531397 0.504928
O O10 0.811871 0.523066 0.729679
O O11 0.942948 0.491094 0.773414
O O12 0.297184 0.250000 0.641987
O O13 0.212399 0.540195 0.575527
O O14 0.418287 0.520999 0.776597
O O15 0.089162 0.750000 0.502876
O O16 0.474056 0.750000 0.061218
O O17 0.500000 0.500000 0.000000
O O18 0.135889 0.750000 0.138170
O O19 0.134577 0.479387 0.055182
O O20 0.000000 0.500000 0.000000
O O21 0.929858 0.250000 0.091547
#
# Coordination Sequence:
#
# PCOD9156375 Si02
#       8
#     4   4   4   4   4   4   4   4
#     4   9  19  34  49  67  91 122 156 193 233 272
#     4  10  19  31  48  69  96 125 153 185 226 278
#     4  10  18  28  44  65  93 123 152 187 229 277
#     4  11  21  31  47  69  92 121 157 195 234 275
#     4  11  20  31  48  67  94 125 155 191 228 272
#     4  10  20  35  52  68  89 118 156 199 238 275
#     4   8  15  26  40  62  90 121 150 180 222 272
#     4   9  16  27  44  66  94 122 151 184 222 276
#
# _framework density 18.011894999999999
#
# number of rings (size 3 to 8) (size 9 to 14) (size 15 to 20)
#    0.000    2.250    2.500    1.500    0.000    1.000 
#    0.000    1.250    0.000    0.000    0.000    0.875 
#    0.000    0.000    0.000    0.000    0.000    0.000 
#
# Total GULP energy -178421.888899 kJ/mol
# GULP energy per Si atom -5575.684028 kJ/mol
# Density = 1.797090 g / cm^3
# Si number density = 18.011895 Si / 1000 Ang^3
#
#
#
# Elastic Constant Matrix: (Units=GPa)
#
#
# Indices 1 2 3 4 5 6 
#
# 1 140.3392 -3.6342 78.5336 0.0000 -20.6021 0.0000
# 2 -3.6342 30.2963 -7.7158 0.0000 0.5960 0.0000
# 3 78.5336 -7.7158 85.0750 0.0000 -27.6442 0.0000
# 4 0.0000 0.0000 0.0000 4.5649 0.0000 -6.6754
# 5 -20.6021 0.5960 -27.6442 0.0000 30.4502 0.0000
# 6 0.0000 0.0000 0.0000 -6.6754 0.0000 3.6070
#
#
#
# Elastic Compliance Matrix: (Units=1/GPa)
#
#
# Indices 1 2 3 4 5 6 
#
# 1 0.015107 -0.002016 -0.015311 0.000000 -0.003639 0.000000
# 2 -0.002016 0.034252 0.006108 0.000000 0.003511 0.000000
# 3 -0.015311 0.006108 0.032676 0.000000 0.019187 0.000000
# 4 0.000000 0.000000 0.000000 -0.128383 0.000000 -0.237597
# 5 -0.003639 0.003511 0.019187 0.000000 0.047728 0.000000
# 6 0.000000 0.000000 0.000000 -0.237597 0.000000 -0.162480
#
#
# Mechanical properties :
#
#
# Convention : Reuss Voigt Hill
#
# Bulk Modulus (GPa) = 16.77895 43.34195 30.06045
# Shear Modulus (GPa) = -42.08913 20.29289 -10.89812
#
# Velocity S-wave (km/s) = -4.83923 3.36018 -2.46245
# Velocity P-wave (km/s) = 4.67851 6.25857 2.93949
#
# Compressibility (1/GPa) = 0.05959850
#
# Stress axis : x y z
#
# Youngs Moduli (GPa) = 66.19423 29.19532 30.60313
#
# Poissons Ratio (x) = 0.05885 0.46856
# Poissons Ratio (y) = 0.13342 -0.18692
# Poissons Ratio (z) = 1.01349 -0.17832
#
# Static dielectric constant tensor:
#      x y z
#    x 1.632220 0.000000 -0.038990 
#    y 0.000000 1.670710 0.000000 
#    z -0.038990 0.000000 1.616290 
# 
# From -- ./inp_files/43747.got.cif
#   From: 2010.05.17/outbox.cif.g08.bks.cpg/sg11_22_cif.got.tgz:43747.got - 2010.06.03 12:22:45.
