data_PCOD9156623
_publ_section_title
;
Structure prediction by ZEFSAII (Michael W. Deem and Ramdas Pophale) SiO2 
 PCOD9156623
Probable space group: P 21/M
;
_chemical_formula_sum "Si O2"
_cell_formula_units_Z 32
_cell_length_a 30.632873
_cell_length_b 11.592505
_cell_length_c 5.152543
_cell_angle_alpha 90.000000
_cell_angle_beta 90.247791
_cell_angle_gamma 90.000000
_cell_volume 1829.711365
_symmetry_space_group_name_H-M "P 21/M"
_symmetry_group_IT_number 11
_symmetry_cell_setting 'monoclinic'
loop_
_space_group_symop_operation_xyz
x,y,z
-x,1/2+y,-z
-x,-y,-z
x,1/2-y,z
loop_
_atom_site_type_symbol
_atom_site_label
_atom_site_fract_x
_atom_site_fract_y
_atom_site_fract_z
Si Si1 0.421402 0.624880 0.070937
Si Si2 0.090160 0.887262 0.453163
Si Si3 0.760023 0.389376 0.910353
Si Si4 0.449606 0.994884 0.571964
Si Si5 0.813623 0.390232 0.412131
Si Si6 0.665377 0.012518 0.027996
Si Si7 0.033391 0.892385 0.951671
Si Si8 0.635143 0.619008 0.526877
O O1 0.438484 0.750000 0.003428
O O2 0.429862 0.599482 0.372229
O O3 0.369999 0.613585 0.014341
O O4 0.443608 0.535614 0.873516
O O5 0.095575 0.750000 0.467250
O O6 0.138057 0.935595 0.519499
O O7 0.070821 0.909988 0.169618
O O8 0.054445 0.914165 0.671001
O O9 0.755067 0.250000 0.914365
O O10 0.779139 0.424079 0.632382
O O11 0.713954 0.446069 0.975231
O O12 0.795493 0.421607 0.130174
O O13 0.500000 0.000000 0.500000
O O14 0.417126 0.100788 0.508730
O O15 0.815126 0.250000 0.417578
O O16 0.649992 0.919549 0.812787
O O17 0.657950 0.962294 0.314184
O O18 0.020935 0.750000 0.965664
O O19 0.000000 0.000000 0.000000
O O20 0.646886 0.750000 0.477604
#
# Coordination Sequence:
#
# PCOD9156623 Si02
#       8
#     4   4   4   4   4   4   4   4
#     4  10  20  34  52  73 100 129 151 181 236 293
#     4   9  17  30  47  70 103 134 164 207 253 302
#     4  10  18  29  48  75 104 128 156 197 247 301
#     4  10  21  36  52  75  99 121 158 197 231 283
#     4   9  17  28  45  72 103 134 162 193 246 305
#     4  10  20  34  51  74 100 124 158 197 237 287
#     4  10  19  31  49  74 102 135 176 217 259 305
#     4  10  21  36  53  71  94 127 164 201 238 276
#
# _framework density 17.489097000000001
#
# number of rings (size 3 to 8) (size 9 to 14) (size 15 to 20)
#    0.000    2.250    0.000    3.375    0.000    4.000 
#    0.000    3.750    0.000    0.000    0.000   17.500 
#    0.000    0.000    0.000    0.000    0.000    0.000 
#
# Total GULP energy -178165.893846 kJ/mol
# GULP energy per Si atom -5567.684183 kJ/mol
# Density = 1.744929 g / cm^3
# Si number density = 17.489097 Si / 1000 Ang^3
#
#
#
# Elastic Constant Matrix: (Units=GPa)
#
#
# Indices 1 2 3 4 5 6 
#
# 1 50.5650 8.8637 -22.7778 0.0000 2.6793 0.0000
# 2 8.8637 37.6047 -6.6586 0.0000 0.6450 0.0000
# 3 -22.7778 -6.6586 49.7145 0.0000 0.0689 0.0000
# 4 0.0000 0.0000 0.0000 9.7315 0.0000 -4.5952
# 5 2.6793 0.6450 0.0689 0.0000 11.2589 0.0000
# 6 0.0000 0.0000 0.0000 -4.5952 0.0000 2.3067
#
#
#
# Elastic Compliance Matrix: (Units=1/GPa)
#
#
# Indices 1 2 3 4 5 6 
#
# 1 0.025904 -0.003994 0.011342 0.000000 -0.006005 0.000000
# 2 -0.003994 0.027883 0.001905 0.000000 -0.000658 0.000000
# 3 0.011342 0.001905 0.025571 0.000000 -0.002965 0.000000
# 4 0.000000 0.000000 0.000000 1.731545 0.000000 3.449363
# 5 -0.006005 -0.000658 -0.002965 0.000000 0.090303 0.000000
# 6 0.000000 0.000000 0.000000 3.449363 0.000000 7.304896
#
#
# Mechanical properties :
#
#
# Convention : Reuss Voigt Hill
#
# Bulk Modulus (GPa) = 10.21842 10.74874 10.48358
# Shear Modulus (GPa) = 0.54229 15.22322 7.88275
#
# Velocity S-wave (km/s) = 0.55744 2.95352 2.12533
# Velocity P-wave (km/s) = 2.50395 4.21786 3.46844
#
# Compressibility (1/GPa) = 0.09786248
#
# Stress axis : x y z
#
# Youngs Moduli (GPa) = 38.60407 35.86467 39.10736
#
# Poissons Ratio (x) = 0.14326 -0.44355
# Poissons Ratio (y) = 0.15420 -0.07451
# Poissons Ratio (z) = -0.43784 -0.06833
#
# Static dielectric constant tensor:
#      x y z
#    x 1.604980 0.000000 -0.002490 
#    y 0.000000 1.631260 0.000000 
#    z -0.002490 0.000000 1.607710 
# 
# From -- ./inp_files/9357.got.cif
#   From: 2010.05.17/outbox.cif.g08.bks.cpg/sg11_5_cif.got.tgz:9357.got - 2010.06.03 12:22:45.
