data_PCOD9156603
_publ_section_title
;
Structure prediction by ZEFSAII (Michael W. Deem and Ramdas Pophale) SiO2 
 PCOD9156603
Probable space group: P 21/M
;
_chemical_formula_sum "Si O2"
_cell_formula_units_Z 28
_cell_length_a 12.713065
_cell_length_b 8.349327
_cell_length_c 14.147118
_cell_angle_alpha 90.000000
_cell_angle_beta 54.945290
_cell_angle_gamma 90.000000
_cell_volume 1229.259479
_symmetry_space_group_name_H-M "P 21/M"
_symmetry_group_IT_number 11
_symmetry_cell_setting 'monoclinic'
loop_
_space_group_symop_operation_xyz
x,y,z
-x,1/2+y,-z
-x,-y,-z
x,1/2-y,z
loop_
_atom_site_type_symbol
_atom_site_label
_atom_site_fract_x
_atom_site_fract_y
_atom_site_fract_z
Si Si1 0.638049 0.930814 0.451894
Si Si2 0.797182 0.929354 0.175642
Si Si3 0.430665 0.055474 0.836874
Si Si4 0.989159 0.941916 0.805924
Si Si5 0.295504 0.444928 0.087366
Si Si6 0.140056 0.566194 0.546006
Si Si7 0.293382 0.059880 0.302755
O O1 0.632376 0.750000 0.495610
O O2 0.713851 0.919363 0.314469
O O3 0.500000 0.000000 0.500000
O O4 0.722023 0.046706 0.473481
O O5 0.828445 0.750000 0.124778
O O6 0.694635 0.002703 0.155980
O O7 0.927004 0.008188 0.147072
O O8 0.432208 0.250000 0.829782
O O9 0.567180 0.993625 0.730317
O O10 0.406442 0.003845 0.957952
O O11 0.997897 0.750000 0.794910
O O12 0.045803 0.004436 0.675498
O O13 0.841364 0.988177 0.887986
O O14 0.301281 0.250000 0.088079
O O15 0.292297 0.505541 0.196130
O O16 0.104496 0.750000 0.549489
O O17 0.171202 0.490771 0.428511
O O18 0.291303 0.250000 0.299632
#
# Coordination Sequence:
#
# PCOD9156603 Si02
#       7
#     4   4   4   4   4   4   4
#     4  10  18  29  47  74 109 144 179 222 273 326
#     4   9  19  33  51  78 109 140 175 220 270 319
#     4  10  20  37  59  81 111 147 181 220 272 329
#     4   9  19  37  58  80 109 145 183 220 267 329
#     4   9  20  38  58  80 109 146 183 225 274 322
#     4  10  20  34  53  77 106 142 184 227 273 327
#     4  11  22  36  56  82 111 142 183 231 276 324
#
# _framework density 22.777941999999999
#
# number of rings (size 3 to 8) (size 9 to 14) (size 15 to 20)
#    0.000    2.286    0.000    2.571    0.000    4.000 
#    0.000    2.857    0.000    0.000    0.000    0.000 
#    0.000    0.000    0.000    0.000    0.000    0.000 
#
# Total GULP energy -156268.264036 kJ/mol
# GULP energy per Si atom -5581.009430 kJ/mol
# Density = 2.272610 g / cm^3
# Si number density = 22.777942 Si / 1000 Ang^3
#
#
#
# Elastic Constant Matrix: (Units=GPa)
#
#
# Indices 1 2 3 4 5 6 
#
# 1 50.6033 -3.4366 4.0814 0.0000 1.5258 0.0000
# 2 -3.4366 22.5546 8.6705 0.0000 1.8067 0.0000
# 3 4.0814 8.6705 101.6428 0.0000 2.1974 0.0000
# 4 0.0000 0.0000 0.0000 12.7818 0.0000 6.6564
# 5 1.5258 1.8067 2.1974 0.0000 35.3393 0.0000
# 6 0.0000 0.0000 0.0000 6.6564 0.0000 18.5805
#
#
#
# Elastic Compliance Matrix: (Units=1/GPa)
#
#
# Indices 1 2 3 4 5 6 
#
# 1 0.020121 0.003564 -0.001091 0.000000 -0.000983 0.000000
# 2 0.003564 0.046628 -0.004071 0.000000 -0.002285 0.000000
# 3 -0.001091 -0.004071 0.010238 0.000000 -0.000381 0.000000
# 4 0.000000 0.000000 0.000000 0.096180 0.000000 -0.034456
# 5 -0.000983 -0.002285 -0.000381 0.000000 0.028480 0.000000
# 6 0.000000 0.000000 0.000000 -0.034456 0.000000 0.066164
#
#
# Mechanical properties :
#
#
# Convention : Reuss Voigt Hill
#
# Bulk Modulus (GPa) = 13.55183 21.49238 17.52210
# Shear Modulus (GPa) = 16.91454 24.37266 20.64360
#
# Velocity S-wave (km/s) = 2.72800 3.27465 3.01374
# Velocity P-wave (km/s) = 3.98561 4.87380 4.45191
#
# Compressibility (1/GPa) = 0.07379079
#
# Stress axis : x y z
#
# Youngs Moduli (GPa) = 49.69883 21.44632 97.67810
#
# Poissons Ratio (x) = -0.07643 0.10654
# Poissons Ratio (y) = -0.17712 0.39767
# Poissons Ratio (z) = 0.05421 0.08731
#
# Static dielectric constant tensor:
#      x y z
#    x 1.884080 0.000000 0.048220 
#    y 0.000000 1.819650 0.000000 
#    z 0.048220 0.000000 1.878550 
# 
# From -- ./inp_files/37864.got.cif
#   From: 2010.05.17/outbox.cif.g08.bks.cpg/sg11_19_cif.got.tgz:37864.got - 2010.06.03 12:22:45.
