data_PCOD9156980
_publ_section_title
;
Structure prediction by ZEFSAII (Michael W. Deem and Ramdas Pophale) SiO2 
 PCOD9156980
Probable space group: P 21/M
;
_chemical_formula_sum "Si O2"
_cell_formula_units_Z 24
_cell_length_a 24.792182
_cell_length_b 8.607279
_cell_length_c 12.301042
_cell_angle_alpha 90.000000
_cell_angle_beta 147.471448
_cell_angle_gamma 90.000000
_cell_volume 1411.492525
_symmetry_space_group_name_H-M "P 21/M"
_symmetry_group_IT_number 11
_symmetry_cell_setting 'monoclinic'
loop_
_space_group_symop_operation_xyz
x,y,z
-x,1/2+y,-z
-x,-y,-z
x,1/2-y,z
loop_
_atom_site_type_symbol
_atom_site_label
_atom_site_fract_x
_atom_site_fract_y
_atom_site_fract_z
Si Si1 0.887890 0.937377 0.813185
Si Si2 0.731068 0.434216 0.376642
Si Si3 0.567541 0.930325 0.257186
Si Si4 0.734554 0.569237 0.729039
Si Si5 0.641166 0.565395 0.019345
Si Si6 0.389518 0.060966 0.281165
O O1 0.886918 0.750000 0.813377
O O2 0.827968 0.995955 0.819190
O O3 0.823257 0.992181 0.599623
O O4 0.000000 0.000000 0.000000
O O5 0.735991 0.250000 0.393553
O O6 0.631050 0.495313 0.267963
O O7 0.720945 0.485967 0.234749
O O8 0.544389 0.750000 0.193404
O O9 0.641961 0.934048 0.487136
O O10 0.467997 0.020454 0.119809
O O11 0.758906 0.750000 0.792147
O O12 0.691577 0.502915 0.768073
O O13 0.654693 0.750000 0.047358
O O14 0.640484 0.516045 0.892140
O O15 0.393437 0.250000 0.292897
O O16 0.500000 0.000000 0.500000
#
# Coordination Sequence:
#
# PCOD9156980 Si02
#       6
#     4   4   4   4   4   4
#     4  10  20  37  60  83 105 130 166 215 270 320
#     4  11  22  35  51  73 103 136 175 217 263 313
#     4  10  18  31  50  71 103 140 176 215 258 309
#     4   8  16  31  51  75 104 136 170 210 258 304
#     4  11  21  31  47  73 106 142 178 214 255 307
#     4  10  19  32  50  74 105 143 181 214 250 301
#
# _framework density 17.003278000000002
#
# number of rings (size 3 to 8) (size 9 to 14) (size 15 to 20)
#    0.000    2.000    1.667    4.500    0.000    0.667 
#    0.000    0.833    0.000    1.000    0.000    0.000 
#    0.000    0.000    0.000    0.000    0.000    0.000 
#
# Total GULP energy -133885.819009 kJ/mol
# GULP energy per Si atom -5578.575792 kJ/mol
# Density = 1.696458 g / cm^3
# Si number density = 17.003278 Si / 1000 Ang^3
#
#
#
# Elastic Constant Matrix: (Units=GPa)
#
#
# Indices 1 2 3 4 5 6 
#
# 1 126.9014 26.7873 84.2254 0.0000 -16.1179 0.0000
# 2 26.7873 43.8202 14.5982 0.0000 -13.3443 0.0000
# 3 84.2254 14.5982 78.5419 0.0000 -5.6003 0.0000
# 4 0.0000 0.0000 0.0000 27.6270 0.0000 1.3392
# 5 -16.1179 -13.3443 -5.6003 0.0000 28.1585 0.0000
# 6 0.0000 0.0000 0.0000 1.3392 0.0000 16.9133
#
#
#
# Elastic Compliance Matrix: (Units=1/GPa)
#
#
# Indices 1 2 3 4 5 6 
#
# 1 0.031589 -0.005892 -0.032145 0.000000 0.008896 0.000000
# 2 -0.005892 0.029147 0.001670 0.000000 0.010772 0.000000
# 3 -0.032145 0.001670 0.046294 0.000000 -0.008401 0.000000
# 4 0.000000 0.000000 0.000000 0.036336 0.000000 -0.002877
# 5 0.008896 0.010772 -0.008401 0.000000 0.044039 0.000000
# 6 0.000000 0.000000 0.000000 -0.002877 0.000000 0.059353
#
#
# Mechanical properties :
#
#
# Convention : Reuss Voigt Hill
#
# Bulk Modulus (GPa) = 29.16015 55.60947 42.38481
# Shear Modulus (GPa) = 15.10922 22.78327 18.94624
#
# Velocity S-wave (km/s) = 2.98418 3.66448 3.34169
# Velocity P-wave (km/s) = 5.39080 7.11904 6.31433
#
# Compressibility (1/GPa) = 0.03429338
#
# Stress axis : x y z
#
# Youngs Moduli (GPa) = 31.65692 34.30920 21.60118
#
# Poissons Ratio (x) = 0.20217 0.69437
# Poissons Ratio (y) = 0.18654 -0.03607
# Poissons Ratio (z) = 1.01761 -0.05728
#
# Static dielectric constant tensor:
#      x y z
#    x 1.603220 0.000000 -0.024360 
#    y 0.000000 1.581970 0.000000 
#    z -0.024360 0.000000 1.562030 
# 
# From -- ./inp_files/33830.got.cif
#   From: 2010.05.17/outbox.cif.g08.bks.cpg/sg11_17_cif.got.tgz:33830.got - 2010.06.03 12:22:45.
