data_PCOD9156430
_publ_section_title
;
Structure prediction by ZEFSAII (Michael W. Deem and Ramdas Pophale) SiO2 
 PCOD9156430
Probable space group: P 21/M
;
_chemical_formula_sum "Si O2"
_cell_formula_units_Z 32
_cell_length_a 21.271745
_cell_length_b 8.888446
_cell_length_c 15.162339
_cell_angle_alpha 90.000000
_cell_angle_beta 137.725334
_cell_angle_gamma 90.000000
_cell_volume 1928.444604
_symmetry_space_group_name_H-M "P 21/M"
_symmetry_group_IT_number 11
_symmetry_cell_setting 'monoclinic'
loop_
_space_group_symop_operation_xyz
x,y,z
-x,1/2+y,-z
-x,-y,-z
x,1/2-y,z
loop_
_atom_site_type_symbol
_atom_site_label
_atom_site_fract_x
_atom_site_fract_y
_atom_site_fract_z
Si Si1 0.513649 0.072801 0.111051
Si Si2 0.171534 0.930605 0.950098
Si Si3 0.980855 0.428998 0.074149
Si Si4 0.193745 0.923263 0.706266
Si Si5 0.707062 0.572444 0.354250
Si Si6 0.657849 0.421835 0.978109
Si Si7 0.893965 0.569023 0.628950
Si Si8 0.954623 0.572271 0.331965
O O1 0.518174 0.250000 0.103386
O O2 0.609907 0.014343 0.252920
O O3 0.426796 0.026854 0.082174
O O4 0.500000 0.000000 0.000000
O O5 0.156474 0.750000 0.914920
O O6 0.280436 0.959065 0.044262
O O7 0.122210 0.959989 0.992194
O O8 0.114082 0.030678 0.821197
O O9 0.989446 0.250000 0.074605
O O10 0.054970 0.475774 0.227263
O O11 0.000000 0.500000 0.000000
O O12 0.185805 0.750000 0.668276
O O13 0.239959 0.027135 0.680729
O O14 0.095174 0.983959 0.640032
O O15 0.266460 0.924968 0.863767
O O16 0.688608 0.750000 0.336293
O O17 0.784021 0.535758 0.508790
O O18 0.623363 0.250000 0.935390
O O19 0.905848 0.750000 0.630790
O O20 0.947534 0.489193 0.603682
O O21 0.956827 0.750000 0.350755
#
# Coordination Sequence:
#
# PCOD9156430 Si02
#       8
#     4   4   4   4   4   4   4   4
#     4  12  23  34  49  70  98 131 169 215 257 295
#     4   8  16  31  49  70 101 133 162 199 246 293
#     4   9  17  32  54  80 106 131 157 191 240 300
#     4  10  19  31  47  66  94 130 166 207 251 291
#     4  11  22  35  51  68  90 126 173 215 249 291
#     4   9  17  31  50  69  93 129 170 211 250 288
#     4   9  20  37  51  67  97 132 163 200 247 297
#     4  10  18  28  46  69  94 126 167 206 240 287
#
# _framework density 16.593682999999999
#
# number of rings (size 3 to 8) (size 9 to 14) (size 15 to 20)
#    0.000    2.250    1.250    4.500    0.000    5.500 
#    0.000    0.000    0.000    0.000    0.000    0.875 
#    0.000    0.000    0.000    0.000    0.000    0.000 
#
# Total GULP energy -178455.067472 kJ/mol
# GULP energy per Si atom -5576.720858 kJ/mol
# Density = 1.655592 g / cm^3
# Si number density = 16.593683 Si / 1000 Ang^3
#
#
#
# Elastic Constant Matrix: (Units=GPa)
#
#
# Indices 1 2 3 4 5 6 
#
# 1 107.6957 38.0158 52.6863 0.0000 9.3994 0.0000
# 2 38.0158 69.5649 34.7318 0.0000 15.8306 0.0000
# 3 52.6863 34.7318 65.9893 0.0000 17.0041 0.0000
# 4 0.0000 0.0000 0.0000 17.9681 0.0000 2.4404
# 5 9.3994 15.8306 17.0041 0.0000 31.1702 0.0000
# 6 0.0000 0.0000 0.0000 2.4404 0.0000 29.7807
#
#
#
# Elastic Compliance Matrix: (Units=1/GPa)
#
#
# Indices 1 2 3 4 5 6 
#
# 1 0.016032 -0.003678 -0.011752 0.000000 0.003444 0.000000
# 2 -0.003678 0.021039 -0.006597 0.000000 -0.005977 0.000000
# 3 -0.011752 -0.006597 0.030523 0.000000 -0.009757 0.000000
# 4 0.000000 0.000000 0.000000 0.056281 0.000000 -0.004612
# 5 0.003444 -0.005977 -0.009757 0.000000 0.039402 0.000000
# 6 0.000000 0.000000 0.000000 -0.004612 0.000000 0.033957
#
#
# Mechanical properties :
#
#
# Convention : Reuss Voigt Hill
#
# Bulk Modulus (GPa) = 42.47892 54.90198 48.69045
# Shear Modulus (GPa) = 20.06958 23.63820 21.85389
#
# Velocity S-wave (km/s) = 3.48152 3.77839 3.63299
# Velocity P-wave (km/s) = 6.46655 7.22446 6.85599
#
# Compressibility (1/GPa) = 0.02354109
#
# Stress axis : x y z
#
# Youngs Moduli (GPa) = 62.37377 47.53178 32.76196
#
# Poissons Ratio (x) = 0.17480 0.38503
# Poissons Ratio (y) = 0.22939 0.21612
# Poissons Ratio (z) = 0.73303 0.31355
#
# Static dielectric constant tensor:
#      x y z
#    x 1.567420 0.000000 0.015620 
#    y 0.000000 1.559410 0.000000 
#    z 0.015620 0.000000 1.589700 
# 
# From -- ./inp_files/40653.got.cif
#   From: 2010.05.17/outbox.cif.g08.bks.cpg/sg11_21_cif.got.tgz:40653.got - 2010.06.03 12:22:45.
