data_PCOD9156389
_publ_section_title
;
Structure prediction by ZEFSAII (Michael W. Deem and Ramdas Pophale) SiO2 
 PCOD9156389
Probable space group: P 21/M
;
_chemical_formula_sum "Si O2"
_cell_formula_units_Z 32
_cell_length_a 25.488851
_cell_length_b 7.929936
_cell_length_c 16.876560
_cell_angle_alpha 90.000000
_cell_angle_beta 153.344123
_cell_angle_gamma 90.000000
_cell_volume 1530.358005
_symmetry_space_group_name_H-M "P 21/M"
_symmetry_group_IT_number 11
_symmetry_cell_setting 'monoclinic'
loop_
_space_group_symop_operation_xyz
x,y,z
-x,1/2+y,-z
-x,-y,-z
x,1/2-y,z
loop_
_atom_site_type_symbol
_atom_site_label
_atom_site_fract_x
_atom_site_fract_y
_atom_site_fract_z
Si Si1 0.735001 0.952896 0.546662
Si Si2 0.883687 0.050772 0.890325
Si Si3 0.874194 0.559728 0.304586
Si Si4 0.691110 0.559318 0.201272
Si Si5 0.865086 0.956416 0.567216
Si Si6 0.702511 0.440456 0.951728
Si Si7 0.523830 0.047474 0.841162
Si Si8 0.875386 0.457877 0.059570
O O1 0.732151 0.750000 0.541205
O O2 0.829976 0.004125 0.609067
O O3 0.607612 0.014421 0.347964
O O4 0.775347 0.005662 0.687859
O O5 0.889185 0.250000 0.906499
O O6 0.876051 0.983521 0.969386
O O7 0.000000 0.000000 0.000000
O O8 0.877561 0.750000 0.276868
O O9 0.791472 0.562233 0.269610
O O10 0.814616 0.438727 0.161058
O O11 0.000000 0.500000 0.500000
O O12 0.658752 0.750000 0.180928
O O13 0.760860 0.480307 0.369321
O O14 0.580918 0.488414 0.003975
O O15 0.863940 0.750000 0.559310
O O16 0.999127 0.008377 0.732944
O O17 0.663798 0.250000 0.880447
O O18 0.760026 0.517697 0.950821
O O19 0.604252 0.519815 0.876675
O O20 0.524898 0.250000 0.835442
O O21 0.872715 0.250000 0.058332
#
# Coordination Sequence:
#
# PCOD9156389 Si02
#       8
#     4   4   4   4   4   4   4   4
#     4  10  20  36  55  75 104 139 173 211 258 309
#     4  11  21  36  58  82 105 132 167 210 262 314
#     4  10  18  28  44  68  99 134 172 214 261 303
#     4   9  18  31  49  71  98 136 179 214 246 299
#     4   9  16  29  50  74  99 134 174 209 252 307
#     4   9  17  32  52  72  97 133 176 210 248 307
#     4   9  19  34  52  74 104 140 173 213 258 295
#     4   9  17  31  54  78 101 133 170 208 255 317
#
# _framework density 20.910139000000001
#
# number of rings (size 3 to 8) (size 9 to 14) (size 15 to 20)
#    0.000    2.500    1.250    1.500    0.000    3.500 
#    0.000    2.500    0.000    0.000    0.000    0.000 
#    0.000    0.000    0.000    0.000    0.000    0.000 
#
# Total GULP energy -178351.491924 kJ/mol
# GULP energy per Si atom -5573.484123 kJ/mol
# Density = 2.086255 g / cm^3
# Si number density = 20.910139 Si / 1000 Ang^3
#
#
#
# Elastic Constant Matrix: (Units=GPa)
#
#
# Indices 1 2 3 4 5 6 
#
# 1 56.9670 2.5108 2.0683 0.0000 -17.1508 0.0000
# 2 2.5108 25.9116 2.1946 0.0000 1.2987 0.0000
# 3 2.0683 2.1946 79.5291 0.0000 -10.4593 0.0000
# 4 0.0000 0.0000 0.0000 17.9520 0.0000 -5.5032
# 5 -17.1508 1.2987 -10.4593 0.0000 31.1648 0.0000
# 6 0.0000 0.0000 0.0000 -5.5032 0.0000 11.0803
#
#
#
# Elastic Compliance Matrix: (Units=1/GPa)
#
#
# Indices 1 2 3 4 5 6 
#
# 1 0.021316 -0.002774 0.001130 0.000000 0.012226 0.000000
# 2 -0.002774 0.039171 -0.001490 0.000000 -0.003659 0.000000
# 3 0.001130 -0.001490 0.013261 0.000000 0.005135 0.000000
# 4 0.000000 0.000000 0.000000 0.065709 0.000000 0.032635
# 5 0.012226 -0.003659 0.005135 0.000000 0.040691 0.000000
# 6 0.000000 0.000000 0.000000 0.032635 0.000000 0.106459
#
#
# Mechanical properties :
#
#
# Convention : Reuss Voigt Hill
#
# Bulk Modulus (GPa) = 14.81914 19.55056 17.18485
# Shear Modulus (GPa) = 15.85447 22.41501 19.13474
#
# Velocity S-wave (km/s) = 2.75657 3.27765 3.02833
# Velocity P-wave (km/s) = 4.15138 4.86765 4.52372
#
# Compressibility (1/GPa) = 0.06748030
#
# Stress axis : x y z
#
# Youngs Moduli (GPa) = 46.91320 25.52897 75.40900
#
# Poissons Ratio (x) = 0.07082 -0.08522
# Poissons Ratio (y) = 0.13014 0.11236
# Poissons Ratio (z) = -0.05301 0.03804
#
# Static dielectric constant tensor:
#      x y z
#    x 1.796640 0.000000 -0.006680 
#    y 0.000000 1.793250 0.000000 
#    z -0.006680 0.000000 1.742820 
# 
# From -- ./inp_files/55621.got.cif
#   From: 2010.05.17/outbox.cif.g08.bks.cpg/sg11_28_cif.got.tgz:55621.got - 2010.06.03 12:22:45.
