data_PCOD9156325
_publ_section_title
;
Structure prediction by ZEFSAII (Michael W. Deem and Ramdas Pophale) SiO2 
 PCOD9156325
Probable space group: P 21/M
;
_chemical_formula_sum "Si O2"
_cell_formula_units_Z 32
_cell_length_a 12.490756
_cell_length_b 9.150899
_cell_length_c 23.739511
_cell_angle_alpha 90.000000
_cell_angle_beta 51.139417
_cell_angle_gamma 90.000000
_cell_volume 2112.907446
_symmetry_space_group_name_H-M "P 21/M"
_symmetry_group_IT_number 11
_symmetry_cell_setting 'monoclinic'
loop_
_space_group_symop_operation_xyz
x,y,z
-x,1/2+y,-z
-x,-y,-z
x,1/2-y,z
loop_
_atom_site_type_symbol
_atom_site_label
_atom_site_fract_x
_atom_site_fract_y
_atom_site_fract_z
Si Si1 0.847867 0.574231 0.613564
Si Si2 0.444203 0.924925 0.462465
Si Si3 0.830586 0.581641 0.175230
Si Si4 0.843175 0.424889 0.493806
Si Si5 0.670944 0.580972 0.107148
Si Si6 0.916196 0.425180 0.976699
Si Si7 0.407378 0.578889 0.690084
Si Si8 0.568093 0.577504 0.755776
O O1 0.837133 0.750000 0.611239
O O2 0.825478 0.503390 0.559713
O O3 0.725741 0.529209 0.695696
O O4 0.004347 0.538150 0.578924
O O5 0.456909 0.750000 0.461816
O O6 0.283900 0.962053 0.504203
O O7 0.500000 0.000000 0.500000
O O8 0.527268 0.985236 0.381313
O O9 0.821869 0.750000 0.197327
O O10 0.752647 0.575424 0.140243
O O11 0.744937 0.476990 0.243937
O O12 0.989099 0.544528 0.109165
O O13 0.839609 0.250000 0.504464
O O14 0.660687 0.750000 0.094347
O O15 0.524173 0.510430 0.169659
O O16 0.764463 0.491699 0.032252
O O17 0.913453 0.250000 0.985418
O O18 0.000000 0.500000 0.000000
O O19 0.407747 0.750000 0.675469
O O20 0.498076 0.560407 0.717035
O O21 0.562708 0.750000 0.771078
#
# Coordination Sequence:
#
# PCOD9156325 Si02
#       8
#     4   4   4   4   4   4   4   4
#     4   9  16  28  45  64  85 107 135 172 213 255
#     4  11  22  34  47  62  83 111 142 178 217 257
#     4   8  15  25  36  51  72 101 133 169 206 241
#     4   9  18  30  45  64  83 106 136 173 215 256
#     4   9  16  23  33  50  75 105 137 169 200 239
#     4   9  15  23  34  49  71 100 135 170 203 240
#     4  10  18  28  42  60  79 103 137 174 210 250
#     4   9  16  25  39  58  81 108 135 168 206 247
#
# _framework density 15.145009
#
# number of rings (size 3 to 8) (size 9 to 14) (size 15 to 20)
#    0.000    2.750    1.250    2.250    0.000    5.000 
#    0.000    0.000    0.000    0.000    0.000    0.000 
#    0.000    0.000    0.000    1.125    0.000   12.375 
#
# Total GULP energy -178135.287984 kJ/mol
# GULP energy per Si atom -5566.727750 kJ/mol
# Density = 1.511054 g / cm^3
# Si number density = 15.145009 Si / 1000 Ang^3
#
#
#
# Elastic Constant Matrix: (Units=GPa)
#
#
# Indices 1 2 3 4 5 6 
#
# 1 58.3388 33.0770 42.8509 0.0000 -18.9391 0.0000
# 2 33.0770 59.3878 49.2583 0.0000 -16.2797 0.0000
# 3 42.8509 49.2583 101.5074 0.0000 -43.6652 0.0000
# 4 0.0000 0.0000 0.0000 28.1568 0.0000 -2.8932
# 5 -18.9391 -16.2797 -43.6652 0.0000 25.0326 0.0000
# 6 0.0000 0.0000 0.0000 -2.8932 0.0000 11.7368
#
#
#
# Elastic Compliance Matrix: (Units=1/GPa)
#
#
# Indices 1 2 3 4 5 6 
#
# 1 0.028470 -0.011415 -0.001630 0.000000 0.011273 0.000000
# 2 -0.011415 0.036195 -0.025376 0.000000 -0.029361 0.000000
# 3 -0.001630 -0.025376 0.060984 0.000000 0.088640 0.000000
# 4 0.000000 0.000000 0.000000 0.036438 0.000000 0.008982
# 5 0.011273 -0.029361 0.088640 0.000000 0.184000 0.000000
# 6 0.000000 0.000000 0.000000 0.008982 0.000000 0.087417
#
#
# Mechanical properties :
#
#
# Convention : Reuss Voigt Hill
#
# Bulk Modulus (GPa) = 20.48842 52.17848 36.33345
# Shear Modulus (GPa) = 9.49463 19.25509 14.37486
#
# Velocity S-wave (km/s) = 2.50654 3.56951 3.08417
# Velocity P-wave (km/s) = 4.68343 7.17746 6.06014
#
# Compressibility (1/GPa) = 0.04880807
#
# Stress axis : x y z
#
# Youngs Moduli (GPa) = 35.12453 27.62807 16.39785
#
# Poissons Ratio (x) = 0.31536 0.02673
# Poissons Ratio (y) = 0.40093 0.41611
# Poissons Ratio (z) = 0.05725 0.70108
#
# Static dielectric constant tensor:
#      x y z
#    x 1.486960 0.000000 -0.044230 
#    y 0.000000 1.505060 0.000000 
#    z -0.044230 0.000000 1.521460 
# 
# From -- ./inp_files/68301.got.cif
#   From: 2010.05.17/outbox.cif.g08.bks.cpg/sg11_35_cif.got.tgz:68301.got - 2010.06.03 12:22:45.
