data_PCOD9156010
_publ_section_title
;
Structure prediction by ZEFSAII (Michael W. Deem and Ramdas Pophale) SiO2 
 PCOD9156010
Probable space group: P 21/M
;
_chemical_formula_sum "Si O2"
_cell_formula_units_Z 32
_cell_length_a 12.766330
_cell_length_b 18.405451
_cell_length_c 11.080452
_cell_angle_alpha 90.000000
_cell_angle_beta 49.583714
_cell_angle_gamma 90.000000
_cell_volume 1982.241985
_symmetry_space_group_name_H-M "P 21/M"
_symmetry_group_IT_number 11
_symmetry_cell_setting 'monoclinic'
loop_
_space_group_symop_operation_xyz
x,y,z
-x,1/2+y,-z
-x,-y,-z
x,1/2-y,z
loop_
_atom_site_type_symbol
_atom_site_label
_atom_site_fract_x
_atom_site_fract_y
_atom_site_fract_z
Si Si1 0.562313 0.609554 0.934853
Si Si2 0.086169 0.835647 0.205259
Si Si3 0.835413 0.832513 0.677042
Si Si4 0.529318 0.555402 0.586447
Si Si5 0.620159 0.033471 0.747878
Si Si6 0.367705 0.836137 0.860454
Si Si7 0.224024 0.336108 0.562109
Si Si8 0.078134 0.575251 0.458824
O O1 0.697636 0.656591 0.855563
O O2 0.623385 0.531940 0.843870
O O3 0.469067 0.643000 0.896983
O O4 0.469085 0.595248 0.120548
O O5 0.094369 0.750000 0.232536
O O6 0.100644 0.884081 0.314154
O O7 0.930944 0.847023 0.272743
O O8 0.212118 0.850170 0.021343
O O9 0.878054 0.750000 0.642169
O O10 0.791297 0.851131 0.571068
O O11 0.967925 0.877949 0.614861
O O12 0.500000 0.500000 0.500000
O O13 0.552018 0.502824 0.683695
O O14 0.412089 0.612712 0.716317
O O15 0.663928 0.607552 0.471774
O O16 0.771695 0.060388 0.602287
O O17 0.383872 0.750000 0.823520
O O18 0.260956 0.250000 0.547603
O O19 0.000000 0.500000 0.500000
#
# Coordination Sequence:
#
# PCOD9156010 Si02
#       8
#     4   4   4   4   4   4   4   4
#     4  10  17  29  47  76 105 128 159 199 255 314
#     4   9  18  30  49  80 104 124 162 209 254 307
#     4  10  18  29  48  76 103 131 164 201 250 315
#     4  11  22  35  50  74 101 134 181 218 248 293
#     4  10  19  30  46  72 106 134 158 199 255 300
#     4  10  18  32  55  76  99 131 167 214 260 301
#     4   9  16  31  52  73  99 129 169 212 249 293
#     4  11  17  27  45  73 107 134 154 189 253 315
#
# _framework density 16.143336999999999
#
# number of rings (size 3 to 8) (size 9 to 14) (size 15 to 20)
#    0.000    2.000    5.000    2.625    0.000    0.000 
#    0.000    0.625    0.000    6.000    0.000    1.750 
#    0.000    0.000    0.000    0.000    0.000    0.000 
#
# Total GULP energy -178192.752081 kJ/mol
# GULP energy per Si atom -5568.523503 kJ/mol
# Density = 1.610659 g / cm^3
# Si number density = 16.143337 Si / 1000 Ang^3
#
#
#
# Elastic Constant Matrix: (Units=GPa)
#
#
# Indices 1 2 3 4 5 6 
#
# 1 19.0655 18.8104 24.6886 0.0000 -3.9381 0.0000
# 2 18.8104 71.2790 36.3593 0.0000 -3.6379 0.0000
# 3 24.6886 36.3593 87.1252 0.0000 -23.7538 0.0000
# 4 0.0000 0.0000 0.0000 31.6650 0.0000 -4.3154
# 5 -3.9381 -3.6379 -23.7538 0.0000 22.9221 0.0000
# 6 0.0000 0.0000 0.0000 -4.3154 0.0000 26.7721
#
#
#
# Elastic Compliance Matrix: (Units=1/GPa)
#
#
# Indices 1 2 3 4 5 6 
#
# 1 0.094660 -0.013115 -0.024369 0.000000 -0.011072 0.000000
# 2 -0.013115 0.020435 -0.006330 0.000000 -0.005570 0.000000
# 3 -0.024369 -0.006330 0.027332 0.000000 0.023132 0.000000
# 4 0.000000 0.000000 0.000000 0.032290 0.000000 0.005205
# 5 -0.011072 -0.005570 0.023132 0.000000 0.064811 0.000000
# 6 0.000000 0.000000 0.000000 0.005205 0.000000 0.038191
#
#
# Mechanical properties :
#
#
# Convention : Reuss Voigt Hill
#
# Bulk Modulus (GPa) = 18.24882 37.46515 27.85699
# Shear Modulus (GPa) = 13.03394 22.77927 17.90660
#
# Velocity S-wave (km/s) = 2.84454 3.76049 3.33412
# Velocity P-wave (km/s) = 4.70291 6.48947 5.66703
#
# Compressibility (1/GPa) = 0.05479805
#
# Stress axis : x y z
#
# Youngs Moduli (GPa) = 10.56411 48.93517 36.58768
#
# Poissons Ratio (x) = 0.64179 0.89161
# Poissons Ratio (y) = 0.13855 0.23161
# Poissons Ratio (z) = 0.25744 0.30977
#
# Static dielectric constant tensor:
#      x y z
#    x 1.522110 0.000000 -0.034280 
#    y 0.000000 1.572470 0.000000 
#    z -0.034280 0.000000 1.584540 
# 
# From -- ./inp_files/36007.got.cif
#   From: 2010.05.17/outbox.cif.g08.bks.cpg/sg11_19_cif.got.tgz:36007.got - 2010.06.03 12:22:45.
