data_PCOD9156226
_publ_section_title
;
Structure prediction by ZEFSAII (Michael W. Deem and Ramdas Pophale) SiO2 
 PCOD9156226
Probable space group: P 21/M
;
_chemical_formula_sum "Si O2"
_cell_formula_units_Z 28
_cell_length_a 17.812161
_cell_length_b 9.380489
_cell_length_c 13.747427
_cell_angle_alpha 90.000000
_cell_angle_beta 125.806053
_cell_angle_gamma 90.000000
_cell_volume 1862.882431
_symmetry_space_group_name_H-M "P 21/M"
_symmetry_group_IT_number 11
_symmetry_cell_setting 'monoclinic'
loop_
_space_group_symop_operation_xyz
x,y,z
-x,1/2+y,-z
-x,-y,-z
x,1/2-y,z
loop_
_atom_site_type_symbol
_atom_site_label
_atom_site_fract_x
_atom_site_fract_y
_atom_site_fract_z
Si Si1 0.939062 0.079015 0.153627
Si Si2 0.598952 0.919161 0.690822
Si Si3 0.789952 0.580160 0.554319
Si Si4 0.106980 0.582086 0.196587
Si Si5 0.033006 0.419288 0.429944
Si Si6 0.228172 0.582587 0.095191
Si Si7 0.411462 0.418317 0.547654
O O1 0.950492 0.250000 0.149036
O O2 0.971656 0.044416 0.287814
O O3 0.833743 0.044120 0.045532
O O4 0.009912 0.998205 0.136310
O O5 0.597603 0.750000 0.703944
O O6 0.611778 0.945923 0.584208
O O7 0.682035 0.990463 0.813226
O O8 0.500384 0.989155 0.641587
O O9 0.799438 0.750000 0.584021
O O10 0.827447 0.489275 0.672825
O O11 0.860437 0.549993 0.519774
O O12 0.681175 0.551605 0.461264
O O13 0.094822 0.750000 0.205701
O O14 0.157306 0.565573 0.131806
O O15 0.024941 0.250000 0.438954
O O16 0.000000 0.500000 0.500000
O O17 0.253611 0.750000 0.109353
O O18 0.433580 0.250000 0.572261
#
# Coordination Sequence:
#
# PCOD9156226 Si02
#       7
#     4   4   4   4   4   4   4
#     4   9  19  33  46  61  87 123 154 181 220 276
#     4  10  19  28  43  65  91 123 156 190 223 255
#     4   9  17  31  48  65  89 124 155 181 221 274
#     4  10  18  26  41  66  91 117 151 190 220 252
#     4   9  18  32  50  69  90 114 146 186 229 273
#     4  10  19  30  43  62  90 124 157 184 217 262
#     4   9  17  30  45  62  88 123 158 187 218 261
#
# _framework density 15.030471
#
# number of rings (size 3 to 8) (size 9 to 14) (size 15 to 20)
#    0.000    2.571    1.429    2.143    0.000    4.571 
#    0.000    0.000    0.000    0.000    0.000    1.000 
#    0.000    0.000    0.000    0.000    0.000    0.000 
#
# Total GULP energy -156007.970107 kJ/mol
# GULP energy per Si atom -5571.713218 kJ/mol
# Density = 1.499626 g / cm^3
# Si number density = 15.030471 Si / 1000 Ang^3
#
#
#
# Elastic Constant Matrix: (Units=GPa)
#
#
# Indices 1 2 3 4 5 6 
#
# 1 88.5901 46.0278 58.9730 0.0000 14.2229 0.0000
# 2 46.0278 47.2258 53.8828 0.0000 16.2722 0.0000
# 3 58.9730 53.8828 96.9385 0.0000 30.4870 0.0000
# 4 0.0000 0.0000 0.0000 21.6849 0.0000 4.7232
# 5 14.2229 16.2722 30.4870 0.0000 24.3353 0.0000
# 6 0.0000 0.0000 0.0000 4.7232 0.0000 24.4898
#
#
#
# Elastic Compliance Matrix: (Units=1/GPa)
#
#
# Indices 1 2 3 4 5 6 
#
# 1 0.024056 -0.018205 -0.006472 0.000000 0.006222 0.000000
# 2 -0.018205 0.071767 -0.028169 0.000000 -0.002059 0.000000
# 3 -0.006472 -0.028169 0.037619 0.000000 -0.024511 0.000000
# 4 0.000000 0.000000 0.000000 0.048137 0.000000 -0.009284
# 5 0.006222 -0.002059 -0.024511 0.000000 0.069540 0.000000
# 6 0.000000 0.000000 0.000000 -0.009284 0.000000 0.042624
#
#
# Mechanical properties :
#
#
# Convention : Reuss Voigt Hill
#
# Bulk Modulus (GPa) = 36.03566 61.16908 48.60237
# Shear Modulus (GPa) = 12.23438 19.02671 15.63054
#
# Velocity S-wave (km/s) = 2.85611 3.56177 3.22828
# Velocity P-wave (km/s) = 5.90793 7.59605 6.80455
#
# Compressibility (1/GPa) = 0.02775029
#
# Stress axis : x y z
#
# Youngs Moduli (GPa) = 41.56951 13.93403 26.58227
#
# Poissons Ratio (x) = 0.25367 0.17204
# Poissons Ratio (y) = 0.75678 0.74878
# Poissons Ratio (z) = 0.26904 0.39250
#
# Static dielectric constant tensor:
#      x y z
#    x 1.489280 0.000000 0.015680 
#    y 0.000000 1.496090 0.000000 
#    z 0.015680 0.000000 1.501660 
# 
# From -- ./inp_files/50969.got.cif
#   From: 2010.05.17/outbox.cif.g08.bks.cpg/sg11_26_cif.got.tgz:50969.got - 2010.06.03 12:22:45.
