data_PCOD9156317
_publ_section_title
;
Structure prediction by ZEFSAII (Michael W. Deem and Ramdas Pophale) SiO2 
 PCOD9156317
Probable space group: P 21/M
;
_chemical_formula_sum "Si O2"
_cell_formula_units_Z 32
_cell_length_a 17.777346
_cell_length_b 8.463224
_cell_length_c 24.743686
_cell_angle_alpha 90.000000
_cell_angle_beta 33.999637
_cell_angle_gamma 90.000000
_cell_volume 2081.731571
_symmetry_space_group_name_H-M "P 21/M"
_symmetry_group_IT_number 11
_symmetry_cell_setting 'monoclinic'
loop_
_space_group_symop_operation_xyz
x,y,z
-x,1/2+y,-z
-x,-y,-z
x,1/2-y,z
loop_
_atom_site_type_symbol
_atom_site_label
_atom_site_fract_x
_atom_site_fract_y
_atom_site_fract_z
Si Si1 0.923965 0.060029 0.252079
Si Si2 0.709599 0.938700 0.229399
Si Si3 0.815968 0.942523 0.847520
Si Si4 0.299312 0.938763 0.879216
Si Si5 0.602639 0.939689 0.892899
Si Si6 0.598874 0.561211 0.068407
Si Si7 0.633137 0.060600 0.391764
Si Si8 0.996506 0.441087 0.912077
O O1 0.918610 0.250000 0.258931
O O2 0.769839 0.002919 0.340746
O O3 0.032007 0.003078 0.231935
O O4 0.988156 0.012416 0.156570
O O5 0.704301 0.750000 0.234654
O O6 0.867378 0.988973 0.138175
O O7 0.650378 0.997031 0.208101
O O8 0.643792 0.004719 0.323282
O O9 0.815430 0.750000 0.849027
O O10 0.746546 0.988610 0.832270
O O11 0.717483 0.992736 0.955879
O O12 0.300236 0.750000 0.876895
O O13 0.376113 0.994429 0.887047
O O14 0.144235 0.994108 0.979206
O O15 0.597918 0.750000 0.892934
O O16 0.542400 0.008918 0.873854
O O17 0.500000 0.000000 0.000000
O O18 0.604938 0.750000 0.066575
O O19 0.633948 0.250000 0.391878
O O20 0.500000 0.000000 0.500000
O O21 0.995180 0.250000 0.909352
#
# Coordination Sequence:
#
# PCOD9156317 Si02
#       8
#     4   4   4   4   4   4   4   4
#     4   9  16  28  46  66  86 115 151 184 221 266
#     4  10  20  33  47  64  87 115 149 185 224 267
#     4   8  14  25  41  60  83 112 149 187 220 256
#     4  11  20  29  42  63  90 119 153 187 221 261
#     4   9  16  26  39  57  83 115 151 188 223 260
#     4  10  18  28  41  58  84 121 157 187 222 258
#     4  10  20  34  52  69  89 115 145 184 229 273
#     4   9  18  29  41  61  88 117 148 185 222 258
#
# _framework density 15.371819
#
# number of rings (size 3 to 8) (size 9 to 14) (size 15 to 20)
#    0.000    2.500    1.250    3.000    0.000    1.500 
#    0.000    0.625    0.000    0.000    0.000    0.000 
#    0.000    1.000    0.000    2.750    0.000    4.000 
#
# Total GULP energy -178227.558422 kJ/mol
# GULP energy per Si atom -5569.611201 kJ/mol
# Density = 1.533683 g / cm^3
# Si number density = 15.371819 Si / 1000 Ang^3
#
#
#
# Elastic Constant Matrix: (Units=GPa)
#
#
# Indices 1 2 3 4 5 6 
#
# 1 138.4024 23.9816 62.8240 0.0000 2.0962 0.0000
# 2 23.9816 24.6306 16.1192 0.0000 2.4462 0.0000
# 3 62.8240 16.1192 68.7691 0.0000 -5.4967 0.0000
# 4 0.0000 0.0000 0.0000 16.8018 0.0000 3.7638
# 5 2.0962 2.4462 -5.4967 0.0000 12.5966 0.0000
# 6 0.0000 0.0000 0.0000 3.7638 0.0000 22.5104
#
#
#
# Elastic Compliance Matrix: (Units=1/GPa)
#
#
# Indices 1 2 3 4 5 6 
#
# 1 0.013458 -0.004828 -0.011674 0.000000 -0.006396 0.000000
# 2 -0.004828 0.052480 -0.008953 0.000000 -0.013295 0.000000
# 3 -0.011674 -0.008953 0.028596 0.000000 0.016160 0.000000
# 4 0.000000 0.000000 0.000000 0.061833 0.000000 -0.010339
# 5 -0.006396 -0.013295 0.016160 0.000000 0.090084 0.000000
# 6 0.000000 0.000000 0.000000 -0.010339 0.000000 0.046153
#
#
# Mechanical properties :
#
#
# Convention : Reuss Voigt Hill
#
# Bulk Modulus (GPa) = 22.92306 48.62798 35.77552
# Shear Modulus (GPa) = 13.96431 18.97359 16.46895
#
# Velocity S-wave (km/s) = 3.01730 3.51709 3.27673
# Velocity P-wave (km/s) = 5.20418 6.94236 6.13514
#
# Compressibility (1/GPa) = 0.04362419
#
# Stress axis : x y z
#
# Youngs Moduli (GPa) = 74.30628 19.05475 34.96961
#
# Poissons Ratio (x) = 0.09200 0.40823
# Poissons Ratio (y) = 0.35876 0.31309
# Poissons Ratio (z) = 0.86744 0.17060
#
# Static dielectric constant tensor:
#      x y z
#    x 1.559660 0.000000 -0.028700 
#    y 0.000000 1.517500 0.000000 
#    z -0.028700 0.000000 1.478220 
# 
# From -- ./inp_files/42569.got.cif
#   From: 2010.05.17/outbox.cif.g08.bks.cpg/sg11_22_cif.got.tgz:42569.got - 2010.06.03 12:22:45.
