data_PCOD9156969
_publ_section_title
;
Structure prediction by ZEFSAII (Michael W. Deem and Ramdas Pophale) SiO2 
 PCOD9156969
Probable space group: P 21/M
;
_chemical_formula_sum "Si O2"
_cell_formula_units_Z 32
_cell_length_a 8.314891
_cell_length_b 20.299424
_cell_length_c 19.018420
_cell_angle_alpha 90.000000
_cell_angle_beta 33.979772
_cell_angle_gamma 90.000000
_cell_volume 1794.109557
_symmetry_space_group_name_H-M "P 21/M"
_symmetry_group_IT_number 11
_symmetry_cell_setting 'monoclinic'
loop_
_space_group_symop_operation_xyz
x,y,z
-x,1/2+y,-z
-x,-y,-z
x,1/2-y,z
loop_
_atom_site_type_symbol
_atom_site_label
_atom_site_fract_x
_atom_site_fract_y
_atom_site_fract_z
Si Si1 0.396062 0.561370 0.882002
Si Si2 0.285484 0.961401 0.486820
Si Si3 0.024647 0.174592 0.999892
Si Si4 0.486005 0.087655 0.890715
Si Si5 0.268115 0.418758 0.382809
Si Si6 0.093026 0.038962 0.695439
Si Si7 0.288138 0.823225 0.733628
Si Si8 0.175182 0.418761 0.149430
O O1 0.356971 0.483892 0.913843
O O2 0.521423 0.562944 0.757927
O O3 0.639355 0.585849 0.847728
O O4 0.142441 0.615227 0.979070
O O5 0.604722 0.933876 0.385763
O O6 0.049394 0.915323 0.535346
O O7 0.295152 0.024118 0.430976
O O8 0.170480 0.990108 0.602597
O O9 0.016344 0.250000 0.975048
O O10 0.342675 0.145994 0.898348
O O11 0.867823 0.177420 0.133301
O O12 0.831691 0.084299 0.763847
O O13 0.377848 0.095021 0.009800
O O14 0.396950 0.352991 0.369320
O O15 0.949122 0.992885 0.807222
O O16 0.292873 0.750000 0.703775
O O17 0.095702 0.870746 0.755899
#
# Coordination Sequence:
#
# PCOD9156969 Si02
#       8
#     4   4   4   4   4   4   4   4
#     4  10  18  31  50  78 106 127 169 208 255 301
#     4  10  19  30  51  74 103 129 162 209 249 294
#     4   9  19  33  50  72 101 135 167 205 255 309
#     4  10  19  33  51  75 104 135 164 208 254 304
#     4  10  18  31  49  76 101 131 162 209 256 292
#     4  10  18  32  49  76 102 129 165 202 252 294
#     4   9  18  32  50  70 100 135 167 205 252 307
#     4  10  18  32  49  77 107 124 166 204 257 305
#
# _framework density 17.836144999999998
#
# number of rings (size 3 to 8) (size 9 to 14) (size 15 to 20)
#    0.000    2.250    3.750    1.875    0.000    0.500 
#    2.250    0.000    0.000    1.500    0.000    0.000 
#    0.000    0.000    0.000    0.000    0.000    0.000 
#
# Total GULP energy -178184.584609 kJ/mol
# GULP energy per Si atom -5568.268269 kJ/mol
# Density = 1.779555 g / cm^3
# Si number density = 17.836145 Si / 1000 Ang^3
#
#
#
# Elastic Constant Matrix: (Units=GPa)
#
#
# Indices 1 2 3 4 5 6 
#
# 1 55.9238 29.0274 20.4990 0.0000 -25.7643 0.0000
# 2 29.0274 69.8285 7.1105 0.0000 -26.6155 0.0000
# 3 20.4990 7.1105 53.2598 0.0000 -31.5208 0.0000
# 4 0.0000 0.0000 0.0000 13.0544 0.0000 -3.9389
# 5 -25.7643 -26.6155 -31.5208 0.0000 43.6566 0.0000
# 6 0.0000 0.0000 0.0000 -3.9389 0.0000 13.3951
#
#
#
# Elastic Compliance Matrix: (Units=1/GPa)
#
#
# Indices 1 2 3 4 5 6 
#
# 1 0.027366 -0.007892 -0.004834 0.000000 0.007848 0.000000
# 2 -0.007892 0.022769 0.009528 0.000000 0.016103 0.000000
# 3 -0.004834 0.009528 0.036868 0.000000 0.029575 0.000000
# 4 0.000000 0.000000 0.000000 0.084061 0.000000 0.024718
# 5 0.007848 0.016103 0.029575 0.000000 0.058709 0.000000
# 6 0.000000 0.000000 0.000000 0.024718 0.000000 0.081923
#
#
# Mechanical properties :
#
#
# Convention : Reuss Voigt Hill
#
# Bulk Modulus (GPa) = 12.40606 32.47622 22.44114
# Shear Modulus (GPa) = 14.49446 22.17958 18.33702
#
# Velocity S-wave (km/s) = 2.85379 3.53018 3.20985
# Velocity P-wave (km/s) = 4.22250 5.90456 5.13290
#
# Compressibility (1/GPa) = 0.08060576
#
# Stress axis : x y z
#
# Youngs Moduli (GPa) = 36.54231 43.91925 27.12391
#
# Poissons Ratio (x) = 0.34662 0.13112
# Poissons Ratio (y) = 0.28840 -0.25844
# Poissons Ratio (z) = 0.17665 -0.41846
#
# Static dielectric constant tensor:
#      x y z
#    x 1.630960 0.000000 -0.027360 
#    y 0.000000 1.601050 0.000000 
#    z -0.027360 0.000000 1.637830 
# 
# From -- ./inp_files/63990.got.cif
#   From: 2010.05.17/outbox.cif.g08.bks.cpg/sg11_32_cif.got.tgz:63990.got - 2010.06.03 12:22:45.
