data_PCOD9156459
_publ_section_title
;
Structure prediction by ZEFSAII (Michael W. Deem and Ramdas Pophale) SiO2 
 PCOD9156459
Probable space group: P 21/M
;
_chemical_formula_sum "Si O2"
_cell_formula_units_Z 32
_cell_length_a 24.190508
_cell_length_b 8.584238
_cell_length_c 18.058464
_cell_angle_alpha 90.000000
_cell_angle_beta 148.785271
_cell_angle_gamma 90.000000
_cell_volume 1943.409149
_symmetry_space_group_name_H-M "P 21/M"
_symmetry_group_IT_number 11
_symmetry_cell_setting 'monoclinic'
loop_
_space_group_symop_operation_xyz
x,y,z
-x,1/2+y,-z
-x,-y,-z
x,1/2-y,z
loop_
_atom_site_type_symbol
_atom_site_label
_atom_site_fract_x
_atom_site_fract_y
_atom_site_fract_z
Si Si1 0.248228 0.065763 0.820775
Si Si2 0.091274 0.564229 0.759919
Si Si3 0.813400 0.436718 0.654696
Si Si4 0.298564 0.435559 0.611216
Si Si5 0.135507 0.934305 0.545535
Si Si6 0.479174 0.563283 0.058623
Si Si7 0.116131 0.562563 0.110269
Si Si8 0.953575 0.061523 0.123907
O O1 0.245366 0.250000 0.805172
O O2 0.182846 0.019890 0.818690
O O3 0.191031 0.983852 0.685508
O O4 0.369786 0.008659 0.962734
O O5 0.106499 0.750000 0.772727
O O6 0.086693 0.517760 0.841068
O O7 0.976722 0.520379 0.594147
O O8 0.804741 0.250000 0.640250
O O9 0.728835 0.514029 0.503267
O O10 0.807968 0.486854 0.735023
O O11 0.930884 0.486929 0.759993
O O12 0.284210 0.250000 0.602832
O O13 0.214662 0.518027 0.569813
O O14 0.417685 0.475636 0.773764
O O15 0.117258 0.750000 0.523650
O O16 0.469054 0.750000 0.043891
O O17 0.500000 0.500000 0.000000
O O18 0.114438 0.750000 0.110635
O O19 0.125088 0.517902 0.034260
O O20 0.000000 0.500000 0.000000
O O21 0.967448 0.250000 0.139105
#
# Coordination Sequence:
#
# PCOD9156459 Si02
#       8
#     4   4   4   4   4   4   4   4
#     4  12  25  40  56  75 103 137 177 219 262 311
#     4  11  22  36  54  77 107 141 178 215 258 309
#     4  10  18  28  47  74 106 136 171 211 252 304
#     4  11  22  35  53  77 105 137 173 211 261 312
#     4  12  23  36  55  77 105 137 175 217 260 307
#     4  11  23  39  59  78 100 132 174 221 265 311
#     4   8  15  27  43  69 100 135 170 205 249 301
#     4   9  17  30  49  70 102 140 173 208 253 305
#
# _framework density 16.465909
#
# number of rings (size 3 to 8) (size 9 to 14) (size 15 to 20)
#    0.000    1.500    2.500    4.125    0.000    2.500 
#    0.000    0.000    0.000    0.000    0.000    0.875 
#    0.000    0.000    0.000    0.000    0.000    0.000 
#
# Total GULP energy -178617.273117 kJ/mol
# GULP energy per Si atom -5581.789785 kJ/mol
# Density = 1.642843 g / cm^3
# Si number density = 16.465909 Si / 1000 Ang^3
#
#
#
# Elastic Constant Matrix: (Units=GPa)
#
#
# Indices 1 2 3 4 5 6 
#
# 1 48.9609 5.8558 51.3995 0.0000 -1.7625 0.0000
# 2 5.8558 18.5755 5.7348 0.0000 -6.1167 0.0000
# 3 51.3995 5.7348 93.7212 0.0000 -20.7647 0.0000
# 4 0.0000 0.0000 0.0000 23.6696 0.0000 0.9675
# 5 -1.7625 -6.1167 -20.7647 0.0000 30.5825 0.0000
# 6 0.0000 0.0000 0.0000 0.9675 0.0000 21.0496
#
#
#
# Elastic Compliance Matrix: (Units=1/GPa)
#
#
# Indices 1 2 3 4 5 6 
#
# 1 0.062368 -0.016225 -0.039002 0.000000 -0.026132 0.000000
# 2 -0.016225 0.061955 0.008999 0.000000 0.017567 0.000000
# 3 -0.039002 0.008999 0.036971 0.000000 0.024655 0.000000
# 4 0.000000 0.000000 0.000000 0.042328 0.000000 -0.001946
# 5 -0.026132 0.017567 0.024655 0.000000 0.051446 0.000000
# 6 0.000000 0.000000 0.000000 -0.001946 0.000000 0.047596
#
#
# Mechanical properties :
#
#
# Convention : Reuss Voigt Hill
#
# Bulk Modulus (GPa) = 14.52637 31.91530 23.22084
# Shear Modulus (GPa) = 11.95982 21.61149 16.78565
#
# Velocity S-wave (km/s) = 2.69799 3.62677 3.19630
# Velocity P-wave (km/s) = 4.30660 6.07970 5.26828
#
# Compressibility (1/GPa) = 0.06884031
#
# Stress axis : x y z
#
# Youngs Moduli (GPa) = 16.03374 16.14070 27.04791
#
# Poissons Ratio (x) = 0.26188 1.05491
# Poissons Ratio (y) = 0.26015 -0.24341
# Poissons Ratio (z) = 0.62534 -0.14525
#
# Static dielectric constant tensor:
#      x y z
#    x 1.549550 0.000000 -0.040630 
#    y 0.000000 1.552230 0.000000 
#    z -0.040630 0.000000 1.555700 
# 
# From -- ./inp_files/43800.got.cif
#   From: 2010.05.17/outbox.cif.g08.bks.cpg/sg11_22_cif.got.tgz:43800.got - 2010.06.03 12:22:45.
