data_PCOD9156621
_publ_section_title
;
Structure prediction by ZEFSAII (Michael W. Deem and Ramdas Pophale) SiO2 
 PCOD9156621
Probable space group: P 21/M
;
_chemical_formula_sum "Si O2"
_cell_formula_units_Z 32
_cell_length_a 24.512567
_cell_length_b 8.537966
_cell_length_c 18.255093
_cell_angle_alpha 90.000000
_cell_angle_beta 149.632891
_cell_angle_gamma 90.000000
_cell_volume 1931.441428
_symmetry_space_group_name_H-M "P 21/M"
_symmetry_group_IT_number 11
_symmetry_cell_setting 'monoclinic'
loop_
_space_group_symop_operation_xyz
x,y,z
-x,1/2+y,-z
-x,-y,-z
x,1/2-y,z
loop_
_atom_site_type_symbol
_atom_site_label
_atom_site_fract_x
_atom_site_fract_y
_atom_site_fract_z
Si Si1 0.880835 0.061557 0.380905
Si Si2 0.481317 0.437859 0.560424
Si Si3 0.180269 0.562000 0.844900
Si Si4 0.305045 0.435428 0.124544
Si Si5 0.098551 0.563977 0.276329
Si Si6 0.868978 0.065519 0.962374
Si Si7 0.059209 0.939787 0.394944
Si Si8 0.234383 0.435845 0.303320
O O1 0.881875 0.250000 0.380218
O O2 0.809104 0.012089 0.228264
O O3 0.866511 0.015428 0.449169
O O4 0.000000 0.000000 0.500000
O O5 0.500000 0.500000 0.500000
O O6 0.491026 0.250000 0.571594
O O7 0.574232 0.509366 0.718645
O O8 0.360283 0.479748 0.444545
O O9 0.189345 0.750000 0.860621
O O10 0.059607 0.512591 0.730728
O O11 0.263883 0.483464 0.996748
O O12 0.296119 0.250000 0.124413
O O13 0.225275 0.517037 0.090619
O O14 0.116202 0.750000 0.292283
O O15 0.104062 0.514768 0.367784
O O16 0.181589 0.478562 0.319305
O O17 0.977784 0.525077 0.109206
O O18 0.889534 0.250000 0.991954
O O19 0.829879 0.022283 0.835839
O O20 0.046388 0.750000 0.380229
O O21 0.226016 0.250000 0.280238
#
# Coordination Sequence:
#
# PCOD9156621 Si02
#       8
#     4   4   4   4   4   4   4   4
#     4   8  15  27  44  69 100 135 170 206 248 301
#     4  11  23  39  59  78 100 132 173 218 263 308
#     4  10  18  29  48  74 104 136 173 211 254 306
#     4  12  23  35  53  77 106 138 174 214 262 312
#     4  11  22  35  53  77 108 142 177 212 255 307
#     4  12  23  36  55  76 104 137 176 217 259 308
#     4   9  17  30  48  71 104 140 172 207 252 303
#     4  11  24  40  56  75 102 135 175 217 261 308
#
# _framework density 16.567937000000001
#
# number of rings (size 3 to 8) (size 9 to 14) (size 15 to 20)
#    0.000    1.500    2.500    4.125    0.000    2.500 
#    0.000    0.000    0.000    0.000    0.000    0.875 
#    0.000    0.000    0.000    0.000    0.000    0.000 
#
# Total GULP energy -178619.034873 kJ/mol
# GULP energy per Si atom -5581.844840 kJ/mol
# Density = 1.653023 g / cm^3
# Si number density = 16.567937 Si / 1000 Ang^3
#
#
#
# Elastic Constant Matrix: (Units=GPa)
#
#
# Indices 1 2 3 4 5 6 
#
# 1 87.0500 -0.3713 50.5106 0.0000 -17.4871 0.0000
# 2 -0.3713 19.2161 -1.3821 0.0000 -5.6533 0.0000
# 3 50.5106 -1.3821 60.5368 0.0000 -28.3817 0.0000
# 4 0.0000 0.0000 0.0000 21.0984 0.0000 0.0567
# 5 -17.4871 -5.6533 -28.3817 0.0000 30.6066 0.0000
# 6 0.0000 0.0000 0.0000 0.0567 0.0000 21.6858
#
#
#
# Elastic Compliance Matrix: (Units=1/GPa)
#
#
# Indices 1 2 3 4 5 6 
#
# 1 0.023730 -0.004268 -0.024609 0.000000 -0.010051 0.000000
# 2 -0.004268 0.059976 0.015889 0.000000 0.023373 0.000000
# 3 -0.024609 0.015889 0.056964 0.000000 0.041698 0.000000
# 4 0.000000 0.000000 0.000000 0.047397 0.000000 -0.000124
# 5 -0.010051 0.023373 0.041698 0.000000 0.069914 0.000000
# 6 0.000000 0.000000 0.000000 -0.000124 0.000000 0.046113
#
#
# Mechanical properties :
#
#
# Convention : Reuss Voigt Hill
#
# Bulk Modulus (GPa) = 8.71892 29.36859 19.04376
# Shear Modulus (GPa) = 13.57577 22.54789 18.06183
#
# Velocity S-wave (km/s) = 2.86562 3.69309 3.30535
# Velocity P-wave (km/s) = 4.02778 5.99582 5.10749
#
# Compressibility (1/GPa) = 0.11469310
#
# Stress axis : x y z
#
# Youngs Moduli (GPa) = 42.14103 16.67324 17.55488
#
# Poissons Ratio (x) = 0.07117 0.43201
# Poissons Ratio (y) = 0.17987 -0.27893
# Poissons Ratio (z) = 1.03706 -0.26492
#
# Static dielectric constant tensor:
#      x y z
#    x 1.563360 0.000000 -0.037870 
#    y 0.000000 1.554310 0.000000 
#    z -0.037870 0.000000 1.550050 
# 
# From -- ./inp_files/45263.got.cif
#   From: 2010.05.17/outbox.cif.g08.bks.cpg/sg11_23_cif.got.tgz:45263.got - 2010.06.03 12:22:45.
