data_PCOD9156535
_publ_section_title
;
Structure prediction by ZEFSAII (Michael W. Deem and Ramdas Pophale) SiO2 
 PCOD9156535
Probable space group: P 21/M
;
_chemical_formula_sum "Si O2"
_cell_formula_units_Z 32
_cell_length_a 19.686270
_cell_length_b 8.957625
_cell_length_c 23.801516
_cell_angle_alpha 90.000000
_cell_angle_beta 27.921705
_cell_angle_gamma 90.000000
_cell_volume 1965.405809
_symmetry_space_group_name_H-M "P 21/M"
_symmetry_group_IT_number 11
_symmetry_cell_setting 'monoclinic'
loop_
_space_group_symop_operation_xyz
x,y,z
-x,1/2+y,-z
-x,-y,-z
x,1/2-y,z
loop_
_atom_site_type_symbol
_atom_site_label
_atom_site_fract_x
_atom_site_fract_y
_atom_site_fract_z
Si Si1 0.454069 0.929238 0.778182
Si Si2 0.879606 0.569835 0.629537
Si Si3 0.646865 0.929758 0.416840
Si Si4 0.337469 0.575463 0.289483
Si Si5 0.849075 0.073768 0.178540
Si Si6 0.696038 0.928645 0.509101
Si Si7 0.191321 0.426347 0.910817
Si Si8 0.910454 0.423219 0.431945
O O1 0.447239 0.750000 0.785744
O O2 0.563169 0.972710 0.647186
O O3 0.526030 0.994332 0.782011
O O4 0.300009 0.999305 0.875429
O O5 0.881361 0.750000 0.623450
O O6 0.729093 0.503993 0.716759
O O7 0.000000 0.500000 0.500000
O O8 0.939338 0.529822 0.647922
O O9 0.638556 0.750000 0.421130
O O10 0.670250 0.978002 0.464304
O O11 0.500000 0.000000 0.500000
O O12 0.775838 0.988597 0.283399
O O13 0.364834 0.750000 0.259302
O O14 0.211293 0.565893 0.429653
O O15 0.815224 0.250000 0.205588
O O16 0.791168 0.006184 0.162267
O O17 0.022988 0.055368 0.050796
O O18 0.700392 0.750000 0.506231
O O19 0.843942 0.987438 0.428910
O O20 0.220907 0.250000 0.883860
O O21 0.922451 0.250000 0.407618
#
# Coordination Sequence:
#
# PCOD9156535 Si02
#       8
#     4   4   4   4   4   4   4   4
#     4  10  18  29  46  67  93 123 154 190 231 274
#     4   9  15  23  35  54  80 112 150 187 224 267
#     4  11  22  35  51  71  95 123 155 192 233 276
#     4   9  16  25  37  57  85 117 152 186 223 269
#     4  10  21  36  52  71  93 119 154 192 232 278
#     4   9  19  31  43  63  90 119 152 188 225 270
#     4  10  20  34  52  71  92 119 152 192 234 277
#     4   8  15  25  38  56  80 113 150 185 221 264
#
# _framework density 16.281624000000001
#
# number of rings (size 3 to 8) (size 9 to 14) (size 15 to 20)
#    0.000    2.500    0.000    3.750    0.000    7.500 
#    0.000    0.000    0.000    0.000    0.000    0.000 
#    0.000    1.000    0.000    3.250    0.000    5.625 
#
# Total GULP energy -178335.863625 kJ/mol
# GULP energy per Si atom -5572.995738 kJ/mol
# Density = 1.624457 g / cm^3
# Si number density = 16.281624 Si / 1000 Ang^3
#
#
#
# Elastic Constant Matrix: (Units=GPa)
#
#
# Indices 1 2 3 4 5 6 
#
# 1 130.7012 50.4310 27.9388 0.0000 -31.3895 0.0000
# 2 50.4310 68.5963 23.3966 0.0000 -15.0367 0.0000
# 3 27.9388 23.3966 21.5685 0.0000 -9.1698 0.0000
# 4 0.0000 0.0000 0.0000 20.7825 0.0000 -6.5160
# 5 -31.3895 -15.0367 -9.1698 0.0000 26.7071 0.0000
# 6 0.0000 0.0000 0.0000 -6.5160 0.0000 32.2594
#
#
#
# Elastic Compliance Matrix: (Units=1/GPa)
#
#
# Indices 1 2 3 4 5 6 
#
# 1 0.013906 -0.005212 -0.007797 0.000000 0.010733 0.000000
# 2 -0.005212 0.025717 -0.020601 0.000000 0.001281 0.000000
# 3 -0.007797 -0.020601 0.081946 0.000000 0.007373 0.000000
# 4 0.000000 0.000000 0.000000 0.051371 0.000000 0.010376
# 5 0.010733 0.001281 0.007373 0.000000 0.053311 0.000000
# 6 0.000000 0.000000 0.000000 0.010376 0.000000 0.033095
#
#
# Mechanical properties :
#
#
# Convention : Reuss Voigt Hill
#
# Bulk Modulus (GPa) = 18.39961 47.15543 32.77752
# Shear Modulus (GPa) = 14.50614 23.88975 19.19794
#
# Velocity S-wave (km/s) = 2.98812 3.83467 3.43755
# Velocity P-wave (km/s) = 4.81980 6.97363 5.99425
#
# Compressibility (1/GPa) = 0.05434899
#
# Stress axis : x y z
#
# Youngs Moduli (GPa) = 71.90975 38.88500 12.20316
#
# Poissons Ratio (x) = 0.20265 0.09515
# Poissons Ratio (y) = 0.37476 0.25140
# Poissons Ratio (z) = 0.56069 0.80108
#
# Static dielectric constant tensor:
#      x y z
#    x 1.561240 0.000000 -0.019540 
#    y 0.000000 1.547360 0.000000 
#    z -0.019540 0.000000 1.539580 
# 
# From -- ./inp_files/69434.got.cif
#   From: 2010.05.17/outbox.cif.g08.bks.cpg/sg11_35_cif.got.tgz:69434.got - 2010.06.03 12:22:45.
