data_PCOD9156197
_publ_section_title
;
Structure prediction by ZEFSAII (Michael W. Deem and Ramdas Pophale) SiO2 
 PCOD9156197
Probable space group: P 21/M
;
_chemical_formula_sum "Si O2"
_cell_formula_units_Z 28
_cell_length_a 7.549994
_cell_length_b 27.511037
_cell_length_c 5.872129
_cell_angle_alpha 90.000000
_cell_angle_beta 115.671729
_cell_angle_gamma 90.000000
_cell_volume 1099.294704
_symmetry_space_group_name_H-M "P 21/M"
_symmetry_group_IT_number 11
_symmetry_cell_setting 'monoclinic'
loop_
_space_group_symop_operation_xyz
x,y,z
-x,1/2+y,-z
-x,-y,-z
x,1/2-y,z
loop_
_atom_site_type_symbol
_atom_site_label
_atom_site_fract_x
_atom_site_fract_y
_atom_site_fract_z
Si Si1 0.777374 0.194259 0.203120
Si Si2 0.523699 0.140949 0.726682
Si Si3 0.422621 0.943097 0.612996
Si Si4 0.637023 0.696643 0.748888
Si Si5 0.903647 0.513918 0.699773
Si Si6 0.951759 0.398604 0.432713
Si Si7 0.239138 0.101855 0.960140
O O1 0.835473 0.250000 0.202930
O O2 0.574340 0.194095 0.237756
O O3 0.937045 0.159185 0.405750
O O4 0.715113 0.165213 0.942374
O O5 0.569683 0.098124 0.576279
O O6 0.415757 0.185200 0.539485
O O7 0.374741 0.118122 0.822742
O O8 0.632962 0.941110 0.854752
O O9 0.268092 0.919841 0.707990
O O10 0.311303 0.990549 0.458717
O O11 0.720581 0.750000 0.833079
O O12 0.766302 0.651429 0.900809
O O13 0.922839 0.572455 0.684331
O O14 0.000000 0.500000 0.500000
O O15 0.000000 0.500000 0.000000
O O16 0.034811 0.411186 0.729823
#
# Coordination Sequence:
#
# PCOD9156197 Si02
#       7
#     4   4   4   4   4   4   4
#     4  10  19  34  59  85 115 160 204 252 313 376
#     4  10  17  37  60  84 119 159 207 255 315 374
#     4  10  21  42  64  84 127 163 207 259 318 377
#     4   9  18  35  57  83 117 162 208 256 315 378
#     4  10  23  41  69  98 126 173 217 263 323 385
#     4  11  21  42  62  89 126 162 208 261 322 375
#     4  10  22  37  60  91 119 163 205 264 318 379
#
# _framework density 25.470873999999998
#
# number of rings (size 3 to 8) (size 9 to 14) (size 15 to 20)
#    0.000    2.000    4.286    1.286    2.000    1.714 
#   15.429    0.714    0.000    0.000    0.000    0.000 
#    0.000    0.000    0.000    0.000    0.000    0.000 
#
# Total GULP energy -156508.730191 kJ/mol
# GULP energy per Si atom -5589.597507 kJ/mol
# Density = 2.541290 g / cm^3
# Si number density = 25.470874 Si / 1000 Ang^3
#
#
#
# Elastic Constant Matrix: (Units=GPa)
#
#
# Indices 1 2 3 4 5 6 
#
# 1 88.3610 8.3707 12.9094 0.0000 11.1860 0.0000
# 2 8.3707 123.4186 33.0397 0.0000 -5.2575 0.0000
# 3 12.9094 33.0397 131.4135 0.0000 19.0890 0.0000
# 4 0.0000 0.0000 0.0000 33.2382 0.0000 2.7371
# 5 11.1860 -5.2575 19.0890 0.0000 35.8577 0.0000
# 6 0.0000 0.0000 0.0000 2.7371 0.0000 28.4532
#
#
#
# Elastic Compliance Matrix: (Units=1/GPa)
#
#
# Indices 1 2 3 4 5 6 
#
# 1 0.011918 -0.000846 -0.000433 0.000000 -0.003611 0.000000
# 2 -0.000846 0.008984 -0.002607 0.000000 0.002969 0.000000
# 3 -0.000433 -0.002607 0.009043 0.000000 -0.005061 0.000000
# 4 0.000000 0.000000 0.000000 0.030326 0.000000 -0.002917
# 5 -0.003611 0.002969 -0.005061 0.000000 0.032144 0.000000
# 6 0.000000 0.000000 0.000000 -0.002917 0.000000 0.035426
#
#
# Mechanical properties :
#
#
# Convention : Reuss Voigt Hill
#
# Bulk Modulus (GPa) = 45.10241 50.20362 47.65301
# Shear Modulus (GPa) = 34.96385 38.76803 36.86594
#
# Velocity S-wave (km/s) = 3.70901 3.90558 3.80857
# Velocity P-wave (km/s) = 6.00735 6.33175 6.17168
#
# Compressibility (1/GPa) = 0.02217177
#
# Stress axis : x y z
#
# Youngs Moduli (GPa) = 83.90781 111.30566 110.58594
#
# Poissons Ratio (x) = 0.09418 0.04794
# Poissons Ratio (y) = 0.07099 0.28829
# Poissons Ratio (z) = 0.03637 0.29017
#
# Static dielectric constant tensor:
#      x y z
#    x 2.045700 0.000000 -0.024540 
#    y 0.000000 2.041860 0.000000 
#    z -0.024540 0.000000 2.053940 
# 
# From -- ./inp_files/3346.got.cif
#   From: 2010.05.17/outbox.cif.g08.bks.cpg/sg11_2_cif.got.tgz:3346.got - 2010.06.03 12:22:45.
