data_PCOD9156304
_publ_section_title
;
Structure prediction by ZEFSAII (Michael W. Deem and Ramdas Pophale) SiO2 
 PCOD9156304
Probable space group: P 21/M
;
_chemical_formula_sum "Si O2"
_cell_formula_units_Z 32
_cell_length_a 9.142265
_cell_length_b 14.312680
_cell_length_c 29.571774
_cell_angle_alpha 90.000000
_cell_angle_beta 158.404730
_cell_angle_gamma 90.000000
_cell_volume 1424.152070
_symmetry_space_group_name_H-M "P 21/M"
_symmetry_group_IT_number 11
_symmetry_cell_setting 'monoclinic'
loop_
_space_group_symop_operation_xyz
x,y,z
-x,1/2+y,-z
-x,-y,-z
x,1/2-y,z
loop_
_atom_site_type_symbol
_atom_site_label
_atom_site_fract_x
_atom_site_fract_y
_atom_site_fract_z
Si Si1 0.481629 0.851846 0.024084
Si Si2 0.300706 0.639842 0.691722
Si Si3 0.577406 0.141739 0.172917
Si Si4 0.249036 0.646262 0.306354
Si Si5 0.427429 0.466553 0.318144
Si Si6 0.536870 0.550165 0.951117
Si Si7 0.356193 0.639646 0.434619
Si Si8 0.540193 0.141389 0.438609
O O1 0.276224 0.750000 0.964214
O O2 0.836570 0.844233 0.161842
O O3 0.287888 0.949926 0.983832
O O4 0.645724 0.874402 0.020932
O O5 0.377181 0.750000 0.704775
O O6 0.491502 0.614448 0.795002
O O7 0.434615 0.576792 0.688829
O O8 0.826303 0.632163 0.561365
O O9 0.455049 0.250000 0.132133
O O10 0.386891 0.081588 0.078057
O O11 0.058789 0.140254 0.306029
O O12 0.427030 0.750000 0.362377
O O13 0.500630 0.575259 0.348901
O O14 0.173298 0.604500 0.334938
O O15 0.614802 0.412724 0.414309
O O16 0.946354 0.455446 0.183238
O O17 0.253309 0.750000 0.408093
O O18 0.278478 0.600550 0.462474
O O19 0.655551 0.250000 0.467446
#
# Coordination Sequence:
#
# PCOD9156304 Si02
#       8
#     4   4   4   4   4   4   4   4
#     4   9  17  29  47  69  90 115 150 188 222 258
#     4   9  17  28  44  69  96 118 143 179 227 275
#     4   8  14  26  44  65  91 121 146 172 216 272
#     4   9  18  31  45  61  85 122 162 187 208 252
#     4  10  18  27  45  72  95 113 140 186 233 266
#     4   9  17  29  47  71  93 113 144 186 226 264
#     4   8  15  29  45  61  89 125 153 179 212 258
#     4   8  14  25  42  66  93 116 141 178 223 266
#
# _framework density 22.469511000000001
#
# number of rings (size 3 to 8) (size 9 to 14) (size 15 to 20)
#    0.000    3.250    0.000    2.250    0.000    2.500 
#    0.000    0.000    0.000    7.500    0.000    6.125 
#    0.000    0.000    0.000    0.000    0.000    0.000 
#
# Total GULP energy -178475.790074 kJ/mol
# GULP energy per Si atom -5577.368440 kJ/mol
# Density = 2.241837 g / cm^3
# Si number density = 22.469511 Si / 1000 Ang^3
#
#
#
# Elastic Constant Matrix: (Units=GPa)
#
#
# Indices 1 2 3 4 5 6 
#
# 1 98.3033 43.3439 35.6234 0.0000 -49.4640 0.0000
# 2 43.3439 97.3320 16.2026 0.0000 -34.8609 0.0000
# 3 35.6234 16.2026 73.8368 0.0000 -35.3015 0.0000
# 4 0.0000 0.0000 0.0000 11.6569 0.0000 -21.2628
# 5 -49.4640 -34.8609 -35.3015 0.0000 52.9441 0.0000
# 6 0.0000 0.0000 0.0000 -21.2628 0.0000 29.9826
#
#
#
# Elastic Compliance Matrix: (Units=1/GPa)
#
#
# Indices 1 2 3 4 5 6 
#
# 1 0.019897 -0.003021 -0.001468 0.000000 0.015621 0.000000
# 2 -0.003021 0.014084 0.002130 0.000000 0.007872 0.000000
# 3 -0.001468 0.002130 0.020257 0.000000 0.013538 0.000000
# 4 0.000000 0.000000 0.000000 -0.292220 0.000000 -0.207234
# 5 0.015621 0.007872 0.013538 0.000000 0.047691 0.000000
# 6 0.000000 0.000000 0.000000 -0.207234 0.000000 -0.113612
#
#
# Mechanical properties :
#
#
# Convention : Reuss Voigt Hill
#
# Bulk Modulus (GPa) = 20.19409 51.09021 35.64215
# Shear Modulus (GPa) = -17.68788 30.53686 6.42449
#
# Velocity S-wave (km/s) = -2.80874 3.69051 1.69275
# Velocity P-wave (km/s) = 1.22958 6.39896 4.44043
#
# Compressibility (1/GPa) = 0.04951944
#
# Stress axis : x y z
#
# Youngs Moduli (GPa) = 50.25960 71.00152 49.36672
#
# Poissons Ratio (x) = 0.21451 0.07248
# Poissons Ratio (y) = 0.15185 -0.10517
# Poissons Ratio (z) = 0.07379 -0.15126
#
# Static dielectric constant tensor:
#      x y z
#    x 1.834150 0.000000 -0.011240 
#    y 0.000000 1.920970 0.000000 
#    z -0.011240 0.000000 1.862850 
# 
# From -- ./inp_files/26793.got.cif
#   From: 2010.05.17/outbox.cif.g08.bks.cpg/sg11_14_cif.got.tgz:26793.got - 2010.06.03 12:22:45.
