data_PCOD9156756
_publ_section_title
;
Structure prediction by ZEFSAII (Michael W. Deem and Ramdas Pophale) SiO2 
 PCOD9156756
Probable space group: P 21/M
;
_chemical_formula_sum "Si O2"
_cell_formula_units_Z 28
_cell_length_a 23.007353
_cell_length_b 8.697057
_cell_length_c 10.382050
_cell_angle_alpha 90.000000
_cell_angle_beta 127.112454
_cell_angle_gamma 90.000000
_cell_volume 1656.635917
_symmetry_space_group_name_H-M "P 21/M"
_symmetry_group_IT_number 11
_symmetry_cell_setting 'monoclinic'
loop_
_space_group_symop_operation_xyz
x,y,z
-x,1/2+y,-z
-x,-y,-z
x,1/2-y,z
loop_
_atom_site_type_symbol
_atom_site_label
_atom_site_fract_x
_atom_site_fract_y
_atom_site_fract_z
Si Si1 0.686888 0.432952 0.977704
Si Si2 0.548521 0.066207 0.180854
Si Si3 0.460460 0.434137 0.322445
Si Si4 0.839804 0.929626 0.153180
Si Si5 0.991245 0.064098 0.343256
Si Si6 0.853198 0.569791 0.483667
Si Si7 0.694586 0.935714 0.277210
O O1 0.684788 0.250000 0.987185
O O2 0.618921 0.493305 0.805306
O O3 0.764367 0.485586 0.022921
O O4 0.681292 0.506762 0.113230
O O5 0.552283 0.250000 0.173094
O O6 0.508853 0.028446 0.261317
O O7 0.629015 0.996659 0.275749
O O8 0.500000 0.000000 0.000000
O O9 0.500000 0.500000 0.500000
O O10 0.453859 0.250000 0.321661
O O11 0.834946 0.750000 0.114787
O O12 0.847530 0.940330 0.319922
O O13 0.913242 0.002216 0.193005
O O14 0.990343 0.250000 0.345858
O O15 0.066120 0.010442 0.373555
O O16 0.000000 0.000000 0.500000
O O17 0.853755 0.750000 0.518297
O O18 0.775457 0.507081 0.426700
O O19 0.694608 0.750000 0.274968
#
# Coordination Sequence:
#
# PCOD9156756 Si02
#       7
#     4   4   4   4   4   4   4
#     4  11  20  31  49  71  96 128 168 208 253 305
#     4  11  22  35  54  77 102 133 170 211 256 307
#     4  11  24  40  56  75 102 134 170 214 261 307
#     4   9  16  26  39  58  87 122 161 203 246 293
#     4   9  14  22  35  54  83 121 161 197 241 294
#     4   7  13  23  36  56  86 122 156 196 242 287
#     4  10  18  30  48  71  99 130 167 209 251 296
#
# _framework density 16.901723
#
# number of rings (size 3 to 8) (size 9 to 14) (size 15 to 20)
#    0.000    2.286    1.429    5.143    0.000    1.714 
#    0.000    2.143    0.000    0.000    0.000    0.000 
#    0.000    1.143    0.000    3.429    0.000    7.143 
#
# Total GULP energy -155986.146190 kJ/mol
# GULP energy per Si atom -5570.933793 kJ/mol
# Density = 1.686325 g / cm^3
# Si number density = 16.901723 Si / 1000 Ang^3
#
#
#
# Elastic Constant Matrix: (Units=GPa)
#
#
# Indices 1 2 3 4 5 6 
#
# 1 111.8464 48.5902 68.9426 0.0000 46.3205 0.0000
# 2 48.5902 74.5492 41.5479 0.0000 13.4363 0.0000
# 3 68.9426 41.5479 79.7521 0.0000 28.9668 0.0000
# 4 0.0000 0.0000 0.0000 21.3663 0.0000 8.5444
# 5 46.3205 13.4363 28.9668 0.0000 37.8279 0.0000
# 6 0.0000 0.0000 0.0000 8.5444 0.0000 26.3354
#
#
#
# Elastic Compliance Matrix: (Units=1/GPa)
#
#
# Indices 1 2 3 4 5 6 
#
# 1 0.031276 -0.008270 -0.013694 0.000000 -0.024874 0.000000
# 2 -0.008270 0.021125 -0.006662 0.000000 0.007725 0.000000
# 3 -0.013694 -0.006662 0.028949 0.000000 -0.003033 0.000000
# 4 0.000000 0.000000 0.000000 0.053781 0.000000 -0.017449
# 5 -0.024874 0.007725 -0.003033 0.000000 0.056473 0.000000
# 6 0.000000 0.000000 0.000000 -0.017449 0.000000 0.043633
#
#
# Mechanical properties :
#
#
# Convention : Reuss Voigt Hill
#
# Bulk Modulus (GPa) = 41.49703 64.92326 53.21015
# Shear Modulus (GPa) = 16.63774 24.24371 20.44072
#
# Velocity S-wave (km/s) = 3.14089 3.79145 3.48140
# Velocity P-wave (km/s) = 6.14482 7.59357 6.90729
#
# Compressibility (1/GPa) = 0.02409811
#
# Stress axis : x y z
#
# Youngs Moduli (GPa) = 31.97306 47.33760 34.54353
#
# Poissons Ratio (x) = 0.39150 0.47304
# Poissons Ratio (y) = 0.26443 0.23012
# Poissons Ratio (z) = 0.43784 0.31535
#
# Static dielectric constant tensor:
#      x y z
#    x 1.604250 0.000000 0.045790 
#    y 0.000000 1.584250 0.000000 
#    z 0.045790 0.000000 1.577430 
# 
# From -- ./inp_files/43679.got.cif
#   From: 2010.05.17/outbox.cif.g08.bks.cpg/sg11_22_cif.got.tgz:43679.got - 2010.06.03 12:22:45.
