data_PCOD9156074
_publ_section_title
;
Structure prediction by ZEFSAII (Michael W. Deem and Ramdas Pophale) SiO2 
 PCOD9156074
Probable space group: P 21/M
;
_chemical_formula_sum "Si O2"
_cell_formula_units_Z 32
_cell_length_a 12.097506
_cell_length_b 13.011597
_cell_length_c 13.040704
_cell_angle_alpha 90.000000
_cell_angle_beta 62.371595
_cell_angle_gamma 90.000000
_cell_volume 1818.646787
_symmetry_space_group_name_H-M "P 21/M"
_symmetry_group_IT_number 11
_symmetry_cell_setting 'monoclinic'
loop_
_space_group_symop_operation_xyz
x,y,z
-x,1/2+y,-z
-x,-y,-z
x,1/2-y,z
loop_
_atom_site_type_symbol
_atom_site_label
_atom_site_fract_x
_atom_site_fract_y
_atom_site_fract_z
Si Si1 0.279944 0.869925 0.055775
Si Si2 0.527086 0.374171 0.206613
Si Si3 0.284452 0.000539 0.259608
Si Si4 0.654143 0.368261 0.353595
Si Si5 0.002485 0.135492 0.904895
Si Si6 0.242925 0.625859 0.478300
Si Si7 0.962115 0.869364 0.665219
Si Si8 0.928862 0.413854 0.166031
O O1 0.307183 0.750000 0.067712
O O2 0.135710 0.875275 0.083496
O O3 0.298981 0.940053 0.146598
O O4 0.366547 0.901171 0.922624
O O5 0.522689 0.250000 0.212390
O O6 0.397036 0.420309 0.226521
O O7 0.565249 0.413121 0.303957
O O8 0.152541 0.059905 0.317005
O O9 0.285941 0.922202 0.353950
O O10 0.614977 0.250000 0.385602
O O11 0.677673 0.412492 0.457043
O O12 0.792196 0.368828 0.243819
O O13 0.050115 0.250000 0.860662
O O14 0.984465 0.122907 0.034608
O O15 0.079773 0.037904 0.832970
O O16 0.250077 0.750000 0.473785
O O17 0.096566 0.600493 0.560104
O O18 0.938259 0.750000 0.650137
O O19 0.984373 0.880198 0.777573
#
# Coordination Sequence:
#
# PCOD9156074 Si02
#       8
#     4   4   4   4   4   4   4   4
#     4  10  20  35  52  76 109 142 177 210 252 316
#     4  10  21  36  55  76 103 138 179 220 256 302
#     4  12  21  34  52  79 109 140 171 211 264 316
#     4   9  17  34  57  78  99 133 179 219 254 302
#     4  10  18  29  49  78 106 135 175 219 262 306
#     4   9  20  36  56  77 100 133 176 219 261 314
#     4  10  20  34  52  79 107 134 171 217 265 312
#     4  10  17  30  53  76 102 134 175 220 258 304
#
# _framework density 17.595500000000001
#
# number of rings (size 3 to 8) (size 9 to 14) (size 15 to 20)
#    0.000    2.000    2.500    3.375    0.000    0.500 
#    0.000    0.000    0.000    4.500    0.000    0.000 
#    0.000    0.000    0.000    0.000    0.000    0.000 
#
# Total GULP energy -178431.763329 kJ/mol
# GULP energy per Si atom -5575.992604 kJ/mol
# Density = 1.755545 g / cm^3
# Si number density = 17.595500 Si / 1000 Ang^3
#
#
#
# Elastic Constant Matrix: (Units=GPa)
#
#
# Indices 1 2 3 4 5 6 
#
# 1 57.7284 19.2899 28.7318 0.0000 20.3285 0.0000
# 2 19.2899 50.5575 15.1813 0.0000 7.8881 0.0000
# 3 28.7318 15.1813 65.0215 0.0000 21.9907 0.0000
# 4 0.0000 0.0000 0.0000 14.8481 0.0000 2.4950
# 5 20.3285 7.8881 21.9907 0.0000 15.9589 0.0000
# 6 0.0000 0.0000 0.0000 2.4950 0.0000 19.2007
#
#
#
# Elastic Compliance Matrix: (Units=1/GPa)
#
#
# Indices 1 2 3 4 5 6 
#
# 1 0.033330 -0.006614 0.000130 0.000000 -0.039367 0.000000
# 2 -0.006614 0.022994 -0.002718 0.000000 0.000806 0.000000
# 3 0.000130 -0.002718 0.029137 0.000000 -0.038973 0.000000
# 4 0.000000 0.000000 0.000000 0.068852 0.000000 -0.008947
# 5 -0.039367 0.000806 -0.038973 0.000000 0.166112 0.000000
# 6 0.000000 0.000000 0.000000 -0.008947 0.000000 0.053244
#
#
# Mechanical properties :
#
#
# Convention : Reuss Voigt Hill
#
# Bulk Modulus (GPa) = 14.91264 33.30148 24.10706
# Shear Modulus (GPa) = 12.06488 17.34182 14.70335
#
# Velocity S-wave (km/s) = 2.62139 3.14281 2.89387
# Velocity P-wave (km/s) = 4.20189 5.66894 4.98963
#
# Compressibility (1/GPa) = 0.06705723
#
# Stress axis : x y z
#
# Youngs Moduli (GPa) = 30.00264 43.49043 34.32005
#
# Poissons Ratio (x) = 0.28765 -0.00447
# Poissons Ratio (y) = 0.19844 0.09330
# Poissons Ratio (z) = -0.00391 0.11823
#
# Static dielectric constant tensor:
#      x y z
#    x 1.583450 0.000000 0.019830 
#    y 0.000000 1.607220 0.000000 
#    z 0.019830 0.000000 1.589970 
# 
# From -- ./inp_files/35038.got.cif
#   From: 2010.05.17/outbox.cif.g08.bks.cpg/sg11_18_cif.got.tgz:35038.got - 2010.06.03 12:22:45.
