data_PCOD9156441
_publ_section_title
;
Structure prediction by ZEFSAII (Michael W. Deem and Ramdas Pophale) SiO2 
 PCOD9156441
Probable space group: P 21/M
;
_chemical_formula_sum "Si O2"
_cell_formula_units_Z 32
_cell_length_a 27.384929
_cell_length_b 7.911348
_cell_length_c 9.656196
_cell_angle_alpha 90.000000
_cell_angle_beta 129.495506
_cell_angle_gamma 90.000000
_cell_volume 1614.367157
_symmetry_space_group_name_H-M "P 21/M"
_symmetry_group_IT_number 11
_symmetry_cell_setting 'monoclinic'
loop_
_space_group_symop_operation_xyz
x,y,z
-x,1/2+y,-z
-x,-y,-z
x,1/2-y,z
loop_
_atom_site_type_symbol
_atom_site_label
_atom_site_fract_x
_atom_site_fract_y
_atom_site_fract_z
Si Si1 0.063172 0.549037 0.528579
Si Si2 0.389843 0.044904 0.337089
Si Si3 0.008326 0.551070 0.856901
Si Si4 0.455458 0.551593 0.723637
Si Si5 0.869345 0.045848 0.088419
Si Si6 0.265185 0.046579 0.278177
Si Si7 0.596112 0.542550 0.954459
Si Si8 0.667319 0.945493 0.337715
O O1 0.067229 0.750000 0.527655
O O2 0.118779 0.486996 0.731271
O O3 0.000000 0.500000 0.500000
O O4 0.050734 0.487198 0.350939
O O5 0.394475 0.250000 0.350207
O O6 0.322020 0.993343 0.278929
O O7 0.395496 0.990464 0.188838
O O8 0.441884 0.971091 0.535317
O O9 0.016279 0.750000 0.870101
O O10 0.072170 0.479315 0.900041
O O11 0.000000 0.500000 0.000000
O O12 0.449998 0.750000 0.748140
O O13 0.526371 0.490814 0.880309
O O14 0.399604 0.453813 0.700636
O O15 0.873072 0.250000 0.097959
O O16 0.802657 0.999590 0.903001
O O17 0.268735 0.250000 0.292428
O O18 0.282423 0.979367 0.463228
O O19 0.596377 0.750000 0.957317
O O20 0.650140 0.480728 0.157095
O O21 0.684971 0.750000 0.347114
#
# Coordination Sequence:
#
# PCOD9156441 Si02
#       8
#     4   4   4   4   4   4   4   4
#     4   9  17  31  51  76 103 133 166 201 240 286
#     4   9  18  33  49  67  93 125 158 200 246 288
#     4  10  20  34  53  80 109 137 163 197 246 292
#     4  10  18  28  46  72  94 120 157 196 243 301
#     4   9  19  34  53  74 100 132 163 196 240 285
#     4   9  18  31  49  69  91 126 170 202 232 279
#     4   9  17  30  49  69  92 121 156 199 249 296
#     4   9  18  33  49  67  94 128 161 199 243 289
#
# _framework density 19.822008
#
# number of rings (size 3 to 8) (size 9 to 14) (size 15 to 20)
#    0.000    2.750    0.000    3.375    0.000    5.000 
#    0.000    3.125    0.000    1.500    0.000    0.000 
#    0.000    0.000    0.000    0.000    0.000    0.000 
#
# Total GULP energy -178355.136815 kJ/mol
# GULP energy per Si atom -5573.598025 kJ/mol
# Density = 1.977689 g / cm^3
# Si number density = 19.822008 Si / 1000 Ang^3
#
#
#
# Elastic Constant Matrix: (Units=GPa)
#
#
# Indices 1 2 3 4 5 6 
#
# 1 27.3059 0.2890 38.1460 0.0000 -2.3812 0.0000
# 2 0.2890 22.6644 0.0875 0.0000 -0.4722 0.0000
# 3 38.1460 0.0875 181.8733 0.0000 -1.5422 0.0000
# 4 0.0000 0.0000 0.0000 26.2422 0.0000 -0.2117
# 5 -2.3812 -0.4722 -1.5422 0.0000 34.3096 0.0000
# 6 0.0000 0.0000 0.0000 -0.2117 0.0000 17.2875
#
#
#
# Elastic Compliance Matrix: (Units=1/GPa)
#
#
# Indices 1 2 3 4 5 6 
#
# 1 0.052140 -0.000558 -0.010909 0.000000 0.003121 0.000000
# 2 -0.000558 0.044141 0.000101 0.000000 0.000573 0.000000
# 3 -0.010909 0.000101 0.007783 0.000000 -0.000406 0.000000
# 4 0.000000 0.000000 0.000000 0.038110 0.000000 0.000467
# 5 0.003121 0.000573 -0.000406 0.000000 0.029353 0.000000
# 6 0.000000 0.000000 0.000000 0.000467 0.000000 0.057851
#
#
# Mechanical properties :
#
#
# Convention : Reuss Voigt Hill
#
# Bulk Modulus (GPa) = 12.29539 34.32093 23.30816
# Shear Modulus (GPa) = 17.90701 28.45594 23.18147
#
# Velocity S-wave (km/s) = 3.00891 3.79301 3.42348
# Velocity P-wave (km/s) = 4.27641 6.04439 5.23557
#
# Compressibility (1/GPa) = 0.08133132
#
# Stress axis : x y z
#
# Youngs Moduli (GPa) = 19.17917 22.65480 128.48676
#
# Poissons Ratio (x) = 0.01263 1.40167
# Poissons Ratio (y) = 0.01070 -0.01293
# Poissons Ratio (z) = 0.20923 -0.00228
#
# Static dielectric constant tensor:
#      x y z
#    x 1.711010 0.000000 -0.025290 
#    y 0.000000 1.707000 0.000000 
#    z -0.025290 0.000000 1.749030 
# 
# From -- ./inp_files/28097.got.cif
#   From: 2010.05.17/outbox.cif.g08.bks.cpg/sg11_15_cif.got.tgz:28097.got - 2010.06.03 12:22:45.
