data_PCOD9156851
_publ_section_title
;
Structure prediction by ZEFSAII (Michael W. Deem and Ramdas Pophale) SiO2 
 PCOD9156851
Probable space group: P 21/M
;
_chemical_formula_sum "Si O2"
_cell_formula_units_Z 28
_cell_length_a 19.282671
_cell_length_b 8.713416
_cell_length_c 23.797718
_cell_angle_alpha 90.000000
_cell_angle_beta 23.547344
_cell_angle_gamma 90.000000
_cell_volume 1597.404963
_symmetry_space_group_name_H-M "P 21/M"
_symmetry_group_IT_number 11
_symmetry_cell_setting 'monoclinic'
loop_
_space_group_symop_operation_xyz
x,y,z
-x,1/2+y,-z
-x,-y,-z
x,1/2-y,z
loop_
_atom_site_type_symbol
_atom_site_label
_atom_site_fract_x
_atom_site_fract_y
_atom_site_fract_z
Si Si1 0.565441 0.434588 0.082299
Si Si2 0.813227 0.065929 0.124835
Si Si3 0.495243 0.433860 0.441326
Si Si4 0.873110 0.565681 0.776621
Si Si5 0.266648 0.933602 0.515264
Si Si6 0.559571 0.064687 0.217264
Si Si7 0.655341 0.066364 0.845736
O O1 0.564660 0.250000 0.077564
O O2 0.570300 0.477356 0.144128
O O3 0.395606 0.502372 0.177365
O O4 0.733348 0.499702 0.924807
O O5 0.825445 0.250000 0.115583
O O6 0.670558 0.021803 0.277559
O O7 0.728676 0.018179 0.128044
O O8 0.000000 0.000000 0.000000
O O9 0.500000 0.500000 0.500000
O O10 0.485953 0.250000 0.449729
O O11 0.337656 0.496883 0.520681
O O12 0.854772 0.750000 0.788143
O O13 0.824586 0.496538 0.751669
O O14 0.067731 0.525512 0.650278
O O15 0.279637 0.750000 0.508214
O O16 0.393826 0.995174 0.372099
O O17 0.546519 0.250000 0.230548
O O18 0.652492 0.250000 0.848285
O O19 0.500000 0.000000 0.000000
#
# Coordination Sequence:
#
# PCOD9156851 Si02
#       7
#     4   4   4   4   4   4   4
#     4  10  19  33  54  78 103 135 174 215 259 306
#     4   9  19  35  53  76 103 133 169 209 252 301
#     4  10  21  37  56  78 106 137 173 213 256 306
#     4  10  20  34  52  77 106 135 172 216 256 304
#     4  10  21  36  55  78 105 137 173 212 258 306
#     4   9  20  37  54  74 104 138 172 210 255 307
#     4  10  18  30  50  75 103 135 170 211 260 308
#
# _framework density 17.52843
#
# number of rings (size 3 to 8) (size 9 to 14) (size 15 to 20)
#    0.000    2.286    0.000    5.571    0.000    7.429 
#    0.000    3.571    0.000    0.000    0.000    0.000 
#    0.000    0.000    0.000    0.000    0.000    0.000 
#
# Total GULP energy -156194.498696 kJ/mol
# GULP energy per Si atom -5578.374953 kJ/mol
# Density = 1.748853 g / cm^3
# Si number density = 17.528430 Si / 1000 Ang^3
#
#
#
# Elastic Constant Matrix: (Units=GPa)
#
#
# Indices 1 2 3 4 5 6 
#
# 1 215.4247 67.2276 97.6118 0.0000 -7.0267 0.0000
# 2 67.2276 61.7508 37.7996 0.0000 -6.4997 0.0000
# 3 97.6118 37.7996 72.3163 0.0000 -17.0365 0.0000
# 4 0.0000 0.0000 0.0000 28.4953 0.0000 -2.0787
# 5 -7.0267 -6.4997 -17.0365 0.0000 31.4596 0.0000
# 6 0.0000 0.0000 0.0000 -2.0787 0.0000 33.0573
#
#
#
# Elastic Compliance Matrix: (Units=1/GPa)
#
#
# Indices 1 2 3 4 5 6 
#
# 1 0.014465 -0.005126 -0.018723 0.000000 -0.007967 0.000000
# 2 -0.005126 0.025750 -0.006369 0.000000 0.000726 0.000000
# 3 -0.018723 -0.006369 0.047149 0.000000 0.020035 0.000000
# 4 0.000000 0.000000 0.000000 0.035255 0.000000 0.002217
# 5 -0.007967 0.000726 0.020035 0.000000 0.041007 0.000000
# 6 0.000000 0.000000 0.000000 0.002217 0.000000 0.030390
#
#
# Mechanical properties :
#
#
# Convention : Reuss Voigt Hill
#
# Bulk Modulus (GPa) = 37.13573 83.86330 60.49952
# Shear Modulus (GPa) = 18.98042 28.39262 23.68652
#
# Velocity S-wave (km/s) = 3.29422 4.02905 3.68002
# Velocity P-wave (km/s) = 5.97504 8.34220 7.25581
#
# Compressibility (1/GPa) = 0.02692824
#
# Stress axis : x y z
#
# Youngs Moduli (GPa) = 69.13075 38.83461 21.20932
#
# Poissons Ratio (x) = 0.19907 0.39710
# Poissons Ratio (y) = 0.35437 0.13509
# Poissons Ratio (z) = 1.29431 0.24735
#
# Static dielectric constant tensor:
#      x y z
#    x 1.618280 0.000000 -0.006340 
#    y 0.000000 1.588970 0.000000 
#    z -0.006340 0.000000 1.574920 
# 
# From -- ./inp_files/69790.got.cif
#   From: 2010.05.17/outbox.cif.g08.bks.cpg/sg11_35_cif.got.tgz:69790.got - 2010.06.03 12:22:45.
