data_PCOD9156719
_publ_section_title
;
Structure prediction by ZEFSAII (Michael W. Deem and Ramdas Pophale) SiO2 
 PCOD9156719
Probable space group: P 21/M
;
_chemical_formula_sum "Si O2"
_cell_formula_units_Z 24
_cell_length_a 10.138206
_cell_length_b 13.118954
_cell_length_c 11.703893
_cell_angle_alpha 90.000000
_cell_angle_beta 143.827178
_cell_angle_gamma 90.000000
_cell_volume 918.769696
_symmetry_space_group_name_H-M "P 21/M"
_symmetry_group_IT_number 11
_symmetry_cell_setting 'monoclinic'
loop_
_space_group_symop_operation_xyz
x,y,z
-x,1/2+y,-z
-x,-y,-z
x,1/2-y,z
loop_
_atom_site_type_symbol
_atom_site_label
_atom_site_fract_x
_atom_site_fract_y
_atom_site_fract_z
Si Si1 0.120861 0.076871 0.946750
Si Si2 0.638857 0.131071 0.522930
Si Si3 0.257593 0.360987 0.442894
Si Si4 0.789364 0.629530 0.244935
Si Si5 0.890572 0.357283 0.004480
Si Si6 0.272555 0.537840 0.631744
O O1 0.858299 0.069966 0.718815
O O2 0.227628 0.119971 0.905604
O O3 0.217666 0.967987 0.057678
O O4 0.069858 0.137948 0.026850
O O5 0.701825 0.250000 0.570131
O O6 0.447669 0.114932 0.482401
O O7 0.573069 0.105337 0.345848
O O8 0.305271 0.250000 0.523748
O O9 0.025962 0.353437 0.215553
O O10 0.238968 0.439804 0.529023
O O11 0.733289 0.750000 0.231523
O O12 0.674662 0.525182 0.216049
O O13 0.044765 0.605863 0.468613
O O14 0.766112 0.250000 0.903784
#
# Coordination Sequence:
#
# PCOD9156719 Si02
#       6
#     4   4   4   4   4   4
#     4  10  19  33  51  72  99 132 165 201 247 294
#     4  10  19  32  50  74 102 132 165 200 247 298
#     4  10  19  31  50  77 102 127 160 205 251 292
#     4  10  19  31  47  69  98 133 167 200 242 296
#     4  10  19  31  49  75 101 126 164 206 247 290
#     4  10  18  30  47  70  99 127 163 204 244 285
#
# _framework density 26.121887999999998
#
# number of rings (size 3 to 8) (size 9 to 14) (size 15 to 20)
#    0.000    2.000    3.333    4.000    0.000    0.000 
#    0.000    0.833    0.000    1.000    0.000    0.000 
#    0.000    0.000    0.000    0.000    0.000    0.000 
#
# Total GULP energy -133749.438318 kJ/mol
# GULP energy per Si atom -5572.893263 kJ/mol
# Density = 2.606243 g / cm^3
# Si number density = 26.121888 Si / 1000 Ang^3
#
#
#
# Elastic Constant Matrix: (Units=GPa)
#
#
# Indices 1 2 3 4 5 6 
#
# 1 72.3453 1.8048 11.7862 0.0000 -22.3665 0.0000
# 2 1.8048 167.1754 18.3230 0.0000 -2.1242 0.0000
# 3 11.7862 18.3230 77.0515 0.0000 -22.6278 0.0000
# 4 0.0000 0.0000 0.0000 10.4285 0.0000 -10.9178
# 5 -22.3665 -2.1242 -22.6278 0.0000 44.2456 0.0000
# 6 0.0000 0.0000 0.0000 -10.9178 0.0000 23.4071
#
#
#
# Elastic Compliance Matrix: (Units=1/GPa)
#
#
# Indices 1 2 3 4 5 6 
#
# 1 0.016384 -0.000064 -0.000070 0.000000 0.008243 0.000000
# 2 -0.000064 0.006153 -0.001619 0.000000 -0.000565 0.000000
# 3 -0.000070 -0.001619 0.015699 0.000000 0.007915 0.000000
# 4 0.000000 0.000000 0.000000 0.187401 0.000000 0.087409
# 5 0.008243 -0.000565 0.007915 0.000000 0.030789 0.000000
# 6 0.000000 0.000000 0.000000 0.087409 0.000000 0.083492
#
#
# Mechanical properties :
#
#
# Convention : Reuss Voigt Hill
#
# Bulk Modulus (GPa) = 28.79520 42.26667 35.53094
# Shear Modulus (GPa) = 14.08446 34.59346 24.33896
#
# Velocity S-wave (km/s) = 2.32455 3.64305 3.05576
# Velocity P-wave (km/s) = 4.27224 5.82336 5.10703
#
# Compressibility (1/GPa) = 0.03472802
#
# Stress axis : x y z
#
# Youngs Moduli (GPa) = 61.03450 162.52939 63.69983
#
# Poissons Ratio (x) = 0.01048 0.00446
# Poissons Ratio (y) = 0.00393 0.10315
# Poissons Ratio (z) = 0.00427 0.26318
#
# Static dielectric constant tensor:
#      x y z
#    x 2.179500 0.000000 0.035070 
#    y 0.000000 2.105190 0.000000 
#    z 0.035070 0.000000 2.135610 
# 
# From -- ./inp_files/35307.got.cif
#   From: 2010.05.17/outbox.cif.g08.bks.cpg/sg11_18_cif.got.tgz:35307.got - 2010.06.03 12:22:45.
