data_PCOD9156858
_publ_section_title
;
Structure prediction by ZEFSAII (Michael W. Deem and Ramdas Pophale) SiO2 
 PCOD9156858
Probable space group: P 21/M
;
_chemical_formula_sum "Si O2"
_cell_formula_units_Z 28
_cell_length_a 13.097732
_cell_length_b 22.466191
_cell_length_c 5.252059
_cell_angle_alpha 90.000000
_cell_angle_beta 68.129758
_cell_angle_gamma 90.000000
_cell_volume 1434.224338
_symmetry_space_group_name_H-M "P 21/M"
_symmetry_group_IT_number 11
_symmetry_cell_setting 'monoclinic'
loop_
_space_group_symop_operation_xyz
x,y,z
-x,1/2+y,-z
-x,-y,-z
x,1/2-y,z
loop_
_atom_site_type_symbol
_atom_site_label
_atom_site_fract_x
_atom_site_fract_y
_atom_site_fract_z
Si Si1 0.852029 0.501419 0.381914
Si Si2 0.209203 0.682181 0.957540
Si Si3 0.759321 0.381393 0.576439
Si Si4 0.813059 0.819083 0.028854
Si Si5 0.433359 0.818395 0.004590
Si Si6 0.329071 0.180342 0.354530
Si Si7 0.087007 0.435796 0.175107
O O1 0.762586 0.451410 0.527594
O O2 0.861296 0.549394 0.598534
O O3 0.965859 0.463665 0.283956
O O4 0.846219 0.530493 0.110387
O O5 0.168351 0.750000 0.021460
O O6 0.186815 0.652531 0.710432
O O7 0.342453 0.684951 0.865285
O O8 0.178304 0.639739 0.223329
O O9 0.635281 0.357132 0.730423
O O10 0.846528 0.750000 0.034579
O O11 0.738208 0.822453 0.845246
O O12 0.909351 0.866255 0.893178
O O13 0.741922 0.840148 0.338765
O O14 0.448617 0.750000 0.084929
O O15 0.549068 0.844449 0.807943
O O16 0.348898 0.250000 0.396663
#
# Coordination Sequence:
#
# PCOD9156858 Si02
#       7
#     4   4   4   4   4   4   4
#     4  10  21  37  60  80  98 140 181 212 254 315
#     4   9  17  28  45  73 108 142 169 209 257 303
#     4  10  18  30  50  76 105 135 177 217 254 301
#     4  10  20  35  55  81 106 133 169 221 269 302
#     4   8  17  29  48  76 108 141 174 213 257 314
#     4   9  18  30  51  78 106 139 176 207 258 318
#     4  10  21  39  59  78 102 132 179 220 256 312
#
# _framework density 19.522746999999999
#
# number of rings (size 3 to 8) (size 9 to 14) (size 15 to 20)
#    0.857    1.714    0.000    2.571    2.000    0.000 
#    0.000    2.143    0.000    6.857    0.000    0.000 
#    0.000    0.000    0.000    0.000    0.000    0.000 
#
# Total GULP energy -155893.701471 kJ/mol
# GULP energy per Si atom -5567.632195 kJ/mol
# Density = 1.947831 g / cm^3
# Si number density = 19.522747 Si / 1000 Ang^3
#
#
#
# Elastic Constant Matrix: (Units=GPa)
#
#
# Indices 1 2 3 4 5 6 
#
# 1 15.3290 14.1859 18.4737 0.0000 -4.5420 0.0000
# 2 14.1859 72.3264 31.8447 0.0000 -14.5564 0.0000
# 3 18.4737 31.8447 124.7437 0.0000 10.6459 0.0000
# 4 0.0000 0.0000 0.0000 30.8294 0.0000 1.8822
# 5 -4.5420 -14.5564 10.6459 0.0000 12.2976 0.0000
# 6 0.0000 0.0000 0.0000 1.8822 0.0000 -29.9672
#
#
#
# Elastic Compliance Matrix: (Units=1/GPa)
#
#
# Indices 1 2 3 4 5 6 
#
# 1 0.107468 -0.000536 -0.020636 0.000000 0.056922 0.000000
# 2 -0.000536 0.026321 -0.010022 0.000000 0.039633 0.000000
# 3 -0.020636 -0.010022 0.016514 0.000000 -0.033780 0.000000
# 4 0.000000 0.000000 0.000000 0.032313 0.000000 0.002030
# 5 0.056922 0.039633 -0.033780 0.000000 0.178496 0.000000
# 6 0.000000 0.000000 0.000000 0.002030 0.000000 -0.033242
#
#
# Mechanical properties :
#
#
# Convention : Reuss Voigt Hill
#
# Bulk Modulus (GPa) = 11.37486 37.93419 24.65453
# Shear Modulus (GPa) = 11.91717 12.49161 12.20439
#
# Velocity S-wave (km/s) = 2.47336 2.53227 2.50299
# Velocity P-wave (km/s) = 3.74109 5.29366 4.58359
#
# Compressibility (1/GPa) = 0.08791317
#
# Stress axis : x y z
#
# Youngs Moduli (GPa) = 9.30509 37.99315 60.55526
#
# Poissons Ratio (x) = 0.02038 1.24963
# Poissons Ratio (y) = 0.00499 0.60689
# Poissons Ratio (z) = 0.19202 0.38077
#
# Static dielectric constant tensor:
#      x y z
#    x 1.686680 0.000000 -0.010520 
#    y 0.000000 1.706830 0.000000 
#    z -0.010520 0.000000 1.710720 
# 
# From -- ./inp_files/6968.got.cif
#   From: 2010.05.17/outbox.cif.g08.bks.cpg/sg11_4_cif.got.tgz:6968.got - 2010.06.03 12:22:45.
