data_PCOD9156463
_publ_section_title
;
Structure prediction by ZEFSAII (Michael W. Deem and Ramdas Pophale) SiO2 
 PCOD9156463
Probable space group: P 21/M
;
_chemical_formula_sum "Si O2"
_cell_formula_units_Z 32
_cell_length_a 15.597621
_cell_length_b 23.507657
_cell_length_c 9.904004
_cell_angle_alpha 90.000000
_cell_angle_beta 156.738269
_cell_angle_gamma 90.000000
_cell_volume 1434.170558
_symmetry_space_group_name_H-M "P 21/M"
_symmetry_group_IT_number 11
_symmetry_cell_setting 'monoclinic'
loop_
_space_group_symop_operation_xyz
x,y,z
-x,1/2+y,-z
-x,-y,-z
x,1/2-y,z
loop_
_atom_site_type_symbol
_atom_site_label
_atom_site_fract_x
_atom_site_fract_y
_atom_site_fract_z
Si Si1 0.786840 0.923674 0.233301
Si Si2 0.322115 0.815918 0.190840
Si Si3 0.929980 0.974315 0.731348
Si Si4 0.618675 0.062217 0.675659
Si Si5 0.481678 0.973328 0.189752
Si Si6 0.855034 0.420969 0.478501
Si Si7 0.623200 0.314688 0.054748
Si Si8 0.814463 0.815847 0.428395
O O1 0.867731 0.949812 0.492597
O O2 0.761815 0.857759 0.229174
O O3 0.962223 0.931785 0.370072
O O4 0.577323 0.959970 0.886617
O O5 0.375455 0.750000 0.308559
O O6 0.444110 0.870913 0.433799
O O7 0.351355 0.818505 0.070125
O O8 0.062018 0.825264 0.835792
O O9 0.734099 0.960415 0.547056
O O10 0.935639 0.042817 0.721856
O O11 0.163987 0.948638 0.093575
O O12 0.644381 0.060164 0.875993
O O13 0.500000 0.000000 0.500000
O O14 0.370448 0.950650 0.892761
O O15 0.786368 0.355735 0.371681
O O16 0.668168 0.250000 0.158597
O O17 0.373352 0.327165 0.733621
O O18 0.802851 0.750000 0.371693
#
# Coordination Sequence:
#
# PCOD9156463 Si02
#       8
#     4   4   4   4   4   4   4   4
#     4  11  17  30  52  77 110 141 164 209 261 317
#     4  10  20  35  53  74 102 135 171 216 270 318
#     4  11  20  33  52  76 106 139 171 208 264 319
#     4  12  24  38  54  77 105 138 182 235 265 306
#     4  11  20  33  52  76 106 139 171 208 264 319
#     4  11  17  30  52  77 110 141 164 209 261 317
#     4  10  18  28  47  77 110 139 168 207 260 323
#     4  10  18  28  47  77 110 139 168 207 260 323
#
# _framework density 22.312548
#
# number of rings (size 3 to 8) (size 9 to 14) (size 15 to 20)
#    0.000    1.250    6.250    3.750    0.000    0.500 
#    0.000    0.000    0.000    1.500    0.000    0.000 
#    0.000    0.000    0.000    0.000    0.000    0.000 
#
# Total GULP energy -178374.989548 kJ/mol
# GULP energy per Si atom -5574.218423 kJ/mol
# Density = 2.226176 g / cm^3
# Si number density = 22.312548 Si / 1000 Ang^3
#
#
#
# Elastic Constant Matrix: (Units=GPa)
#
#
# Indices 1 2 3 4 5 6 
#
# 1 61.1409 8.6942 28.9515 0.0000 29.9521 0.0000
# 2 8.6942 183.9124 27.5229 0.0000 3.6868 0.0000
# 3 28.9515 27.5229 50.8351 0.0000 26.7734 0.0000
# 4 0.0000 0.0000 0.0000 32.8114 0.0000 0.8837
# 5 29.9521 3.6868 26.7734 0.0000 36.0735 0.0000
# 6 0.0000 0.0000 0.0000 0.8837 0.0000 24.3114
#
#
#
# Elastic Compliance Matrix: (Units=1/GPa)
#
#
# Indices 1 2 3 4 5 6 
#
# 1 0.028726 -0.000044 -0.006200 0.000000 -0.019245 0.000000
# 2 -0.000044 0.006109 -0.004881 0.000000 0.003035 0.000000
# 3 -0.006200 -0.004881 0.037548 0.000000 -0.022221 0.000000
# 4 0.000000 0.000000 0.000000 0.030507 0.000000 -0.001109
# 5 -0.019245 0.003035 -0.022221 0.000000 0.059883 0.000000
# 6 0.000000 0.000000 0.000000 -0.001109 0.000000 0.041173
#
#
# Mechanical properties :
#
#
# Convention : Reuss Voigt Hill
#
# Bulk Modulus (GPa) = 19.94694 47.35840 33.65267
# Shear Modulus (GPa) = 20.58403 34.02059 27.30231
#
# Velocity S-wave (km/s) = 3.04062 3.90901 3.50184
# Velocity P-wave (km/s) = 4.61371 6.45329 5.60942
#
# Compressibility (1/GPa) = 0.05013299
#
# Stress axis : x y z
#
# Youngs Moduli (GPa) = 34.81210 163.69221 26.63240
#
# Poissons Ratio (x) = 0.00726 0.16512
# Poissons Ratio (y) = 0.00154 0.12998
# Poissons Ratio (z) = 0.21584 0.79892
#
# Static dielectric constant tensor:
#      x y z
#    x 1.887000 0.000000 -0.032960 
#    y 0.000000 1.914710 0.000000 
#    z -0.032960 0.000000 1.872860 
# 
# From -- ./inp_files/42035.got.cif
#   From: 2010.05.17/outbox.cif.g08.bks.cpg/sg11_22_cif.got.tgz:42035.got - 2010.06.03 12:22:45.
