data_PCOD9156020
_publ_section_title
;
Structure prediction by ZEFSAII (Michael W. Deem and Ramdas Pophale) SiO2 
 PCOD9156020
Probable space group: P 21/M
;
_chemical_formula_sum "Si O2"
_cell_formula_units_Z 28
_cell_length_a 10.811309
_cell_length_b 14.799079
_cell_length_c 7.729499
_cell_angle_alpha 90.000000
_cell_angle_beta 92.197042
_cell_angle_gamma 90.000000
_cell_volume 1235.790765
_symmetry_space_group_name_H-M "P 21/M"
_symmetry_group_IT_number 11
_symmetry_cell_setting 'monoclinic'
loop_
_space_group_symop_operation_xyz
x,y,z
-x,1/2+y,-z
-x,-y,-z
x,1/2-y,z
loop_
_atom_site_type_symbol
_atom_site_label
_atom_site_fract_x
_atom_site_fract_y
_atom_site_fract_z
Si Si1 0.449738 0.102305 0.494400
Si Si2 0.711795 0.155205 0.399569
Si Si3 0.130453 0.556134 0.114766
Si Si4 0.881043 0.906017 0.174378
Si Si5 0.639987 0.400262 0.042807
Si Si6 0.807753 0.964584 0.549868
Si Si7 0.387886 0.386358 0.880241
O O1 0.563701 0.153886 0.420279
O O2 0.425099 0.135136 0.686768
O O3 0.500000 0.000000 0.500000
O O4 0.314097 0.093127 0.404301
O O5 0.764612 0.250000 0.467121
O O6 0.718763 0.148281 0.193490
O O7 0.767752 0.064907 0.483645
O O8 0.117609 0.484850 0.272575
O O9 0.018839 0.626258 0.135257
O O10 0.121205 0.500255 0.935198
O O11 0.270834 0.594018 0.119421
O O12 0.754694 0.857889 0.103306
O O13 0.866333 0.920337 0.380641
O O14 0.616720 0.503626 0.105192
O O15 0.504577 0.359324 0.002193
#
# Coordination Sequence:
#
# PCOD9156020 Si02
#       7
#     4   4   4   4   4   4   4
#     4   9  15  29  47  72  97 130 170 210 264 311
#     4  11  21  32  47  75 113 143 176 221 266 325
#     4  10  18  29  52  80 110 130 166 214 264 319
#     4   9  18  31  48  85 110 125 165 221 266 310
#     4  10  17  29  48  77 105 137 167 214 270 313
#     4  10  18  33  53  77 106 140 171 224 275 312
#     4   9  16  28  51  73 103 129 168 215 273 305
#
# _framework density 22.657556
#
# number of rings (size 3 to 8) (size 9 to 14) (size 15 to 20)
#    0.000    2.286    5.714    2.143    4.000    0.000 
#    0.000    2.857    0.000    0.000    0.000   21.000 
#    0.000    0.000    0.000    0.000    0.000    0.000 
#
# Total GULP energy -155923.667652 kJ/mol
# GULP energy per Si atom -5568.702416 kJ/mol
# Density = 2.260599 g / cm^3
# Si number density = 22.657556 Si / 1000 Ang^3
#
#
#
# Elastic Constant Matrix: (Units=GPa)
#
#
# Indices 1 2 3 4 5 6 
#
# 1 95.6255 -10.6485 28.9679 0.0000 -11.8477 0.0000
# 2 -10.6485 58.9386 -9.7008 0.0000 -1.7100 0.0000
# 3 28.9679 -9.7008 75.3425 0.0000 3.4298 0.0000
# 4 0.0000 0.0000 0.0000 -4.4949 0.0000 5.0841
# 5 -11.8477 -1.7100 3.4298 0.0000 35.7620 0.0000
# 6 0.0000 0.0000 0.0000 5.0841 0.0000 -12.4546
#
#
#
# Elastic Compliance Matrix: (Units=1/GPa)
#
#
# Indices 1 2 3 4 5 6 
#
# 1 0.012711 0.001629 -0.004894 0.000000 0.004758 0.000000
# 2 0.001629 0.017557 0.001578 0.000000 0.001228 0.000000
# 3 -0.004894 0.001578 0.015496 0.000000 -0.003032 0.000000
# 4 0.000000 0.000000 0.000000 -0.413310 0.000000 -0.168717
# 5 0.004758 0.001228 -0.003032 0.000000 0.029888 0.000000
# 6 0.000000 0.000000 0.000000 -0.168717 0.000000 -0.149163
#
#
# Mechanical properties :
#
#
# Convention : Reuss Voigt Hill
#
# Bulk Modulus (GPa) = 23.59060 27.46041 25.52550
# Shear Modulus (GPa) = -10.65374 18.51505 3.93066
#
# Velocity S-wave (km/s) = -2.17078 2.86172 1.31855
# Velocity P-wave (km/s) = 2.03749 4.80264 3.68895
#
# Compressibility (1/GPa) = 0.04238977
#
# Stress axis : x y z
#
# Youngs Moduli (GPa) = 78.67239 56.95883 64.53443
#
# Poissons Ratio (x) = -0.09279 0.31583
# Poissons Ratio (y) = -0.12816 -0.10185
# Poissons Ratio (z) = 0.38502 -0.08990
#
# Static dielectric constant tensor:
#      x y z
#    x 1.961460 0.000000 0.021770 
#    y 0.000000 1.861180 0.000000 
#    z 0.021770 0.000000 1.858860 
# 
# From -- ./inp_files/18359.got.cif
#   From: 2010.05.17/outbox.cif.g08.bks.cpg/sg11_10_cif.got.tgz:18359.got - 2010.06.03 12:22:45.
