data_PCOD9156769
_publ_section_title
;
Structure prediction by ZEFSAII (Michael W. Deem and Ramdas Pophale) SiO2 
 PCOD9156769
Probable space group: P 21/M
;
_chemical_formula_sum "Si O2"
_cell_formula_units_Z 28
_cell_length_a 19.626726
_cell_length_b 7.764122
_cell_length_c 11.220819
_cell_angle_alpha 90.000000
_cell_angle_beta 134.147692
_cell_angle_gamma 90.000000
_cell_volume 1226.916450
_symmetry_space_group_name_H-M "P 21/M"
_symmetry_group_IT_number 11
_symmetry_cell_setting 'monoclinic'
loop_
_space_group_symop_operation_xyz
x,y,z
-x,1/2+y,-z
-x,-y,-z
x,1/2-y,z
loop_
_atom_site_type_symbol
_atom_site_label
_atom_site_fract_x
_atom_site_fract_y
_atom_site_fract_z
Si Si1 0.704551 0.550725 0.023414
Si Si2 0.390186 0.455284 0.851045
Si Si3 0.887057 0.039520 0.614115
Si Si4 0.278090 0.455597 0.210532
Si Si5 0.703877 0.047447 0.513358
Si Si6 0.063224 0.043139 0.961749
Si Si7 0.110568 0.954833 0.644709
O O1 0.674041 0.750000 0.986649
O O2 0.661942 0.472770 0.093095
O O3 0.819302 0.541792 0.176063
O O4 0.680108 0.476062 0.863498
O O5 0.376462 0.250000 0.832036
O O6 0.354824 0.518478 0.678806
O O7 0.500000 0.500000 0.000000
O O8 0.888130 0.250000 0.618216
O O9 0.809363 0.974727 0.612999
O O10 0.853263 0.989553 0.442303
O O11 0.993781 0.980919 0.771300
O O12 0.271187 0.250000 0.186476
O O13 0.330094 0.482782 0.399687
O O14 0.169962 0.525910 0.092339
O O15 0.713710 0.250000 0.540138
O O16 0.069463 0.250000 0.962293
O O17 0.000000 0.000000 0.000000
O O18 0.119628 0.750000 0.669617
O O19 0.000000 0.000000 0.500000
#
# Coordination Sequence:
#
# PCOD9156769 Si02
#       7
#     4   4   4   4   4   4   4
#     4  10  22  41  63  89 124 162 205 256 310 370
#     4  11  24  44  71  98 122 154 200 255 318 382
#     4   9  18  32  51  76 113 157 200 250 299 345
#     4  10  21  37  58  86 124 166 204 251 306 359
#     4  11  21  38  63  90 121 157 201 250 302 366
#     4  10  18  30  48  74 113 160 205 245 289 342
#     4  11  21  35  55  82 120 165 210 256 305 360
#
# _framework density 22.821439999999999
#
# number of rings (size 3 to 8) (size 9 to 14) (size 15 to 20)
#    0.000    1.714    2.857    2.143    0.000    3.429 
#    0.000    3.571    0.000    0.000    0.000    0.000 
#    0.000    0.000    0.000    0.000    0.000    0.000 
#
# Total GULP energy -156275.736192 kJ/mol
# GULP energy per Si atom -5581.276293 kJ/mol
# Density = 2.276950 g / cm^3
# Si number density = 22.821440 Si / 1000 Ang^3
#
#
#
# Elastic Constant Matrix: (Units=GPa)
#
#
# Indices 1 2 3 4 5 6 
#
# 1 93.5823 -3.2589 64.5018 0.0000 -28.6239 0.0000
# 2 -3.2589 46.4497 -6.3643 0.0000 -7.7901 0.0000
# 3 64.5018 -6.3643 121.8819 0.0000 -35.6927 0.0000
# 4 0.0000 0.0000 0.0000 22.6265 0.0000 1.4362
# 5 -28.6239 -7.7901 -35.6927 0.0000 45.7361 0.0000
# 6 0.0000 0.0000 0.0000 1.4362 0.0000 13.1818
#
#
#
# Elastic Compliance Matrix: (Units=1/GPa)
#
#
# Indices 1 2 3 4 5 6 
#
# 1 0.017664 0.001038 -0.007784 0.000000 0.005158 0.000000
# 2 0.001038 0.023062 0.002587 0.000000 0.006596 0.000000
# 3 -0.007784 0.002587 0.014468 0.000000 0.006860 0.000000
# 4 0.000000 0.000000 0.000000 0.044504 0.000000 -0.004849
# 5 0.005158 0.006596 0.006860 0.000000 0.031570 0.000000
# 6 0.000000 0.000000 0.000000 -0.004849 0.000000 0.076390
#
#
# Mechanical properties :
#
#
# Convention : Reuss Voigt Hill
#
# Bulk Modulus (GPa) = 21.33282 41.29679 31.31480
# Shear Modulus (GPa) = 21.58878 30.11125 25.85002
#
# Velocity S-wave (km/s) = 3.07903 3.63633 3.36922
# Velocity P-wave (km/s) = 4.69133 5.98042 5.37466
#
# Compressibility (1/GPa) = 0.04687614
#
# Stress axis : x y z
#
# Youngs Moduli (GPa) = 56.61107 43.36110 69.11848
#
# Poissons Ratio (x) = -0.04500 0.53800
# Poissons Ratio (y) = -0.05875 -0.17879
# Poissons Ratio (z) = 0.44064 -0.11216
#
# Static dielectric constant tensor:
#      x y z
#    x 1.905910 0.000000 -0.051970 
#    y 0.000000 1.823200 0.000000 
#    z -0.051970 0.000000 1.870160 
# 
# From -- ./inp_files/42614.got.cif
#   From: 2010.05.17/outbox.cif.g08.bks.cpg/sg11_22_cif.got.tgz:42614.got - 2010.06.03 12:22:45.
