data_PCOD9156947
_publ_section_title
;
Structure prediction by ZEFSAII (Michael W. Deem and Ramdas Pophale) SiO2 
 PCOD9156947
Probable space group: P 21/M
;
_chemical_formula_sum "Si O2"
_cell_formula_units_Z 32
_cell_length_a 9.212959
_cell_length_b 20.212297
_cell_length_c 12.241801
_cell_angle_alpha 90.000000
_cell_angle_beta 126.167754
_cell_angle_gamma 90.000000
_cell_volume 1840.310415
_symmetry_space_group_name_H-M "P 21/M"
_symmetry_group_IT_number 11
_symmetry_cell_setting 'monoclinic'
loop_
_space_group_symop_operation_xyz
x,y,z
-x,1/2+y,-z
-x,-y,-z
x,1/2-y,z
loop_
_atom_site_type_symbol
_atom_site_label
_atom_site_fract_x
_atom_site_fract_y
_atom_site_fract_z
Si Si1 0.623494 0.176166 0.869667
Si Si2 0.200822 0.494678 0.826999
Si Si3 0.301416 0.076088 0.090233
Si Si4 0.997792 0.677864 0.658422
Si Si5 0.551086 0.957963 0.270175
Si Si6 0.952097 0.674941 0.897413
Si Si7 0.109055 0.036475 0.452635
Si Si8 0.379325 0.862700 0.891774
O O1 0.583605 0.250000 0.809830
O O2 0.533306 0.115075 0.767327
O O3 0.839888 0.168025 0.973626
O O4 0.565083 0.171541 0.971171
O O5 0.318849 0.463801 0.779967
O O6 0.298558 0.565212 0.889610
O O7 0.996404 0.509402 0.699969
O O8 0.211509 0.451881 0.939996
O O9 0.459563 0.124157 0.118467
O O10 0.165524 0.117460 0.102746
O O11 0.398411 0.013630 0.190204
O O12 0.940945 0.750000 0.592835
O O13 0.925633 0.615146 0.561306
O O14 0.944265 0.671168 0.762280
O O15 0.214154 0.673230 0.759760
O O16 0.681785 0.973428 0.430061
O O17 0.895071 0.750000 0.902857
O O18 0.000000 0.000000 0.500000
#
# Coordination Sequence:
#
# PCOD9156947 Si02
#       8
#     4   4   4   4   4   4   4   4
#     4  10  18  31  47  70 106 132 164 218 261 300
#     4   9  16  31  51  76 107 133 160 213 268 306
#     4  11  18  31  56  77 107 132 170 215 261 313
#     4   9  18  35  54  74 106 143 175 208 256 312
#     4  10  18  32  50  80 102 131 173 218 260 306
#     4   9  21  35  50  77 108 137 172 215 260 311
#     4   9  19  33  54  77 109 134 171 220 263 299
#     4   9  15  29  50  77  99 128 167 211 257 302
#
# _framework density 17.388370999999999
#
# number of rings (size 3 to 8) (size 9 to 14) (size 15 to 20)
#    0.000    2.500    2.500    2.625    0.000    2.000 
#    0.000    0.625    0.000    0.000    0.000    0.000 
#    0.000    0.000    0.000    0.000    0.000    0.000 
#
# Total GULP energy -178316.757178 kJ/mol
# GULP energy per Si atom -5572.398662 kJ/mol
# Density = 1.734879 g / cm^3
# Si number density = 17.388371 Si / 1000 Ang^3
#
#
#
# Elastic Constant Matrix: (Units=GPa)
#
#
# Indices 1 2 3 4 5 6 
#
# 1 44.8919 55.4218 16.8699 0.0000 6.1558 0.0000
# 2 55.4218 125.1990 35.3517 0.0000 5.9308 0.0000
# 3 16.8699 35.3517 54.5786 0.0000 13.2171 0.0000
# 4 0.0000 0.0000 0.0000 22.9240 0.0000 -3.1756
# 5 6.1558 5.9308 13.2171 0.0000 11.4751 0.0000
# 6 0.0000 0.0000 0.0000 -3.1756 0.0000 26.7734
#
#
#
# Elastic Compliance Matrix: (Units=1/GPa)
#
#
# Indices 1 2 3 4 5 6 
#
# 1 0.052450 -0.023341 0.003881 0.000000 -0.020544 0.000000
# 2 -0.023341 0.020242 -0.008870 0.000000 0.012275 0.000000
# 3 0.003881 -0.008870 0.030873 0.000000 -0.033058 0.000000
# 4 0.000000 0.000000 0.000000 0.044351 0.000000 0.005260
# 5 -0.020544 0.012275 -0.033058 0.000000 0.129899 0.000000
# 6 0.000000 0.000000 0.000000 0.005260 0.000000 0.037974
#
#
# Mechanical properties :
#
#
# Convention : Reuss Voigt Hill
#
# Bulk Modulus (GPa) = 21.31860 48.88406 35.10133
# Shear Modulus (GPa) = 12.88384 20.03623 16.46003
#
# Velocity S-wave (km/s) = 2.72498 3.39820 3.08004
# Velocity P-wave (km/s) = 4.71037 6.60085 5.73405
#
# Compressibility (1/GPa) = 0.04690740
#
# Stress axis : x y z
#
# Youngs Moduli (GPa) = 19.06590 49.40106 32.39065
#
# Poissons Ratio (x) = 1.15305 -0.12572
# Poissons Ratio (y) = 0.44501 0.28729
# Poissons Ratio (z) = -0.07400 0.43817
#
# Static dielectric constant tensor:
#      x y z
#    x 1.579020 0.000000 0.016370 
#    y 0.000000 1.626530 0.000000 
#    z 0.016370 0.000000 1.605760 
# 
# From -- ./inp_files/32687.got.cif
#   From: 2010.05.17/outbox.cif.g08.bks.cpg/sg11_17_cif.got.tgz:32687.got - 2010.06.03 12:22:45.
