data_PCOD9156512
_publ_section_title
;
Structure prediction by ZEFSAII (Michael W. Deem and Ramdas Pophale) SiO2 
 PCOD9156512
Probable space group: P 21/M
;
_chemical_formula_sum "Si O2"
_cell_formula_units_Z 28
_cell_length_a 20.291739
_cell_length_b 7.593185
_cell_length_c 25.527601
_cell_angle_alpha 90.000000
_cell_angle_beta 158.535166
_cell_angle_gamma 90.000000
_cell_volume 1439.300211
_symmetry_space_group_name_H-M "P 21/M"
_symmetry_group_IT_number 11
_symmetry_cell_setting 'monoclinic'
loop_
_space_group_symop_operation_xyz
x,y,z
-x,1/2+y,-z
-x,-y,-z
x,1/2-y,z
loop_
_atom_site_type_symbol
_atom_site_label
_atom_site_fract_x
_atom_site_fract_y
_atom_site_fract_z
Si Si1 0.721713 0.043055 0.326125
Si Si2 0.795523 0.458953 0.866505
Si Si3 0.329694 0.467316 0.028862
Si Si4 0.065406 0.456994 0.920906
Si Si5 0.329153 0.962112 0.335974
Si Si6 0.673289 0.960817 0.092476
Si Si7 0.095290 0.035978 0.644843
O O1 0.718765 0.250000 0.336159
O O2 0.525514 0.973464 0.194143
O O3 0.898315 0.967598 0.484294
O O4 0.764638 0.023863 0.296113
O O5 0.771368 0.250000 0.852419
O O6 0.670971 0.523105 0.725619
O O7 0.801200 0.527804 0.930148
O O8 0.000000 0.500000 0.000000
O O9 0.329101 0.250000 0.028727
O O10 0.168502 0.528670 0.946571
O O11 0.322519 0.527649 0.963407
O O12 0.037800 0.250000 0.891403
O O13 0.864351 0.528195 0.784399
O O14 0.318042 0.750000 0.324975
O O15 0.500000 0.000000 0.500000
O O16 0.681994 0.750000 0.094885
O O17 0.840162 0.022211 0.250866
O O18 0.500000 0.000000 0.000000
O O19 0.094964 0.250000 0.642477
#
# Coordination Sequence:
#
# PCOD9156512 Si02
#       7
#     4   4   4   4   4   4   4
#     4   9  16  28  45  64  86 116 150 189 239 286
#     4   9  17  31  51  75  99 126 160 196 233 280
#     4   9  17  30  48  67  93 126 159 198 244 289
#     4   9  18  33  50  72 100 130 165 203 243 289
#     4   9  18  31  50  75 101 127 158 195 234 281
#     4  10  18  29  45  66  91 122 159 200 240 283
#     4   9  17  27  42  65  89 112 150 199 238 278
#
# _framework density 19.453899
#
# number of rings (size 3 to 8) (size 9 to 14) (size 15 to 20)
#    0.000    2.857    1.429    1.286    0.000    2.857 
#    0.000    2.857    0.000    5.143    0.000    0.000 
#    0.000    0.000    0.000    0.000    0.000    0.000 
#
# Total GULP energy -155871.936255 kJ/mol
# GULP energy per Si atom -5566.854866 kJ/mol
# Density = 1.940962 g / cm^3
# Si number density = 19.453899 Si / 1000 Ang^3
#
#
#
# Elastic Constant Matrix: (Units=GPa)
#
#
# Indices 1 2 3 4 5 6 
#
# 1 122.4264 -6.0994 62.2941 0.0000 -4.1883 0.0000
# 2 -6.0994 36.7031 -3.5721 0.0000 5.7362 0.0000
# 3 62.2941 -3.5721 114.8334 0.0000 -10.0690 0.0000
# 4 0.0000 0.0000 0.0000 15.1849 0.0000 -3.3290
# 5 -4.1883 5.7362 -10.0690 0.0000 25.7440 0.0000
# 6 0.0000 0.0000 0.0000 -3.3290 0.0000 15.4747
#
#
#
# Elastic Compliance Matrix: (Units=1/GPa)
#
#
# Indices 1 2 3 4 5 6 
#
# 1 0.011362 0.001425 -0.006198 0.000000 -0.000893 0.000000
# 2 0.001425 0.028420 -0.000439 0.000000 -0.006272 0.000000
# 3 -0.006198 -0.000439 0.012402 0.000000 0.003940 0.000000
# 4 0.000000 0.000000 0.000000 0.069115 0.000000 0.014868
# 5 -0.000893 -0.006272 0.003940 0.000000 0.041637 0.000000
# 6 0.000000 0.000000 0.000000 0.014868 0.000000 0.067820
#
#
# Mechanical properties :
#
#
# Convention : Reuss Voigt Hill
#
# Bulk Modulus (GPa) = 23.94595 42.13423 33.04009
# Shear Modulus (GPa) = 19.60013 26.03673 22.81843
#
# Velocity S-wave (km/s) = 3.17758 3.66236 3.42855
# Velocity P-wave (km/s) = 5.07922 6.29201 5.71786
#
# Compressibility (1/GPa) = 0.04176072
#
# Stress axis : x y z
#
# Youngs Moduli (GPa) = 88.01160 35.18649 80.63112
#
# Poissons Ratio (x) = -0.05013 0.49972
# Poissons Ratio (y) = -0.12538 0.03537
# Poissons Ratio (z) = 0.54546 0.01544
#
# Static dielectric constant tensor:
#      x y z
#    x 1.695970 0.000000 -0.027760 
#    y 0.000000 1.718990 0.000000 
#    z -0.027760 0.000000 1.712460 
# 
# From -- ./inp_files/71952.got.cif
#   From: 2010.05.17/outbox.cif.g08.bks.cpg/sg11_36_cif.got.tgz:71952.got - 2010.06.03 12:22:45.
