data_PCOD9156275
_publ_section_title
;
Structure prediction by ZEFSAII (Michael W. Deem and Ramdas Pophale) SiO2 
 PCOD9156275
Probable space group: P 21/M
;
_chemical_formula_sum "Si O2"
_cell_formula_units_Z 32
_cell_length_a 15.231701
_cell_length_b 7.765160
_cell_length_c 20.748262
_cell_angle_alpha 90.000000
_cell_angle_beta 135.039300
_cell_angle_gamma 90.000000
_cell_volume 1734.073283
_symmetry_space_group_name_H-M "P 21/M"
_symmetry_group_IT_number 11
_symmetry_cell_setting 'monoclinic'
loop_
_space_group_symop_operation_xyz
x,y,z
-x,1/2+y,-z
-x,-y,-z
x,1/2-y,z
loop_
_atom_site_type_symbol
_atom_site_label
_atom_site_fract_x
_atom_site_fract_y
_atom_site_fract_z
Si Si1 0.088986 0.544168 0.986032
Si Si2 0.957411 0.552830 0.791357
Si Si3 0.690123 0.449817 0.692373
Si Si4 0.419868 0.040079 0.548218
Si Si5 0.852187 0.956480 0.611826
Si Si6 0.388224 0.548792 0.682091
Si Si7 0.653742 0.544847 0.820506
Si Si8 0.121796 0.955066 0.523435
O O1 0.087978 0.750000 0.981411
O O2 0.033663 0.473126 0.890085
O O3 0.228182 0.485676 0.073403
O O4 0.000000 0.500000 0.000000
O O5 0.001346 0.750000 0.807548
O O6 0.812953 0.551642 0.737753
O O7 0.947354 0.473565 0.714692
O O8 0.706299 0.250000 0.682858
O O9 0.556854 0.516782 0.596954
O O10 0.679140 0.459572 0.764416
O O11 0.422651 0.250000 0.551290
O O12 0.290053 0.982762 0.449352
O O13 0.406222 0.972110 0.614324
O O14 0.849418 0.750000 0.618109
O O15 0.885180 0.990339 0.554910
O O16 0.382910 0.750000 0.697306
O O17 0.519761 0.480799 0.776946
O O18 0.250677 0.473104 0.621163
O O19 0.643250 0.750000 0.803319
O O20 0.134075 0.750000 0.529069
O O21 0.000000 0.000000 0.500000
#
# Coordination Sequence:
#
# PCOD9156275 Si02
#       8
#     4   4   4   4   4   4   4   4
#     4  11  21  32  46  66  91 126 170 213 249 284
#     4  10  21  33  45  62  90 127 165 201 243 286
#     4  10  18  27  42  64  89 121 161 202 239 277
#     4   8  15  27  43  63  88 119 157 195 231 272
#     4   9  18  34  50  66  93 127 158 193 235 284
#     4   8  16  29  46  69  96 123 153 188 232 283
#     4  10  18  30  47  66  91 124 162 206 246 279
#     4  10  19  33  54  80 104 126 151 184 229 288
#
# _framework density 18.453658999999998
#
# number of rings (size 3 to 8) (size 9 to 14) (size 15 to 20)
#    0.000    2.500    1.250    1.500    0.000    3.000 
#    0.000    0.000    0.000    0.000    0.000    0.875 
#    0.000    0.000    0.000    0.000    0.000    0.000 
#
# Total GULP energy -178305.104521 kJ/mol
# GULP energy per Si atom -5572.034516 kJ/mol
# Density = 1.841166 g / cm^3
# Si number density = 18.453659 Si / 1000 Ang^3
#
#
#
# Elastic Constant Matrix: (Units=GPa)
#
#
# Indices 1 2 3 4 5 6 
#
# 1 82.7104 -3.5487 53.0764 0.0000 16.1967 0.0000
# 2 -3.5487 45.1403 2.3188 0.0000 -0.7659 0.0000
# 3 53.0764 2.3188 169.8396 0.0000 9.5616 0.0000
# 4 0.0000 0.0000 0.0000 14.4942 0.0000 1.5987
# 5 16.1967 -0.7659 9.5616 0.0000 23.4735 0.0000
# 6 0.0000 0.0000 0.0000 1.5987 0.0000 13.8560
#
#
#
# Elastic Compliance Matrix: (Units=1/GPa)
#
#
# Indices 1 2 3 4 5 6 
#
# 1 0.017181 0.001432 -0.004835 0.000000 -0.009839 0.000000
# 2 0.001432 0.022305 -0.000755 0.000000 0.000047 0.000000
# 3 -0.004835 -0.000755 0.007392 0.000000 0.000300 0.000000
# 4 0.000000 0.000000 0.000000 0.069882 0.000000 -0.008063
# 5 -0.009839 0.000047 0.000300 0.000000 0.049269 0.000000
# 6 0.000000 0.000000 0.000000 -0.008063 0.000000 0.073101
#
#
# Mechanical properties :
#
#
# Convention : Reuss Voigt Hill
#
# Bulk Modulus (GPa) = 25.93115 44.59815 35.26465
# Shear Modulus (GPa) = 19.20855 26.75434 22.98144
#
# Velocity S-wave (km/s) = 3.22981 3.81177 3.53279
# Velocity P-wave (km/s) = 5.29069 6.60249 5.98266
#
# Compressibility (1/GPa) = 0.03856365
#
# Stress axis : x y z
#
# Youngs Moduli (GPa) = 58.20346 44.83236 135.27669
#
# Poissons Ratio (x) = -0.06420 0.65405
# Poissons Ratio (y) = -0.08335 0.10210
# Poissons Ratio (z) = 0.28141 0.03384
#
# Static dielectric constant tensor:
#      x y z
#    x 1.788720 0.000000 0.021140 
#    y 0.000000 1.678950 0.000000 
#    z 0.021140 0.000000 1.734600 
# 
# From -- ./inp_files/51322.got.cif
#   From: 2010.05.17/outbox.cif.g08.bks.cpg/sg11_26_cif.got.tgz:51322.got - 2010.06.03 12:22:45.
