data_PCOD9156724
_publ_section_title
;
Structure prediction by ZEFSAII (Michael W. Deem and Ramdas Pophale) SiO2 
 PCOD9156724
Probable space group: P 21/M
;
_chemical_formula_sum "Si O2"
_cell_formula_units_Z 32
_cell_length_a 22.120171
_cell_length_b 7.869959
_cell_length_c 13.238546
_cell_angle_alpha 90.000000
_cell_angle_beta 126.410951
_cell_angle_gamma 90.000000
_cell_volume 1854.721084
_symmetry_space_group_name_H-M "P 21/M"
_symmetry_group_IT_number 11
_symmetry_cell_setting 'monoclinic'
loop_
_space_group_symop_operation_xyz
x,y,z
-x,1/2+y,-z
-x,-y,-z
x,1/2-y,z
loop_
_atom_site_type_symbol
_atom_site_label
_atom_site_fract_x
_atom_site_fract_y
_atom_site_fract_z
Si Si1 0.837422 0.958264 0.455163
Si Si2 0.320823 0.455268 0.618086
Si Si3 0.419517 0.451670 0.295624
Si Si4 0.413006 0.454277 0.904208
Si Si5 0.588624 0.047825 0.488245
Si Si6 0.000610 0.548081 0.619195
Si Si7 0.678615 0.958584 0.988046
Si Si8 0.835987 0.952630 0.219795
O O1 0.837451 0.750000 0.454306
O O2 0.764035 0.013465 0.443055
O O3 0.830730 0.014480 0.331129
O O4 0.919237 0.013828 0.576959
O O5 0.320369 0.250000 0.621269
O O6 0.374614 0.516800 0.762730
O O7 0.354179 0.506862 0.543984
O O8 0.425140 0.250000 0.283590
O O9 0.390971 0.479277 0.381016
O O10 0.505045 0.520387 0.377349
O O11 0.365119 0.519536 0.154625
O O12 0.407551 0.250000 0.897392
O O13 0.500000 0.500000 0.000000
O O14 0.366702 0.511475 0.956562
O O15 0.582793 0.250000 0.492460
O O16 0.000940 0.750000 0.627763
O O17 0.080704 0.486972 0.739200
O O18 0.000000 0.500000 0.500000
O O19 0.678891 0.750000 0.986252
O O20 0.764790 0.015646 0.085933
O O21 0.828550 0.750000 0.219200
#
# Coordination Sequence:
#
# PCOD9156724 Si02
#       8
#     4   4   4   4   4   4   4   4
#     4   8  14  26  43  63  88 120 154 181 210 263
#     4  10  18  30  48  67  89 123 159 184 217 272
#     4   9  18  33  51  67  86 119 160 193 226 276
#     4  10  19  30  45  65  93 125 154 184 223 272
#     4  10  20  33  48  68  92 116 150 201 245 266
#     4   9  16  26  42  63  89 121 154 185 221 264
#     4   9  16  29  49  68  89 122 158 187 221 272
#     4   9  15  27  45  65  91 121 152 185 222 267
#
# _framework density 17.253267999999998
#
# number of rings (size 3 to 8) (size 9 to 14) (size 15 to 20)
#    0.000    2.750    1.250    2.250    0.000    2.000 
#    0.000    5.000    0.000    0.000    0.000    0.875 
#    0.000    0.000    0.000    0.000    0.000    0.000 
#
# Total GULP energy -178300.538063 kJ/mol
# GULP energy per Si atom -5571.891814 kJ/mol
# Density = 1.721400 g / cm^3
# Si number density = 17.253268 Si / 1000 Ang^3
#
#
#
# Elastic Constant Matrix: (Units=GPa)
#
#
# Indices 1 2 3 4 5 6 
#
# 1 107.0867 -9.8151 46.2353 0.0000 16.4833 0.0000
# 2 -9.8151 10.7181 -2.0898 0.0000 2.5257 0.0000
# 3 46.2353 -2.0898 67.7342 0.0000 10.4865 0.0000
# 4 0.0000 0.0000 0.0000 12.6616 0.0000 5.2297
# 5 16.4833 2.5257 10.4865 0.0000 25.6874 0.0000
# 6 0.0000 0.0000 0.0000 5.2297 0.0000 14.5415
#
#
#
# Elastic Compliance Matrix: (Units=1/GPa)
#
#
# Indices 1 2 3 4 5 6 
#
# 1 0.015828 0.014565 -0.009138 0.000000 -0.007858 0.000000
# 2 0.014565 0.110337 -0.003641 0.000000 -0.018708 0.000000
# 3 -0.009138 -0.003641 0.021270 0.000000 -0.002461 0.000000
# 4 0.000000 0.000000 0.000000 0.092758 0.000000 -0.033359
# 5 -0.007858 -0.018708 -0.002461 0.000000 0.046817 0.000000
# 6 0.000000 0.000000 0.000000 -0.033359 0.000000 0.080766
#
#
# Mechanical properties :
#
#
# Convention : Reuss Voigt Hill
#
# Bulk Modulus (GPa) = 6.62229 28.24443 17.43336
# Shear Modulus (GPa) = 12.06156 20.65865 16.36011
#
# Velocity S-wave (km/s) = 2.64690 3.46407 3.08268
# Velocity P-wave (km/s) = 3.63153 5.69260 4.77461
#
# Compressibility (1/GPa) = 0.15100524
#
# Stress axis : x y z
#
# Youngs Moduli (GPa) = 63.17797 9.06317 47.01422
#
# Poissons Ratio (x) = -0.13200 0.42964
# Poissons Ratio (y) = -0.92017 0.17119
# Poissons Ratio (z) = 0.57735 0.03300
#
# Static dielectric constant tensor:
#      x y z
#    x 1.593910 0.000000 0.036400 
#    y 0.000000 1.635140 0.000000 
#    z 0.036400 0.000000 1.584550 
# 
# From -- ./inp_files/42563.got.cif
#   From: 2010.05.17/outbox.cif.g08.bks.cpg/sg11_22_cif.got.tgz:42563.got - 2010.06.03 12:22:45.
