data_PCOD9156298
_publ_section_title
;
Structure prediction by ZEFSAII (Michael W. Deem and Ramdas Pophale) SiO2 
 PCOD9156298
Probable space group: P 21/M
;
_chemical_formula_sum "Si O2"
_cell_formula_units_Z 32
_cell_length_a 12.967214
_cell_length_b 8.256394
_cell_length_c 24.686954
_cell_angle_alpha 90.000000
_cell_angle_beta 133.477105
_cell_angle_gamma 90.000000
_cell_volume 1917.924120
_symmetry_space_group_name_H-M "P 21/M"
_symmetry_group_IT_number 11
_symmetry_cell_setting 'monoclinic'
loop_
_space_group_symop_operation_xyz
x,y,z
-x,1/2+y,-z
-x,-y,-z
x,1/2-y,z
loop_
_atom_site_type_symbol
_atom_site_label
_atom_site_fract_x
_atom_site_fract_y
_atom_site_fract_z
Si Si1 0.561663 0.443883 0.079957
Si Si2 0.385917 0.945433 0.503746
Si Si3 0.834741 0.056053 0.658790
Si Si4 0.732274 0.945647 0.824144
Si Si5 0.393353 0.054270 0.333856
Si Si6 0.949487 0.052236 0.088113
Si Si7 0.325549 0.556604 0.077852
Si Si8 0.116986 0.554616 0.812810
O O1 0.563863 0.250000 0.080597
O O2 0.458534 0.501456 0.090177
O O3 0.724414 0.502111 0.143970
O O4 0.500000 0.500000 0.000000
O O5 0.382317 0.750000 0.504560
O O6 0.236504 0.999732 0.423838
O O7 0.457422 0.002249 0.585692
O O8 0.500000 0.000000 0.500000
O O9 0.830343 0.250000 0.658487
O O10 0.733225 0.993642 0.670738
O O11 0.993534 0.999784 0.727899
O O12 0.733548 0.750000 0.823321
O O13 0.644506 0.003413 0.739916
O O14 0.896007 0.001073 0.876467
O O15 0.671315 0.999513 0.859358
O O16 0.395756 0.250000 0.333307
O O17 0.949332 0.250000 0.087899
O O18 0.922434 0.000828 0.140304
O O19 0.819840 0.996575 0.003567
O O20 0.320970 0.750000 0.075115
O O21 0.117909 0.750000 0.813955
#
# Coordination Sequence:
#
# PCOD9156298 Si02
#       8
#     4   4   4   4   4   4   4   4
#     4  11  22  37  56  74  95 125 165 208 247 291
#     4   8  15  26  41  65  96 129 160 193 236 287
#     4  10  18  27  43  72 103 125 159 204 242 286
#     4  10  19  32  50  71  96 130 171 201 230 285
#     4   9  16  29  48  66  95 137 167 192 237 293
#     4   9  17  32  50  69  95 128 164 197 233 286
#     4  11  22  36  51  70  99 130 164 206 249 286
#     4  10  19  34  52  70  95 130 166 197 239 294
#
# _framework density 16.684705000000001
#
# number of rings (size 3 to 8) (size 9 to 14) (size 15 to 20)
#    0.000    2.250    2.500    1.500    0.000    2.000 
#    0.000    0.625    0.000    0.000    0.000    0.875 
#    0.000    0.000    0.000    0.000    0.000    0.000 
#
# Total GULP energy -178384.290059 kJ/mol
# GULP energy per Si atom -5574.509064 kJ/mol
# Density = 1.664673 g / cm^3
# Si number density = 16.684705 Si / 1000 Ang^3
#
#
#
# Elastic Constant Matrix: (Units=GPa)
#
#
# Indices 1 2 3 4 5 6 
#
# 1 112.1941 10.6649 84.1473 0.0000 -4.9206 0.0000
# 2 10.6649 8.2966 18.5826 0.0000 -3.1092 0.0000
# 3 84.1473 18.5826 179.9770 0.0000 12.2233 0.0000
# 4 0.0000 0.0000 0.0000 17.6327 0.0000 1.2326
# 5 -4.9206 -3.1092 12.2233 0.0000 14.1452 0.0000
# 6 0.0000 0.0000 0.0000 1.2326 0.0000 18.8893
#
#
#
# Elastic Compliance Matrix: (Units=1/GPa)
#
#
# Indices 1 2 3 4 5 6 
#
# 1 0.015651 0.004797 -0.008769 0.000000 0.014077 0.000000
# 2 0.004797 0.203780 -0.028087 0.000000 0.070731 0.000000
# 3 -0.008769 -0.028087 0.014005 0.000000 -0.021326 0.000000
# 4 0.000000 0.000000 0.000000 0.056973 0.000000 -0.003718
# 5 0.014077 0.070731 -0.021326 0.000000 0.109567 0.000000
# 6 0.000000 0.000000 0.000000 -0.003718 0.000000 0.053183
#
#
# Mechanical properties :
#
#
# Convention : Reuss Voigt Hill
#
# Bulk Modulus (GPa) = 5.90605 58.58414 32.24509
# Shear Modulus (GPa) = 8.71511 22.60496 15.66003
#
# Velocity S-wave (km/s) = 2.28796 3.68480 3.06696
# Velocity P-wave (km/s) = 3.24456 7.30016 5.64887
#
# Compressibility (1/GPa) = 0.16931800
#
# Stress axis : x y z
#
# Youngs Moduli (GPa) = 63.89191 4.90725 71.40558
#
# Poissons Ratio (x) = -0.02354 0.62616
# Poissons Ratio (y) = -0.30648 2.00555
# Poissons Ratio (z) = 0.56027 0.13783
#
# Static dielectric constant tensor:
#      x y z
#    x 1.515320 0.000000 0.011350 
#    y 0.000000 1.594790 0.000000 
#    z 0.011350 0.000000 1.609540 
# 
# From -- ./inp_files/42484.got.cif
#   From: 2010.05.17/outbox.cif.g08.bks.cpg/sg11_22_cif.got.tgz:42484.got - 2010.06.03 12:22:45.
