data_PCOD9156867
_publ_section_title
;
Structure prediction by ZEFSAII (Michael W. Deem and Ramdas Pophale) SiO2 
 PCOD9156867
Probable space group: P 21/M
;
_chemical_formula_sum "Si O2"
_cell_formula_units_Z 32
_cell_length_a 20.993861
_cell_length_b 8.586795
_cell_length_c 26.072660
_cell_angle_alpha 90.000000
_cell_angle_beta 22.684057
_cell_angle_gamma 90.000000
_cell_volume 1812.597296
_symmetry_space_group_name_H-M "P 21/M"
_symmetry_group_IT_number 11
_symmetry_cell_setting 'monoclinic'
loop_
_space_group_symop_operation_xyz
x,y,z
-x,1/2+y,-z
-x,-y,-z
x,1/2-y,z
loop_
_atom_site_type_symbol
_atom_site_label
_atom_site_fract_x
_atom_site_fract_y
_atom_site_fract_z
Si Si1 0.551938 0.937161 0.087053
Si Si2 0.975403 0.061773 0.163003
Si Si3 0.139467 0.562719 0.209106
Si Si4 0.526867 0.061715 0.324354
Si Si5 0.849934 0.438137 0.145946
Si Si6 0.170654 0.563415 0.619343
Si Si7 0.653071 0.437456 0.853036
Si Si8 0.651858 0.436536 0.119395
O O1 0.561332 0.750000 0.081490
O O2 0.715756 0.998710 0.935832
O O3 0.393326 0.985350 0.170327
O O4 0.554503 0.001857 0.142329
O O5 0.983998 0.250000 0.157016
O O6 0.880057 0.013024 0.182251
O O7 0.886440 0.011454 0.281366
O O8 0.161081 0.998167 0.023089
O O9 0.140510 0.750000 0.205037
O O10 0.188352 0.515304 0.231164
O O11 0.965790 0.499297 0.318851
O O12 0.519804 0.250000 0.330723
O O13 0.676314 0.011191 0.250583
O O14 0.573657 0.014001 0.231634
O O15 0.351888 0.996058 0.471405
O O16 0.853971 0.250000 0.141180
O O17 0.000000 0.500000 0.000000
O O18 0.168103 0.750000 0.620228
O O19 0.649849 0.250000 0.855897
O O20 0.500000 0.500000 0.000000
O O21 0.655815 0.250000 0.115106
#
# Coordination Sequence:
#
# PCOD9156867 Si02
#       8
#     4   4   4   4   4   4   4   4
#     4  10  18  30  50  79 112 142 178 225 270 318
#     4  10  21  36  57  82 110 141 179 226 273 323
#     4  10  18  31  52  77 108 146 182 221 269 319
#     4  10  23  40  56  79 110 144 184 227 272 327
#     4  10  20  37  59  82 109 142 179 224 275 323
#     4  11  23  37  54  81 112 146 185 225 273 327
#     4   8  16  28  45  73 107 141 177 218 267 317
#     4  11  21  34  55  82 109 142 185 226 271 323
#
# _framework density 17.654223999999999
#
# number of rings (size 3 to 8) (size 9 to 14) (size 15 to 20)
#    0.000    2.000    2.500    1.500    0.000    3.500 
#    0.000    0.000    0.000    0.750    0.000    0.000 
#    0.000    0.000    0.000    0.000    0.000    0.000 
#
# Total GULP energy -178499.204484 kJ/mol
# GULP energy per Si atom -5578.100140 kJ/mol
# Density = 1.761404 g / cm^3
# Si number density = 17.654224 Si / 1000 Ang^3
#
#
#
# Elastic Constant Matrix: (Units=GPa)
#
#
# Indices 1 2 3 4 5 6 
#
# 1 208.3935 36.5480 90.6265 0.0000 -18.7579 0.0000
# 2 36.5480 20.0290 25.9447 0.0000 -0.5840 0.0000
# 3 90.6265 25.9447 123.5726 0.0000 -6.3303 0.0000
# 4 0.0000 0.0000 0.0000 25.7335 0.0000 -0.9669
# 5 -18.7579 -0.5840 -6.3303 0.0000 25.6758 0.0000
# 6 0.0000 0.0000 0.0000 -0.9669 0.0000 22.3014
#
#
#
# Elastic Compliance Matrix: (Units=1/GPa)
#
#
# Indices 1 2 3 4 5 6 
#
# 1 0.008930 -0.011001 -0.003968 0.000000 0.005296 0.000000
# 2 -0.011001 0.082233 -0.009635 0.000000 -0.008542 0.000000
# 3 -0.003968 -0.009635 0.013031 0.000000 0.000094 0.000000
# 4 0.000000 0.000000 0.000000 0.038923 0.000000 0.001688
# 5 0.005296 -0.008542 0.000094 0.000000 0.042645 0.000000
# 6 0.000000 0.000000 0.000000 0.001688 0.000000 0.044913
#
#
# Mechanical properties :
#
#
# Convention : Reuss Voigt Hill
#
# Bulk Modulus (GPa) = 18.18659 73.13703 45.66181
# Shear Modulus (GPa) = 16.76656 28.00057 22.38356
#
# Velocity S-wave (km/s) = 3.08510 3.98685 3.56460
# Velocity P-wave (km/s) = 4.79733 7.91901 6.54695
#
# Compressibility (1/GPa) = 0.05498556
#
# Stress axis : x y z
#
# Youngs Moduli (GPa) = 111.97678 12.16055 76.74244
#
# Poissons Ratio (x) = 0.13378 0.30455
# Poissons Ratio (y) = 1.23183 0.73941
# Poissons Ratio (z) = 0.44438 0.11717
#
# Static dielectric constant tensor:
#      x y z
#    x 1.645100 0.000000 -0.012820 
#    y 0.000000 1.599580 0.000000 
#    z -0.012820 0.000000 1.551280 
# 
# From -- ./inp_files/67095.got.cif
#   From: 2010.05.17/outbox.cif.g08.bks.cpg/sg11_34_cif.got.tgz:67095.got - 2010.06.03 12:22:45.
