data_PCOD9156093
_publ_section_title
;
Structure prediction by ZEFSAII (Michael W. Deem and Ramdas Pophale) SiO2 
 PCOD9156093
Probable space group: P 21/M
;
_chemical_formula_sum "Si O2"
_cell_formula_units_Z 20
_cell_length_a 4.992549
_cell_length_b 20.215572
_cell_length_c 8.800667
_cell_angle_alpha 90.000000
_cell_angle_beta 81.468532
_cell_angle_gamma 90.000000
_cell_volume 878.398331
_symmetry_space_group_name_H-M "P 21/M"
_symmetry_group_IT_number 11
_symmetry_cell_setting 'monoclinic'
loop_
_space_group_symop_operation_xyz
x,y,z
-x,1/2+y,-z
-x,-y,-z
x,1/2-y,z
loop_
_atom_site_type_symbol
_atom_site_label
_atom_site_fract_x
_atom_site_fract_y
_atom_site_fract_z
Si Si1 0.323959 0.964489 0.811242
Si Si2 0.209682 0.414418 0.054834
Si Si3 0.238133 0.540672 0.403763
Si Si4 0.978024 0.142523 0.790562
Si Si5 0.547291 0.321639 0.610123
O O1 0.515862 0.909305 0.874012
O O2 0.032888 0.932593 0.811272
O O3 0.499326 0.997943 0.663419
O O4 0.274394 0.024155 0.935733
O O5 0.090095 0.359510 0.951058
O O6 0.291175 0.679701 0.241419
O O7 0.000000 0.500000 0.500000
O O8 0.109645 0.568927 0.256171
O O9 0.231185 0.166264 0.667786
O O10 0.669823 0.110922 0.529086
O O11 0.589164 0.250000 0.532608
#
# Coordination Sequence:
#
# PCOD9156093 Si02
#       5
#     4   4   4   4   4
#     4  10  18  28  49  75 111 141 158 211 260 317
#     4  10  17  31  49  76 109 131 172 198 266 315
#     4  10  22  35  51  82 118 136 178 229 274 314
#     4  10  19  34  54  77 106 135 173 225 266 321
#     4  10  21  36  52  76 105 141 183 219 277 325
#
# _framework density 22.768711
#
# number of rings (size 3 to 8) (size 9 to 14) (size 15 to 20)
#    1.200    0.800    2.000    5.400    0.000    0.800 
#    0.000    0.000    0.000    0.000    0.000    8.400 
#    0.000    0.000    0.000    0.000    0.000    0.000 
#
# Total GULP energy -111427.396130 kJ/mol
# GULP energy per Si atom -5571.369807 kJ/mol
# Density = 2.271689 g / cm^3
# Si number density = 22.768711 Si / 1000 Ang^3
#
#
#
# Elastic Constant Matrix: (Units=GPa)
#
#
# Indices 1 2 3 4 5 6 
#
# 1 130.6518 10.0954 10.5866 0.0000 -22.0715 0.0000
# 2 10.0954 98.1471 21.8036 0.0000 -16.3616 0.0000
# 3 10.5866 21.8036 66.3572 0.0000 -26.9179 0.0000
# 4 0.0000 0.0000 0.0000 10.6641 0.0000 -5.4476
# 5 -22.0715 -16.3616 -26.9179 0.0000 42.2794 0.0000
# 6 0.0000 0.0000 0.0000 -5.4476 0.0000 -4.2061
#
#
#
# Elastic Compliance Matrix: (Units=1/GPa)
#
#
# Indices 1 2 3 4 5 6 
#
# 1 0.008416 -0.000222 0.000644 0.000000 0.004717 0.000000
# 2 -0.000222 0.011219 -0.002611 0.000000 0.002563 0.000000
# 3 0.000644 -0.002611 0.020967 0.000000 0.012674 0.000000
# 4 0.000000 0.000000 0.000000 0.056435 0.000000 -0.073092
# 5 0.004717 0.002563 0.012674 0.000000 0.035176 0.000000
# 6 0.000000 0.000000 0.000000 -0.073092 0.000000 -0.143085
#
#
# Mechanical properties :
#
#
# Convention : Reuss Voigt Hill
#
# Bulk Modulus (GPa) = 27.60707 42.23637 34.92172
# Shear Modulus (GPa) = 895.94173 26.59219 461.26696
#
# Velocity S-wave (km/s) = 19.85828 3.42120 14.24879
# Velocity P-wave (km/s) = 23.19381 5.84779 16.91374
#
# Compressibility (1/GPa) = 0.03622260
#
# Stress axis : x y z
#
# Youngs Moduli (GPa) = 118.82336 89.13444 47.69488
#
# Poissons Ratio (x) = 0.01982 -0.03072
# Poissons Ratio (y) = 0.02642 0.12454
# Poissons Ratio (z) = -0.07652 0.23274
#
# Static dielectric constant tensor:
#      x y z
#    x 1.883850 0.000000 0.104320 
#    y 0.000000 1.897280 0.000000 
#    z 0.104320 0.000000 1.972720 
# 
# From -- ./inp_files/10243.got.cif
#   From: 2010.05.17/outbox.cif.g08.bks.cpg/sg11_6_cif.got.tgz:10243.got - 2010.06.03 12:22:45.
