data_PCOD9156781
_publ_section_title
;
Structure prediction by ZEFSAII (Michael W. Deem and Ramdas Pophale) SiO2 
 PCOD9156781
Probable space group: P 21/M
;
_chemical_formula_sum "Si O2"
_cell_formula_units_Z 28
_cell_length_a 19.648541
_cell_length_b 8.690038
_cell_length_c 15.285558
_cell_angle_alpha 90.000000
_cell_angle_beta 142.504066
_cell_angle_gamma 90.000000
_cell_volume 1588.693944
_symmetry_space_group_name_H-M "P 21/M"
_symmetry_group_IT_number 11
_symmetry_cell_setting 'monoclinic'
loop_
_space_group_symop_operation_xyz
x,y,z
-x,1/2+y,-z
-x,-y,-z
x,1/2-y,z
loop_
_atom_site_type_symbol
_atom_site_label
_atom_site_fract_x
_atom_site_fract_y
_atom_site_fract_z
Si Si1 0.906422 0.065179 0.592498
Si Si2 0.469380 0.434330 0.562413
Si Si3 0.433790 0.932708 0.807180
Si Si4 0.755913 0.934443 0.281427
Si Si5 0.164326 0.064848 0.831353
Si Si6 0.618259 0.066316 0.880211
Si Si7 0.280290 0.065131 0.494276
O O1 0.896614 0.250000 0.582943
O O2 0.036360 0.022553 0.719396
O O3 0.840770 0.001236 0.440692
O O4 0.843183 0.995830 0.612332
O O5 0.500000 0.500000 0.500000
O O6 0.475622 0.250000 0.564233
O O7 0.555026 0.483736 0.726811
O O8 0.344820 0.473397 0.470600
O O9 0.436678 0.750000 0.819052
O O10 0.368470 0.005335 0.822550
O O11 0.553124 0.994029 0.896757
O O12 0.354622 0.985625 0.645591
O O13 0.754843 0.750000 0.287168
O O14 0.800789 0.978856 0.231949
O O15 0.173786 0.250000 0.847705
O O16 0.254501 0.987347 0.986297
O O17 0.608872 0.250000 0.876752
O O18 0.284531 0.250000 0.510504
#
# Coordination Sequence:
#
# PCOD9156781 Si02
#       7
#     4   4   4   4   4   4   4
#     4  10  19  32  50  73 100 132 174 213 245 286
#     4   9  19  34  55  82 104 123 152 194 243 298
#     4  10  18  30  49  71  97 130 167 207 251 294
#     4  10  19  32  49  70  98 132 173 216 252 287
#     4  10  22  35  48  70 100 135 173 211 249 290
#     4  10  21  36  52  73 101 131 164 200 247 304
#     4   9  17  31  50  75 103 129 162 200 242 291
#
# _framework density 17.624538999999999
#
# number of rings (size 3 to 8) (size 9 to 14) (size 15 to 20)
#    0.000    2.286    0.000    6.000    0.000    6.286 
#    0.000    0.000    0.000    0.857    0.000    0.000 
#    0.000    0.000    0.000    0.000    0.000    0.000 
#
# Total GULP energy -156198.114572 kJ/mol
# GULP energy per Si atom -5578.504092 kJ/mol
# Density = 1.758443 g / cm^3
# Si number density = 17.624539 Si / 1000 Ang^3
#
#
#
# Elastic Constant Matrix: (Units=GPa)
#
#
# Indices 1 2 3 4 5 6 
#
# 1 154.6519 39.3192 64.9306 0.0000 5.1543 0.0000
# 2 39.3192 50.4293 28.4628 0.0000 2.7248 0.0000
# 3 64.9306 28.4628 80.1238 0.0000 16.4313 0.0000
# 4 0.0000 0.0000 0.0000 24.0313 0.0000 5.0183
# 5 5.1543 2.7248 16.4313 0.0000 24.2865 0.0000
# 6 0.0000 0.0000 0.0000 5.0183 0.0000 29.1984
#
#
#
# Elastic Compliance Matrix: (Units=1/GPa)
#
#
# Indices 1 2 3 4 5 6 
#
# 1 0.010733 -0.004050 -0.007994 0.000000 0.003585 0.000000
# 2 -0.004050 0.026619 -0.006662 0.000000 0.002380 0.000000
# 3 -0.007994 -0.006662 0.024179 0.000000 -0.013915 0.000000
# 4 0.000000 0.000000 0.000000 0.043161 0.000000 -0.007418
# 5 0.003585 0.002380 -0.013915 0.000000 0.049561 0.000000
# 6 0.000000 0.000000 0.000000 -0.007418 0.000000 0.035523
#
#
# Mechanical properties :
#
#
# Convention : Reuss Voigt Hill
#
# Bulk Modulus (GPa) = 41.46210 61.18113 51.32162
# Shear Modulus (GPa) = 21.25594 25.66940 23.46267
#
# Velocity S-wave (km/s) = 3.47658 3.82050 3.65259
# Velocity P-wave (km/s) = 6.30014 7.36550 6.85355
#
# Compressibility (1/GPa) = 0.02411841
#
# Stress axis : x y z
#
# Youngs Moduli (GPa) = 93.17412 37.56710 41.35818
#
# Poissons Ratio (x) = 0.15214 0.33062
# Poissons Ratio (y) = 0.37735 0.27554
# Poissons Ratio (z) = 0.74483 0.25028
#
# Static dielectric constant tensor:
#      x y z
#    x 1.623600 0.000000 0.021080 
#    y 0.000000 1.590560 0.000000 
#    z 0.021080 0.000000 1.618350 
# 
# From -- ./inp_files/53268.got.cif
#   From: 2010.05.17/outbox.cif.g08.bks.cpg/sg11_27_cif.got.tgz:53268.got - 2010.06.03 12:22:45.
