data_PCOD9156458
_publ_section_title
;
Structure prediction by ZEFSAII (Michael W. Deem and Ramdas Pophale) SiO2 
 PCOD9156458
Probable space group: P 21/M
;
_chemical_formula_sum "Si O2"
_cell_formula_units_Z 24
_cell_length_a 20.936904
_cell_length_b 8.880198
_cell_length_c 12.246312
_cell_angle_alpha 90.000000
_cell_angle_beta 39.024462
_cell_angle_gamma 90.000000
_cell_volume 1433.643295
_symmetry_space_group_name_H-M "P 21/M"
_symmetry_group_IT_number 11
_symmetry_cell_setting 'monoclinic'
loop_
_space_group_symop_operation_xyz
x,y,z
-x,1/2+y,-z
-x,-y,-z
x,1/2-y,z
loop_
_atom_site_type_symbol
_atom_site_label
_atom_site_fract_x
_atom_site_fract_y
_atom_site_fract_z
Si Si1 0.110769 0.430760 0.848954
Si Si2 0.722313 0.931809 0.194285
Si Si3 0.417011 0.575183 0.448848
Si Si4 0.608599 0.428594 0.890651
Si Si5 0.277674 0.429375 0.455258
Si Si6 0.646868 0.574902 0.070671
O O1 0.103424 0.250000 0.857850
O O2 0.179682 0.471648 0.862849
O O3 0.175107 0.474596 0.655476
O O4 0.000000 0.500000 0.000000
O O5 0.708322 0.750000 0.220076
O O6 0.724481 0.970810 0.063435
O O7 0.628768 0.013215 0.378292
O O8 0.386866 0.750000 0.474153
O O9 0.366101 0.474480 0.422601
O O10 0.536958 0.567749 0.274797
O O11 0.598608 0.250000 0.896013
O O12 0.693631 0.487852 0.693878
O O13 0.500000 0.500000 0.000000
O O14 0.638926 0.478772 0.971984
O O15 0.276978 0.250000 0.439772
O O16 0.664880 0.750000 0.016629
#
# Coordination Sequence:
#
# PCOD9156458 Si02
#       6
#     4   4   4   4   4   4
#     4   9  19  35  57  81 103 131 167 215 270 313
#     4   9  19  34  50  72 104 138 172 212 262 313
#     4  10  18  28  47  74 103 137 174 210 252 303
#     4  12  23  34  51  75 106 144 181 214 250 300
#     4  10  20  35  53  75 105 139 176 217 259 305
#     4  10  20  33  49  71 104 143 177 210 253 305
#
# _framework density 16.740566999999999
#
# number of rings (size 3 to 8) (size 9 to 14) (size 15 to 20)
#    0.000    2.000    1.667    4.000    0.000    4.667 
#    0.000    0.000    0.000    1.000    0.000    0.000 
#    0.000    0.000    0.000    0.000    0.000    0.000 
#
# Total GULP energy -133862.692531 kJ/mol
# GULP energy per Si atom -5577.612189 kJ/mol
# Density = 1.670247 g / cm^3
# Si number density = 16.740567 Si / 1000 Ang^3
#
#
#
# Elastic Constant Matrix: (Units=GPa)
#
#
# Indices 1 2 3 4 5 6 
#
# 1 90.6934 46.6611 71.0182 0.0000 19.1831 0.0000
# 2 46.6611 72.6793 49.6202 0.0000 11.4975 0.0000
# 3 71.0182 49.6202 98.0794 0.0000 7.3261 0.0000
# 4 0.0000 0.0000 0.0000 29.5811 0.0000 2.2642
# 5 19.1831 11.4975 7.3261 0.0000 27.3032 0.0000
# 6 0.0000 0.0000 0.0000 2.2642 0.0000 21.4483
#
#
#
# Elastic Compliance Matrix: (Units=1/GPa)
#
#
# Indices 1 2 3 4 5 6 
#
# 1 0.032172 -0.004751 -0.019748 0.000000 -0.015304 0.000000
# 2 -0.004751 0.022773 -0.007770 0.000000 -0.004167 0.000000
# 3 -0.019748 -0.007770 0.027701 0.000000 0.009714 0.000000
# 4 0.000000 0.000000 0.000000 0.034081 0.000000 -0.003598
# 5 -0.015304 -0.004167 0.009714 0.000000 0.046527 0.000000
# 6 0.000000 0.000000 0.000000 -0.003598 0.000000 0.047004
#
#
# Mechanical properties :
#
#
# Convention : Reuss Voigt Hill
#
# Bulk Modulus (GPa) = 55.22726 66.22788 60.72757
# Shear Modulus (GPa) = 17.80428 21.94336 19.87382
#
# Velocity S-wave (km/s) = 3.26474 3.62441 3.44926
# Velocity P-wave (km/s) = 6.87554 7.56058 7.22618
#
# Compressibility (1/GPa) = 0.01810700
#
# Stress axis : x y z
#
# Youngs Moduli (GPa) = 31.08325 43.91113 36.09986
#
# Poissons Ratio (x) = 0.20861 0.71292
# Poissons Ratio (y) = 0.14767 0.28050
# Poissons Ratio (z) = 0.61385 0.34120
#
# Static dielectric constant tensor:
#      x y z
#    x 1.581030 0.000000 0.020200 
#    y 0.000000 1.570580 0.000000 
#    z 0.020200 0.000000 1.563370 
# 
# From -- ./inp_files/36974.got.cif
#   From: 2010.05.17/outbox.cif.g08.bks.cpg/sg11_19_cif.got.tgz:36974.got - 2010.06.03 12:22:45.
