data_PCOD9156744
_publ_section_title
;
Structure prediction by ZEFSAII (Michael W. Deem and Ramdas Pophale) SiO2 
 PCOD9156744
Probable space group: P 21/M
;
_chemical_formula_sum "Si O2"
_cell_formula_units_Z 32
_cell_length_a 28.422118
_cell_length_b 8.466602
_cell_length_c 20.113223
_cell_angle_alpha 90.000000
_cell_angle_beta 158.349345
_cell_angle_gamma 90.000000
_cell_volume 1785.708449
_symmetry_space_group_name_H-M "P 21/M"
_symmetry_group_IT_number 11
_symmetry_cell_setting 'monoclinic'
loop_
_space_group_symop_operation_xyz
x,y,z
-x,1/2+y,-z
-x,-y,-z
x,1/2-y,z
loop_
_atom_site_type_symbol
_atom_site_label
_atom_site_fract_x
_atom_site_fract_y
_atom_site_fract_z
Si Si1 0.425301 0.557631 0.709791
Si Si2 0.617161 0.939230 0.851000
Si Si3 0.850537 0.060898 0.443386
Si Si4 0.842269 0.057550 0.588436
Si Si5 0.120400 0.436927 0.957671
Si Si6 0.611014 0.436628 0.692703
Si Si7 0.116342 0.563052 0.802595
Si Si8 0.583572 0.939623 0.047908
O O1 0.420560 0.750000 0.702892
O O2 0.497298 0.507997 0.737684
O O3 0.281208 0.502227 0.533637
O O4 0.511913 0.511937 0.886451
O O5 0.627903 0.750000 0.868506
O O6 0.601810 0.989085 0.754247
O O7 0.749211 0.012437 0.052096
O O8 0.860703 0.250000 0.454951
O O9 0.831027 0.012356 0.495671
O O10 0.984075 0.986534 0.594924
O O11 0.726062 0.005583 0.240969
O O12 0.843103 0.250000 0.589917
O O13 0.980681 0.007295 0.797554
O O14 0.132452 0.250000 0.984362
O O15 0.115563 0.470886 0.872085
O O16 0.248447 0.519773 0.150399
O O17 0.500000 0.500000 0.500000
O O18 0.601641 0.250000 0.686896
O O19 0.882802 0.250000 0.183986
O O20 0.587588 0.750000 0.055309
O O21 0.500000 0.000000 0.000000
#
# Coordination Sequence:
#
# PCOD9156744 Si02
#       8
#     4   4   4   4   4   4   4   4
#     4   9  18  32  51  74 103 139 175 211 254 308
#     4  10  19  34  55  77 103 137 174 206 250 308
#     4  10  18  31  50  71  98 130 174 224 269 309
#     4   8  14  27  48  73 100 132 168 209 252 295
#     4   9  16  28  50  78 106 133 167 205 250 301
#     4  11  21  35  56  81 109 133 164 207 253 301
#     4  10  18  30  48  71 100 131 169 215 263 308
#     4  11  20  32  49  73 103 136 176 220 265 307
#
# _framework density 17.920058999999998
#
# number of rings (size 3 to 8) (size 9 to 14) (size 15 to 20)
#    0.000    2.250    1.250    6.000    0.000    0.000 
#    0.000    3.125    0.000    0.750    0.000    0.000 
#    0.000    0.000    0.000    0.000    0.000    0.000 
#
# Total GULP energy -178416.857726 kJ/mol
# GULP energy per Si atom -5575.526804 kJ/mol
# Density = 1.787927 g / cm^3
# Si number density = 17.920059 Si / 1000 Ang^3
#
#
#
# Elastic Constant Matrix: (Units=GPa)
#
#
# Indices 1 2 3 4 5 6 
#
# 1 69.7551 13.1814 51.5947 0.0000 23.8465 0.0000
# 2 13.1814 35.5441 13.5871 0.0000 2.4668 0.0000
# 3 51.5947 13.5871 153.4157 0.0000 27.7291 0.0000
# 4 0.0000 0.0000 0.0000 30.8678 0.0000 1.4262
# 5 23.8465 2.4668 27.7291 0.0000 26.4309 0.0000
# 6 0.0000 0.0000 0.0000 1.4262 0.0000 7.6047
#
#
#
# Elastic Compliance Matrix: (Units=1/GPa)
#
#
# Indices 1 2 3 4 5 6 
#
# 1 0.024751 -0.006202 -0.004742 0.000000 -0.016776 0.000000
# 2 -0.006202 0.030674 -0.001388 0.000000 0.004189 0.000000
# 3 -0.004742 -0.001388 0.009180 0.000000 -0.005223 0.000000
# 4 0.000000 0.000000 0.000000 0.032679 0.000000 -0.006129
# 5 -0.016776 0.004189 -0.005223 0.000000 0.058059 0.000000
# 6 0.000000 0.000000 0.000000 -0.006129 0.000000 0.132646
#
#
# Mechanical properties :
#
#
# Convention : Reuss Voigt Hill
#
# Bulk Modulus (GPa) = 25.03715 46.16015 35.59865
# Shear Modulus (GPa) = 15.33901 25.00415 20.17158
#
# Velocity S-wave (km/s) = 2.92887 3.73945 3.35870
# Velocity P-wave (km/s) = 5.04377 6.66779 5.91181
#
# Compressibility (1/GPa) = 0.03994065
#
# Stress axis : x y z
#
# Youngs Moduli (GPa) = 40.40300 32.60111 108.93213
#
# Poissons Ratio (x) = 0.20218 0.51659
# Poissons Ratio (y) = 0.25056 0.15120
# Poissons Ratio (z) = 0.19160 0.04525
#
# Static dielectric constant tensor:
#      x y z
#    x 1.570750 0.000000 0.049620 
#    y 0.000000 1.603870 0.000000 
#    z 0.049620 0.000000 1.636320 
# 
# From -- ./inp_files/67438.got.cif
#   From: 2010.05.17/outbox.cif.g08.bks.cpg/sg11_34_cif.got.tgz:67438.got - 2010.06.03 12:22:45.
