data_PCOD9156629
_publ_section_title
;
Structure prediction by ZEFSAII (Michael W. Deem and Ramdas Pophale) SiO2 
 PCOD9156629
Probable space group: P 21/M
;
_chemical_formula_sum "Si O2"
_cell_formula_units_Z 28
_cell_length_a 13.981626
_cell_length_b 7.835710
_cell_length_c 12.387592
_cell_angle_alpha 90.000000
_cell_angle_beta 123.755115
_cell_angle_gamma 90.000000
_cell_volume 1128.348878
_symmetry_space_group_name_H-M "P 21/M"
_symmetry_group_IT_number 11
_symmetry_cell_setting 'monoclinic'
loop_
_space_group_symop_operation_xyz
x,y,z
-x,1/2+y,-z
-x,-y,-z
x,1/2-y,z
loop_
_atom_site_type_symbol
_atom_site_label
_atom_site_fract_x
_atom_site_fract_y
_atom_site_fract_z
Si Si1 0.824406 0.943412 0.375001
Si Si2 0.090993 0.460372 0.787315
Si Si3 0.283001 0.048483 0.470333
Si Si4 0.594537 0.059312 0.143566
Si Si5 0.523803 0.942739 0.696895
Si Si6 0.115199 0.553457 0.190307
Si Si7 0.242245 0.051135 0.071687
O O1 0.861337 0.750000 0.419325
O O2 0.908415 0.020812 0.336668
O O3 0.784382 0.020586 0.464376
O O4 0.704758 0.942083 0.231765
O O5 0.090339 0.250000 0.783387
O O6 0.981662 0.515062 0.789095
O O7 0.198948 0.515902 0.929586
O O8 0.261062 0.250000 0.450337
O O9 0.420013 0.024328 0.565152
O O10 0.230285 0.960401 0.333808
O O11 0.635097 0.250000 0.142346
O O12 0.531312 0.066608 0.218602
O O13 0.500000 0.000000 0.000000
O O14 0.542857 0.750000 0.666094
O O15 0.646446 0.027695 0.800220
O O16 0.089787 0.750000 0.150122
O O17 0.138821 0.460558 0.092747
O O18 0.271256 0.250000 0.072050
#
# Coordination Sequence:
#
# PCOD9156629 Si02
#       7
#     4   4   4   4   4   4   4
#     4   9  18  35  57  80 108 142 181 225 274 328
#     4   9  19  37  60  84 111 146 183 224 279 333
#     4  10  21  37  58  84 113 145 183 227 274 326
#     4  10  18  29  48  77 111 145 180 219 270 329
#     4   9  19  35  56  80 108 144 182 224 275 331
#     4  11  23  38  57  80 111 150 189 229 272 324
#     4  10  20  37  60  83 109 143 185 230 277 326
#
# _framework density 24.815017999999998
#
# number of rings (size 3 to 8) (size 9 to 14) (size 15 to 20)
#    0.000    2.286    0.000    2.571    0.000    5.143 
#    0.000    4.286    0.000    0.000    0.000    0.000 
#    0.000    0.000    0.000    0.000    0.000    0.000 
#
# Total GULP energy -156381.720712 kJ/mol
# GULP energy per Si atom -5585.061454 kJ/mol
# Density = 2.475854 g / cm^3
# Si number density = 24.815018 Si / 1000 Ang^3
#
#
#
# Elastic Constant Matrix: (Units=GPa)
#
#
# Indices 1 2 3 4 5 6 
#
# 1 80.1203 1.7870 14.3390 0.0000 -13.5390 0.0000
# 2 1.7870 55.8574 5.6239 0.0000 3.9531 0.0000
# 3 14.3390 5.6239 96.4326 0.0000 -11.7248 0.0000
# 4 0.0000 0.0000 0.0000 6.1864 0.0000 -0.2955
# 5 -13.5390 3.9531 -11.7248 0.0000 41.3118 0.0000
# 6 0.0000 0.0000 0.0000 -0.2955 0.0000 21.4719
#
#
#
# Elastic Compliance Matrix: (Units=1/GPa)
#
#
# Indices 1 2 3 4 5 6 
#
# 1 0.013441 -0.000568 -0.001474 0.000000 0.004041 0.000000
# 2 -0.000568 0.018209 -0.001255 0.000000 -0.002285 0.000000
# 3 -0.001474 -0.001255 0.010998 0.000000 0.002758 0.000000
# 4 0.000000 0.000000 0.000000 0.161751 0.000000 0.002226
# 5 0.004041 -0.002285 0.002758 0.000000 0.026532 0.000000
# 6 0.000000 0.000000 0.000000 0.002226 0.000000 0.046603
#
#
# Mechanical properties :
#
#
# Convention : Reuss Voigt Hill
#
# Bulk Modulus (GPa) = 27.73680 30.65668 29.19674
# Shear Modulus (GPa) = 16.88362 27.83804 22.36083
#
# Velocity S-wave (km/s) = 2.61124 3.35300 3.00509
# Velocity P-wave (km/s) = 4.50479 5.23173 4.88181
#
# Compressibility (1/GPa) = 0.03605318
#
# Stress axis : x y z
#
# Youngs Moduli (GPa) = 74.40184 54.91800 90.92799
#
# Poissons Ratio (x) = 0.03117 0.13404
# Poissons Ratio (y) = 0.04223 0.11415
# Poissons Ratio (z) = 0.10968 0.06894
#
# Static dielectric constant tensor:
#      x y z
#    x 2.049780 0.000000 0.039340 
#    y 0.000000 1.929930 0.000000 
#    z 0.039340 0.000000 1.980040 
# 
# From -- ./inp_files/37910.got.cif
#   From: 2010.05.17/outbox.cif.g08.bks.cpg/sg11_19_cif.got.tgz:37910.got - 2010.06.03 12:22:45.
