data_PCOD9156296
_publ_section_title
;
Structure prediction by ZEFSAII (Michael W. Deem and Ramdas Pophale) SiO2 
 PCOD9156296
Probable space group: P 21/M
;
_chemical_formula_sum "Si O2"
_cell_formula_units_Z 24
_cell_length_a 19.158914
_cell_length_b 7.844937
_cell_length_c 10.605571
_cell_angle_alpha 90.000000
_cell_angle_beta 145.117738
_cell_angle_gamma 90.000000
_cell_volume 911.608526
_symmetry_space_group_name_H-M "P 21/M"
_symmetry_group_IT_number 11
_symmetry_cell_setting 'monoclinic'
loop_
_space_group_symop_operation_xyz
x,y,z
-x,1/2+y,-z
-x,-y,-z
x,1/2-y,z
loop_
_atom_site_type_symbol
_atom_site_label
_atom_site_fract_x
_atom_site_fract_y
_atom_site_fract_z
Si Si1 0.588576 0.954912 0.747717
Si Si2 0.049852 0.558070 0.217280
Si Si3 0.117809 0.563378 0.604504
Si Si4 0.774157 0.540543 0.823780
Si Si5 0.622686 0.945195 0.070134
Si Si6 0.683614 0.553963 0.436475
O O1 0.589210 0.750000 0.760970
O O2 0.719529 0.007363 0.879176
O O3 0.500000 0.000000 0.500000
O O4 0.562762 0.021721 0.852836
O O5 0.056667 0.750000 0.172316
O O6 0.066557 0.580153 0.389232
O O7 0.168888 0.448995 0.362666
O O8 0.913192 0.487132 0.001663
O O9 0.158395 0.750000 0.709475
O O10 0.236471 0.447713 0.766958
O O11 0.000000 0.500000 0.500000
O O12 0.773614 0.750000 0.819129
O O13 0.684870 0.475741 0.579039
O O14 0.583482 0.750000 0.025355
O O15 0.627424 0.020447 0.221458
O O16 0.645409 0.750000 0.384317
#
# Coordination Sequence:
#
# PCOD9156296 Si02
#       6
#     4   4   4   4   4   4
#     4  10  21  38  56  72  94 126 165 210 257 300
#     4   9  17  29  46  71 103 135 162 192 235 285
#     4  10  18  27  43  69 101 135 169 201 237 286
#     4   9  17  31  51  72  98 133 166 196 238 291
#     4   9  18  33  51  70  96 127 159 201 250 295
#     4   9  17  30  50  76 102 130 163 194 231 287
#
# _framework density 26.327089000000001
#
# number of rings (size 3 to 8) (size 9 to 14) (size 15 to 20)
#    0.000    2.667    0.000    2.000    0.000    4.000 
#    0.000    2.500    0.000    0.000    0.000    0.000 
#    0.000    0.000    0.000    0.000    0.000    0.000 
#
# Total GULP energy -133809.025146 kJ/mol
# GULP energy per Si atom -5575.376048 kJ/mol
# Density = 2.626717 g / cm^3
# Si number density = 26.327089 Si / 1000 Ang^3
#
#
#
# Elastic Constant Matrix: (Units=GPa)
#
#
# Indices 1 2 3 4 5 6 
#
# 1 96.7430 48.2590 25.8445 0.0000 -44.3539 0.0000
# 2 48.2590 72.6847 18.3375 0.0000 7.8469 0.0000
# 3 25.8445 18.3375 161.1516 0.0000 -15.9962 0.0000
# 4 0.0000 0.0000 0.0000 21.6993 0.0000 -12.9925
# 5 -44.3539 7.8469 -15.9962 0.0000 57.4046 0.0000
# 6 0.0000 0.0000 0.0000 -12.9925 0.0000 -25.1506
#
#
#
# Elastic Compliance Matrix: (Units=1/GPa)
#
#
# Indices 1 2 3 4 5 6 
#
# 1 0.047086 -0.035904 0.000651 0.000000 0.041471 0.000000
# 2 -0.035904 0.041886 -0.002396 0.000000 -0.034135 0.000000
# 3 0.000651 -0.002396 0.006640 0.000000 0.002680 0.000000
# 4 0.000000 0.000000 0.000000 0.035198 0.000000 -0.018183
# 5 0.041471 -0.034135 0.002680 0.000000 0.054876 0.000000
# 6 0.000000 0.000000 0.000000 -0.018183 0.000000 -0.030368
#
#
# Mechanical properties :
#
#
# Convention : Reuss Voigt Hill
#
# Bulk Modulus (GPa) = 49.23123 57.27348 53.25236
# Shear Modulus (GPa) = 21.06251 26.66653 23.86452
#
# Velocity S-wave (km/s) = 2.83155 3.18605 3.01402
# Velocity P-wave (km/s) = 5.42501 5.94444 5.69065
#
# Compressibility (1/GPa) = 0.02031231
#
# Stress axis : x y z
#
# Youngs Moduli (GPa) = 21.23764 23.87413 150.60771
#
# Poissons Ratio (x) = 0.85718 -0.09798
# Poissons Ratio (y) = 0.76252 0.36093
# Poissons Ratio (z) = -0.01382 0.05721
#
# Static dielectric constant tensor:
#      x y z
#    x 2.111730 0.000000 0.035010 
#    y 0.000000 1.942500 0.000000 
#    z 0.035010 0.000000 2.178280 
# 
# From -- ./inp_files/41370.got.cif
#   From: 2010.05.17/outbox.cif.g08.bks.cpg/sg11_21_cif.got.tgz:41370.got - 2010.06.03 12:22:45.
