data_PCOD9156187
_publ_section_title
;
Structure prediction by ZEFSAII (Michael W. Deem and Ramdas Pophale) SiO2 
 PCOD9156187
Probable space group: P 21/M
;
_chemical_formula_sum "Si O2"
_cell_formula_units_Z 32
_cell_length_a 9.184206
_cell_length_b 15.619161
_cell_length_c 12.597941
_cell_angle_alpha 90.000000
_cell_angle_beta 102.759894
_cell_angle_gamma 90.000000
_cell_volume 1762.539994
_symmetry_space_group_name_H-M "P 21/M"
_symmetry_group_IT_number 11
_symmetry_cell_setting 'monoclinic'
loop_
_space_group_symop_operation_xyz
x,y,z
-x,1/2+y,-z
-x,-y,-z
x,1/2-y,z
loop_
_atom_site_type_symbol
_atom_site_label
_atom_site_fract_x
_atom_site_fract_y
_atom_site_fract_z
Si Si1 0.665192 0.655335 0.018746
Si Si2 0.826131 0.014051 0.990599
Si Si3 0.655320 0.345214 0.366746
Si Si4 0.391744 0.441885 0.409770
Si Si5 0.313362 0.153574 0.726111
Si Si6 0.592004 0.448132 0.793808
Si Si7 0.171906 0.480888 0.546985
Si Si8 0.379123 0.587355 0.870893
O O1 0.698658 0.750000 0.983038
O O2 0.704810 0.652847 0.149483
O O3 0.754505 0.580649 0.975774
O O4 0.490578 0.635658 0.969412
O O5 0.738496 0.068078 0.886633
O O6 0.767992 0.055403 0.091703
O O7 0.000000 0.000000 0.000000
O O8 0.708682 0.250000 0.402360
O O9 0.489990 0.361171 0.388960
O O10 0.751237 0.426232 0.422386
O O11 0.648931 0.357242 0.238354
O O12 0.500000 0.500000 0.500000
O O13 0.361488 0.495217 0.298810
O O14 0.245744 0.433469 0.457492
O O15 0.281526 0.250000 0.683025
O O16 0.488162 0.129232 0.737617
O O17 0.215528 0.081081 0.652238
O O18 0.475136 0.505572 0.844606
O O19 0.000000 0.500000 0.500000
#
# Coordination Sequence:
#
# PCOD9156187 Si02
#       8
#     4   4   4   4   4   4   4   4
#     4  10  19  34  57  85 114 148 197 243 281 345
#     4  11  21  33  56  86 122 160 184 230 303 361
#     4  10  20  36  61  86 113 151 204 245 287 350
#     4   9  18  35  57  80 109 146 193 245 292 331
#     4  11  20  35  62  87 109 151 202 244 285 346
#     4  10  17  36  57  80 109 148 202 235 274 340
#     4  11  23  40  58  84 123 155 190 248 311 357
#     4  10  17  35  59  81 112 154 194 231 289 344
#
# _framework density 18.155615000000001
#
# number of rings (size 3 to 8) (size 9 to 14) (size 15 to 20)
#    0.000    1.750    6.250    1.125    0.000    3.000 
#    0.000    1.875    0.000    0.000    0.000    0.000 
#    0.000    0.000    0.000    0.000    0.000    0.000 
#
# Total GULP energy -178260.151719 kJ/mol
# GULP energy per Si atom -5570.629741 kJ/mol
# Density = 1.811429 g / cm^3
# Si number density = 18.155615 Si / 1000 Ang^3
#
#
#
# Elastic Constant Matrix: (Units=GPa)
#
#
# Indices 1 2 3 4 5 6 
#
# 1 124.9806 27.5502 37.0216 0.0000 3.1685 0.0000
# 2 27.5502 109.5441 14.7031 0.0000 6.8350 0.0000
# 3 37.0216 14.7031 79.7864 0.0000 -2.0774 0.0000
# 4 0.0000 0.0000 0.0000 10.1839 0.0000 -1.5947
# 5 3.1685 6.8350 -2.0774 0.0000 19.0987 0.0000
# 6 0.0000 0.0000 0.0000 -1.5947 0.0000 9.8853
#
#
#
# Elastic Compliance Matrix: (Units=1/GPa)
#
#
# Indices 1 2 3 4 5 6 
#
# 1 0.009673 -0.001781 -0.004197 0.000000 -0.001424 0.000000
# 2 -0.001781 0.009934 -0.001092 0.000000 -0.003379 0.000000
# 3 -0.004197 -0.001092 0.014753 0.000000 0.002692 0.000000
# 4 0.000000 0.000000 0.000000 0.100738 0.000000 0.016251
# 5 -0.001424 -0.003379 0.002692 0.000000 0.054098 0.000000
# 6 0.000000 0.000000 0.000000 0.016251 0.000000 0.103782
#
#
# Mechanical properties :
#
#
# Convention : Reuss Voigt Hill
#
# Bulk Modulus (GPa) = 49.45862 52.54010 50.99936
# Shear Modulus (GPa) = 15.93077 23.50267 19.71672
#
# Velocity S-wave (km/s) = 2.96540 3.60184 3.29900
# Velocity P-wave (km/s) = 6.24704 6.80435 6.53164
#
# Compressibility (1/GPa) = 0.02021892
#
# Stress axis : x y z
#
# Youngs Moduli (GPa) = 103.37841 100.66458 67.78511
#
# Poissons Ratio (x) = 0.17924 0.28452
# Poissons Ratio (y) = 0.18407 0.07405
# Poissons Ratio (z) = 0.43392 0.10997
#
# Static dielectric constant tensor:
#      x y z
#    x 1.640000 0.000000 -0.004300 
#    y 0.000000 1.647170 0.000000 
#    z -0.004300 0.000000 1.671130 
# 
# From -- ./inp_files/31907.got.cif
#   From: 2010.05.17/outbox.cif.g08.bks.cpg/sg11_16_cif.got.tgz:31907.got - 2010.06.03 12:22:45.
