data_PCOD9156165
_publ_section_title
;
Structure prediction by ZEFSAII (Michael W. Deem and Ramdas Pophale) SiO2 
 PCOD9156165
Probable space group: P 21/M
;
_chemical_formula_sum "Si O2"
_cell_formula_units_Z 32
_cell_length_a 12.079447
_cell_length_b 16.160620
_cell_length_c 8.904367
_cell_angle_alpha 90.000000
_cell_angle_beta 90.459842
_cell_angle_gamma 90.000000
_cell_volume 1738.177546
_symmetry_space_group_name_H-M "P 21/M"
_symmetry_group_IT_number 11
_symmetry_cell_setting 'monoclinic'
loop_
_space_group_symop_operation_xyz
x,y,z
-x,1/2+y,-z
-x,-y,-z
x,1/2-y,z
loop_
_atom_site_type_symbol
_atom_site_label
_atom_site_fract_x
_atom_site_fract_y
_atom_site_fract_z
Si Si1 0.514979 0.081077 0.345787
Si Si2 0.346352 0.049020 0.850619
Si Si3 0.509017 0.339112 0.040742
Si Si4 0.955783 0.052342 0.860478
Si Si5 0.847485 0.849752 0.309715
Si Si6 0.662702 0.447855 0.593400
Si Si7 0.883753 0.971059 0.564717
Si Si8 0.725803 0.092188 0.931262
O O1 0.489330 0.145752 0.216288
O O2 0.586378 0.109609 0.488889
O O3 0.592783 0.011974 0.265502
O O4 0.404836 0.034077 0.396379
O O5 0.263206 0.111656 0.767209
O O6 0.443070 0.093728 0.944527
O O7 0.282593 0.992151 0.971344
O O8 0.468804 0.250000 0.992519
O O9 0.639975 0.348056 0.012843
O O10 0.854951 0.110593 0.914047
O O11 0.050291 0.106463 0.779175
O O12 0.901808 0.985707 0.742489
O O13 0.000000 0.000000 0.000000
O O14 0.850665 0.750000 0.303155
O O15 0.856042 0.885117 0.481081
O O16 0.782573 0.467039 0.525540
O O17 0.678825 0.417539 0.762511
O O18 0.000000 0.000000 0.500000
#
# Coordination Sequence:
#
# PCOD9156165 Si02
#       8
#     4   4   4   4   4   4   4   4
#     4  10  19  32  58  75 104 144 191 221 262 332
#     4  11  18  36  55  81 110 151 185 220 271 346
#     4  11  22  35  50  81 119 147 176 227 287 332
#     4  10  20  37  63  84 107 144 197 234 271 334
#     4  11  22  37  56  85 118 147 180 234 289 329
#     4  10  17  33  58  80  97 137 194 229 256 313
#     4   9  20  35  56  82 107 146 184 221 272 335
#     4  10  19  35  61  79 104 143 195 225 267 329
#
# _framework density 18.410086
#
# number of rings (size 3 to 8) (size 9 to 14) (size 15 to 20)
#    0.000    1.750    5.000    1.125    0.000    0.500 
#    0.000    1.875    0.000    7.500    0.000    0.000 
#    0.000    0.000    0.000    0.000    0.000    0.000 
#
# Total GULP energy -178245.998232 kJ/mol
# GULP energy per Si atom -5570.187445 kJ/mol
# Density = 1.836818 g / cm^3
# Si number density = 18.410086 Si / 1000 Ang^3
#
#
#
# Elastic Constant Matrix: (Units=GPa)
#
#
# Indices 1 2 3 4 5 6 
#
# 1 77.8659 -5.1388 2.1886 0.0000 -1.0666 0.0000
# 2 -5.1388 62.0768 10.3089 0.0000 7.4977 0.0000
# 3 2.1886 10.3089 66.6668 0.0000 14.5966 0.0000
# 4 0.0000 0.0000 0.0000 11.3912 0.0000 3.9234
# 5 -1.0666 7.4977 14.5966 0.0000 35.6841 0.0000
# 6 0.0000 0.0000 0.0000 3.9234 0.0000 11.6093
#
#
#
# Elastic Compliance Matrix: (Units=1/GPa)
#
#
# Indices 1 2 3 4 5 6 
#
# 1 0.012943 0.001135 -0.000695 0.000000 0.000433 0.000000
# 2 0.001135 0.016867 -0.002062 0.000000 -0.002667 0.000000
# 3 -0.000695 -0.002062 0.016752 0.000000 -0.006440 0.000000
# 4 0.000000 0.000000 0.000000 0.099352 0.000000 -0.033576
# 5 0.000433 -0.002667 -0.006440 0.000000 0.031231 0.000000
# 6 0.000000 0.000000 0.000000 -0.033576 0.000000 0.097485
#
#
# Mechanical properties :
#
#
# Convention : Reuss Voigt Hill
#
# Bulk Modulus (GPa) = 23.08525 24.59189 23.83857
# Shear Modulus (GPa) = 17.10494 25.02030 21.06262
#
# Velocity S-wave (km/s) = 3.05143 3.69053 3.38610
# Velocity P-wave (km/s) = 4.99817 5.61666 5.31642
#
# Compressibility (1/GPa) = 0.04331770
#
# Stress axis : x y z
#
# Youngs Moduli (GPa) = 77.26224 59.28568 59.69594
#
# Poissons Ratio (x) = -0.06726 0.04150
# Poissons Ratio (y) = -0.08766 0.12307
# Poissons Ratio (z) = 0.05371 0.12222
#
# Static dielectric constant tensor:
#      x y z
#    x 1.655890 0.000000 -0.008020 
#    y 0.000000 1.633190 0.000000 
#    z -0.008020 0.000000 1.672360 
# 
# From -- ./inp_files/18063.got.cif
#   From: 2010.05.17/outbox.cif.g08.bks.cpg/sg11_10_cif.got.tgz:18063.got - 2010.06.03 12:22:45.
