data_PCOD9156846
_publ_section_title
;
Structure prediction by ZEFSAII (Michael W. Deem and Ramdas Pophale) SiO2 
 PCOD9156846
Probable space group: P 21/M
;
_chemical_formula_sum "Si O2"
_cell_formula_units_Z 32
_cell_length_a 22.349001
_cell_length_b 8.454101
_cell_length_c 12.215532
_cell_angle_alpha 90.000000
_cell_angle_beta 50.686614
_cell_angle_gamma 90.000000
_cell_volume 1785.690376
_symmetry_space_group_name_H-M "P 21/M"
_symmetry_group_IT_number 11
_symmetry_cell_setting 'monoclinic'
loop_
_space_group_symop_operation_xyz
x,y,z
-x,1/2+y,-z
-x,-y,-z
x,1/2-y,z
loop_
_atom_site_type_symbol
_atom_site_label
_atom_site_fract_x
_atom_site_fract_y
_atom_site_fract_z
Si Si1 0.268330 0.061095 0.858194
Si Si2 0.767864 0.059545 0.627609
Si Si3 0.683867 0.059801 0.516545
Si Si4 0.081888 0.440053 0.677243
Si Si5 0.167914 0.063015 0.783927
Si Si6 0.216339 0.938149 0.145339
Si Si7 0.042913 0.061790 0.341200
Si Si8 0.582156 0.061964 0.443532
O O1 0.269278 0.250000 0.846720
O O2 0.193618 0.001086 0.873532
O O3 0.346845 0.996361 0.713801
O O4 0.260086 0.014062 0.993007
O O5 0.780395 0.250000 0.613938
O O6 0.695907 0.026235 0.630453
O O7 0.757909 0.006993 0.763676
O O8 0.844031 0.984193 0.484193
O O9 0.696131 0.250000 0.488108
O O10 0.606767 0.017361 0.539645
O O11 0.753649 0.969031 0.375667
O O12 0.073729 0.250000 0.687641
O O13 0.101549 0.498210 0.778336
O O14 0.008472 0.516922 0.704340
O O15 0.153674 0.250000 0.811017
O O16 0.225848 0.750000 0.128549
O O17 0.126344 0.982136 0.239285
O O18 0.051356 0.250000 0.338490
O O19 0.000000 0.000000 0.500000
O O20 0.579946 0.250000 0.440434
O O21 0.500000 0.000000 0.500000
#
# Coordination Sequence:
#
# PCOD9156846 Si02
#       8
#     4   4   4   4   4   4   4   4
#     4  10  20  36  55  77 107 139 173 210 255 310
#     4   9  17  30  49  72 100 133 171 213 258 303
#     4   8  15  28  48  75 102 130 165 207 251 301
#     4  10  18  30  50  74  99 128 170 220 266 307
#     4   8  16  30  49  72  98 130 167 212 258 304
#     4  11  22  35  52  75 104 138 175 215 261 311
#     4  12  23  35  50  72 102 136 176 220 265 309
#     4  10  19  33  56  84 111 136 167 206 253 305
#
# _framework density 17.92024
#
# number of rings (size 3 to 8) (size 9 to 14) (size 15 to 20)
#    0.000    2.250    1.250    2.625    0.000    2.000 
#    0.000    0.625    0.000    0.750    0.000    0.000 
#    0.000    0.000    0.000    0.000    0.000    0.000 
#
# Total GULP energy -178328.794792 kJ/mol
# GULP energy per Si atom -5572.774837 kJ/mol
# Density = 1.787945 g / cm^3
# Si number density = 17.920240 Si / 1000 Ang^3
#
#
#
# Elastic Constant Matrix: (Units=GPa)
#
#
# Indices 1 2 3 4 5 6 
#
# 1 133.4881 5.4999 38.6652 0.0000 17.2184 0.0000
# 2 5.4999 14.1472 -0.3337 0.0000 4.2922 0.0000
# 3 38.6652 -0.3337 50.6463 0.0000 15.5964 0.0000
# 4 0.0000 0.0000 0.0000 22.3725 0.0000 -1.7015
# 5 17.2184 4.2922 15.5964 0.0000 23.6070 0.0000
# 6 0.0000 0.0000 0.0000 -1.7015 0.0000 23.1312
#
#
#
# Elastic Compliance Matrix: (Units=1/GPa)
#
#
# Indices 1 2 3 4 5 6 
#
# 1 0.009909 -0.003409 -0.006971 0.000000 -0.002002 0.000000
# 2 -0.003409 0.077405 0.008388 0.000000 -0.017129 0.000000
# 3 -0.006971 0.008388 0.030162 0.000000 -0.016368 0.000000
# 4 0.000000 0.000000 0.000000 0.044949 0.000000 0.003306
# 5 -0.002002 -0.017129 -0.016368 0.000000 0.057749 0.000000
# 6 0.000000 0.000000 0.000000 0.003306 0.000000 0.043475
#
#
# Mechanical properties :
#
#
# Convention : Reuss Voigt Hill
#
# Bulk Modulus (GPa) = 8.81124 31.77160 20.29142
# Shear Modulus (GPa) = 16.36847 24.11883 20.24365
#
# Velocity S-wave (km/s) = 3.02554 3.67263 3.36468
# Velocity P-wave (km/s) = 4.13918 5.97932 5.14223
#
# Compressibility (1/GPa) = 0.11349140
#
# Stress axis : x y z
#
# Youngs Moduli (GPa) = 100.91654 12.91902 33.15390
#
# Poissons Ratio (x) = 0.04404 0.23111
# Poissons Ratio (y) = 0.34406 -0.27808
# Poissons Ratio (z) = 0.70348 -0.10836
#
# Static dielectric constant tensor:
#      x y z
#    x 1.673020 0.000000 0.045330 
#    y 0.000000 1.612110 0.000000 
#    z 0.045330 0.000000 1.584830 
# 
# From -- ./inp_files/42522.got.cif
#   From: 2010.05.17/outbox.cif.g08.bks.cpg/sg11_22_cif.got.tgz:42522.got - 2010.06.03 12:22:45.
