data_PCOD9156797
_publ_section_title
;
Structure prediction by ZEFSAII (Michael W. Deem and Ramdas Pophale) SiO2 
 PCOD9156797
Probable space group: P 21/M
;
_chemical_formula_sum "Si O2"
_cell_formula_units_Z 32
_cell_length_a 30.425453
_cell_length_b 8.642446
_cell_length_c 24.260063
_cell_angle_alpha 90.000000
_cell_angle_beta 163.347407
_cell_angle_gamma 90.000000
_cell_volume 1828.071637
_symmetry_space_group_name_H-M "P 21/M"
_symmetry_group_IT_number 11
_symmetry_cell_setting 'monoclinic'
loop_
_space_group_symop_operation_xyz
x,y,z
-x,1/2+y,-z
-x,-y,-z
x,1/2-y,z
loop_
_atom_site_type_symbol
_atom_site_label
_atom_site_fract_x
_atom_site_fract_y
_atom_site_fract_z
Si Si1 0.268403 0.936182 0.977649
Si Si2 0.597995 0.936062 0.167836
Si Si3 0.382263 0.063835 0.229605
Si Si4 0.140220 0.435910 0.035646
Si Si5 0.067768 0.437457 0.398631
Si Si6 0.473574 0.062877 0.794099
Si Si7 0.150381 0.935709 0.378181
Si Si8 0.377629 0.934942 0.397074
O O1 0.266264 0.750000 0.973111
O O2 0.091584 0.988463 0.765753
O O3 0.374747 0.990674 0.055317
O O4 0.343854 0.987313 0.125750
O O5 0.591090 0.750000 0.157962
O O6 0.777764 0.981285 0.383214
O O7 0.536446 0.986740 0.154091
O O8 0.500000 0.000000 0.000000
O O9 0.376873 0.250000 0.217097
O O10 0.252522 0.021400 0.119226
O O11 0.547402 0.020976 0.454253
O O12 0.144807 0.250000 0.045208
O O13 0.214646 0.503855 0.180370
O O14 0.969294 0.484175 0.813053
O O15 0.067518 0.250000 0.393180
O O16 0.082884 0.506750 0.355593
O O17 0.468475 0.250000 0.787573
O O18 0.321027 0.002896 0.580349
O O19 0.156936 0.750000 0.386492
O O20 0.378414 0.750000 0.395002
O O21 0.500000 0.000000 0.500000
#
# Coordination Sequence:
#
# PCOD9156797 Si02
#       8
#     4   4   4   4   4   4   4   4
#     4  10  19  32  52  74  98 131 167 200 244 296
#     4   9  18  34  54  74 101 131 162 199 236 281
#     4   9  17  29  43  66 100 129 157 203 254 292
#     4   9  17  28  43  67  97 125 161 209 252 292
#     4   9  18  32  51  76 101 129 164 202 241 287
#     4   9  20  36  51  73 103 131 162 202 243 291
#     4  10  18  30  49  73  99 129 165 208 252 294
#     4   9  17  27  40  62  94 129 163 204 251 296
#
# _framework density 17.504784999999998
#
# number of rings (size 3 to 8) (size 9 to 14) (size 15 to 20)
#    0.000    2.750    1.250    2.250    0.000    6.000 
#    0.000    0.625    0.000    0.750    0.000    0.000 
#    0.000    0.000    0.000    0.000    0.000    0.000 
#
# Total GULP energy -178277.588613 kJ/mol
# GULP energy per Si atom -5571.174644 kJ/mol
# Density = 1.746494 g / cm^3
# Si number density = 17.504785 Si / 1000 Ang^3
#
#
#
# Elastic Constant Matrix: (Units=GPa)
#
#
# Indices 1 2 3 4 5 6 
#
# 1 69.9813 12.5718 70.8654 0.0000 8.3605 0.0000
# 2 12.5718 6.4912 22.3059 0.0000 -0.2749 0.0000
# 3 70.8654 22.3059 160.3505 0.0000 -8.8868 0.0000
# 4 0.0000 0.0000 0.0000 28.6727 0.0000 -7.7122
# 5 8.3605 -0.2749 -8.8868 0.0000 29.1432 0.0000
# 6 0.0000 0.0000 0.0000 -7.7122 0.0000 16.3145
#
#
#
# Elastic Compliance Matrix: (Units=1/GPa)
#
#
# Indices 1 2 3 4 5 6 
#
# 1 0.031432 -0.021557 -0.011600 0.000000 -0.012758 0.000000
# 2 -0.021557 0.312758 -0.034049 0.000000 -0.001249 0.000000
# 3 -0.011600 -0.034049 0.016545 0.000000 0.008052 0.000000
# 4 0.000000 0.000000 0.000000 0.039957 0.000000 0.018888
# 5 -0.012758 -0.001249 0.008052 0.000000 0.040417 0.000000
# 6 0.000000 0.000000 0.000000 0.018888 0.000000 0.070224
#
#
# Mechanical properties :
#
#
# Convention : Reuss Voigt Hill
#
# Bulk Modulus (GPa) = 4.41843 49.81212 27.11527
# Shear Modulus (GPa) = 6.93302 23.56474 15.24888
#
# Velocity S-wave (km/s) = 1.99230 3.67302 2.95469
# Velocity P-wave (km/s) = 2.79677 6.81955 5.21192
#
# Compressibility (1/GPa) = 0.22632464
#
# Stress axis : x y z
#
# Youngs Moduli (GPa) = 31.81440 3.19736 60.43985
#
# Poissons Ratio (x) = 0.06892 0.70107
# Poissons Ratio (y) = 0.68582 2.05793
# Poissons Ratio (z) = 0.36903 0.10887
#
# Static dielectric constant tensor:
#      x y z
#    x 1.580740 0.000000 0.015810 
#    y 0.000000 1.592750 0.000000 
#    z 0.015810 0.000000 1.632100 
# 
# From -- ./inp_files/67192.got.cif
#   From: 2010.05.17/outbox.cif.g08.bks.cpg/sg11_34_cif.got.tgz:67192.got - 2010.06.03 12:22:45.
