data_PCOD9156271
_publ_section_title
;
Structure prediction by ZEFSAII (Michael W. Deem and Ramdas Pophale) SiO2 
 PCOD9156271
Probable space group: P 21/M
;
_chemical_formula_sum "Si O2"
_cell_formula_units_Z 32
_cell_length_a 11.600852
_cell_length_b 9.161173
_cell_length_c 21.384405
_cell_angle_alpha 90.000000
_cell_angle_beta 64.694865
_cell_angle_gamma 90.000000
_cell_volume 2054.602573
_symmetry_space_group_name_H-M "P 21/M"
_symmetry_group_IT_number 11
_symmetry_cell_setting 'monoclinic'
loop_
_space_group_symop_operation_xyz
x,y,z
-x,1/2+y,-z
-x,-y,-z
x,1/2-y,z
loop_
_atom_site_type_symbol
_atom_site_label
_atom_site_fract_x
_atom_site_fract_y
_atom_site_fract_z
Si Si1 0.488405 0.076725 0.772424
Si Si2 0.696000 0.075661 0.958554
Si Si3 0.726496 0.080747 0.347723
Si Si4 0.566855 0.918129 0.634485
Si Si5 0.531929 0.576160 0.893386
Si Si6 0.202324 0.424546 0.791201
Si Si7 0.364784 0.074595 0.515005
Si Si8 0.978045 0.074355 0.938602
O O1 0.501013 0.250000 0.776406
O O2 0.339719 0.043779 0.790902
O O3 0.568619 0.019985 0.694339
O O4 0.526504 0.996486 0.826974
O O5 0.690693 0.250000 0.947966
O O6 0.839241 0.035477 0.943864
O O7 0.642172 0.990989 0.911260
O O8 0.599644 0.044946 0.038403
O O9 0.759503 0.250000 0.348910
O O10 0.578763 0.075629 0.358092
O O11 0.803447 0.006508 0.273623
O O12 0.730425 0.993021 0.411968
O O13 0.591039 0.750000 0.646729
O O14 0.654129 0.956423 0.554355
O O15 0.545333 0.750000 0.885195
O O16 0.197429 0.250000 0.781572
O O17 0.089312 0.466189 0.864225
O O18 0.374115 0.250000 0.519935
O O19 0.500000 0.000000 0.500000
O O20 0.981698 0.250000 0.945406
O O21 0.000000 0.000000 0.000000
#
# Coordination Sequence:
#
# PCOD9156271 Si02
#       8
#     4   4   4   4   4   4   4   4
#     4  10  18  27  42  63  88 117 147 180 217 259
#     4   9  19  34  49  66  87 113 146 182 221 263
#     4   9  16  25  38  56  80 113 149 183 218 257
#     4   8  15  25  36  54  81 112 145 178 213 255
#     4  10  19  31  48  66  86 113 145 183 223 263
#     4   9  18  30  43  62  88 118 150 182 219 264
#     4   9  15  23  36  54  79 112 147 182 218 258
#     4  10  20  33  49  68  91 118 147 182 222 264
#
# _framework density 15.574788
#
# number of rings (size 3 to 8) (size 9 to 14) (size 15 to 20)
#    0.000    2.750    0.000    3.000    0.000    5.500 
#    0.000    0.000    0.000    0.000    0.000    0.000 
#    0.000    1.000    0.000    3.000    0.000    4.875 
#
# Total GULP energy -178265.473462 kJ/mol
# GULP energy per Si atom -5570.796046 kJ/mol
# Density = 1.553934 g / cm^3
# Si number density = 15.574788 Si / 1000 Ang^3
#
#
#
# Elastic Constant Matrix: (Units=GPa)
#
#
# Indices 1 2 3 4 5 6 
#
# 1 57.3091 40.4302 61.0550 0.0000 10.5962 0.0000
# 2 40.4302 65.2780 75.3352 0.0000 16.7157 0.0000
# 3 61.0550 75.3352 163.0620 0.0000 19.3465 0.0000
# 4 0.0000 0.0000 0.0000 31.5490 0.0000 7.2835
# 5 10.5962 16.7157 19.3465 0.0000 18.3343 0.0000
# 6 0.0000 0.0000 0.0000 7.2835 0.0000 16.7884
#
#
#
# Elastic Compliance Matrix: (Units=1/GPa)
#
#
# Indices 1 2 3 4 5 6 
#
# 1 0.033850 -0.013434 -0.006401 0.000000 -0.000561 0.000000
# 2 -0.013434 0.042783 -0.012607 0.000000 -0.017938 0.000000
# 3 -0.006401 -0.012607 0.014348 0.000000 0.000054 0.000000
# 4 0.000000 0.000000 0.000000 0.035225 0.000000 -0.015282
# 5 -0.000561 -0.017938 0.000054 0.000000 0.071164 0.000000
# 6 0.000000 0.000000 0.000000 -0.015282 0.000000 0.066195
#
#
# Mechanical properties :
#
#
# Convention : Reuss Voigt Hill
#
# Bulk Modulus (GPa) = 38.32155 71.03221 54.67688
# Shear Modulus (GPa) = 14.83026 20.58959 17.70992
#
# Velocity S-wave (km/s) = 3.08912 3.63985 3.37573
# Velocity P-wave (km/s) = 6.11407 7.96058 7.09763
#
# Compressibility (1/GPa) = 0.02609498
#
# Stress axis : x y z
#
# Youngs Moduli (GPa) = 29.54206 23.37382 69.69752
#
# Poissons Ratio (x) = 0.31401 0.44615
# Poissons Ratio (y) = 0.39687 0.87871
# Poissons Ratio (z) = 0.18911 0.29468
#
# Static dielectric constant tensor:
#      x y z
#    x 1.490570 0.000000 -0.006390 
#    y 0.000000 1.518350 0.000000 
#    z -0.006390 0.000000 1.535690 
# 
# From -- ./inp_files/40671.got.cif
#   From: 2010.05.17/outbox.cif.g08.bks.cpg/sg11_21_cif.got.tgz:40671.got - 2010.06.03 12:22:45.
