data_PCOD9156204
_publ_section_title
;
Structure prediction by ZEFSAII (Michael W. Deem and Ramdas Pophale) SiO2 
 PCOD9156204
Probable space group: P 21/M
;
_chemical_formula_sum "Si O2"
_cell_formula_units_Z 32
_cell_length_a 14.020042
_cell_length_b 9.273398
_cell_length_c 18.825418
_cell_angle_alpha 90.000000
_cell_angle_beta 110.712188
_cell_angle_gamma 90.000000
_cell_volume 2289.368644
_symmetry_space_group_name_H-M "P 21/M"
_symmetry_group_IT_number 11
_symmetry_cell_setting 'monoclinic'
loop_
_space_group_symop_operation_xyz
x,y,z
-x,1/2+y,-z
-x,-y,-z
x,1/2-y,z
loop_
_atom_site_type_symbol
_atom_site_label
_atom_site_fract_x
_atom_site_fract_y
_atom_site_fract_z
Si Si1 0.910579 0.422175 0.885202
Si Si2 0.117390 0.577362 0.956238
Si Si3 0.509178 0.577432 0.729917
Si Si4 0.717146 0.424108 0.738944
Si Si5 0.348302 0.584915 0.429716
Si Si6 0.423064 0.084536 0.577629
Si Si7 0.492259 0.577943 0.888785
Si Si8 0.341806 0.923256 0.974544
O O1 0.925251 0.250000 0.884568
O O2 0.819317 0.461626 0.808164
O O3 0.017196 0.501022 0.899648
O O4 0.878896 0.455628 0.958279
O O5 0.106923 0.750000 0.946262
O O6 0.224291 0.532202 0.949733
O O7 0.515046 0.750000 0.722005
O O8 0.619994 0.506359 0.745607
O O9 0.434356 0.508983 0.651644
O O10 0.477051 0.544928 0.802163
O O11 0.700454 0.250000 0.740290
O O12 0.720707 0.457866 0.655733
O O13 0.326111 0.750000 0.444208
O O14 0.463071 0.583106 0.427029
O O15 0.350547 0.484214 0.498873
O O16 0.397455 0.250000 0.586266
O O17 0.509425 0.750000 0.899365
O O18 0.396778 0.541467 0.914478
O O19 0.589587 0.496182 0.946656
O O20 0.345356 0.750000 0.984878
#
# Coordination Sequence:
#
# PCOD9156204 Si02
#       8
#     4   4   4   4   4   4   4   4
#     4   9  17  28  41  58  79 102 131 164 194 228
#     4   9  17  28  42  58  77 104 133 161 195 231
#     4  10  18  26  38  57  81 106 132 164 197 228
#     4   9  17  28  41  57  78 106 136 163 194 232
#     4   8  14  24  37  53  74 100 130 161 191 226
#     4   9  16  25  37  53  75 104 134 159 188 230
#     4   9  18  29  41  60  81 102 132 167 199 231
#     4   9  17  30  45  58  77 105 134 164 198 236
#
# _framework density 13.977652000000001
#
# number of rings (size 3 to 8) (size 9 to 14) (size 15 to 20)
#    0.000    3.000    0.000    2.250    0.000    6.000 
#    0.000    2.500    0.000    0.000    0.000    0.000 
#    0.000    1.000    0.000    2.000    0.000    3.000 
#
# Total GULP energy -178171.388638 kJ/mol
# GULP energy per Si atom -5567.855895 kJ/mol
# Density = 1.394584 g / cm^3
# Si number density = 13.977652 Si / 1000 Ang^3
#
#
#
# Elastic Constant Matrix: (Units=GPa)
#
#
# Indices 1 2 3 4 5 6 
#
# 1 63.2518 27.0441 40.0190 0.0000 4.2903 0.0000
# 2 27.0441 39.3841 49.9047 0.0000 -1.2639 0.0000
# 3 40.0190 49.9047 121.4281 0.0000 6.4635 0.0000
# 4 0.0000 0.0000 0.0000 23.4775 0.0000 2.8698
# 5 4.2903 -1.2639 6.4635 0.0000 17.2072 0.0000
# 6 0.0000 0.0000 0.0000 2.8698 0.0000 16.3608
#
#
#
# Elastic Compliance Matrix: (Units=1/GPa)
#
#
# Indices 1 2 3 4 5 6 
#
# 1 0.023295 -0.014394 -0.001425 0.000000 -0.006330 0.000000
# 2 -0.014394 0.064564 -0.022688 0.000000 0.016854 0.000000
# 3 -0.001425 -0.022688 0.018468 0.000000 -0.008248 0.000000
# 4 0.000000 0.000000 0.000000 0.043527 0.000000 -0.007635
# 5 -0.006330 0.016854 -0.008248 0.000000 0.064030 0.000000
# 6 0.000000 0.000000 0.000000 -0.007635 0.000000 0.062461
#
#
# Mechanical properties :
#
#
# Convention : Reuss Voigt Hill
#
# Bulk Modulus (GPa) = 34.11309 50.88885 42.50097
# Shear Modulus (GPa) = 13.76916 18.54886 16.15901
#
# Velocity S-wave (km/s) = 3.14201 3.64680 3.40378
# Velocity P-wave (km/s) = 6.13363 7.36333 6.77643
#
# Compressibility (1/GPa) = 0.02931426
#
# Stress axis : x y z
#
# Youngs Moduli (GPa) = 42.92786 15.48839 54.14687
#
# Poissons Ratio (x) = 0.22294 0.07714
# Poissons Ratio (y) = 0.61790 1.22849
# Poissons Ratio (z) = 0.06116 0.35140
#
# Static dielectric constant tensor:
#      x y z
#    x 1.435180 0.000000 -0.004190 
#    y 0.000000 1.467470 0.000000 
#    z -0.004190 0.000000 1.466470 
# 
# From -- ./inp_files/52972.got.cif
#   From: 2010.05.17/outbox.cif.g08.bks.cpg/sg11_27_cif.got.tgz:52972.got - 2010.06.03 12:22:45.
