data_PCOD9156835
_publ_section_title
;
Structure prediction by ZEFSAII (Michael W. Deem and Ramdas Pophale) SiO2 
 PCOD9156835
Probable space group: P 21/M
;
_chemical_formula_sum "Si O2"
_cell_formula_units_Z 32
_cell_length_a 12.779662
_cell_length_b 7.785481
_cell_length_c 23.760400
_cell_angle_alpha 90.000000
_cell_angle_beta 133.959540
_cell_angle_gamma 90.000000
_cell_volume 1701.721963
_symmetry_space_group_name_H-M "P 21/M"
_symmetry_group_IT_number 11
_symmetry_cell_setting 'monoclinic'
loop_
_space_group_symop_operation_xyz
x,y,z
-x,1/2+y,-z
-x,-y,-z
x,1/2-y,z
loop_
_atom_site_type_symbol
_atom_site_label
_atom_site_fract_x
_atom_site_fract_y
_atom_site_fract_z
Si Si1 0.557575 0.956157 0.786550
Si Si2 0.183070 0.460947 0.318432
Si Si3 0.546976 0.953681 0.657091
Si Si4 0.689415 0.947652 0.015028
Si Si5 0.591871 0.038600 0.155420
Si Si6 0.141812 0.550050 0.812991
Si Si7 0.637767 0.546098 0.512392
Si Si8 0.161664 0.952695 0.042682
O O1 0.539520 0.750000 0.778908
O O2 0.529515 0.024287 0.713471
O O3 0.457670 0.018794 0.801060
O O4 0.722332 0.995250 0.866535
O O5 0.187765 0.250000 0.318262
O O6 0.309986 0.520808 0.322905
O O7 0.227922 0.512895 0.398838
O O8 0.021056 0.521576 0.243499
O O9 0.570595 0.750000 0.671473
O O10 0.406348 0.977256 0.564993
O O11 0.670970 0.750000 0.025128
O O12 0.770718 0.039476 0.096000
O O13 0.532993 0.015699 0.935764
O O14 0.788230 0.957103 0.996033
O O15 0.589234 0.250000 0.153891
O O16 0.748458 0.977951 0.192950
O O17 0.121809 0.750000 0.791177
O O18 0.500000 0.500000 0.500000
O O19 0.648093 0.750000 0.511006
O O20 0.172038 0.750000 0.036957
O O21 0.000000 0.000000 0.000000
#
# Coordination Sequence:
#
# PCOD9156835 Si02
#       8
#     4   4   4   4   4   4   4   4
#     4   9  18  33  51  71  97 128 163 203 242 284
#     4   8  16  28  44  70  96 120 153 195 244 291
#     4   9  17  30  49  71  96 126 157 194 239 293
#     4  10  20  34  48  69  97 127 165 206 246 288
#     4   8  16  31  49  68  93 127 167 206 243 285
#     4  10  18  30  50  72  94 125 166 207 248 295
#     4   9  16  29  47  68  95 125 155 192 239 292
#     4  11  22  35  50  70  98 132 164 198 243 289
#
# _framework density 18.804483000000001
#
# number of rings (size 3 to 8) (size 9 to 14) (size 15 to 20)
#    0.000    2.750    0.000    3.750    1.750    0.500 
#    0.000    5.625    0.000    0.750    0.000    0.000 
#    0.000    0.000    0.000    0.000    0.000    0.500 
#
# Total GULP energy -178331.342498 kJ/mol
# GULP energy per Si atom -5572.854453 kJ/mol
# Density = 1.876168 g / cm^3
# Si number density = 18.804483 Si / 1000 Ang^3
#
#
#
# Elastic Constant Matrix: (Units=GPa)
#
#
# Indices 1 2 3 4 5 6 
#
# 1 58.5115 11.7687 57.0786 0.0000 -2.6792 0.0000
# 2 11.7687 14.8682 5.1483 0.0000 1.1193 0.0000
# 3 57.0786 5.1483 111.1587 0.0000 -19.7007 0.0000
# 4 0.0000 0.0000 0.0000 19.8962 0.0000 -2.3214
# 5 -2.6792 1.1193 -19.7007 0.0000 25.8703 0.0000
# 6 0.0000 0.0000 0.0000 -2.3214 0.0000 8.1514
#
#
#
# Elastic Compliance Matrix: (Units=1/GPa)
#
#
# Indices 1 2 3 4 5 6 
#
# 1 0.045897 -0.026848 -0.024595 0.000000 -0.012815 0.000000
# 2 -0.026848 0.084931 0.010067 0.000000 0.001211 0.000000
# 3 -0.024595 0.010067 0.023849 0.000000 0.015179 0.000000
# 4 0.000000 0.000000 0.000000 0.051988 0.000000 0.014805
# 5 -0.012815 0.001211 0.015179 0.000000 0.048834 0.000000
# 6 0.000000 0.000000 0.000000 0.014805 0.000000 0.126894
#
#
# Mechanical properties :
#
#
# Convention : Reuss Voigt Hill
#
# Bulk Modulus (GPa) = 13.90320 36.94774 25.42547
# Shear Modulus (GPa) = 10.22244 18.15311 14.18777
#
# Velocity S-wave (km/s) = 2.33409 3.11040 2.74978
# Velocity P-wave (km/s) = 3.83061 5.70880 4.86128
#
# Compressibility (1/GPa) = 0.07192588
#
# Stress axis : x y z
#
# Youngs Moduli (GPa) = 21.78815 11.77421 41.92997
#
# Poissons Ratio (x) = 0.31611 1.03127
# Poissons Ratio (y) = 0.58496 -0.42211
# Poissons Ratio (z) = 0.53588 -0.11853
#
# Static dielectric constant tensor:
#      x y z
#    x 1.659780 0.000000 -0.008380 
#    y 0.000000 1.687900 0.000000 
#    z -0.008380 0.000000 1.659440 
# 
# From -- ./inp_files/43777.got.cif
#   From: 2010.05.17/outbox.cif.g08.bks.cpg/sg11_22_cif.got.tgz:43777.got - 2010.06.03 12:22:45.
