data_PCOD9156004
_publ_section_title
;
Structure prediction by ZEFSAII (Michael W. Deem and Ramdas Pophale) SiO2 
 PCOD9156004
Probable space group: P 21/M
;
_chemical_formula_sum "Si O2"
_cell_formula_units_Z 32
_cell_length_a 5.398514
_cell_length_b 30.330032
_cell_length_c 11.323488
_cell_angle_alpha 90.000000
_cell_angle_beta 116.341179
_cell_angle_gamma 90.000000
_cell_volume 1661.562341
_symmetry_space_group_name_H-M "P 21/M"
_symmetry_group_IT_number 11
_symmetry_cell_setting 'monoclinic'
loop_
_space_group_symop_operation_xyz
x,y,z
-x,1/2+y,-z
-x,-y,-z
x,1/2-y,z
loop_
_atom_site_type_symbol
_atom_site_label
_atom_site_fract_x
_atom_site_fract_y
_atom_site_fract_z
Si Si1 0.124109 0.199507 0.189242
Si Si2 0.571589 0.050080 0.986859
Si Si3 0.140407 0.834541 0.103603
Si Si4 0.301171 0.486026 0.352227
Si Si5 0.672622 0.334187 0.243140
Si Si6 0.058365 0.932238 0.154621
Si Si7 0.594474 0.699444 0.052610
Si Si8 0.741192 0.433106 0.282930
O O1 0.088565 0.250000 0.141569
O O2 0.444755 0.189750 0.273263
O O3 0.953547 0.190448 0.270836
O O4 0.000812 0.167690 0.059098
O O5 0.271503 0.069994 0.891689
O O6 0.822886 0.052018 0.947846
O O7 0.667146 0.069846 0.129457
O O8 0.500000 0.000000 0.000000
O O9 0.159528 0.881835 0.169348
O O10 0.920722 0.806439 0.129790
O O11 0.436083 0.814548 0.136660
O O12 0.500000 0.500000 0.500000
O O13 0.498313 0.459190 0.301579
O O14 0.182599 0.530822 0.267756
O O15 0.038090 0.457924 0.345418
O O16 0.738164 0.381546 0.313174
O O17 0.518199 0.330484 0.080460
O O18 0.527995 0.750000 0.008888
#
# Coordination Sequence:
#
# PCOD9156004 Si02
#       8
#     4   4   4   4   4   4   4   4
#     4  10  17  29  46  72 114 148 164 195 263 350
#     4  12  20  34  54  82 110 137 174 224 285 354
#     4  10  18  28  46  70 101 140 177 213 246 316
#     4  12  26  43  57  74 106 156 203 244 279 323
#     4  10  18  29  46  73 102 137 175 213 250 319
#     4  12  22  37  54  82 112 146 189 228 286 331
#     4  10  18  31  47  74 116 150 166 196 265 351
#     4  12  23  38  58  82 110 144 190 233 289 332
#
# _framework density 19.258983000000001
#
# number of rings (size 3 to 8) (size 9 to 14) (size 15 to 20)
#    0.000    1.000    2.500    9.750    0.000    0.000 
#    0.000    0.000    0.000    0.000    0.000    0.000 
#    0.000   34.000    0.000    0.000    0.000    0.000 
#
# Total GULP energy -178147.418990 kJ/mol
# GULP energy per Si atom -5567.106843 kJ/mol
# Density = 1.921515 g / cm^3
# Si number density = 19.258983 Si / 1000 Ang^3
#
#
#
# Elastic Constant Matrix: (Units=GPa)
#
#
# Indices 1 2 3 4 5 6 
#
# 1 147.5391 24.3955 3.8254 0.0000 3.5830 0.0000
# 2 24.3955 97.0205 4.6799 0.0000 3.7120 0.0000
# 3 3.8254 4.6799 26.9361 0.0000 6.2806 0.0000
# 4 0.0000 0.0000 0.0000 6.3083 0.0000 16.3271
# 5 3.5830 3.7120 6.2806 0.0000 10.1446 0.0000
# 6 0.0000 0.0000 0.0000 16.3271 0.0000 107.7619
#
#
#
# Elastic Compliance Matrix: (Units=1/GPa)
#
#
# Indices 1 2 3 4 5 6 
#
# 1 0.007110 -0.001708 -0.000319 0.000000 -0.001689 0.000000
# 2 -0.001708 0.010891 -0.001006 0.000000 -0.002759 0.000000
# 3 -0.000319 -0.001006 0.043514 0.000000 -0.026459 0.000000
# 4 0.000000 0.000000 0.000000 0.260788 0.000000 -0.039512
# 5 -0.001689 -0.002759 -0.026459 0.000000 0.116561 0.000000
# 6 0.000000 0.000000 0.000000 -0.039512 0.000000 0.015266
#
#
# Mechanical properties :
#
#
# Convention : Reuss Voigt Hill
#
# Bulk Modulus (GPa) = 18.03491 37.47745 27.75618
# Shear Modulus (GPa) = 10.44541 40.74928 25.59735
#
# Velocity S-wave (km/s) = 2.33140 4.60484 3.64965
# Velocity P-wave (km/s) = 4.07823 6.91192 5.67480
#
# Compressibility (1/GPa) = 0.05544800
#
# Stress axis : x y z
#
# Youngs Moduli (GPa) = 140.65675 91.82250 22.98086
#
# Poissons Ratio (x) = 0.15680 0.00734
# Poissons Ratio (y) = 0.24019 0.02313
# Poissons Ratio (z) = 0.04491 0.09241
#
# Static dielectric constant tensor:
#      x y z
#    x 1.791500 0.000000 -0.013980 
#    y 0.000000 1.750650 0.000000 
#    z -0.013980 0.000000 1.632540 
# 
# From -- ./inp_files/30392.got.cif
#   From: 2010.05.17/outbox.cif.g08.bks.cpg/sg11_16_cif.got.tgz:30392.got - 2010.06.03 12:22:45.
