data_PCOD9156405
_publ_section_title
;
Structure prediction by ZEFSAII (Michael W. Deem and Ramdas Pophale) SiO2 
 PCOD9156405
Probable space group: P 21/M
;
_chemical_formula_sum "Si O2"
_cell_formula_units_Z 28
_cell_length_a 18.924783
_cell_length_b 8.987597
_cell_length_c 16.928447
_cell_angle_alpha 90.000000
_cell_angle_beta 143.034820
_cell_angle_gamma 90.000000
_cell_volume 1731.426946
_symmetry_space_group_name_H-M "P 21/M"
_symmetry_group_IT_number 11
_symmetry_cell_setting 'monoclinic'
loop_
_space_group_symop_operation_xyz
x,y,z
-x,1/2+y,-z
-x,-y,-z
x,1/2-y,z
loop_
_atom_site_type_symbol
_atom_site_label
_atom_site_fract_x
_atom_site_fract_y
_atom_site_fract_z
Si Si1 0.399428 0.078649 0.806875
Si Si2 0.673274 0.420557 0.107162
Si Si3 0.834579 0.428413 0.799949
Si Si4 0.090250 0.428673 0.972801
Si Si5 0.581358 0.429291 0.505056
Si Si6 0.495120 0.429843 0.728346
Si Si7 0.264546 0.071893 0.993100
O O1 0.361181 0.250000 0.776966
O O2 0.407777 0.031029 0.723159
O O3 0.326292 0.983065 0.803774
O O4 0.535875 0.074531 0.957473
O O5 0.711266 0.250000 0.138149
O O6 0.740409 0.515870 0.101330
O O7 0.837492 0.250000 0.812531
O O8 0.716022 0.465169 0.647929
O O9 0.954233 0.474019 0.861723
O O10 0.840161 0.501735 0.891248
O O11 0.095470 0.250000 0.984615
O O12 0.152158 0.468369 0.945994
O O13 0.500000 0.500000 0.500000
O O14 0.567564 0.250000 0.490966
O O15 0.546360 0.499809 0.390286
O O16 0.501958 0.250000 0.730272
O O17 0.622260 0.494837 0.865579
O O18 0.280246 0.250000 0.008329
#
# Coordination Sequence:
#
# PCOD9156405 Si02
#       7
#     4   4   4   4   4   4   4
#     4   8  15  27  41  59  86 120 152 182 220 267
#     4   9  16  25  40  63  91 120 149 184 224 268
#     4   9  19  34  49  66  89 118 151 187 227 266
#     4   9  18  32  49  68  89 116 151 188 225 266
#     4  11  22  34  49  68  93 123 153 187 225 268
#     4  10  20  32  46  66  94 124 154 188 225 269
#     4  10  18  28  45  68  94 122 152 186 225 271
#
# _framework density 16.171633
#
# number of rings (size 3 to 8) (size 9 to 14) (size 15 to 20)
#    0.000    2.571    0.000    3.429    0.000    8.571 
#    0.000    0.000    0.000    0.000    0.000    1.000 
#    0.000    0.000    0.000    0.000    0.000    0.000 
#
# Total GULP energy -156045.752598 kJ/mol
# GULP energy per Si atom -5573.062593 kJ/mol
# Density = 1.613483 g / cm^3
# Si number density = 16.171633 Si / 1000 Ang^3
#
#
#
# Elastic Constant Matrix: (Units=GPa)
#
#
# Indices 1 2 3 4 5 6 
#
# 1 138.7499 56.8333 49.6294 0.0000 -28.3952 0.0000
# 2 56.8333 57.4273 30.0922 0.0000 -11.2138 0.0000
# 3 49.6294 30.0922 57.5988 0.0000 -17.4650 0.0000
# 4 0.0000 0.0000 0.0000 19.2816 0.0000 -7.2830
# 5 -28.3952 -11.2138 -17.4650 0.0000 23.5136 0.0000
# 6 0.0000 0.0000 0.0000 -7.2830 0.0000 27.6245
#
#
#
# Elastic Compliance Matrix: (Units=1/GPa)
#
#
# Indices 1 2 3 4 5 6 
#
# 1 0.015290 -0.010831 -0.004496 0.000000 0.009960 0.000000
# 2 -0.010831 0.031789 -0.008576 0.000000 -0.004290 0.000000
# 3 -0.004496 -0.008576 0.029466 0.000000 0.012367 0.000000
# 4 0.000000 0.000000 0.000000 0.057599 0.000000 0.015186
# 5 0.009960 -0.004290 0.012367 0.000000 0.061696 0.000000
# 6 0.000000 0.000000 0.000000 0.015186 0.000000 0.040203
#
#
# Mechanical properties :
#
#
# Convention : Reuss Voigt Hill
#
# Bulk Modulus (GPa) = 34.79674 58.54286 46.66980
# Shear Modulus (GPa) = 17.03995 21.89869 19.46932
#
# Velocity S-wave (km/s) = 3.24959 3.68386 3.47352
# Velocity P-wave (km/s) = 5.97023 7.37387 6.70886
#
# Compressibility (1/GPa) = 0.02873832
#
# Stress axis : x y z
#
# Youngs Moduli (GPa) = 65.40124 31.45760 33.93793
#
# Poissons Ratio (x) = 0.34073 0.15258
# Poissons Ratio (y) = 0.70839 0.29105
# Poissons Ratio (z) = 0.29404 0.26977
#
# Static dielectric constant tensor:
#      x y z
#    x 1.558860 0.000000 -0.004170 
#    y 0.000000 1.546920 0.000000 
#    z -0.004170 0.000000 1.518020 
# 
# From -- ./inp_files/53270.got.cif
#   From: 2010.05.17/outbox.cif.g08.bks.cpg/sg11_27_cif.got.tgz:53270.got - 2010.06.03 12:22:45.
