data_PCOD9156939
_publ_section_title
;
Structure prediction by ZEFSAII (Michael W. Deem and Ramdas Pophale) SiO2 
 PCOD9156939
Probable space group: P 21/M
;
_chemical_formula_sum "Si O2"
_cell_formula_units_Z 28
_cell_length_a 23.216591
_cell_length_b 8.760542
_cell_length_c 17.077434
_cell_angle_alpha 90.000000
_cell_angle_beta 149.140519
_cell_angle_gamma 90.000000
_cell_volume 1781.614715
_symmetry_space_group_name_H-M "P 21/M"
_symmetry_group_IT_number 11
_symmetry_cell_setting 'monoclinic'
loop_
_space_group_symop_operation_xyz
x,y,z
-x,1/2+y,-z
-x,-y,-z
x,1/2-y,z
loop_
_atom_site_type_symbol
_atom_site_label
_atom_site_fract_x
_atom_site_fract_y
_atom_site_fract_z
Si Si1 0.060843 0.067412 0.835050
Si Si2 0.325120 0.070286 0.331158
Si Si3 0.081590 0.931058 0.030121
Si Si4 0.052140 0.431281 0.439040
Si Si5 0.161564 0.065457 0.718791
Si Si6 0.291562 0.065279 0.015570
Si Si7 0.528412 0.932166 0.655065
O O1 0.061919 0.250000 0.841893
O O2 0.180727 0.019535 0.936007
O O3 0.963762 0.014856 0.661890
O O4 0.051649 0.996043 0.909576
O O5 0.302109 0.250000 0.311103
O O6 0.387420 0.045254 0.320449
O O7 0.209243 0.980364 0.197114
O O8 0.413623 0.016025 0.499674
O O9 0.072188 0.750000 0.018573
O O10 0.000000 0.000000 0.000000
O O11 0.051771 0.250000 0.425958
O O12 0.153664 0.470544 0.617377
O O13 0.941919 0.481208 0.359673
O O14 0.143993 0.250000 0.705248
O O15 0.267824 0.025680 0.897267
O O16 0.295021 0.250000 0.024083
O O17 0.403854 0.011649 0.189689
O O18 0.507422 0.750000 0.636143
#
# Coordination Sequence:
#
# PCOD9156939 Si02
#       7
#     4   4   4   4   4   4   4
#     4  10  18  31  46  62  86 119 154 189 230 273
#     4  10  19  32  47  67  92 120 154 192 233 273
#     4  12  24  37  52  69  90 118 154 195 236 277
#     4   9  15  23  36  58  84 114 152 188 224 269
#     4   8  14  23  36  55  84 120 152 185 224 266
#     4   8  13  24  42  62  87 120 154 186 222 266
#     4   9  16  28  46  67  92 123 157 190 227 273
#
# _framework density 15.716081000000001
#
# number of rings (size 3 to 8) (size 9 to 14) (size 15 to 20)
#    0.000    2.571    1.429    3.429    0.000    1.143 
#    0.000    0.714    0.000    0.000    0.000    0.000 
#    0.000    1.143    0.000    3.143    0.000    4.857 
#
# Total GULP energy -155894.288045 kJ/mol
# GULP energy per Si atom -5567.653144 kJ/mol
# Density = 1.568031 g / cm^3
# Si number density = 15.716081 Si / 1000 Ang^3
#
#
#
# Elastic Constant Matrix: (Units=GPa)
#
#
# Indices 1 2 3 4 5 6 
#
# 1 56.5397 34.8796 51.0567 0.0000 -17.6896 0.0000
# 2 34.8796 61.4488 43.0395 0.0000 -8.7275 0.0000
# 3 51.0567 43.0395 123.6734 0.0000 -44.8941 0.0000
# 4 0.0000 0.0000 0.0000 22.4874 0.0000 -3.7019
# 5 -17.6896 -8.7275 -44.8941 0.0000 23.2539 0.0000
# 6 0.0000 0.0000 0.0000 -3.7019 0.0000 17.8236
#
#
#
# Elastic Compliance Matrix: (Units=1/GPa)
#
#
# Indices 1 2 3 4 5 6 
#
# 1 0.034871 -0.014319 -0.005797 0.000000 0.009961 0.000000
# 2 -0.014319 0.031109 -0.015478 0.000000 -0.029099 0.000000
# 3 -0.005797 -0.015478 0.040631 0.000000 0.068223 0.000000
# 4 0.000000 0.000000 0.000000 0.046044 0.000000 0.009563
# 5 0.009961 -0.029099 0.068223 0.000000 0.171372 0.000000
# 6 0.000000 0.000000 0.000000 0.009563 0.000000 0.058092
#
#
# Mechanical properties :
#
#
# Convention : Reuss Voigt Hill
#
# Bulk Modulus (GPa) = 28.22936 55.51261 41.87098
# Shear Modulus (GPa) = 10.75002 20.22539 15.48770
#
# Velocity S-wave (km/s) = 2.61820 3.59126 3.14262
# Velocity P-wave (km/s) = 5.20971 7.25225 6.31412
#
# Compressibility (1/GPa) = 0.03542411
#
# Stress axis : x y z
#
# Youngs Moduli (GPa) = 28.67676 32.14457 24.61172
#
# Poissons Ratio (x) = 0.46026 0.14268
# Poissons Ratio (y) = 0.41061 0.38095
# Poissons Ratio (z) = 0.16624 0.49754
#
# Static dielectric constant tensor:
#      x y z
#    x 1.501170 0.000000 -0.043760 
#    y 0.000000 1.524130 0.000000 
#    z -0.043760 0.000000 1.569300 
# 
# From -- ./inp_files/42598.got.cif
#   From: 2010.05.17/outbox.cif.g08.bks.cpg/sg11_22_cif.got.tgz:42598.got - 2010.06.03 12:22:45.
