data_PCOD9156754
_publ_section_title
;
Structure prediction by ZEFSAII (Michael W. Deem and Ramdas Pophale) SiO2 
 PCOD9156754
Probable space group: P 21/M
;
_chemical_formula_sum "Si O2"
_cell_formula_units_Z 32
_cell_length_a 16.667424
_cell_length_b 21.800517
_cell_length_c 15.995762
_cell_angle_alpha 90.000000
_cell_angle_beta 17.863187
_cell_angle_gamma 90.000000
_cell_volume 1782.862750
_symmetry_space_group_name_H-M "P 21/M"
_symmetry_group_IT_number 11
_symmetry_cell_setting 'monoclinic'
loop_
_space_group_symop_operation_xyz
x,y,z
-x,1/2+y,-z
-x,-y,-z
x,1/2-y,z
loop_
_atom_site_type_symbol
_atom_site_label
_atom_site_fract_x
_atom_site_fract_y
_atom_site_fract_z
Si Si1 0.481992 0.321240 0.873087
Si Si2 0.342006 0.484949 0.742408
Si Si3 0.341096 0.130766 0.648726
Si Si4 0.174627 0.043663 0.673006
Si Si5 0.036756 0.985710 0.655907
Si Si6 0.859842 0.316701 0.194638
Si Si7 0.467041 0.041821 0.950062
Si Si8 0.021595 0.647287 0.733394
O O1 0.475243 0.250000 0.912655
O O2 0.451356 0.382124 0.964667
O O3 0.752437 0.331549 0.555016
O O4 0.249583 0.327881 0.035446
O O5 0.500000 0.500000 0.500000
O O6 0.264956 0.415963 0.799578
O O7 0.570842 0.498456 0.581568
O O8 0.076074 0.520898 0.024681
O O9 0.283427 0.101946 0.615294
O O10 0.646265 0.141158 0.361164
O O11 0.131561 0.182587 0.875359
O O12 0.071194 0.044394 0.681241
O O13 0.288389 0.973754 0.350752
O O14 0.003975 0.926591 0.748687
O O15 0.789820 0.983275 0.840991
O O16 0.735872 0.250000 0.314445
O O17 0.907128 0.331317 0.244843
O O18 0.500000 0.000000 0.000000
#
# Coordination Sequence:
#
# PCOD9156754 Si02
#       8
#     4   4   4   4   4   4   4   4
#     4  10  19  33  53  76 102 139 173 201 244 306
#     4  10  18  30  48  71  99 128 157 205 260 297
#     4  11  21  33  47  66  95 131 172 216 255 292
#     4  11  20  33  50  74 100 128 171 212 251 309
#     4  10  20  34  55  78 102 135 167 202 260 322
#     4  12  23  34  47  67  97 139 181 220 261 299
#     4  10  21  36  54  80 112 136 162 207 264 324
#     4  10  20  33  48  72 105 134 169 209 245 299
#
# _framework density 17.948661999999999
#
# number of rings (size 3 to 8) (size 9 to 14) (size 15 to 20)
#    0.000    1.500    0.000    8.625    0.000    2.000 
#    0.000    0.000    0.000    0.000    0.000    5.250 
#    0.000    0.000    0.000    0.000    0.000    0.000 
#
# Total GULP energy -178247.839403 kJ/mol
# GULP energy per Si atom -5570.244981 kJ/mol
# Density = 1.790781 g / cm^3
# Si number density = 17.948662 Si / 1000 Ang^3
#
#
#
# Elastic Constant Matrix: (Units=GPa)
#
#
# Indices 1 2 3 4 5 6 
#
# 1 86.8029 53.7754 24.9055 0.0000 -11.5724 0.0000
# 2 53.7754 81.6104 12.1589 0.0000 -1.6339 0.0000
# 3 24.9055 12.1589 86.0087 0.0000 -21.2608 0.0000
# 4 0.0000 0.0000 0.0000 22.1696 0.0000 -0.7962
# 5 -11.5724 -1.6339 -21.2608 0.0000 28.2736 0.0000
# 6 0.0000 0.0000 0.0000 -0.7962 0.0000 12.1864
#
#
#
# Elastic Compliance Matrix: (Units=1/GPa)
#
#
# Indices 1 2 3 4 5 6 
#
# 1 0.021615 -0.013698 -0.002864 0.000000 0.005902 0.000000
# 2 -0.013698 0.021210 -0.000141 0.000000 -0.004487 0.000000
# 3 -0.002864 -0.000141 0.014966 0.000000 0.010074 0.000000
# 4 0.000000 0.000000 0.000000 0.045213 0.000000 0.002954
# 5 0.005902 -0.004487 0.010074 0.000000 0.045100 0.000000
# 6 0.000000 0.000000 0.000000 0.002954 0.000000 0.082252
#
#
# Mechanical properties :
#
#
# Convention : Reuss Voigt Hill
#
# Bulk Modulus (GPa) = 41.00689 48.45573 44.73131
# Shear Modulus (GPa) = 18.38979 23.43139 20.91059
#
# Velocity S-wave (km/s) = 3.20437 3.61704 3.41695
# Velocity P-wave (km/s) = 6.04872 6.67079 6.36736
#
# Compressibility (1/GPa) = 0.02438615
#
# Stress axis : x y z
#
# Youngs Moduli (GPa) = 46.26476 47.14677 66.81781
#
# Poissons Ratio (x) = 0.64580 0.19134
# Poissons Ratio (y) = 0.63372 0.00943
# Poissons Ratio (z) = 0.13248 0.00665
#
# Static dielectric constant tensor:
#      x y z
#    x 1.619540 0.000000 -0.020300 
#    y 0.000000 1.751970 0.000000 
#    z -0.020300 0.000000 1.637060 
# 
# From -- ./inp_files/7086.got.cif
#   From: 2010.05.17/outbox.cif.g08.bks.cpg/sg11_4_cif.got.tgz:7086.got - 2010.06.03 12:22:45.
