data_PCOD9156035
_publ_section_title
;
Structure prediction by ZEFSAII (Michael W. Deem and Ramdas Pophale) SiO2 
 PCOD9156035
Probable space group: P 21/M
;
_chemical_formula_sum "Si O2"
_cell_formula_units_Z 24
_cell_length_a 9.179765
_cell_length_b 13.551781
_cell_length_c 15.719319
_cell_angle_alpha 90.000000
_cell_angle_beta 44.253435
_cell_angle_gamma 90.000000
_cell_volume 1364.625301
_symmetry_space_group_name_H-M "P 21/M"
_symmetry_group_IT_number 11
_symmetry_cell_setting 'monoclinic'
loop_
_space_group_symop_operation_xyz
x,y,z
-x,1/2+y,-z
-x,-y,-z
x,1/2-y,z
loop_
_atom_site_type_symbol
_atom_site_label
_atom_site_fract_x
_atom_site_fract_y
_atom_site_fract_z
Si Si1 0.737518 0.534055 0.384858
Si Si2 0.928351 0.363799 0.200775
Si Si3 0.217943 0.033304 0.446642
Si Si4 0.433684 0.136782 0.700709
Si Si5 0.430039 0.638223 0.797241
Si Si6 0.786455 0.958084 0.049324
O O1 0.500000 0.500000 0.500000
O O2 0.868035 0.439191 0.300113
O O3 0.811576 0.572504 0.444912
O O4 0.721226 0.608075 0.312153
O O5 0.945111 0.250000 0.219954
O O6 0.736881 0.369607 0.211706
O O7 0.136923 0.401643 0.066275
O O8 0.371160 0.937749 0.385903
O O9 0.346503 0.110568 0.335726
O O10 0.000000 0.000000 0.500000
O O11 0.495659 0.250000 0.668315
O O12 0.317703 0.113794 0.837871
O O13 0.420944 0.750000 0.832905
O O14 0.362048 0.554177 0.892706
O O15 0.000000 0.000000 0.000000
#
# Coordination Sequence:
#
# PCOD9156035 Si02
#       6
#     4   4   4   4   4   4
#     4  10  18  33  48  75 104 130 171 213 257 295
#     4  10  17  29  52  78 104 133 165 209 259 306
#     4  10  21  36  51  72 105 140 175 212 252 304
#     4  10  19  32  52  78 104 132 167 213 256 298
#     4   9  17  30  51  73 101 136 168 206 253 302
#     4   9  15  30  47  79 108 125 162 210 260 304
#
# _framework density 17.587246
#
# number of rings (size 3 to 8) (size 9 to 14) (size 15 to 20)
#    0.000    2.333    6.667    0.500    0.000    4.667 
#    0.000    0.000    0.000    4.000    0.000    2.333 
#    0.000    0.000    0.000    0.000    0.000    0.000 
#
# Total GULP energy -133652.957839 kJ/mol
# GULP energy per Si atom -5568.873243 kJ/mol
# Density = 1.754722 g / cm^3
# Si number density = 17.587246 Si / 1000 Ang^3
#
#
#
# Elastic Constant Matrix: (Units=GPa)
#
#
# Indices 1 2 3 4 5 6 
#
# 1 40.1772 -8.1201 15.2664 0.0000 -8.1969 0.0000
# 2 -8.1201 72.1393 19.6900 0.0000 -2.7597 0.0000
# 3 15.2664 19.6900 101.8744 0.0000 2.7171 0.0000
# 4 0.0000 0.0000 0.0000 12.3950 0.0000 -2.6435
# 5 -8.1969 -2.7597 2.7171 0.0000 10.4761 0.0000
# 6 0.0000 0.0000 0.0000 -2.6435 0.0000 7.1364
#
#
#
# Elastic Compliance Matrix: (Units=1/GPa)
#
#
# Indices 1 2 3 4 5 6 
#
# 1 0.035779 0.007330 -0.007629 0.000000 0.031905 0.000000
# 2 0.007330 0.016361 -0.004560 0.000000 0.011228 0.000000
# 3 -0.007629 -0.004560 0.012116 0.000000 -0.010313 0.000000
# 4 0.000000 0.000000 0.000000 0.087598 0.000000 0.032448
# 5 0.031905 0.011228 -0.010313 0.000000 0.126051 0.000000
# 6 0.000000 0.000000 0.000000 0.032448 0.000000 0.152146
#
#
# Mechanical properties :
#
#
# Convention : Reuss Voigt Hill
#
# Bulk Modulus (GPa) = 18.33588 29.76261 24.04925
# Shear Modulus (GPa) = 10.91823 18.49181 14.70502
#
# Velocity S-wave (km/s) = 2.49430 3.24610 2.89471
# Velocity P-wave (km/s) = 4.32939 5.56858 4.98762
#
# Compressibility (1/GPa) = 0.05453787
#
# Stress axis : x y z
#
# Youngs Moduli (GPa) = 27.94904 61.11942 82.53709
#
# Poissons Ratio (x) = -0.44802 0.62971
# Poissons Ratio (y) = -0.20488 0.37639
# Poissons Ratio (z) = 0.21324 0.27872
#
# Static dielectric constant tensor:
#      x y z
#    x 1.601290 0.000000 0.016050 
#    y 0.000000 1.611980 0.000000 
#    z 0.016050 0.000000 1.612770 
# 
# From -- ./inp_files/39319.got.cif
#   From: 2010.05.17/outbox.cif.g08.bks.cpg/sg11_20_cif.got.tgz:39319.got - 2010.06.03 12:22:45.
