data_PCOD9156584
_publ_section_title
;
Structure prediction by ZEFSAII (Michael W. Deem and Ramdas Pophale) SiO2 
 PCOD9156584
Probable space group: P 21/M
;
_chemical_formula_sum "Si O2"
_cell_formula_units_Z 24
_cell_length_a 20.512419
_cell_length_b 8.571680
_cell_length_c 11.712008
_cell_angle_alpha 90.000000
_cell_angle_beta 136.324802
_cell_angle_gamma 90.000000
_cell_volume 1422.071764
_symmetry_space_group_name_H-M "P 21/M"
_symmetry_group_IT_number 11
_symmetry_cell_setting 'monoclinic'
loop_
_space_group_symop_operation_xyz
x,y,z
-x,1/2+y,-z
-x,-y,-z
x,1/2-y,z
loop_
_atom_site_type_symbol
_atom_site_label
_atom_site_fract_x
_atom_site_fract_y
_atom_site_fract_z
Si Si1 0.318552 0.063513 0.099349
Si Si2 0.947587 0.938334 0.601098
Si Si3 0.281718 0.060304 0.314341
Si Si4 0.854813 0.063505 0.260448
Si Si5 0.486451 0.063022 0.611402
Si Si6 0.087678 0.060947 0.183896
O O1 0.320679 0.250000 0.103458
O O2 0.290146 0.009794 0.192394
O O3 0.424101 0.002842 0.207751
O O4 0.239982 0.005191 0.912621
O O5 0.943208 0.750000 0.590108
O O6 0.923144 0.988081 0.698129
O O7 0.054136 0.985380 0.700453
O O8 0.878458 0.006057 0.417573
O O9 0.279505 0.250000 0.309782
O O10 0.378596 0.016207 0.502366
O O11 0.186110 0.006471 0.252940
O O12 0.849740 0.250000 0.252247
O O13 0.491539 0.250000 0.617663
O O14 0.500000 0.000000 0.500000
O O15 0.086636 0.250000 0.180180
O O16 0.000000 0.000000 0.000000
#
# Coordination Sequence:
#
# PCOD9156584 Si02
#       6
#     4   4   4   4   4   4
#     4  10  18  29  47  71  96 122 154 191 233 276
#     4   9  19  33  48  68  94 124 156 190 229 272
#     4   8  16  29  46  68  95 125 151 183 229 275
#     4  10  19  31  48  69  93 122 156 194 232 271
#     4   9  16  28  45  67  94 123 155 190 231 274
#     4  10  19  32  49  70  96 124 154 185 223 273
#
# _framework density 16.876784000000001
#
# number of rings (size 3 to 8) (size 9 to 14) (size 15 to 20)
#    0.000    2.667    0.000    3.500    0.000    1.333 
#    0.000    4.167    0.000    1.000    0.000    0.000 
#    0.000    0.000    0.000    0.000    0.000    0.000 
#
# Total GULP energy -133756.032342 kJ/mol
# GULP energy per Si atom -5573.168014 kJ/mol
# Density = 1.683837 g / cm^3
# Si number density = 16.876784 Si / 1000 Ang^3
#
#
#
# Elastic Constant Matrix: (Units=GPa)
#
#
# Indices 1 2 3 4 5 6 
#
# 1 107.5305 21.2217 80.9114 0.0000 14.3283 0.0000
# 2 21.2217 26.9538 36.9261 0.0000 4.0576 0.0000
# 3 80.9114 36.9261 177.5137 0.0000 28.2372 0.0000
# 4 0.0000 0.0000 0.0000 30.8091 0.0000 2.7604
# 5 14.3283 4.0576 28.2372 0.0000 27.2271 0.0000
# 6 0.0000 0.0000 0.0000 2.7604 0.0000 14.8193
#
#
#
# Elastic Compliance Matrix: (Units=1/GPa)
#
#
# Indices 1 2 3 4 5 6 
#
# 1 0.014389 -0.003391 -0.005664 0.000000 -0.001193 0.000000
# 2 -0.003391 0.053080 -0.010205 0.000000 0.004458 0.000000
# 3 -0.005664 -0.010205 0.011523 0.000000 -0.007449 0.000000
# 4 0.000000 0.000000 0.000000 0.033009 0.000000 -0.006149
# 5 -0.001193 0.004458 -0.007449 0.000000 0.044417 0.000000
# 6 0.000000 0.000000 0.000000 -0.006149 0.000000 0.068625
#
#
# Mechanical properties :
#
#
# Convention : Reuss Voigt Hill
#
# Bulk Modulus (GPa) = 24.70781 65.56851 45.13816
# Shear Modulus (GPa) = 18.04711 26.10035 22.07373
#
# Velocity S-wave (km/s) = 3.27363 3.93685 3.62046
# Velocity P-wave (km/s) = 5.38152 7.72015 6.65438
#
# Compressibility (1/GPa) = 0.04047303
#
# Stress axis : x y z
#
# Youngs Moduli (GPa) = 69.49529 18.83948 86.78589
#
# Poissons Ratio (x) = 0.06388 0.49152
# Poissons Ratio (y) = 0.23564 0.88567
# Poissons Ratio (z) = 0.39359 0.19226
#
# Static dielectric constant tensor:
#      x y z
#    x 1.571110 0.000000 0.025220 
#    y 0.000000 1.569970 0.000000 
#    z 0.025220 0.000000 1.556320 
# 
# From -- ./inp_files/36967.got.cif
#   From: 2010.05.17/outbox.cif.g08.bks.cpg/sg11_19_cif.got.tgz:36967.got - 2010.06.03 12:22:45.
