data_PCOD9156755
_publ_section_title
;
Structure prediction by ZEFSAII (Michael W. Deem and Ramdas Pophale) SiO2 
 PCOD9156755
Probable space group: P 21/M
;
_chemical_formula_sum "Si O2"
_cell_formula_units_Z 24
_cell_length_a 20.248607
_cell_length_b 8.576336
_cell_length_c 11.535479
_cell_angle_alpha 90.000000
_cell_angle_beta 135.854585
_cell_angle_gamma 90.000000
_cell_volume 1395.218867
_symmetry_space_group_name_H-M "P 21/M"
_symmetry_group_IT_number 11
_symmetry_cell_setting 'monoclinic'
loop_
_space_group_symop_operation_xyz
x,y,z
-x,1/2+y,-z
-x,-y,-z
x,1/2-y,z
loop_
_atom_site_type_symbol
_atom_site_label
_atom_site_fract_x
_atom_site_fract_y
_atom_site_fract_z
Si Si1 0.283979 0.436011 0.309769
Si Si2 0.045297 0.562017 0.382914
Si Si3 0.858396 0.438030 0.258874
Si Si4 0.092640 0.562107 0.182281
Si Si5 0.672672 0.062643 0.892952
Si Si6 0.478041 0.564036 0.601511
O O1 0.287007 0.250000 0.305114
O O2 0.186579 0.493021 0.242835
O O3 0.295497 0.506255 0.194951
O O4 0.374625 0.495649 0.497661
O O5 0.040701 0.750000 0.379420
O O6 0.110900 0.510541 0.573525
O O7 0.083421 0.515379 0.305595
O O8 0.940274 0.498466 0.276227
O O9 0.860442 0.250000 0.259187
O O10 0.754888 0.486816 0.085345
O O11 0.095542 0.750000 0.178948
O O12 0.000000 0.500000 0.000000
O O13 0.665824 0.250000 0.882546
O O14 0.568902 0.993088 0.787840
O O15 0.500000 0.500000 0.500000
O O16 0.474198 0.750000 0.594479
#
# Coordination Sequence:
#
# PCOD9156755 Si02
#       6
#     4   4   4   4   4   4
#     4  11  21  33  49  71 101 132 163 199 242 288
#     4   9  19  34  50  70  97 129 162 198 240 284
#     4   9  18  32  51  73  97 126 160 199 240 284
#     4  11  22  35  51  72 100 131 164 199 239 288
#     4  10  18  30  50  75 101 127 160 200 243 290
#     4  10  18  30  48  71  99 128 161 199 242 288
#
# _framework density 17.201604
#
# number of rings (size 3 to 8) (size 9 to 14) (size 15 to 20)
#    0.000    2.000    0.000    7.000    0.000    5.333 
#    0.000    0.000    0.000    1.000    0.000    0.000 
#    0.000    0.000    0.000    0.000    0.000    0.000 
#
# Total GULP energy -133912.043409 kJ/mol
# GULP energy per Si atom -5579.668475 kJ/mol
# Density = 1.716245 g / cm^3
# Si number density = 17.201604 Si / 1000 Ang^3
#
#
#
# Elastic Constant Matrix: (Units=GPa)
#
#
# Indices 1 2 3 4 5 6 
#
# 1 84.6099 24.9300 52.2204 0.0000 22.3240 0.0000
# 2 24.9300 73.8830 32.3302 0.0000 11.1860 0.0000
# 3 52.2204 32.3302 128.0633 0.0000 37.1590 0.0000
# 4 0.0000 0.0000 0.0000 25.8101 0.0000 7.9443
# 5 22.3240 11.1860 37.1590 0.0000 31.4049 0.0000
# 6 0.0000 0.0000 0.0000 7.9443 0.0000 24.6506
#
#
#
# Elastic Compliance Matrix: (Units=1/GPa)
#
#
# Indices 1 2 3 4 5 6 
#
# 1 0.016967 -0.002878 -0.004553 0.000000 -0.005649 0.000000
# 2 -0.002878 0.015740 -0.002691 0.000000 -0.000377 0.000000
# 3 -0.004553 -0.002691 0.013899 0.000000 -0.012251 0.000000
# 4 0.000000 0.000000 0.000000 0.043011 0.000000 -0.013861
# 5 -0.005649 -0.000377 -0.012251 0.000000 0.050487 0.000000
# 6 0.000000 0.000000 0.000000 -0.013861 0.000000 0.045034
#
#
# Mechanical properties :
#
#
# Convention : Reuss Voigt Hill
#
# Bulk Modulus (GPa) = 37.93104 56.16860 47.04982
# Shear Modulus (GPa) = 23.34574 28.17815 25.76195
#
# Velocity S-wave (km/s) = 3.68799 4.05175 3.87414
# Velocity P-wave (km/s) = 6.34301 7.39005 6.88646
#
# Compressibility (1/GPa) = 0.02636363
#
# Stress axis : x y z
#
# Youngs Moduli (GPa) = 58.93624 63.53044 71.94520
#
# Poissons Ratio (x) = 0.18281 0.32759
# Poissons Ratio (y) = 0.16959 0.19360
# Poissons Ratio (z) = 0.26836 0.17096
#
# Static dielectric constant tensor:
#      x y z
#    x 1.626840 0.000000 -0.010560 
#    y 0.000000 1.580320 0.000000 
#    z -0.010560 0.000000 1.625110 
# 
# From -- ./inp_files/42666.got.cif
#   From: 2010.05.17/outbox.cif.g08.bks.cpg/sg11_22_cif.got.tgz:42666.got - 2010.06.03 12:22:45.
