data_PCOD9156946
_publ_section_title
;
Structure prediction by ZEFSAII (Michael W. Deem and Ramdas Pophale) SiO2 
 PCOD9156946
Probable space group: P 21/M
;
_chemical_formula_sum "Si O2"
_cell_formula_units_Z 32
_cell_length_a 21.818844
_cell_length_b 8.645815
_cell_length_c 31.294919
_cell_angle_alpha 90.000000
_cell_angle_beta 160.264888
_cell_angle_gamma 90.000000
_cell_volume 1993.456424
_symmetry_space_group_name_H-M "P 21/M"
_symmetry_group_IT_number 11
_symmetry_cell_setting 'monoclinic'
loop_
_space_group_symop_operation_xyz
x,y,z
-x,1/2+y,-z
-x,-y,-z
x,1/2-y,z
loop_
_atom_site_type_symbol
_atom_site_label
_atom_site_fract_x
_atom_site_fract_y
_atom_site_fract_z
Si Si1 0.788294 0.934815 0.198380
Si Si2 0.838750 0.564049 0.423539
Si Si3 0.540239 0.564249 0.861192
Si Si4 0.526368 0.563407 0.950593
Si Si5 0.892989 0.064084 0.888433
Si Si6 0.844417 0.936775 0.526782
Si Si7 0.203891 0.564579 0.041291
Si Si8 0.440802 0.937706 0.279950
O O1 0.793580 0.750000 0.202963
O O2 0.657271 0.994726 0.150131
O O3 0.689345 0.983264 0.089369
O O4 0.987769 0.000232 0.336340
O O5 0.838070 0.750000 0.421157
O O6 0.645985 0.502191 0.280477
O O7 0.863931 0.518363 0.489685
O O8 0.000000 0.500000 0.500000
O O9 0.534729 0.750000 0.855409
O O10 0.553855 0.517255 0.919721
O O11 0.706996 0.502414 0.942681
O O12 0.511895 0.750000 0.942563
O O13 0.904063 0.250000 0.894920
O O14 0.685211 0.018156 0.762473
O O15 0.000000 0.000000 0.000000
O O16 0.003272 0.996126 0.921047
O O17 0.847143 0.750000 0.530054
O O18 0.647628 0.991438 0.414192
O O19 0.202652 0.750000 0.039243
O O20 0.336013 0.516169 0.167590
O O21 0.444574 0.750000 0.281717
#
# Coordination Sequence:
#
# PCOD9156946 Si02
#       8
#     4   4   4   4   4   4   4   4
#     4  10  20  34  52  73  93 119 162 209 245 283
#     4  11  22  34  47  66  98 132 161 195 237 287
#     4  11  21  33  50  71  95 127 164 199 241 292
#     4   9  20  37  52  68  94 125 158 203 253 290
#     4   9  16  27  45  68  94 128 165 198 235 283
#     4  10  19  33  49  67  96 132 159 190 240 287
#     4  10  18  31  47  68  99 131 160 196 240 287
#     4   8  15  29  46  65  94 129 159 188 231 284
#
# _framework density 16.052520000000001
#
# number of rings (size 3 to 8) (size 9 to 14) (size 15 to 20)
#    0.000    2.250    1.250    3.375    0.000    5.500 
#    0.000    1.250    0.000    0.000    0.000    0.875 
#    0.000    0.000    0.000    0.000    0.000    0.000 
#
# Total GULP energy -178440.610346 kJ/mol
# GULP energy per Si atom -5576.269073 kJ/mol
# Density = 1.601598 g / cm^3
# Si number density = 16.052520 Si / 1000 Ang^3
#
#
#
# Elastic Constant Matrix: (Units=GPa)
#
#
# Indices 1 2 3 4 5 6 
#
# 1 68.4999 17.5308 44.8642 0.0000 18.1832 0.0000
# 2 17.5308 27.5478 17.4059 0.0000 3.9269 0.0000
# 3 44.8642 17.4059 95.4108 0.0000 20.6922 0.0000
# 4 0.0000 0.0000 0.0000 25.1235 0.0000 4.5270
# 5 18.1832 3.9269 20.6922 0.0000 25.3357 0.0000
# 6 0.0000 0.0000 0.0000 4.5270 0.0000 22.4410
#
#
#
# Elastic Compliance Matrix: (Units=1/GPa)
#
#
# Indices 1 2 3 4 5 6 
#
# 1 0.024729 -0.009421 -0.007750 0.000000 -0.009958 0.000000
# 2 -0.009421 0.044621 -0.004468 0.000000 0.003495 0.000000
# 3 -0.007750 -0.004468 0.016508 0.000000 -0.007228 0.000000
# 4 0.000000 0.000000 0.000000 0.041305 0.000000 -0.008332
# 5 -0.009958 0.003495 -0.007228 0.000000 0.051978 0.000000
# 6 0.000000 0.000000 0.000000 -0.008332 0.000000 0.046242
#
#
# Mechanical properties :
#
#
# Convention : Reuss Voigt Hill
#
# Bulk Modulus (GPa) = 23.48527 39.00670 31.24599
# Shear Modulus (GPa) = 17.67705 22.02389 19.85047
#
# Velocity S-wave (km/s) = 3.32204 3.70806 3.52034
# Velocity P-wave (km/s) = 5.42002 6.53338 6.00257
#
# Compressibility (1/GPa) = 0.04257989
#
# Stress axis : x y z
#
# Youngs Moduli (GPa) = 40.43917 22.41107 60.57781
#
# Poissons Ratio (x) = 0.21113 0.46945
# Poissons Ratio (y) = 0.38096 0.27068
# Poissons Ratio (z) = 0.31339 0.10014
#
# Static dielectric constant tensor:
#      x y z
#    x 1.548230 0.000000 0.015140 
#    y 0.000000 1.543000 0.000000 
#    z 0.015140 0.000000 1.531750 
# 
# From -- ./inp_files/40718.got.cif
#   From: 2010.05.17/outbox.cif.g08.bks.cpg/sg11_21_cif.got.tgz:40718.got - 2010.06.03 12:22:45.
