data_PCOD9156511
_publ_section_title
;
Structure prediction by ZEFSAII (Michael W. Deem and Ramdas Pophale) SiO2 
 PCOD9156511
Probable space group: P 21/M
;
_chemical_formula_sum "Si O2"
_cell_formula_units_Z 28
_cell_length_a 17.754066
_cell_length_b 8.823149
_cell_length_c 14.900162
_cell_angle_alpha 90.000000
_cell_angle_beta 49.699217
_cell_angle_gamma 90.000000
_cell_volume 1780.094723
_symmetry_space_group_name_H-M "P 21/M"
_symmetry_group_IT_number 11
_symmetry_cell_setting 'monoclinic'
loop_
_space_group_symop_operation_xyz
x,y,z
-x,1/2+y,-z
-x,-y,-z
x,1/2-y,z
loop_
_atom_site_type_symbol
_atom_site_label
_atom_site_fract_x
_atom_site_fract_y
_atom_site_fract_z
Si Si1 0.410057 0.932628 0.683684
Si Si2 0.254856 0.569851 0.454388
Si Si3 0.415807 0.432491 0.198616
Si Si4 0.363020 0.568194 0.919226
Si Si5 0.891694 0.932466 0.572408
Si Si6 0.361700 0.430754 0.532918
Si Si7 0.730102 0.569249 0.844596
O O1 0.401938 0.750000 0.681842
O O2 0.364252 0.980185 0.814251
O O3 0.527682 0.967749 0.589609
O O4 0.361817 0.010650 0.634716
O O5 0.245280 0.750000 0.461592
O O6 0.348325 0.516932 0.322756
O O7 0.162013 0.495152 0.475276
O O8 0.280036 0.508521 0.533643
O O9 0.406098 0.250000 0.220695
O O10 0.529147 0.474089 0.124637
O O11 0.366988 0.467643 0.140397
O O12 0.357038 0.750000 0.924791
O O13 0.281688 0.503378 0.049088
O O14 0.893830 0.750000 0.567225
O O15 0.822262 0.977033 0.710927
O O16 0.000000 0.000000 0.500000
O O17 0.350811 0.250000 0.537504
O O18 0.734229 0.750000 0.851133
#
# Coordination Sequence:
#
# PCOD9156511 Si02
#       7
#     4   4   4   4   4   4   4
#     4   9  18  30  44  65  95 131 170 208 241 277
#     4  11  20  30  49  74  98 128 165 201 242 294
#     4   9  17  31  44  62  95 132 165 202 238 273
#     4  10  18  29  45  65  96 133 166 200 238 280
#     4  10  21  38  56  75  99 124 156 202 249 292
#     4  10  18  31  47  65  95 131 167 207 246 282
#     4   9  19  31  46  68  96 125 158 198 239 287
#
# _framework density 15.729499000000001
#
# number of rings (size 3 to 8) (size 9 to 14) (size 15 to 20)
#    0.000    2.286    1.429    3.429    0.000    4.571 
#    0.000    0.000    0.000    0.000    0.000    1.000 
#    0.000    0.000    0.000    0.000    0.000    0.000 
#
# Total GULP energy -156132.665608 kJ/mol
# GULP energy per Si atom -5576.166629 kJ/mol
# Density = 1.569370 g / cm^3
# Si number density = 15.729499 Si / 1000 Ang^3
#
#
#
# Elastic Constant Matrix: (Units=GPa)
#
#
# Indices 1 2 3 4 5 6 
#
# 1 113.2997 45.5724 68.4088 0.0000 11.8257 0.0000
# 2 45.5724 37.7532 31.6212 0.0000 6.7242 0.0000
# 3 68.4088 31.6212 83.2989 0.0000 19.9560 0.0000
# 4 0.0000 0.0000 0.0000 25.4136 0.0000 4.2079
# 5 11.8257 6.7242 19.9560 0.0000 25.3614 0.0000
# 6 0.0000 0.0000 0.0000 4.2079 0.0000 25.2146
#
#
#
# Elastic Compliance Matrix: (Units=1/GPa)
#
#
# Indices 1 2 3 4 5 6 
#
# 1 0.024126 -0.018216 -0.014000 0.000000 0.004596 0.000000
# 2 -0.018216 0.052642 -0.004578 0.000000 -0.001861 0.000000
# 3 -0.014000 -0.004578 0.028818 0.000000 -0.014934 0.000000
# 4 0.000000 0.000000 0.000000 0.040467 0.000000 -0.006753
# 5 0.004596 -0.001861 -0.014934 0.000000 0.049531 0.000000
# 6 0.000000 0.000000 0.000000 -0.006753 0.000000 0.040787
#
#
# Mechanical properties :
#
#
# Convention : Reuss Voigt Hill
#
# Bulk Modulus (GPa) = 31.25072 58.39519 44.82296
# Shear Modulus (GPa) = 15.59454 21.11454 18.35454
#
# Velocity S-wave (km/s) = 3.15210 3.66779 3.41968
# Velocity P-wave (km/s) = 5.75833 7.42577 6.64456
#
# Compressibility (1/GPa) = 0.03199926
#
# Stress axis : x y z
#
# Youngs Moduli (GPa) = 41.44883 18.99608 34.70095
#
# Poissons Ratio (x) = 0.34603 0.48580
# Poissons Ratio (y) = 0.75502 0.15887
# Poissons Ratio (z) = 0.58026 0.08697
#
# Static dielectric constant tensor:
#      x y z
#    x 1.524530 0.000000 0.019480 
#    y 0.000000 1.525580 0.000000 
#    z 0.019480 0.000000 1.519360 
# 
# From -- ./inp_files/51033.got.cif
#   From: 2010.05.17/outbox.cif.g08.bks.cpg/sg11_26_cif.got.tgz:51033.got - 2010.06.03 12:22:45.
