data_PCOD9156884
_publ_section_title
;
Structure prediction by ZEFSAII (Michael W. Deem and Ramdas Pophale) SiO2 
 PCOD9156884
Probable space group: P 21/M
;
_chemical_formula_sum "Si O2"
_cell_formula_units_Z 32
_cell_length_a 27.106586
_cell_length_b 9.373991
_cell_length_c 22.001545
_cell_angle_alpha 90.000000
_cell_angle_beta 20.012256
_cell_angle_gamma 90.000000
_cell_volume 1913.195591
_symmetry_space_group_name_H-M "P 21/M"
_symmetry_group_IT_number 11
_symmetry_cell_setting 'monoclinic'
loop_
_space_group_symop_operation_xyz
x,y,z
-x,1/2+y,-z
-x,-y,-z
x,1/2-y,z
loop_
_atom_site_type_symbol
_atom_site_label
_atom_site_fract_x
_atom_site_fract_y
_atom_site_fract_z
Si Si1 0.452728 0.921850 0.493548
Si Si2 0.356875 0.416715 0.181949
Si Si3 0.669779 0.918495 0.653107
Si Si4 0.764488 0.413045 0.432109
Si Si5 0.855669 0.918520 0.686010
Si Si6 0.132706 0.577739 0.815320
Si Si7 0.659809 0.079877 0.009598
Si Si8 0.566731 0.585497 0.232328
O O1 0.461423 0.750000 0.490150
O O2 0.286670 0.956494 0.668375
O O3 0.551760 0.959413 0.320118
O O4 0.500000 0.000000 0.500000
O O5 0.393550 0.250000 0.147377
O O6 0.299366 0.466647 0.313995
O O7 0.247042 0.429172 0.253974
O O8 0.500000 0.500000 0.000000
O O9 0.694095 0.750000 0.619812
O O10 0.763488 0.996383 0.494001
O O11 0.499680 0.943642 0.835419
O O12 0.803986 0.250000 0.399576
O O13 0.855870 0.464988 0.268871
O O14 0.599166 0.412975 0.599222
O O15 0.879027 0.750000 0.671734
O O16 0.775169 0.996473 0.834991
O O17 0.000000 0.000000 0.500000
O O18 0.117641 0.750000 0.834753
O O19 0.000000 0.500000 0.000000
O O20 0.686287 0.250000 0.979531
O O21 0.650707 0.015118 0.088164
O O22 0.618321 0.750000 0.169361
#
# Coordination Sequence:
#
# PCOD9156884 Si02
#       8
#     4   4   4   4   4   4   4   4
#     4   9  18  32  51  76 105 134 168 211 254 298
#     4  10  20  34  53  78 104 131 165 208 254 300
#     4   9  17  29  48  76 104 125 157 207 253 295
#     4   8  15  28  46  70  99 130 164 202 245 294
#     4  11  23  37  54  74 102 139 174 208 252 303
#     4   9  18  32  50  74 103 134 170 207 247 298
#     4  10  18  30  51  77 103 129 164 210 254 301
#     4   8  15  29  48  71 100 131 165 207 252 298
#
# _framework density 16.725942
#
# number of rings (size 3 to 8) (size 9 to 14) (size 15 to 20)
#    0.000    2.750    1.250    2.250    0.000    3.000 
#    0.000    2.500    2.750    0.000    0.000    0.000 
#    0.000    0.000    0.000    0.000    0.000    0.000 
#
# Total GULP energy -178277.600317 kJ/mol
# GULP energy per Si atom -5571.175010 kJ/mol
# Density = 1.668787 g / cm^3
# Si number density = 16.725942 Si / 1000 Ang^3
#
#
#
# Elastic Constant Matrix: (Units=GPa)
#
#
# Indices 1 2 3 4 5 6 
#
# 1 97.2140 54.8530 54.9690 0.0000 41.0923 0.0000
# 2 54.8530 75.9300 70.2188 0.0000 22.5534 0.0000
# 3 54.9690 70.2188 116.9880 0.0000 39.6951 0.0000
# 4 0.0000 0.0000 0.0000 31.3450 0.0000 8.1680
# 5 41.0923 22.5534 39.6951 0.0000 33.3108 0.0000
# 6 0.0000 0.0000 0.0000 8.1680 0.0000 27.4600
#
#
#
# Elastic Compliance Matrix: (Units=1/GPa)
#
#
# Indices 1 2 3 4 5 6 
#
# 1 0.033446 -0.023122 0.011501 0.000000 -0.039310 0.000000
# 2 -0.023122 0.045657 -0.026407 0.000000 0.029078 0.000000
# 3 0.011501 -0.026407 0.029784 0.000000 -0.031802 0.000000
# 4 0.000000 0.000000 0.000000 0.034584 0.000000 -0.010287
# 5 -0.039310 0.029078 -0.031802 0.000000 0.096721 0.000000
# 6 0.000000 0.000000 0.000000 -0.010287 0.000000 0.039476
#
#
# Mechanical properties :
#
#
# Convention : Reuss Voigt Hill
#
# Bulk Modulus (GPa) = 30.45766 72.24593 51.35179
# Shear Modulus (GPa) = 13.63631 25.76257 19.69944
#
# Velocity S-wave (km/s) = 2.85841 3.92889 3.43560
# Velocity P-wave (km/s) = 5.39846 7.99183 6.81955
#
# Compressibility (1/GPa) = 0.03283247
#
# Stress axis : x y z
#
# Youngs Moduli (GPa) = 29.89895 21.90244 33.57469
#
# Poissons Ratio (x) = 0.50643 -0.38615
# Poissons Ratio (y) = 0.69132 0.88660
# Poissons Ratio (z) = -0.34387 0.57837
#
# Static dielectric constant tensor:
#      x y z
#    x 1.565580 0.000000 0.012030 
#    y 0.000000 1.560560 0.000000 
#    z 0.012030 0.000000 1.548410 
# 
# From -- ./inp_files/67106.got.cif
#   From: 2010.05.17/outbox.cif.g08.bks.cpg/sg11_34_cif.got.tgz:67106.got - 2010.06.03 12:22:45.
