data_PCOD9156108
_publ_section_title
;
Structure prediction by ZEFSAII (Michael W. Deem and Ramdas Pophale) SiO2 
 PCOD9156108
Probable space group: P 21/M
;
_chemical_formula_sum "Si O2"
_cell_formula_units_Z 32
_cell_length_a 10.251689
_cell_length_b 14.703679
_cell_length_c 16.998836
_cell_angle_alpha 90.000000
_cell_angle_beta 142.264848
_cell_angle_gamma 90.000000
_cell_volume 1568.197688
_symmetry_space_group_name_H-M "P 21/M"
_symmetry_group_IT_number 11
_symmetry_cell_setting 'monoclinic'
loop_
_space_group_symop_operation_xyz
x,y,z
-x,1/2+y,-z
-x,-y,-z
x,1/2-y,z
loop_
_atom_site_type_symbol
_atom_site_label
_atom_site_fract_x
_atom_site_fract_y
_atom_site_fract_z
Si Si1 0.271485 0.140069 0.934828
Si Si2 0.563678 0.645353 0.311639
Si Si3 0.961434 0.145821 0.186884
Si Si4 0.897481 0.104385 0.866257
Si Si5 0.800020 0.605203 0.848968
Si Si6 0.955903 0.861709 0.599393
Si Si7 0.520322 0.361889 0.902889
Si Si8 0.577421 0.140322 0.222499
O O1 0.276336 0.250000 0.937529
O O2 0.344293 0.111327 0.883056
O O3 0.041134 0.112750 0.857449
O O4 0.446843 0.108690 0.082796
O O5 0.626701 0.750000 0.327008
O O6 0.336142 0.646446 0.246437
O O7 0.525355 0.603871 0.206738
O O8 0.750524 0.604482 0.453744
O O9 0.899458 0.250000 0.175287
O O10 0.031222 0.106408 0.303709
O O11 0.144482 0.146663 0.208665
O O12 0.749944 0.105517 0.044946
O O13 0.854159 0.999843 0.864016
O O14 0.040604 0.142370 0.006952
O O15 0.563338 0.615463 0.769198
O O16 0.943954 0.750000 0.595109
O O17 0.178173 0.888753 0.664783
O O18 0.529281 0.250000 0.903472
O O19 0.579294 0.250000 0.219608
#
# Coordination Sequence:
#
# PCOD9156108 Si02
#       8
#     4   4   4   4   4   4   4   4
#     4   9  16  29  51  75  98 127 164 207 250 295
#     4  10  19  33  53  76 102 132 162 202 256 304
#     4  10  17  31  53  77  99 126 169 210 245 293
#     4  10  20  33  47  73 107 135 166 207 252 296
#     4  10  20  32  49  74 103 134 171 211 244 289
#     4   9  18  32  52  77 102 126 163 211 252 295
#     4   9  16  28  50  77  99 122 163 207 245 294
#     4   9  16  30  51  74  98 128 165 206 251 293
#
# _framework density 20.405591000000001
#
# number of rings (size 3 to 8) (size 9 to 14) (size 15 to 20)
#    0.000    2.500    2.500    0.750    0.000    1.000 
#    0.000    4.375    0.000    4.500    0.000    0.000 
#    0.000    0.000    0.000    0.000    0.000    0.000 
#
# Total GULP energy -178556.992401 kJ/mol
# GULP energy per Si atom -5579.906013 kJ/mol
# Density = 2.035915 g / cm^3
# Si number density = 20.405591 Si / 1000 Ang^3
#
#
#
# Elastic Constant Matrix: (Units=GPa)
#
#
# Indices 1 2 3 4 5 6 
#
# 1 176.6358 -0.5493 97.0271 0.0000 5.2807 0.0000
# 2 -0.5493 29.9370 7.3904 0.0000 -2.6436 0.0000
# 3 97.0271 7.3904 152.9640 0.0000 0.0807 0.0000
# 4 0.0000 0.0000 0.0000 7.7792 0.0000 1.2122
# 5 5.2807 -2.6436 0.0807 0.0000 23.3820 0.0000
# 6 0.0000 0.0000 0.0000 1.2122 0.0000 10.2062
#
#
#
# Elastic Compliance Matrix: (Units=1/GPa)
#
#
# Indices 1 2 3 4 5 6 
#
# 1 0.008835 0.001402 -0.005671 0.000000 -0.001817 0.000000
# 2 0.001402 0.034375 -0.002552 0.000000 0.003579 0.000000
# 3 -0.005671 -0.002552 0.010257 0.000000 0.000957 0.000000
# 4 0.000000 0.000000 0.000000 0.130972 0.000000 -0.015555
# 5 -0.001817 0.003579 0.000957 0.000000 0.043580 0.000000
# 6 0.000000 0.000000 0.000000 -0.015555 0.000000 0.099827
#
#
# Mechanical properties :
#
#
# Convention : Reuss Voigt Hill
#
# Bulk Modulus (GPa) = 25.10957 63.03034 44.06995
# Shear Modulus (GPa) = 14.09384 25.31804 19.70594
#
# Velocity S-wave (km/s) = 2.63094 3.52624 3.11096
# Velocity P-wave (km/s) = 4.64339 6.89456 5.87776
#
# Compressibility (1/GPa) = 0.03982546
#
# Stress axis : x y z
#
# Youngs Moduli (GPa) = 113.18376 29.09076 97.48986
#
# Poissons Ratio (x) = -0.04077 0.55287
# Poissons Ratio (y) = -0.15864 0.24877
# Poissons Ratio (z) = 0.64187 0.07423
#
# Static dielectric constant tensor:
#      x y z
#    x 1.724290 0.000000 -0.007130 
#    y 0.000000 1.887480 0.000000 
#    z -0.007130 0.000000 1.717910 
# 
# From -- ./inp_files/19206.got.cif
#   From: 2010.05.17/outbox.cif.g08.bks.cpg/sg11_10_cif.got.tgz:19206.got - 2010.06.03 12:22:45.
