data_PCOD9156768
_publ_section_title
;
Structure prediction by ZEFSAII (Michael W. Deem and Ramdas Pophale) SiO2 
 PCOD9156768
Probable space group: P 21/M
;
_chemical_formula_sum "Si O2"
_cell_formula_units_Z 26
_cell_length_a 9.830034
_cell_length_b 22.867585
_cell_length_c 9.869313
_cell_angle_alpha 90.000000
_cell_angle_beta 29.812337
_cell_angle_gamma 90.000000
_cell_volume 1102.958370
_symmetry_space_group_name_H-M "P 21/M"
_symmetry_group_IT_number 11
_symmetry_cell_setting 'monoclinic'
loop_
_space_group_symop_operation_xyz
x,y,z
-x,1/2+y,-z
-x,-y,-z
x,1/2-y,z
loop_
_atom_site_type_symbol
_atom_site_label
_atom_site_fract_x
_atom_site_fract_y
_atom_site_fract_z
Si Si1 0.004835 0.065519 0.542443
Si Si2 0.350211 0.877762 0.630158
Si Si3 0.166276 0.447918 0.938279
Si Si4 0.004383 0.750000 0.313404
Si Si5 0.599257 0.250000 0.294062
Si Si6 0.620595 0.750000 0.056201
Si Si7 0.910409 0.324436 0.492095
Si Si8 0.398231 0.557623 0.869306
O O1 0.929248 0.107184 0.486282
O O2 0.301529 0.074711 0.346523
O O3 0.000000 0.000000 0.500000
O O4 0.794411 0.074560 0.843274
O O5 0.617269 0.908480 0.333222
O O6 0.361885 0.807893 0.645801
O O7 0.333321 0.904017 0.795433
O O8 0.071334 0.903883 0.807400
O O9 0.344389 0.488842 0.884731
O O10 0.000000 0.500000 0.000000
O O11 0.703830 0.750000 0.508770
O O12 0.048684 0.802197 0.384942
O O13 0.204748 0.750000 0.009524
O O14 0.385169 0.800178 0.293611
O O15 0.842259 0.799181 0.809767
#
# Coordination Sequence:
#
# PCOD9156768 Si02
#       8
#     4   4   4   2   2   2   4   4
#     4  12  24  36  54  84 117 149 188 238 282 323
#     4  11  21  35  57  86 117 142 178 229 277 348
#     4  10  20  37  58  81 106 146 192 222 262 327
#     4  10  18  30  48  74 107 147 173 205 272 364
#     4  12  21  30  48  84 117 138 165 212 290 348
#     4   8  17  30  52  70  92 137 174 211 266 336
#     4  10  18  33  49  74 107 141 179 214 264 326
#     4  11  21  38  57  79 112 155 188 228 276 329
#
# _framework density 23.572963999999999
#
# number of rings (size 3 to 8) (size 9 to 14) (size 15 to 20)
#    0.000    1.538    0.000   10.615    0.000    0.000 
#    0.000    0.000    0.000    0.000    0.000   28.000 
#    0.000    0.000    0.000    0.000    0.000    0.000 
#
# Total GULP energy -144808.277419 kJ/mol
# GULP energy per Si atom -5569.549131 kJ/mol
# Density = 2.351931 g / cm^3
# Si number density = 23.572964 Si / 1000 Ang^3
#
#
#
# Elastic Constant Matrix: (Units=GPa)
#
#
# Indices 1 2 3 4 5 6 
#
# 1 65.4778 31.4377 62.1970 0.0000 34.2108 0.0000
# 2 31.4377 151.4407 20.2561 0.0000 -6.8099 0.0000
# 3 62.1970 20.2561 218.6053 0.0000 -29.6105 0.0000
# 4 0.0000 0.0000 0.0000 59.7599 0.0000 -31.5780
# 5 34.2108 -6.8099 -29.6105 0.0000 -16.9602 0.0000
# 6 0.0000 0.0000 0.0000 -31.5780 0.0000 39.7502
#
#
#
# Elastic Compliance Matrix: (Units=1/GPa)
#
#
# Indices 1 2 3 4 5 6 
#
# 1 0.007550 -0.000874 0.000035 0.000000 0.015520 0.000000
# 2 -0.000874 0.006752 -0.000795 0.000000 -0.003086 0.000000
# 3 0.000035 -0.000795 0.003794 0.000000 -0.006234 0.000000
# 4 0.000000 0.000000 0.000000 0.028840 0.000000 0.022911
# 5 0.015520 -0.003086 -0.006234 0.000000 -0.015534 0.000000
# 6 0.000000 0.000000 0.000000 0.022911 0.000000 0.043358
#
#
# Mechanical properties :
#
#
# Convention : Reuss Voigt Hill
#
# Bulk Modulus (GPa) = 67.44058 73.70061 70.57059
# Shear Modulus (GPa) = 60.26194 37.95217 49.10706
#
# Velocity S-wave (km/s) = 5.06157 4.01682 4.56915
# Velocity P-wave (km/s) = 7.92658 7.26952 7.60515
#
# Compressibility (1/GPa) = 0.01482787
#
# Stress axis : x y z
#
# Youngs Moduli (GPa) = 132.44715 148.09851 263.58812
#
# Poissons Ratio (x) = 0.12946 -0.00922
# Poissons Ratio (y) = 0.11578 0.20956
# Poissons Ratio (z) = -0.00463 0.11774
#
# Static dielectric constant tensor:
#      x y z
#    x 1.935380 0.000000 -0.000070 
#    y 0.000000 1.924640 0.000000 
#    z -0.000070 0.000000 1.813270 
# 
# From -- ./inp_files/36675.got.cif
#   From: 2010.05.17/outbox.cif.g08.bks.cpg/sg11_19_cif.got.tgz:36675.got - 2010.06.03 12:22:45.
