data_PCOD9156168
_publ_section_title
;
Structure prediction by ZEFSAII (Michael W. Deem and Ramdas Pophale) SiO2 
 PCOD9156168
Probable space group: P 21/M
;
_chemical_formula_sum "Si O2"
_cell_formula_units_Z 30
_cell_length_a 9.629871
_cell_length_b 16.942918
_cell_length_c 8.257866
_cell_angle_alpha 90.000000
_cell_angle_beta 91.881003
_cell_angle_gamma 90.000000
_cell_volume 1346.611840
_symmetry_space_group_name_H-M "P 21/M"
_symmetry_group_IT_number 11
_symmetry_cell_setting 'monoclinic'
loop_
_space_group_symop_operation_xyz
x,y,z
-x,1/2+y,-z
-x,-y,-z
x,1/2-y,z
loop_
_atom_site_type_symbol
_atom_site_label
_atom_site_fract_x
_atom_site_fract_y
_atom_site_fract_z
Si Si1 0.786579 0.887840 0.972694
Si Si2 0.094089 0.593371 0.528479
Si Si3 0.234713 0.250000 0.266088
Si Si4 0.721585 0.465850 0.755919
Si Si5 0.605679 0.894263 0.539714
Si Si6 0.845528 0.576064 0.329495
Si Si7 0.530334 0.407152 0.995039
Si Si8 0.652723 0.338823 0.321190
O O1 0.860673 0.893743 0.148939
O O2 0.621684 0.867980 0.000900
O O3 0.834297 0.820216 0.852973
O O4 0.791008 0.974471 0.889822
O O5 0.167118 0.570330 0.361478
O O6 0.108031 0.514673 0.639488
O O7 0.188666 0.655959 0.621153
O O8 0.940590 0.618239 0.470039
O O9 0.318630 0.320271 0.371612
O O10 0.629673 0.528000 0.649638
O O11 0.628572 0.400739 0.842936
O O12 0.685629 0.912787 0.377034
O O13 0.443501 0.874743 0.540785
O O14 0.500000 0.500000 0.000000
O O15 0.616648 0.384669 0.156816
O O16 0.609836 0.250000 0.290136
#
# Coordination Sequence:
#
# PCOD9156168 Si02
#       8
#     4   4   2   4   4   4   4   4
#     4  10  19  34  57  89 119 148 198 254 299 349
#     4  10  23  41  58  87 124 160 202 249 301 370
#     4  10  18  38  54  88 120 150 196 254 296 362
#     4   9  19  34  61  89 115 150 197 260 298 346
#     4  10  19  36  62  90 114 154 203 247 302 359
#     4  10  23  39  62  90 117 159 209 252 298 352
#     4  10  17  33  59  91 116 154 199 255 300 355
#     4  12  22  39  62  88 126 162 199 253 316 369
#
# _framework density 22.278136
#
# number of rings (size 3 to 8) (size 9 to 14) (size 15 to 20)
#    0.000    1.867    4.667    1.600    1.867    2.133 
#    2.400    3.333    0.000    0.000    0.000    0.000 
#    0.000    0.000    0.000    0.000    0.000    0.000 
#
# Total GULP energy -167005.219369 kJ/mol
# GULP energy per Si atom -5566.840646 kJ/mol
# Density = 2.222743 g / cm^3
# Si number density = 22.278136 Si / 1000 Ang^3
#
#
#
# Elastic Constant Matrix: (Units=GPa)
#
#
# Indices 1 2 3 4 5 6 
#
# 1 53.5691 7.7781 7.9361 0.0000 3.1363 0.0000
# 2 7.7781 55.0039 21.4511 0.0000 4.5810 0.0000
# 3 7.9361 21.4511 81.9092 0.0000 14.0686 0.0000
# 4 0.0000 0.0000 0.0000 33.1647 0.0000 21.2798
# 5 3.1363 4.5810 14.0686 0.0000 32.5586 0.0000
# 6 0.0000 0.0000 0.0000 21.2798 0.0000 23.2426
#
#
#
# Elastic Compliance Matrix: (Units=1/GPa)
#
#
# Indices 1 2 3 4 5 6 
#
# 1 0.019212 -0.002198 -0.001103 0.000000 -0.001065 0.000000
# 2 -0.002198 0.020511 -0.005076 0.000000 -0.000481 0.000000
# 3 -0.001103 -0.005076 0.014587 0.000000 -0.005482 0.000000
# 4 0.000000 0.000000 0.000000 0.073089 0.000000 -0.066917
# 5 -0.001065 -0.000481 -0.005482 0.000000 0.033253 0.000000
# 6 0.000000 0.000000 0.000000 -0.066917 0.000000 0.104290
#
#
# Mechanical properties :
#
#
# Convention : Reuss Voigt Hill
#
# Bulk Modulus (GPa) = 26.62697 29.42364 28.02530
# Shear Modulus (GPa) = 16.99441 28.01432 22.50437
#
# Velocity S-wave (km/s) = 2.76493 3.54994 3.18174
# Velocity P-wave (km/s) = 4.70862 5.48077 5.10931
#
# Compressibility (1/GPa) = 0.03755591
#
# Stress axis : x y z
#
# Youngs Moduli (GPa) = 52.04986 48.75436 68.55651
#
# Poissons Ratio (x) = 0.10716 0.07561
# Poissons Ratio (y) = 0.11440 0.34800
# Poissons Ratio (z) = 0.05741 0.24748
#
# Static dielectric constant tensor:
#      x y z
#    x 1.927060 0.000000 -0.025720 
#    y 0.000000 1.879170 0.000000 
#    z -0.025720 0.000000 1.864980 
# 
# From -- ./inp_files/14358.got.cif
#   From: 2010.05.17/outbox.cif.g08.bks.cpg/sg11_8_cif.got.tgz:14358.got - 2010.06.03 12:22:45.
