data_PCOD9156468
_publ_section_title
;
Structure prediction by ZEFSAII (Michael W. Deem and Ramdas Pophale) SiO2 
 PCOD9156468
Probable space group: P 21/M
;
_chemical_formula_sum "Si O2"
_cell_formula_units_Z 24
_cell_length_a 16.157817
_cell_length_b 14.177383
_cell_length_c 10.340095
_cell_angle_alpha 90.000000
_cell_angle_beta 143.249472
_cell_angle_gamma 90.000000
_cell_volume 1417.246865
_symmetry_space_group_name_H-M "P 21/M"
_symmetry_group_IT_number 11
_symmetry_cell_setting 'monoclinic'
loop_
_space_group_symop_operation_xyz
x,y,z
-x,1/2+y,-z
-x,-y,-z
x,1/2-y,z
loop_
_atom_site_type_symbol
_atom_site_label
_atom_site_fract_x
_atom_site_fract_y
_atom_site_fract_z
Si Si1 0.569109 0.955345 0.211875
Si Si2 0.216155 0.750000 0.314864
Si Si3 0.831803 0.451833 0.646650
Si Si4 0.399157 0.968526 0.255874
Si Si5 0.631774 0.750000 0.380289
Si Si6 0.593082 0.250000 0.686253
Si Si7 0.858471 0.946821 0.954323
Si Si8 0.097861 0.250000 0.132138
O O1 0.481130 0.985615 0.227169
O O2 0.582524 0.842433 0.242523
O O3 0.722902 0.994473 0.423888
O O4 0.500000 0.000000 0.000000
O O5 0.207924 0.842748 0.391664
O O6 0.351284 0.750000 0.392377
O O7 0.068285 0.750000 0.050058
O O8 0.827118 0.489563 0.788690
O O9 0.989363 0.468204 0.802154
O O10 0.360303 0.856556 0.214129
O O11 0.500000 0.000000 0.500000
O O12 0.262716 0.031230 0.098919
O O13 0.558780 0.750000 0.433093
O O14 0.796133 0.750000 0.615030
O O15 0.867642 0.841895 0.909083
#
# Coordination Sequence:
#
# PCOD9156468 Si02
#       8
#     4   2   4   4   2   2   4   2
#     4  11  23  38  54  77 110 148 180 219 269 326
#     4  10  18  29  52  87 112 135 171 229 273 310
#     4  10  19  32  52  80 111 137 175 220 271 313
#     4  11  19  34  54  79 107 137 180 226 267 314
#     4  10  20  35  53  73 104 143 183 217 261 323
#     4  10  18  28  48  77 104 133 172 219 264 309
#     4  10  18  31  54  82 107 136 174 228 267 306
#     4  10  18  30  53  83 112 137 176 221 272 318
#
# _framework density 16.934241
#
# number of rings (size 3 to 8) (size 9 to 14) (size 15 to 20)
#    0.000    1.667    5.000    1.000    0.000    0.667 
#    0.000    2.500    0.000    0.000    0.000    0.000 
#    0.000    0.000    0.000    0.000    0.000    0.000 
#
# Total GULP energy -133635.921973 kJ/mol
# GULP energy per Si atom -5568.163416 kJ/mol
# Density = 1.689570 g / cm^3
# Si number density = 16.934241 Si / 1000 Ang^3
#
#
#
# Elastic Constant Matrix: (Units=GPa)
#
#
# Indices 1 2 3 4 5 6 
#
# 1 63.3811 26.3738 51.3141 0.0000 4.1148 0.0000
# 2 26.3738 104.7473 46.2261 0.0000 3.7884 0.0000
# 3 51.3141 46.2261 108.3436 0.0000 6.3068 0.0000
# 4 0.0000 0.0000 0.0000 70.5301 0.0000 26.8182
# 5 4.1148 3.7884 6.3068 0.0000 21.2934 0.0000
# 6 0.0000 0.0000 0.0000 26.8182 0.0000 34.5906
#
#
#
# Elastic Compliance Matrix: (Units=1/GPa)
#
#
# Indices 1 2 3 4 5 6 
#
# 1 0.025782 -0.001341 -0.011562 0.000000 -0.001319 0.000000
# 2 -0.001341 0.011839 -0.004384 0.000000 -0.000549 0.000000
# 3 -0.011562 -0.004384 0.016689 0.000000 -0.001929 0.000000
# 4 0.000000 0.000000 0.000000 0.020105 0.000000 -0.015588
# 5 -0.001319 -0.000549 -0.001929 0.000000 0.047887 0.000000
# 6 0.000000 0.000000 0.000000 -0.015588 0.000000 0.040995
#
#
# Mechanical properties :
#
#
# Convention : Reuss Voigt Hill
#
# Bulk Modulus (GPa) = 50.67111 58.25556 54.46333
# Shear Modulus (GPa) = 24.45591 35.45337 29.95464
#
# Velocity S-wave (km/s) = 3.80435 4.58054 4.21037
# Velocity P-wave (km/s) = 7.02030 7.90259 7.47447
#
# Compressibility (1/GPa) = 0.01973511
#
# Stress axis : x y z
#
# Youngs Moduli (GPa) = 38.78678 84.46587 59.92116
#
# Poissons Ratio (x) = 0.11331 0.69280
# Poissons Ratio (y) = 0.05203 0.26269
# Poissons Ratio (z) = 0.44845 0.37030
#
# Static dielectric constant tensor:
#      x y z
#    x 1.589420 0.000000 0.046480 
#    y 0.000000 1.596120 0.000000 
#    z 0.046480 0.000000 1.571140 
# 
# From -- ./inp_files/22039.got.cif
#   From: 2010.05.17/outbox.cif.g08.bks.cpg/sg11_12_cif.got.tgz:22039.got - 2010.06.03 12:22:45.
