data_PCOD9156086
_publ_section_title
;
Structure prediction by ZEFSAII (Michael W. Deem and Ramdas Pophale) SiO2 
 PCOD9156086
Probable space group: P 21/M
;
_chemical_formula_sum "Si O2"
_cell_formula_units_Z 32
_cell_length_a 10.762627
_cell_length_b 11.376925
_cell_length_c 18.229488
_cell_angle_alpha 90.000000
_cell_angle_beta 132.974245
_cell_angle_gamma 90.000000
_cell_volume 1633.153787
_symmetry_space_group_name_H-M "P 21/M"
_symmetry_group_IT_number 11
_symmetry_cell_setting 'monoclinic'
loop_
_space_group_symop_operation_xyz
x,y,z
-x,1/2+y,-z
-x,-y,-z
x,1/2-y,z
loop_
_atom_site_type_symbol
_atom_site_label
_atom_site_fract_x
_atom_site_fract_y
_atom_site_fract_z
Si Si1 0.812375 0.120312 0.967353
Si Si2 0.961923 0.617261 0.581432
Si Si3 0.094056 0.954355 0.154454
Si Si4 0.583836 0.919926 0.884364
Si Si5 0.616326 0.878913 0.729930
Si Si6 0.789949 0.875441 0.112950
Si Si7 0.764959 0.381142 0.186697
Si Si8 0.785344 0.384929 0.456513
O O1 0.809090 0.250000 0.994048
O O2 0.856525 0.116258 0.898779
O O3 0.631773 0.057140 0.904410
O O4 0.957843 0.049445 0.068714
O O5 0.883682 0.750000 0.543944
O O6 0.061169 0.611520 0.698205
O O7 0.104433 0.611918 0.574200
O O8 0.848266 0.500355 0.525984
O O9 0.988213 0.884004 0.171566
O O10 0.259500 0.021348 0.249957
O O11 0.646790 0.878752 0.830381
O O12 0.390475 0.887807 0.818566
O O13 0.688139 0.871947 0.995225
O O14 0.660825 0.750000 0.718650
O O15 0.416059 0.898341 0.638496
O O16 0.755762 0.750000 0.137912
O O17 0.744199 0.000072 0.131362
O O18 0.755221 0.250000 0.147889
O O19 0.810743 0.250000 0.496514
#
# Coordination Sequence:
#
# PCOD9156086 Si02
#       8
#     4   4   4   4   4   4   4   4
#     4   9  17  30  48  72 102 135 175 224 267 307
#     4   9  18  34  54  77 107 136 166 208 265 321
#     4   9  19  31  48  71 100 139 178 216 262 309
#     4  10  20  33  51  76 106 142 177 215 263 309
#     4  10  17  30  55  81 105 135 173 215 260 317
#     4  11  23  36  51  73 107 148 185 219 256 297
#     4  11  22  37  56  75 103 144 185 218 253 309
#     4   9  17  31  55  83 107 131 162 209 265 320
#
# _framework density 19.593990999999999
#
# number of rings (size 3 to 8) (size 9 to 14) (size 15 to 20)
#    0.000    2.250    1.250    3.000    0.000    3.500 
#    0.000    3.125    0.000    0.750    0.000    0.000 
#    0.000    0.000    0.000    0.000    0.000    0.000 
#
# Total GULP energy -178226.758652 kJ/mol
# GULP energy per Si atom -5569.586208 kJ/mol
# Density = 1.954939 g / cm^3
# Si number density = 19.593991 Si / 1000 Ang^3
#
#
#
# Elastic Constant Matrix: (Units=GPa)
#
#
# Indices 1 2 3 4 5 6 
#
# 1 15.6789 9.9819 -3.9640 0.0000 5.1997 0.0000
# 2 9.9819 165.9288 38.4417 0.0000 7.9420 0.0000
# 3 -3.9640 38.4417 49.8046 0.0000 14.6470 0.0000
# 4 0.0000 0.0000 0.0000 6.8174 0.0000 -0.2645
# 5 5.1997 7.9420 14.6470 0.0000 14.1412 0.0000
# 6 0.0000 0.0000 0.0000 -0.2645 0.0000 -1.3260
#
#
#
# Elastic Compliance Matrix: (Units=1/GPa)
#
#
# Indices 1 2 3 4 5 6 
#
# 1 0.104946 -0.011821 0.038645 0.000000 -0.071976 0.000000
# 2 -0.011821 0.008733 -0.010810 0.000000 0.010639 0.000000
# 3 0.038645 -0.010810 0.048737 0.000000 -0.058619 0.000000
# 4 0.000000 0.000000 0.000000 0.145558 0.000000 -0.029039
# 5 -0.071976 0.010639 -0.058619 0.000000 0.151921 0.000000
# 6 0.000000 0.000000 0.000000 -0.029039 0.000000 -0.748352
#
#
# Mechanical properties :
#
#
# Convention : Reuss Voigt Hill
#
# Bulk Modulus (GPa) = 5.14290 35.59240 20.36765
# Shear Modulus (GPa) = -19.55663 16.39002 -1.58330
#
# Velocity S-wave (km/s) = -3.16269 2.89534 -0.89989
# Velocity P-wave (km/s) = 3.27206 5.42049 3.05576
#
# Compressibility (1/GPa) = 0.19444269
#
# Stress axis : x y z
#
# Youngs Moduli (GPa) = 9.52868 114.50686 20.51811
#
# Poissons Ratio (x) = 1.35362 -0.79291
# Poissons Ratio (y) = 0.11264 0.22181
# Poissons Ratio (z) = -0.36823 1.23786
#
# Static dielectric constant tensor:
#      x y z
#    x 1.704150 0.000000 -0.008960 
#    y 0.000000 1.960620 0.000000 
#    z -0.008960 0.000000 1.677990 
# 
# From -- ./inp_files/64625.got.cif
#   From: 2010.05.17/outbox.cif.g08.bks.cpg/sg11_33_cif.got.tgz:64625.got - 2010.06.03 12:22:45.
