data_PCOD9156966
_publ_section_title
;
Structure prediction by ZEFSAII (Michael W. Deem and Ramdas Pophale) SiO2 
 PCOD9156966
Probable space group: P 21/M
;
_chemical_formula_sum "Si O2"
_cell_formula_units_Z 32
_cell_length_a 21.600454
_cell_length_b 8.084319
_cell_length_c 26.265628
_cell_angle_alpha 90.000000
_cell_angle_beta 159.895875
_cell_angle_gamma 90.000000
_cell_volume 1576.551426
_symmetry_space_group_name_H-M "P 21/M"
_symmetry_group_IT_number 11
_symmetry_cell_setting 'monoclinic'
loop_
_space_group_symop_operation_xyz
x,y,z
-x,1/2+y,-z
-x,-y,-z
x,1/2-y,z
loop_
_atom_site_type_symbol
_atom_site_label
_atom_site_fract_x
_atom_site_fract_y
_atom_site_fract_z
Si Si1 0.964333 0.050981 0.030868
Si Si2 0.156082 0.941423 0.828814
Si Si3 0.233842 0.056934 0.777000
Si Si4 0.213042 0.937316 0.484723
Si Si5 0.424434 0.553588 0.285081
Si Si6 0.142667 0.440976 0.539624
Si Si7 0.459913 0.047339 0.857944
Si Si8 0.352849 0.448730 0.345324
O O1 0.956752 0.250000 0.027883
O O2 0.147305 0.997267 0.200418
O O3 0.761297 0.992512 0.885230
O O4 0.000000 0.000000 0.000000
O O5 0.130781 0.750000 0.822706
O O6 0.207202 0.956923 0.808309
O O7 0.336133 0.008001 0.994883
O O8 0.965030 0.030004 0.686490
O O9 0.260607 0.250000 0.810178
O O10 0.389401 0.997183 0.859358
O O11 0.044406 0.038376 0.600649
O O12 0.202981 0.750000 0.495698
O O13 0.199188 0.049920 0.524034
O O14 0.396801 0.968372 0.597223
O O15 0.442243 0.750000 0.290389
O O16 0.400661 0.521628 0.326919
O O17 0.891238 0.750000 0.472687
O O18 0.308838 0.505066 0.701249
O O19 0.463658 0.250000 0.860788
O O20 0.500000 0.500000 0.500000
O O21 0.352082 0.250000 0.340138
#
# Coordination Sequence:
#
# PCOD9156966 Si02
#       8
#     4   4   4   4   4   4   4   4
#     4   8  16  30  51  77 105 133 168 205 242 284
#     4  10  19  34  52  72  98 134 172 209 252 305
#     4  10  18  31  49  74 102 129 162 206 255 309
#     4  11  22  37  53  74 100 131 170 213 254 302
#     4  10  19  35  58  80 100 135 177 212 249 298
#     4  10  19  34  52  72  97 130 167 208 253 303
#     4   9  19  32  50  74 100 127 164 210 258 306
#     4  10  19  33  53  83 117 145 169 205 249 293
#
# _framework density 20.297464999999999
#
# number of rings (size 3 to 8) (size 9 to 14) (size 15 to 20)
#    0.000    2.250    0.000    5.250    0.000    1.000 
#    0.000    7.500    0.000    3.000    0.000    0.000 
#    0.000    0.000    0.000    0.000    0.000    0.000 
#
# Total GULP energy -178504.538379 kJ/mol
# GULP energy per Si atom -5578.266824 kJ/mol
# Density = 2.025127 g / cm^3
# Si number density = 20.297465 Si / 1000 Ang^3
#
#
#
# Elastic Constant Matrix: (Units=GPa)
#
#
# Indices 1 2 3 4 5 6 
#
# 1 19.7335 -6.5813 26.1145 0.0000 13.0949 0.0000
# 2 -6.5813 37.1574 2.4835 0.0000 4.5985 0.0000
# 3 26.1145 2.4835 171.4227 0.0000 17.3308 0.0000
# 4 0.0000 0.0000 0.0000 20.2041 0.0000 2.7165
# 5 13.0949 4.5985 17.3308 0.0000 34.6219 0.0000
# 6 0.0000 0.0000 0.0000 2.7165 0.0000 19.2579
#
#
#
# Elastic Compliance Matrix: (Units=1/GPa)
#
#
# Indices 1 2 3 4 5 6 
#
# 1 0.095006 0.021687 -0.011442 0.000000 -0.033086 0.000000
# 2 0.021687 0.032313 -0.002642 0.000000 -0.011172 0.000000
# 3 -0.011442 -0.002642 0.007523 0.000000 0.000913 0.000000
# 4 0.000000 0.000000 0.000000 0.050452 0.000000 -0.007117
# 5 -0.033086 -0.011172 0.000913 0.000000 0.042424 0.000000
# 6 0.000000 0.000000 0.000000 -0.007117 0.000000 0.052931
#
#
# Mechanical properties :
#
#
# Convention : Reuss Voigt Hill
#
# Bulk Modulus (GPa) = 6.66464 30.26077 18.46270
# Shear Modulus (GPa) = 15.84992 28.56991 22.20992
#
# Velocity S-wave (km/s) = 2.79746 3.75582 3.31149
# Velocity P-wave (km/s) = 3.70472 5.80941 4.87207
#
# Compressibility (1/GPa) = 0.15004568
#
# Stress axis : x y z
#
# Youngs Moduli (GPa) = 10.52567 30.94736 132.93256
#
# Poissons Ratio (x) = -0.67115 1.52105
# Poissons Ratio (y) = -0.22827 0.35127
# Poissons Ratio (z) = 0.12044 0.08178
#
# Static dielectric constant tensor:
#      x y z
#    x 1.683280 0.000000 -0.009870 
#    y 0.000000 1.701310 0.000000 
#    z -0.009870 0.000000 1.793470 
# 
# From -- ./inp_files/72193.got.cif
#   From: 2010.05.17/outbox.cif.g08.bks.cpg/sg11_37_cif.got.tgz:72193.got - 2010.06.03 12:22:45.
