data_PCOD9156761
_publ_section_title
;
Structure prediction by ZEFSAII (Michael W. Deem and Ramdas Pophale) SiO2 
 PCOD9156761
Probable space group: P 21/M
;
_chemical_formula_sum "Si O2"
_cell_formula_units_Z 28
_cell_length_a 16.961486
_cell_length_b 7.623148
_cell_length_c 21.272118
_cell_angle_alpha 90.000000
_cell_angle_beta 27.564075
_cell_angle_gamma 90.000000
_cell_volume 1272.759343
_symmetry_space_group_name_H-M "P 21/M"
_symmetry_group_IT_number 11
_symmetry_cell_setting 'monoclinic'
loop_
_space_group_symop_operation_xyz
x,y,z
-x,1/2+y,-z
-x,-y,-z
x,1/2-y,z
loop_
_atom_site_type_symbol
_atom_site_label
_atom_site_fract_x
_atom_site_fract_y
_atom_site_fract_z
Si Si1 0.906724 0.536219 0.167588
Si Si2 0.540271 0.456543 0.732475
Si Si3 0.997184 0.540525 0.301835
Si Si4 0.653246 0.952573 0.250700
Si Si5 0.321239 0.461929 0.550963
Si Si6 0.914106 0.456242 0.494937
Si Si7 0.781491 0.037572 0.971212
O O1 0.909891 0.750000 0.162647
O O2 0.822496 0.469212 0.162763
O O3 0.776550 0.489808 0.316161
O O4 0.091832 0.479813 0.061498
O O5 0.562353 0.250000 0.702574
O O6 0.438655 0.536119 0.744656
O O7 0.724769 0.534369 0.617686
O O8 0.408109 0.474093 0.882819
O O9 0.994233 0.750000 0.297302
O O10 0.809662 0.480327 0.411682
O O11 0.023684 0.499342 0.355657
O O12 0.133246 0.476961 0.154310
O O13 0.692005 0.750000 0.208428
O O14 0.504723 0.957971 0.408524
O O15 0.338223 0.250000 0.537907
O O16 0.891881 0.250000 0.511711
O O17 0.000000 0.500000 0.500000
O O18 0.780641 0.250000 0.972020
#
# Coordination Sequence:
#
# PCOD9156761 Si02
#       7
#     4   4   4   4   4   4   4
#     4   8  16  30  48  73 107 147 186 227 267 310
#     4  10  22  37  53  80 114 145 179 225 276 325
#     4   9  18  35  58  83 111 143 181 226 272 321
#     4  10  18  30  48  72 109 148 183 226 275 315
#     4   9  16  28  48  75 106 140 183 227 268 316
#     4  11  23  40  62  88 113 138 175 221 275 333
#     4   9  19  36  57  80 110 151 192 223 262 319
#
# _framework density 21.999447
#
# number of rings (size 3 to 8) (size 9 to 14) (size 15 to 20)
#    0.000    2.571    1.429    2.571    0.000    2.857 
#    0.000    3.571    0.000    0.000    0.000    0.000 
#    0.000    0.000    0.000    0.000    0.000    0.000 
#
# Total GULP energy -156306.808822 kJ/mol
# GULP energy per Si atom -5582.386029 kJ/mol
# Density = 2.194938 g / cm^3
# Si number density = 21.999447 Si / 1000 Ang^3
#
#
#
# Elastic Constant Matrix: (Units=GPa)
#
#
# Indices 1 2 3 4 5 6 
#
# 1 119.6276 11.8412 41.9306 0.0000 9.6574 0.0000
# 2 11.8412 50.8189 -0.6477 0.0000 2.9242 0.0000
# 3 41.9306 -0.6477 90.5096 0.0000 -9.0565 0.0000
# 4 0.0000 0.0000 0.0000 19.9265 0.0000 5.1068
# 5 9.6574 2.9242 -9.0565 0.0000 8.3131 0.0000
# 6 0.0000 0.0000 0.0000 5.1068 0.0000 6.4579
#
#
#
# Elastic Compliance Matrix: (Units=1/GPa)
#
#
# Indices 1 2 3 4 5 6 
#
# 1 0.013631 -0.001863 -0.008807 0.000000 -0.024774 0.000000
# 2 -0.001863 0.020371 0.000570 0.000000 -0.004380 0.000000
# 3 -0.008807 0.000570 0.018111 0.000000 0.029760 0.000000
# 4 0.000000 0.000000 0.000000 0.062940 0.000000 -0.049771
# 5 -0.024774 -0.004380 0.029760 0.000000 0.183034 0.000000
# 6 0.000000 0.000000 0.000000 -0.049771 0.000000 0.194207
#
#
# Mechanical properties :
#
#
# Convention : Reuss Voigt Hill
#
# Bulk Modulus (GPa) = 31.33449 40.80048 36.06748
# Shear Modulus (GPa) = 9.55786 20.79497 15.17641
#
# Velocity S-wave (km/s) = 2.08663 3.07783 2.62936
# Velocity P-wave (km/s) = 4.48103 5.58723 5.06442
#
# Compressibility (1/GPa) = 0.03191371
#
# Stress axis : x y z
#
# Youngs Moduli (GPa) = 73.36477 49.08924 55.21656
#
# Poissons Ratio (x) = 0.09144 0.48629
# Poissons Ratio (y) = 0.13666 -0.03150
# Poissons Ratio (z) = 0.64612 -0.02800
#
# Static dielectric constant tensor:
#      x y z
#    x 1.771280 0.000000 -0.009250 
#    y 0.000000 1.824740 0.000000 
#    z -0.009250 0.000000 1.809540 
# 
# From -- ./inp_files/65978.got.cif
#   From: 2010.05.17/outbox.cif.g08.bks.cpg/sg11_33_cif.got.tgz:65978.got - 2010.06.03 12:22:45.
