data_PCOD9156151
_publ_section_title
;
Structure prediction by ZEFSAII (Michael W. Deem and Ramdas Pophale) SiO2 
 PCOD9156151
Probable space group: P 21/M
;
_chemical_formula_sum "Si O2"
_cell_formula_units_Z 22
_cell_length_a 10.701764
_cell_length_b 13.653972
_cell_length_c 8.279648
_cell_angle_alpha 90.000000
_cell_angle_beta 120.655771
_cell_angle_gamma 90.000000
_cell_volume 1040.756126
_symmetry_space_group_name_H-M "P 21/M"
_symmetry_group_IT_number 11
_symmetry_cell_setting 'monoclinic'
loop_
_space_group_symop_operation_xyz
x,y,z
-x,1/2+y,-z
-x,-y,-z
x,1/2-y,z
loop_
_atom_site_type_symbol
_atom_site_label
_atom_site_fract_x
_atom_site_fract_y
_atom_site_fract_z
Si Si1 0.513839 0.750000 0.216416
Si Si2 0.807253 0.750000 0.543846
Si Si3 0.026987 0.902296 0.794001
Si Si4 0.842867 0.930707 0.984365
Si Si5 0.325162 0.750000 0.528982
Si Si6 0.382073 0.574715 0.342462
Si Si7 0.667739 0.750000 0.816436
Si Si8 0.253781 0.750000 0.835516
O O1 0.685973 0.750000 0.328540
O O2 0.464471 0.651921 0.280308
O O3 0.421837 0.750000 0.993397
O O4 0.726155 0.750000 0.666946
O O5 0.907007 0.847004 0.608169
O O6 0.172533 0.841537 0.860937
O O7 0.961093 0.893369 0.931662
O O8 0.072243 0.015462 0.815835
O O9 0.734512 0.843365 0.948750
O O10 0.739676 0.009916 0.825785
O O11 0.305729 0.649343 0.417738
O O12 0.496276 0.750000 0.686531
O O13 0.234872 0.750000 0.632566
O O14 0.500000 0.500000 0.500000
#
# Coordination Sequence:
#
# PCOD9156151 Si02
#       8
#     2   2   4   4   2   4   2   2
#     4  11  20  35  60  89 119 159 206 251 303 354
#     4   9  16  32  58  82 113 150 206 252 287 339
#     4   9  19  34  58  86 117 160 197 243 297 364
#     4  10  18  33  61  88 114 154 212 253 290 345
#     4  11  23  35  57  92 131 150 194 261 306 361
#     4  11  19  35  61  90 116 149 211 257 296 339
#     4  10  17  33  53  87 118 147 196 266 294 333
#     4  11  22  39  56  90 129 162 192 238 322 373
#
# _framework density 21.138479
#
# number of rings (size 3 to 8) (size 9 to 14) (size 15 to 20)
#    0.000    1.818    5.455    1.636    0.000    0.000 
#    0.000    4.545    0.000   13.091    0.000    0.000 
#    0.000    0.000    0.000    0.000    0.000    0.000 
#
# Total GULP energy -122690.612756 kJ/mol
# GULP energy per Si atom -5576.846034 kJ/mol
# Density = 2.109037 g / cm^3
# Si number density = 21.138479 Si / 1000 Ang^3
#
#
#
# Elastic Constant Matrix: (Units=GPa)
#
#
# Indices 1 2 3 4 5 6 
#
# 1 45.2003 36.6120 33.5049 0.0000 23.1774 0.0000
# 2 36.6120 128.0806 38.4479 0.0000 -2.7032 0.0000
# 3 33.5049 38.4479 61.4136 0.0000 16.0081 0.0000
# 4 0.0000 0.0000 0.0000 -13.3939 0.0000 10.9602
# 5 23.1774 -2.7032 16.0081 0.0000 30.2028 0.0000
# 6 0.0000 0.0000 0.0000 10.9602 0.0000 21.4787
#
#
#
# Elastic Compliance Matrix: (Units=1/GPa)
#
#
# Indices 1 2 3 4 5 6 
#
# 1 0.073323 -0.017019 -0.016574 0.000000 -0.049006 0.000000
# 2 -0.017019 0.014176 -0.003858 0.000000 0.016374 0.000000
# 3 -0.016574 -0.003858 0.028445 0.000000 -0.002703 0.000000
# 4 0.000000 0.000000 0.000000 -0.052668 0.000000 0.026876
# 5 -0.049006 0.016374 -0.002703 0.000000 0.073615 0.000000
# 6 0.000000 0.000000 0.000000 0.026876 0.000000 0.032844
#
#
# Mechanical properties :
#
#
# Convention : Reuss Voigt Hill
#
# Bulk Modulus (GPa) = 24.36467 50.20269 37.28368
# Shear Modulus (GPa) = 19.35614 16.06617 17.71116
#
# Velocity S-wave (km/s) = 3.02931 2.75988 2.89773
# Velocity P-wave (km/s) = 4.87718 5.82726 5.37326
#
# Compressibility (1/GPa) = 0.04104304
#
# Stress axis : x y z
#
# Youngs Moduli (GPa) = 13.63829 70.54119 35.15543
#
# Poissons Ratio (x) = 1.20051 0.58266
# Poissons Ratio (y) = 0.23210 0.13564
# Poissons Ratio (z) = 0.22604 0.27216
#
# Static dielectric constant tensor:
#      x y z
#    x 1.747660 0.000000 0.023780 
#    y 0.000000 1.797490 0.000000 
#    z 0.023780 0.000000 1.775420 
# 
# From -- ./inp_files/17305.got.cif
#   From: 2010.05.17/outbox.cif.g08.bks.cpg/sg11_9_cif.got.tgz:17305.got - 2010.06.03 12:22:45.
