data_PCOD9156810
_publ_section_title
;
Structure prediction by ZEFSAII (Michael W. Deem and Ramdas Pophale) SiO2 
 PCOD9156810
Probable space group: P 21/M
;
_chemical_formula_sum "Si O2"
_cell_formula_units_Z 24
_cell_length_a 15.949969
_cell_length_b 16.139670
_cell_length_c 9.268231
_cell_angle_alpha 90.000000
_cell_angle_beta 31.704355
_cell_angle_gamma 90.000000
_cell_volume 1253.874523
_symmetry_space_group_name_H-M "P 21/M"
_symmetry_group_IT_number 11
_symmetry_cell_setting 'monoclinic'
loop_
_space_group_symop_operation_xyz
x,y,z
-x,1/2+y,-z
-x,-y,-z
x,1/2-y,z
loop_
_atom_site_type_symbol
_atom_site_label
_atom_site_fract_x
_atom_site_fract_y
_atom_site_fract_z
Si Si1 0.106276 0.350954 0.972240
Si Si2 0.284119 0.345998 0.986165
Si Si3 0.233817 0.649532 0.656861
Si Si4 0.419583 0.154330 0.348083
Si Si5 0.570740 0.091544 0.382436
Si Si6 0.469652 0.411830 0.969280
O O1 0.108228 0.250000 0.968523
O O2 0.144674 0.374537 0.081706
O O3 0.936645 0.375960 0.157583
O O4 0.252881 0.380120 0.656516
O O5 0.260553 0.250000 0.064657
O O6 0.329268 0.402477 0.056302
O O7 0.439888 0.350317 0.654009
O O8 0.240039 0.750000 0.659054
O O9 0.271279 0.608577 0.757565
O O10 0.372967 0.618343 0.345980
O O11 0.426465 0.250000 0.375855
O O12 0.563721 0.111819 0.224176
O O13 0.430355 0.145175 0.162685
O O14 0.500000 0.000000 0.500000
O O15 0.500000 0.500000 0.000000
#
# Coordination Sequence:
#
# PCOD9156810 Si02
#       6
#     4   4   4   4   4   4
#     4   8  17  33  56  78  97 126 175 217 247 296
#     4   9  17  34  54  71  96 139 175 200 247 316
#     4  10  19  36  57  77 100 135 173 209 250 302
#     4  10  18  32  52  76 101 132 169 210 252 299
#     4  10  18  30  49  75 103 133 167 207 249 300
#     4  11  21  33  50  77 106 135 170 211 252 299
#
# _framework density 19.140671000000001
#
# number of rings (size 3 to 8) (size 9 to 14) (size 15 to 20)
#    0.000    2.333    0.000    7.000    0.000    0.000 
#    0.000   10.000    0.000    4.000    0.000    0.000 
#    0.000    0.000    0.000    0.000    0.000    0.000 
#
# Total GULP energy -133732.368577 kJ/mol
# GULP energy per Si atom -5572.182024 kJ/mol
# Density = 1.909711 g / cm^3
# Si number density = 19.140671 Si / 1000 Ang^3
#
#
#
# Elastic Constant Matrix: (Units=GPa)
#
#
# Indices 1 2 3 4 5 6 
#
# 1 191.4925 16.0275 48.3408 0.0000 -16.7471 0.0000
# 2 16.0275 55.7386 1.8148 0.0000 -8.1867 0.0000
# 3 48.3408 1.8148 41.9330 0.0000 0.6729 0.0000
# 4 0.0000 0.0000 0.0000 8.8945 0.0000 6.2443
# 5 -16.7471 -8.1867 0.6729 0.0000 30.4866 0.0000
# 6 0.0000 0.0000 0.0000 6.2443 0.0000 26.7553
#
#
#
# Elastic Compliance Matrix: (Units=1/GPa)
#
#
# Indices 1 2 3 4 5 6 
#
# 1 0.008058 -0.001389 -0.009297 0.000000 0.004259 0.000000
# 2 -0.001389 0.018950 0.000712 0.000000 0.004310 0.000000
# 3 -0.009297 0.000712 0.034626 0.000000 -0.005680 0.000000
# 4 0.000000 0.000000 0.000000 0.134459 0.000000 -0.031381
# 5 0.004259 0.004310 -0.005680 0.000000 0.036424 0.000000
# 6 0.000000 0.000000 0.000000 -0.031381 0.000000 0.044699
#
#
# Mechanical properties :
#
#
# Convention : Reuss Voigt Hill
#
# Bulk Modulus (GPa) = 23.98936 46.83669 35.41303
# Shear Modulus (GPa) = 16.07405 28.09269 22.08337
#
# Velocity S-wave (km/s) = 2.90105 3.83521 3.40036
# Velocity P-wave (km/s) = 4.87666 6.64339 5.82737
#
# Compressibility (1/GPa) = 0.04168514
#
# Stress axis : x y z
#
# Youngs Moduli (GPa) = 124.10186 52.77009 28.87991
#
# Poissons Ratio (x) = 0.07329 0.26851
# Poissons Ratio (y) = 0.17236 -0.02056
# Poissons Ratio (z) = 1.15383 -0.03756
#
# Static dielectric constant tensor:
#      x y z
#    x 1.733240 0.000000 -0.007950 
#    y 0.000000 1.622610 0.000000 
#    z -0.007950 0.000000 1.651160 
# 
# From -- ./inp_files/13141.got.cif
#   From: 2010.05.17/outbox.cif.g08.bks.cpg/sg11_7_cif.got.tgz:13141.got - 2010.06.03 12:22:45.
