data_PCOD9156808
_publ_section_title
;
Structure prediction by ZEFSAII (Michael W. Deem and Ramdas Pophale) SiO2 
 PCOD9156808
Probable space group: P 21/M
;
_chemical_formula_sum "Si O2"
_cell_formula_units_Z 24
_cell_length_a 12.220794
_cell_length_b 8.685288
_cell_length_c 20.839559
_cell_angle_alpha 90.000000
_cell_angle_beta 141.051293
_cell_angle_gamma 90.000000
_cell_volume 1390.475737
_symmetry_space_group_name_H-M "P 21/M"
_symmetry_group_IT_number 11
_symmetry_cell_setting 'monoclinic'
loop_
_space_group_symop_operation_xyz
x,y,z
-x,1/2+y,-z
-x,-y,-z
x,1/2-y,z
loop_
_atom_site_type_symbol
_atom_site_label
_atom_site_fract_x
_atom_site_fract_y
_atom_site_fract_z
Si Si1 0.050908 0.070488 0.917719
Si Si2 0.027155 0.568004 0.768642
Si Si3 0.617291 0.567804 0.111784
Si Si4 0.651909 0.066005 0.613593
Si Si5 0.568174 0.929699 0.851169
Si Si6 0.686590 0.935624 0.771462
O O1 0.022338 0.250000 0.887207
O O2 0.877681 0.006235 0.871439
O O3 0.072978 0.971847 0.863357
O O4 0.227413 0.062037 0.037795
O O5 0.010969 0.750000 0.752614
O O6 0.189230 0.502022 0.803309
O O7 0.840295 0.488626 0.673278
O O8 0.625566 0.750000 0.106239
O O9 0.532482 0.525559 0.141310
O O10 0.500000 0.500000 0.000000
O O11 0.645678 0.250000 0.612891
O O12 0.500000 0.000000 0.500000
O O13 0.635185 0.998900 0.678212
O O14 0.515992 0.750000 0.833360
O O15 0.560260 0.976898 0.772976
O O16 0.699555 0.750000 0.775184
#
# Coordination Sequence:
#
# PCOD9156808 Si02
#       6
#     4   4   4   4   4   4
#     4  10  18  30  49  74 108 147 185 223 265 318
#     4  11  21  35  55  81 111 145 185 229 274 324
#     4  12  23  35  53  77 110 152 193 229 267 319
#     4  11  22  39  62  86 110 139 179 229 281 332
#     4  10  21  34  50  74 110 151 187 223 266 321
#     4  10  20  34  52  78 110 143 181 225 275 328
#
# _framework density 17.260280999999999
#
# number of rings (size 3 to 8) (size 9 to 14) (size 15 to 20)
#    0.000    1.333    1.667    8.000    0.000    2.000 
#    0.000    0.000    0.000    1.000    0.000    0.000 
#    0.000    0.000    0.000    0.000    0.000    0.000 
#
# Total GULP energy -134015.806354 kJ/mol
# GULP energy per Si atom -5583.991931 kJ/mol
# Density = 1.722100 g / cm^3
# Si number density = 17.260281 Si / 1000 Ang^3
#
#
#
# Elastic Constant Matrix: (Units=GPa)
#
#
# Indices 1 2 3 4 5 6 
#
# 1 116.3930 45.1258 40.6993 0.0000 0.6871 0.0000
# 2 45.1258 116.0665 32.5423 0.0000 2.1134 0.0000
# 3 40.6993 32.5423 80.5191 0.0000 7.6551 0.0000
# 4 0.0000 0.0000 0.0000 23.9595 0.0000 4.4389
# 5 0.6871 2.1134 7.6551 0.0000 10.0493 0.0000
# 6 0.0000 0.0000 0.0000 4.4389 0.0000 28.9207
#
#
#
# Elastic Compliance Matrix: (Units=1/GPa)
#
#
# Indices 1 2 3 4 5 6 
#
# 1 0.011505 -0.003172 -0.004875 0.000000 0.003594 0.000000
# 2 -0.003172 0.010601 -0.002684 0.000000 0.000032 0.000000
# 3 -0.004875 -0.002684 0.017123 0.000000 -0.012146 0.000000
# 4 0.000000 0.000000 0.000000 0.042959 0.000000 -0.006593
# 5 0.003594 0.000032 -0.012146 0.000000 0.108509 0.000000
# 6 0.000000 0.000000 0.000000 -0.006593 0.000000 0.035589
#
#
# Mechanical properties :
#
#
# Convention : Reuss Voigt Hill
#
# Bulk Modulus (GPa) = 56.28480 61.07926 58.68203
# Shear Modulus (GPa) = 19.71065 25.55997 22.63531
#
# Velocity S-wave (km/s) = 3.38296 3.85236 3.62527
# Velocity P-wave (km/s) = 6.92383 7.43314 7.18300
#
# Compressibility (1/GPa) = 0.01776679
#
# Stress axis : x y z
#
# Youngs Moduli (GPa) = 86.92148 94.33201 58.40028
#
# Poissons Ratio (x) = 0.29917 0.28470
# Poissons Ratio (y) = 0.27567 0.15677
# Poissons Ratio (z) = 0.42375 0.25322
#
# Static dielectric constant tensor:
#      x y z
#    x 1.610000 0.000000 -0.004550 
#    y 0.000000 1.680030 0.000000 
#    z -0.004550 0.000000 1.570950 
# 
# From -- ./inp_files/42654.got.cif
#   From: 2010.05.17/outbox.cif.g08.bks.cpg/sg11_22_cif.got.tgz:42654.got - 2010.06.03 12:22:45.
