data_PCOD9156653
_publ_section_title
;
Structure prediction by ZEFSAII (Michael W. Deem and Ramdas Pophale) SiO2 
 PCOD9156653
Probable space group: P 21/M
;
_chemical_formula_sum "Si O2"
_cell_formula_units_Z 32
_cell_length_a 19.003654
_cell_length_b 21.661770
_cell_length_c 13.682563
_cell_angle_alpha 90.000000
_cell_angle_beta 18.400416
_cell_angle_gamma 90.000000
_cell_volume 1777.920997
_symmetry_space_group_name_H-M "P 21/M"
_symmetry_group_IT_number 11
_symmetry_cell_setting 'monoclinic'
loop_
_space_group_symop_operation_xyz
x,y,z
-x,1/2+y,-z
-x,-y,-z
x,1/2-y,z
loop_
_atom_site_type_symbol
_atom_site_label
_atom_site_fract_x
_atom_site_fract_y
_atom_site_fract_z
Si Si1 0.615704 0.823393 0.071115
Si Si2 0.268531 0.676982 0.237985
Si Si3 0.084772 0.412763 0.831849
Si Si4 0.245899 0.016353 0.806003
Si Si5 0.887290 0.319115 0.240405
Si Si6 0.770781 0.676737 0.523247
Si Si7 0.100386 0.125501 0.135562
Si Si8 0.981763 0.824204 0.435713
O O1 0.657097 0.750000 0.028865
O O2 0.356236 0.831095 0.393833
O O3 0.694654 0.856783 0.065232
O O4 0.771786 0.845552 0.777488
O O5 0.214645 0.750000 0.328664
O O6 0.117649 0.635573 0.508322
O O7 0.192045 0.662694 0.227279
O O8 0.533158 0.671002 0.891290
O O9 0.233098 0.448875 0.717102
O O10 0.218255 0.368383 0.582947
O O11 0.922924 0.459335 0.987426
O O12 0.931385 0.367997 0.098815
O O13 0.500000 0.000000 0.500000
O O14 0.142630 0.060851 0.025907
O O15 0.891504 0.250000 0.195627
O O16 0.064854 0.327668 0.092515
O O17 0.795708 0.750000 0.464961
O O18 0.957750 0.656086 0.355746
O O19 0.965381 0.750000 0.451173
#
# Coordination Sequence:
#
# PCOD9156653 Si02
#       8
#     4   4   4   4   4   4   4   4
#     4   9  16  27  47  77 107 131 161 206 260 315
#     4   9  17  30  50  79 109 134 164 205 258 316
#     4  10  22  37  53  75 100 133 179 215 250 311
#     4  10  22  40  57  71  96 138 182 225 263 291
#     4  10  18  29  49  77 105 129 159 210 268 313
#     4  10  19  33  54  79 110 141 163 198 257 317
#     4  10  18  31  53  76 100 134 176 216 255 302
#     4   8  15  27  45  72 104 134 160 189 238 305
#
# _framework density 17.998550999999999
#
# number of rings (size 3 to 8) (size 9 to 14) (size 15 to 20)
#    0.000    2.500    0.000    3.750    0.000    3.000 
#    0.000    0.625    0.000    9.750    0.000    0.000 
#    0.000    0.000    0.000    0.000    0.000    0.000 
#
# Total GULP energy -178194.742432 kJ/mol
# GULP energy per Si atom -5568.585701 kJ/mol
# Density = 1.795759 g / cm^3
# Si number density = 17.998551 Si / 1000 Ang^3
#
#
#
# Elastic Constant Matrix: (Units=GPa)
#
#
# Indices 1 2 3 4 5 6 
#
# 1 99.9579 40.7486 22.0455 0.0000 -7.1778 0.0000
# 2 40.7486 65.5338 25.6449 0.0000 0.0877 0.0000
# 3 22.0455 25.6449 34.9080 0.0000 -2.5083 0.0000
# 4 0.0000 0.0000 0.0000 17.6164 0.0000 4.6147
# 5 -7.1778 0.0877 -2.5083 0.0000 24.9614 0.0000
# 6 0.0000 0.0000 0.0000 4.6147 0.0000 23.9827
#
#
#
# Elastic Compliance Matrix: (Units=1/GPa)
#
#
# Indices 1 2 3 4 5 6 
#
# 1 0.014014 -0.007524 -0.003053 0.000000 0.003749 0.000000
# 2 -0.007524 0.025525 -0.014265 0.000000 -0.003687 0.000000
# 3 -0.003053 -0.014265 0.041293 0.000000 0.003322 0.000000
# 4 0.000000 0.000000 0.000000 0.059778 0.000000 -0.011502
# 5 0.003749 -0.003687 0.003322 0.000000 0.041487 0.000000
# 6 0.000000 0.000000 0.000000 -0.011502 0.000000 0.043910
#
#
# Mechanical properties :
#
#
# Convention : Reuss Voigt Hill
#
# Bulk Modulus (GPa) = 32.10526 41.91975 37.01251
# Shear Modulus (GPa) = 17.47794 20.77614 19.12704
#
# Velocity S-wave (km/s) = 3.11959 3.40122 3.26344
# Velocity P-wave (km/s) = 5.55448 6.22620 5.89991
#
# Compressibility (1/GPa) = 0.03114754
#
# Stress axis : x y z
#
# Youngs Moduli (GPa) = 71.35663 39.17751 24.21696
#
# Poissons Ratio (x) = 0.29477 0.07394
# Poissons Ratio (y) = 0.53689 0.34545
# Poissons Ratio (z) = 0.21788 0.55886
#
# Static dielectric constant tensor:
#      x y z
#    x 1.650840 0.000000 0.000930 
#    y 0.000000 1.602260 0.000000 
#    z 0.000930 0.000000 1.603510 
# 
# From -- ./inp_files/42029.got.cif
#   From: 2010.05.17/outbox.cif.g08.bks.cpg/sg11_22_cif.got.tgz:42029.got - 2010.06.03 12:22:45.
