data_PCOD9156228
_publ_section_title
;
Structure prediction by ZEFSAII (Michael W. Deem and Ramdas Pophale) SiO2 
 PCOD9156228
Probable space group: P 21/M
;
_chemical_formula_sum "Si O2"
_cell_formula_units_Z 28
_cell_length_a 19.084768
_cell_length_b 8.669437
_cell_length_c 30.654988
_cell_angle_alpha 90.000000
_cell_angle_beta 20.528960
_cell_angle_gamma 90.000000
_cell_volume 1778.651603
_symmetry_space_group_name_H-M "P 21/M"
_symmetry_group_IT_number 11
_symmetry_cell_setting 'monoclinic'
loop_
_space_group_symop_operation_xyz
x,y,z
-x,1/2+y,-z
-x,-y,-z
x,1/2-y,z
loop_
_atom_site_type_symbol
_atom_site_label
_atom_site_fract_x
_atom_site_fract_y
_atom_site_fract_z
Si Si1 0.165631 0.935467 0.504613
Si Si2 0.226168 0.436509 0.748283
Si Si3 0.326955 0.434811 0.499857
Si Si4 0.525913 0.065041 0.752509
Si Si5 0.843470 0.935167 0.626660
Si Si6 0.276946 0.435809 0.623874
Si Si7 0.915290 0.064459 0.004131
O O1 0.173856 0.750000 0.502940
O O2 0.333934 0.981139 0.370559
O O3 0.948780 0.977282 0.610994
O O4 0.216999 0.005612 0.521124
O O5 0.240819 0.250000 0.741212
O O6 0.445571 0.502114 0.631358
O O7 0.169256 0.482524 0.731663
O O8 0.063578 0.484319 0.878603
O O9 0.335789 0.250000 0.493575
O O10 0.220876 0.483748 0.607411
O O11 0.519995 0.250000 0.756778
O O12 0.634020 0.004320 0.733275
O O13 0.306741 0.997462 0.874380
O O14 0.836110 0.750000 0.628151
O O15 0.000000 0.000000 0.500000
O O16 0.500000 0.500000 0.500000
O O17 0.281783 0.250000 0.620975
O O18 0.912219 0.250000 0.007533
O O19 0.000000 0.000000 0.000000
#
# Coordination Sequence:
#
# PCOD9156228 Si02
#       7
#     4   4   4   4   4   4   4
#     4   9  18  30  44  64  91 119 143 171 217 268
#     4   9  18  32  46  59  85 122 152 178 216 263
#     4  10  18  26  43  69  91 112 143 183 222 256
#     4  10  20  33  47  64  89 121 152 184 220 260
#     4   9  17  30  47  66  88 116 149 183 219 263
#     4   8  15  28  43  61  84 111 144 180 217 260
#     4  11  22  33  46  65  89 121 155 185 217 256
#
# _framework density 15.742262
#
# number of rings (size 3 to 8) (size 9 to 14) (size 15 to 20)
#    0.000    2.571    0.000    3.429    0.000    8.571 
#    0.000    0.000    0.000    0.000    0.000    1.000 
#    0.000    0.000    0.000    0.000    0.000    0.000 
#
# Total GULP energy -155920.007000 kJ/mol
# GULP energy per Si atom -5568.571679 kJ/mol
# Density = 1.570643 g / cm^3
# Si number density = 15.742262 Si / 1000 Ang^3
#
#
#
# Elastic Constant Matrix: (Units=GPa)
#
#
# Indices 1 2 3 4 5 6 
#
# 1 176.7134 38.2174 74.8206 0.0000 -1.2510 0.0000
# 2 38.2174 27.4968 25.1895 0.0000 -1.1414 0.0000
# 3 74.8206 25.1895 80.1348 0.0000 -3.8599 0.0000
# 4 0.0000 0.0000 0.0000 19.6873 0.0000 -5.0746
# 5 -1.2510 -1.1414 -3.8599 0.0000 29.1021 0.0000
# 6 0.0000 0.0000 0.0000 -5.0746 0.0000 27.0997
#
#
#
# Elastic Compliance Matrix: (Units=1/GPa)
#
#
# Indices 1 2 3 4 5 6 
#
# 1 0.010456 -0.007847 -0.007336 0.000000 -0.000831 0.000000
# 2 -0.007847 0.056965 -0.010556 0.000000 0.000497 0.000000
# 3 -0.007336 -0.010556 0.022757 0.000000 0.002289 0.000000
# 4 0.000000 0.000000 0.000000 0.053370 0.000000 0.009994
# 5 -0.000831 0.000497 0.002289 0.000000 0.034649 0.000000
# 6 0.000000 0.000000 0.000000 0.009994 0.000000 0.038772
#
#
# Mechanical properties :
#
#
# Convention : Reuss Voigt Hill
#
# Bulk Modulus (GPa) = 25.83965 62.31110 44.07537
# Shear Modulus (GPa) = 17.77161 24.91900 21.34530
#
# Velocity S-wave (km/s) = 3.36357 3.98293 3.68628
# Velocity P-wave (km/s) = 5.61557 7.79869 6.79538
#
# Compressibility (1/GPa) = 0.03870022
#
# Stress axis : x y z
#
# Youngs Moduli (GPa) = 95.63720 17.55470 43.94225
#
# Poissons Ratio (x) = 0.13775 0.32237
# Poissons Ratio (y) = 0.75044 0.46385
# Poissons Ratio (z) = 0.70162 0.18531
#
# Static dielectric constant tensor:
#      x y z
#    x 1.560960 0.000000 0.016630 
#    y 0.000000 1.534400 0.000000 
#    z 0.016630 0.000000 1.501390 
# 
# From -- ./inp_files/73447.got.cif
#   From: 2010.05.17/outbox.cif.g08.bks.cpg/sg11_37_cif.got.tgz:73447.got - 2010.06.03 12:22:45.
