data_PCOD9156303
_publ_section_title
;
Structure prediction by ZEFSAII (Michael W. Deem and Ramdas Pophale) SiO2 
 PCOD9156303
Probable space group: P 21/M
;
_chemical_formula_sum "Si O2"
_cell_formula_units_Z 32
_cell_length_a 19.553452
_cell_length_b 13.359264
_cell_length_c 11.118812
_cell_angle_alpha 90.000000
_cell_angle_beta 148.995405
_cell_angle_gamma 90.000000
_cell_volume 1496.103558
_symmetry_space_group_name_H-M "P 21/M"
_symmetry_group_IT_number 11
_symmetry_cell_setting 'monoclinic'
loop_
_space_group_symop_operation_xyz
x,y,z
-x,1/2+y,-z
-x,-y,-z
x,1/2-y,z
loop_
_atom_site_type_symbol
_atom_site_label
_atom_site_fract_x
_atom_site_fract_y
_atom_site_fract_z
Si Si1 0.810615 0.863088 0.061909
Si Si2 0.733054 0.481813 0.773714
Si Si3 0.507355 0.135802 0.369386
Si Si4 0.386867 0.364930 0.592302
Si Si5 0.899256 0.366364 0.825329
Si Si6 0.866778 0.929254 0.659367
Si Si7 0.823656 0.634456 0.348008
Si Si8 0.443514 0.487466 0.048220
O O1 0.840763 0.750000 0.060115
O O2 0.829855 0.961800 0.011321
O O3 0.649864 0.867504 0.840512
O O4 0.877707 0.873215 0.294021
O O5 0.600593 0.419790 0.606882
O O6 0.673290 0.573971 0.608270
O O7 0.809388 0.406543 0.800177
O O8 0.547636 0.250000 0.424538
O O9 0.522557 0.086662 0.259178
O O10 0.390407 0.250000 0.570393
O O11 0.282020 0.389493 0.540701
O O12 0.529418 0.407286 0.845880
O O13 0.877537 0.250000 0.762732
O O14 0.874800 0.450481 0.686325
O O15 0.046370 0.383073 0.101289
O O16 0.910762 0.888712 0.596154
O O17 0.774552 0.750000 0.283101
O O18 0.703612 0.555454 0.175547
O O19 0.500000 0.500000 0.000000
#
# Coordination Sequence:
#
# PCOD9156303 Si02
#       8
#     4   4   4   4   4   4   4   4
#     4   9  18  32  52  75  99 132 173 214 252 300
#     4  10  19  32  49  74 103 134 175 216 254 301
#     4   9  18  31  48  70  98 136 170 206 255 307
#     4  10  19  30  48  73 104 137 171 214 257 300
#     4  10  21  36  55  79 104 134 171 214 263 305
#     4  10  20  35  56  78 101 134 174 212 254 311
#     4  10  19  34  55  77 105 140 174 209 256 309
#     4  10  18  27  44  75 105 130 165 206 254 304
#
# _framework density 21.388894000000001
#
# number of rings (size 3 to 8) (size 9 to 14) (size 15 to 20)
#    0.000    2.250    1.250    3.375    0.000    0.500 
#    0.000    2.500    0.000    4.500    0.000    0.000 
#    0.000    0.000    0.000    0.000    0.000    0.000 
#
# Total GULP energy -178367.616815 kJ/mol
# GULP energy per Si atom -5573.988025 kJ/mol
# Density = 2.134021 g / cm^3
# Si number density = 21.388894 Si / 1000 Ang^3
#
#
#
# Elastic Constant Matrix: (Units=GPa)
#
#
# Indices 1 2 3 4 5 6 
#
# 1 24.1558 4.5664 -2.3707 0.0000 -4.7269 0.0000
# 2 4.5664 128.1398 -4.9857 0.0000 2.7020 0.0000
# 3 -2.3707 -4.9857 17.4292 0.0000 -1.9589 0.0000
# 4 0.0000 0.0000 0.0000 26.2931 0.0000 -2.7931
# 5 -4.7269 2.7020 -1.9589 0.0000 26.1270 0.0000
# 6 0.0000 0.0000 0.0000 -2.7931 0.0000 22.5061
#
#
#
# Elastic Compliance Matrix: (Units=1/GPa)
#
#
# Indices 1 2 3 4 5 6 
#
# 1 0.044005 -0.001496 0.006525 0.000000 0.008605 0.000000
# 2 -0.001496 0.007954 0.001965 0.000000 -0.000946 0.000000
# 3 0.006525 0.001965 0.059435 0.000000 0.005433 0.000000
# 4 0.000000 0.000000 0.000000 0.038541 0.000000 0.004783
# 5 0.008605 -0.000946 0.005433 0.000000 0.040337 0.000000
# 6 0.000000 0.000000 0.000000 0.004783 0.000000 0.045026
#
#
# Mechanical properties :
#
#
# Convention : Reuss Voigt Hill
#
# Bulk Modulus (GPa) = 7.97556 18.23831 13.10693
# Shear Modulus (GPa) = 19.00396 26.48622 22.74509
#
# Velocity S-wave (km/s) = 2.98400 3.52279 3.26453
# Velocity P-wave (km/s) = 3.95086 5.00922 4.51118
#
# Compressibility (1/GPa) = 0.12538310
#
# Stress axis : x y z
#
# Youngs Moduli (GPa) = 22.72472 125.72769 16.82499
#
# Poissons Ratio (x) = 0.18806 -0.10978
# Poissons Ratio (y) = 0.03399 -0.03307
# Poissons Ratio (z) = -0.14827 -0.24711
#
# Static dielectric constant tensor:
#      x y z
#    x 1.899900 0.000000 -0.006350 
#    y 0.000000 1.769030 0.000000 
#    z -0.006350 0.000000 1.862220 
# 
# From -- ./inp_files/35064.got.cif
#   From: 2010.05.17/outbox.cif.g08.bks.cpg/sg11_18_cif.got.tgz:35064.got - 2010.06.03 12:22:45.
