data_PCOD9156962
_publ_section_title
;
Structure prediction by ZEFSAII (Michael W. Deem and Ramdas Pophale) SiO2 
 PCOD9156962
Probable space group: P 21/M
;
_chemical_formula_sum "Si O2"
_cell_formula_units_Z 32
_cell_length_a 32.182030
_cell_length_b 7.536380
_cell_length_c 12.434723
_cell_angle_alpha 90.000000
_cell_angle_beta 150.341136
_cell_angle_gamma 90.000000
_cell_volume 1492.356772
_symmetry_space_group_name_H-M "P 21/M"
_symmetry_group_IT_number 11
_symmetry_cell_setting 'monoclinic'
loop_
_space_group_symop_operation_xyz
x,y,z
-x,1/2+y,-z
-x,-y,-z
x,1/2-y,z
loop_
_atom_site_type_symbol
_atom_site_label
_atom_site_fract_x
_atom_site_fract_y
_atom_site_fract_z
Si Si1 0.750075 0.456266 0.696277
Si Si2 0.522788 0.037902 0.428118
Si Si3 0.880078 0.456809 0.819816
Si Si4 0.933702 0.033775 0.707054
Si Si5 0.784437 0.460696 0.230654
Si Si6 0.401003 0.460985 0.782161
Si Si7 0.713185 0.031440 0.843334
Si Si8 0.364112 0.464294 0.936608
O O1 0.774623 0.250000 0.759684
O O2 0.808935 0.537007 0.736138
O O3 0.654358 0.463880 0.439288
O O4 0.757032 0.528924 0.832136
O O5 0.524663 0.250000 0.418018
O O6 0.616497 0.972001 0.619425
O O7 0.500000 0.000000 0.500000
O O8 0.449364 0.969798 0.185715
O O9 0.858912 0.250000 0.755418
O O10 0.894032 0.530328 0.731400
O O11 0.970573 0.471563 0.080261
O O12 0.935575 0.250000 0.713042
O O13 0.872805 0.972449 0.475211
O O14 0.793824 0.250000 0.238158
O O15 0.714069 0.487038 0.164269
O O16 0.753169 0.530057 0.045424
O O17 0.391199 0.250000 0.755946
O O18 0.363705 0.526779 0.812489
O O19 0.500000 0.500000 0.000000
O O20 0.712762 0.250000 0.843454
O O21 0.366947 0.250000 0.939887
#
# Coordination Sequence:
#
# PCOD9156962 Si02
#       8
#     4   4   4   4   4   4   4   4
#     4  10  20  37  58  78 106 142 180 218 259 316
#     4  10  18  31  49  71  99 134 172 208 250 300
#     4   9  18  33  54  78 102 136 174 210 263 321
#     4   9  18  32  52  78 105 130 168 221 265 311
#     4  10  19  33  54  79 104 136 177 216 263 318
#     4  11  23  38  55  78 108 142 178 218 265 312
#     4   9  18  33  53  75 104 141 176 215 263 312
#     4  10  21  34  51  76 107 137 171 220 270 310
#
# _framework density 21.442594
#
# number of rings (size 3 to 8) (size 9 to 14) (size 15 to 20)
#    0.000    2.250    1.250    1.875    0.000    5.000 
#    0.000    5.625    0.000    0.000    0.000    0.000 
#    0.000    0.000    0.000    0.000    0.000    0.000 
#
# Total GULP energy -178728.068889 kJ/mol
# GULP energy per Si atom -5585.252153 kJ/mol
# Density = 2.139379 g / cm^3
# Si number density = 21.442594 Si / 1000 Ang^3
#
#
#
# Elastic Constant Matrix: (Units=GPa)
#
#
# Indices 1 2 3 4 5 6 
#
# 1 98.7729 -7.4897 27.0976 0.0000 -4.2294 0.0000
# 2 -7.4897 53.9790 -12.8364 0.0000 -0.7186 0.0000
# 3 27.0976 -12.8364 95.2455 0.0000 -11.3799 0.0000
# 4 0.0000 0.0000 0.0000 16.1381 0.0000 1.8086
# 5 -4.2294 -0.7186 -11.3799 0.0000 33.3193 0.0000
# 6 0.0000 0.0000 0.0000 1.8086 0.0000 12.2204
#
#
#
# Elastic Compliance Matrix: (Units=1/GPa)
#
#
# Indices 1 2 3 4 5 6 
#
# 1 0.011021 0.000827 -0.002976 0.000000 0.000400 0.000000
# 2 0.000827 0.019259 0.002526 0.000000 0.001383 0.000000
# 3 -0.002976 0.002526 0.012143 0.000000 0.003824 0.000000
# 4 0.000000 0.000000 0.000000 0.063010 0.000000 -0.009325
# 5 0.000400 0.001383 0.003824 0.000000 0.031399 0.000000
# 6 0.000000 0.000000 0.000000 -0.009325 0.000000 0.083210
#
#
# Mechanical properties :
#
#
# Convention : Reuss Voigt Hill
#
# Bulk Modulus (GPa) = 23.16120 29.06005 26.11063
# Shear Modulus (GPa) = 21.39655 28.41730 24.90692
#
# Velocity S-wave (km/s) = 3.16231 3.64438 3.41187
# Velocity P-wave (km/s) = 4.91513 5.59380 5.26541
#
# Compressibility (1/GPa) = 0.04317565
#
# Stress axis : x y z
#
# Youngs Moduli (GPa) = 90.73966 51.92256 82.35072
#
# Poissons Ratio (x) = -0.04293 0.24509
# Poissons Ratio (y) = -0.07502 -0.20799
# Poissons Ratio (z) = 0.27005 -0.13114
#
# Static dielectric constant tensor:
#      x y z
#    x 1.775880 0.000000 -0.009760 
#    y 0.000000 1.832020 0.000000 
#    z -0.009760 0.000000 1.760170 
# 
# From -- ./inp_files/45335.got.cif
#   From: 2010.05.17/outbox.cif.g08.bks.cpg/sg11_23_cif.got.tgz:45335.got - 2010.06.03 12:22:45.
