data_PCOD9156855
_publ_section_title
;
Structure prediction by ZEFSAII (Michael W. Deem and Ramdas Pophale) SiO2 
 PCOD9156855
Probable space group: P 21/M
;
_chemical_formula_sum "Si O2"
_cell_formula_units_Z 32
_cell_length_a 18.287160
_cell_length_b 13.752272
_cell_length_c 20.821242
_cell_angle_alpha 90.000000
_cell_angle_beta 20.872632
_cell_angle_gamma 90.000000
_cell_volume 1865.662515
_symmetry_space_group_name_H-M "P 21/M"
_symmetry_group_IT_number 11
_symmetry_cell_setting 'monoclinic'
loop_
_space_group_symop_operation_xyz
x,y,z
-x,1/2+y,-z
-x,-y,-z
x,1/2-y,z
loop_
_atom_site_type_symbol
_atom_site_label
_atom_site_fract_x
_atom_site_fract_y
_atom_site_fract_z
Si Si1 0.826235 0.637782 0.649462
Si Si2 0.936760 0.862589 0.796983
Si Si3 0.888833 0.361783 0.107437
Si Si4 0.723914 0.365805 0.385572
Si Si5 0.455333 0.362746 0.786306
Si Si6 0.634175 0.866333 0.942739
Si Si7 0.327356 0.048088 0.756717
Si Si8 0.734750 0.439261 0.667787
O O1 0.810780 0.750000 0.641201
O O2 0.673025 0.622244 0.835638
O O3 0.778832 0.554277 0.636740
O O4 0.055598 0.616866 0.487639
O O5 0.987674 0.750000 0.741376
O O6 0.835997 0.904751 0.815323
O O7 0.133422 0.902419 0.672772
O O8 0.748432 0.864195 0.002102
O O9 0.852215 0.250000 0.120901
O O10 0.843195 0.375310 0.220754
O O11 0.744389 0.437037 0.188861
O O12 0.125490 0.390470 0.903766
O O13 0.684003 0.250000 0.427005
O O14 0.513693 0.424186 0.557545
O O15 0.499248 0.250000 0.734835
O O16 0.403687 0.420086 0.764308
O O17 0.637177 0.405959 0.680569
O O18 0.620492 0.750000 0.966911
O O19 0.434132 0.912597 0.139010
#
# Coordination Sequence:
#
# PCOD9156855 Si02
#       8
#     4   4   4   4   4   4   4   4
#     4  10  20  33  50  73 100 134 172 206 243 299
#     4   8  15  27  45  72 104 127 150 199 256 291
#     4  10  21  37  50  71 106 134 164 207 246 294
#     4  10  18  30  50  76 102 128 160 205 252 292
#     4  10  18  32  52  76 102 128 160 207 255 295
#     4   9  17  30  49  74 101 130 161 202 252 297
#     4  11  21  32  54  78  97 133 171 199 251 300
#     4  10  20  33  50  74 103 133 164 205 258 293
#
# _framework density 17.152083999999999
#
# number of rings (size 3 to 8) (size 9 to 14) (size 15 to 20)
#    0.000    2.250    1.250    3.750    1.750    0.000 
#    0.000    0.625    0.000    0.000    0.000    0.875 
#    0.000    0.000    0.000    0.000    0.000    0.000 
#
# Total GULP energy -178450.543790 kJ/mol
# GULP energy per Si atom -5576.579493 kJ/mol
# Density = 1.711304 g / cm^3
# Si number density = 17.152084 Si / 1000 Ang^3
#
#
#
# Elastic Constant Matrix: (Units=GPa)
#
#
# Indices 1 2 3 4 5 6 
#
# 1 42.7185 31.3323 -5.1034 0.0000 -14.7333 0.0000
# 2 31.3323 92.1217 5.4261 0.0000 -11.7951 0.0000
# 3 -5.1034 5.4261 56.0126 0.0000 -13.2627 0.0000
# 4 0.0000 0.0000 0.0000 15.0031 0.0000 0.4904
# 5 -14.7333 -11.7951 -13.2627 0.0000 19.7132 0.0000
# 6 0.0000 0.0000 0.0000 0.4904 0.0000 22.3800
#
#
#
# Elastic Compliance Matrix: (Units=1/GPa)
#
#
# Indices 1 2 3 4 5 6 
#
# 1 0.046803 -0.011968 0.014287 0.000000 0.037431 0.000000
# 2 -0.011968 0.014834 -0.003026 0.000000 -0.002104 0.000000
# 3 0.014287 -0.003026 0.025630 0.000000 0.026111 0.000000
# 4 0.000000 0.000000 0.000000 0.066701 0.000000 -0.001462
# 5 0.037431 -0.002104 0.026111 0.000000 0.095011 0.000000
# 6 0.000000 0.000000 0.000000 -0.001462 0.000000 0.044715
#
#
# Mechanical properties :
#
#
# Convention : Reuss Voigt Hill
#
# Bulk Modulus (GPa) = 11.64757 28.24032 19.94395
# Shear Modulus (GPa) = 15.44517 22.03244 18.73881
#
# Velocity S-wave (km/s) = 3.00406 3.58793 3.30890
# Velocity P-wave (km/s) = 4.34028 5.80213 5.12361
#
# Compressibility (1/GPa) = 0.08585481
#
# Stress axis : x y z
#
# Youngs Moduli (GPa) = 21.36608 67.41074 39.01607
#
# Poissons Ratio (x) = 0.80674 -0.55740
# Poissons Ratio (y) = 0.25570 0.11805
# Poissons Ratio (z) = -0.30525 0.20396
#
# Static dielectric constant tensor:
#      x y z
#    x 1.593810 0.000000 0.011180 
#    y 0.000000 1.568980 0.000000 
#    z 0.011180 0.000000 1.607320 
# 
# From -- ./inp_files/24457.got.cif
#   From: 2010.05.17/outbox.cif.g08.bks.cpg/sg11_13_cif.got.tgz:24457.got - 2010.06.03 12:22:45.
