data_PCOD9156828
_publ_section_title
;
Structure prediction by ZEFSAII (Michael W. Deem and Ramdas Pophale) SiO2 
 PCOD9156828
Probable space group: P 21/M
;
_chemical_formula_sum "Si O2"
_cell_formula_units_Z 32
_cell_length_a 32.439903
_cell_length_b 8.594090
_cell_length_c 12.803104
_cell_angle_alpha 90.000000
_cell_angle_beta 27.883397
_cell_angle_gamma 90.000000
_cell_volume 1669.312575
_symmetry_space_group_name_H-M "P 21/M"
_symmetry_group_IT_number 11
_symmetry_cell_setting 'monoclinic'
loop_
_space_group_symop_operation_xyz
x,y,z
-x,1/2+y,-z
-x,-y,-z
x,1/2-y,z
loop_
_atom_site_type_symbol
_atom_site_label
_atom_site_fract_x
_atom_site_fract_y
_atom_site_fract_z
Si Si1 0.181088 0.937378 0.875146
Si Si2 0.977837 0.938205 0.352231
Si Si3 0.796341 0.435872 0.788005
Si Si4 0.074852 0.436094 0.759750
Si Si5 0.325753 0.436757 0.121848
Si Si6 0.245854 0.063208 0.507154
Si Si7 0.502613 0.065519 0.376614
Si Si8 0.315674 0.937269 0.757002
O O1 0.176161 0.750000 0.879841
O O2 0.247123 0.980479 0.820048
O O3 0.222736 0.994388 0.672130
O O4 0.080321 0.989410 0.127971
O O5 0.976801 0.750000 0.363955
O O6 0.945963 0.991164 0.308958
O O7 0.893911 0.003742 0.603467
O O8 0.800868 0.250000 0.767865
O O9 0.752991 0.503553 0.778573
O O10 0.728254 0.475637 0.033205
O O11 0.072793 0.250000 0.759655
O O12 0.163791 0.480099 0.617246
O O13 0.000000 0.500000 0.000000
O O14 0.318727 0.250000 0.136193
O O15 0.321898 0.484570 0.253795
O O16 0.416113 0.492171 0.867693
O O17 0.250449 0.250000 0.510334
O O18 0.514377 0.250000 0.354314
O O19 0.500000 0.000000 0.500000
O O20 0.409101 0.019941 0.536192
O O21 0.328599 0.750000 0.725054
#
# Coordination Sequence:
#
# PCOD9156828 Si02
#       8
#     4   4   4   4   4   4   4   4
#     4  10  22  40  61  83 117 166 209 247 293 354
#     4  10  20  35  54  82 120 161 202 245 300 351
#     4  11  22  35  57  88 121 156 199 249 300 357
#     4  10  18  30  49  78 112 148 194 243 290 343
#     4  11  22  39  62  92 126 154 189 247 310 356
#     4  10  21  36  56  85 121 157 195 247 301 353
#     4  12  24  40  66  97 122 152 194 243 301 361
#     4  10  23  43  62  86 120 157 201 251 301 353
#
# _framework density 19.169567000000001
#
# number of rings (size 3 to 8) (size 9 to 14) (size 15 to 20)
#    0.000    1.500    3.750    1.875    0.000    3.500 
#    0.000    0.625    0.000    0.000    0.000    0.000 
#    0.000    0.000    0.000    0.000    0.000    0.000 
#
# Total GULP energy -178388.066188 kJ/mol
# GULP energy per Si atom -5574.627068 kJ/mol
# Density = 1.912594 g / cm^3
# Si number density = 19.169567 Si / 1000 Ang^3
#
#
#
# Elastic Constant Matrix: (Units=GPa)
#
#
# Indices 1 2 3 4 5 6 
#
# 1 71.6183 22.5792 29.7082 0.0000 -10.3591 0.0000
# 2 22.5792 30.8336 30.2979 0.0000 -3.7500 0.0000
# 3 29.7082 30.2979 132.7873 0.0000 -10.5562 0.0000
# 4 0.0000 0.0000 0.0000 32.9808 0.0000 -1.0723
# 5 -10.3591 -3.7500 -10.5562 0.0000 23.6702 0.0000
# 6 0.0000 0.0000 0.0000 -1.0723 0.0000 21.0241
#
#
#
# Elastic Compliance Matrix: (Units=1/GPa)
#
#
# Indices 1 2 3 4 5 6 
#
# 1 0.019116 -0.012292 -0.000997 0.000000 0.005974 0.000000
# 2 -0.012292 0.049847 -0.008733 0.000000 -0.001377 0.000000
# 3 -0.000997 -0.008733 0.009955 0.000000 0.002620 0.000000
# 4 0.000000 0.000000 0.000000 0.030371 0.000000 0.001549
# 5 0.005974 -0.001377 0.002620 0.000000 0.045812 0.000000
# 6 0.000000 0.000000 0.000000 0.001549 0.000000 0.047643
#
#
# Mechanical properties :
#
#
# Convention : Reuss Voigt Hill
#
# Bulk Modulus (GPa) = 28.67501 44.48996 36.58249
# Shear Modulus (GPa) = 19.34885 25.71195 22.53040
#
# Velocity S-wave (km/s) = 3.18048 3.66634 3.43202
# Velocity P-wave (km/s) = 5.33651 6.41730 5.90170
#
# Compressibility (1/GPa) = 0.03487357
#
# Stress axis : x y z
#
# Youngs Moduli (GPa) = 52.31230 20.06128 100.45418
#
# Poissons Ratio (x) = 0.24659 0.10017
# Poissons Ratio (y) = 0.64302 0.87727
# Poissons Ratio (z) = 0.05217 0.17519
#
# Static dielectric constant tensor:
#      x y z
#    x 1.754790 0.000000 0.040740 
#    y 0.000000 1.659870 0.000000 
#    z 0.040740 0.000000 1.747790 
# 
# From -- ./inp_files/45199.got.cif
#   From: 2010.05.17/outbox.cif.g08.bks.cpg/sg11_23_cif.got.tgz:45199.got - 2010.06.03 12:22:45.
