data_PCOD9156599
_publ_section_title
;
Structure prediction by ZEFSAII (Michael W. Deem and Ramdas Pophale) SiO2 
 PCOD9156599
Probable space group: P 21/M
;
_chemical_formula_sum "Si O2"
_cell_formula_units_Z 28
_cell_length_a 12.230855
_cell_length_b 7.630602
_cell_length_c 14.698598
_cell_angle_alpha 90.000000
_cell_angle_beta 110.848884
_cell_angle_gamma 90.000000
_cell_volume 1281.979943
_symmetry_space_group_name_H-M "P 21/M"
_symmetry_group_IT_number 11
_symmetry_cell_setting 'monoclinic'
loop_
_space_group_symop_operation_xyz
x,y,z
-x,1/2+y,-z
-x,-y,-z
x,1/2-y,z
loop_
_atom_site_type_symbol
_atom_site_label
_atom_site_fract_x
_atom_site_fract_y
_atom_site_fract_z
Si Si1 0.336382 0.466202 0.695943
Si Si2 0.231670 0.460956 0.216472
Si Si3 0.867725 0.538813 0.995341
Si Si4 0.870359 0.958603 0.494131
Si Si5 0.790148 0.952583 0.169268
Si Si6 0.469772 0.545808 0.385876
Si Si7 0.041401 0.462377 0.294673
O O1 0.336988 0.250000 0.700642
O O2 0.228225 0.527203 0.601149
O O3 0.308022 0.525893 0.790774
O O4 0.447881 0.528696 0.670819
O O5 0.233162 0.250000 0.217016
O O6 0.338326 0.514788 0.312293
O O7 0.108455 0.515821 0.224062
O O8 0.223565 0.520572 0.109874
O O9 0.863567 0.750000 0.999379
O O10 0.826916 0.469131 0.082137
O O11 0.000000 0.500000 0.000000
O O12 0.853927 0.750000 0.491177
O O13 0.873535 0.019719 0.598739
O O14 0.000000 0.000000 0.500000
O O15 0.758784 0.750000 0.143645
O O16 0.912563 0.959846 0.261022
O O17 0.500000 0.500000 0.500000
O O18 0.493472 0.750000 0.390505
O O19 0.029675 0.250000 0.294262
#
# Coordination Sequence:
#
# PCOD9156599 Si02
#       7
#     4   4   4   4   4   4   4
#     4   9  19  36  55  76 111 150 183 230 287 334
#     4  10  21  38  57  81 116 153 188 233 286 334
#     4  10  20  34  57  86 117 151 187 233 284 335
#     4  10  18  29  47  73 103 138 175 216 271 335
#     4  10  19  33  55  82 110 144 186 227 275 338
#     4  11  23  41  63  84 110 150 195 238 283 337
#     4  10  19  31  50  77 112 147 179 224 284 334
#
# _framework density 21.841215999999999
#
# number of rings (size 3 to 8) (size 9 to 14) (size 15 to 20)
#    0.000    2.000    2.857    1.286    0.000    3.429 
#    0.000    5.000    0.000    0.000    0.000    0.000 
#    0.000    0.000    0.000    0.000    0.000    0.000 
#
# Total GULP energy -156065.265945 kJ/mol
# GULP energy per Si atom -5573.759498 kJ/mol
# Density = 2.179150 g / cm^3
# Si number density = 21.841216 Si / 1000 Ang^3
#
#
#
# Elastic Constant Matrix: (Units=GPa)
#
#
# Indices 1 2 3 4 5 6 
#
# 1 111.6577 -1.6778 42.3508 0.0000 -27.1765 0.0000
# 2 -1.6778 42.1299 6.4732 0.0000 -9.0347 0.0000
# 3 42.3508 6.4732 133.0956 0.0000 -30.0447 0.0000
# 4 0.0000 0.0000 0.0000 14.2411 0.0000 2.1286
# 5 -27.1765 -9.0347 -30.0447 0.0000 38.7066 0.0000
# 6 0.0000 0.0000 0.0000 2.1286 0.0000 14.8774
#
#
#
# Elastic Compliance Matrix: (Units=1/GPa)
#
#
# Indices 1 2 3 4 5 6 
#
# 1 0.011508 0.002277 -0.002217 0.000000 0.006890 0.000000
# 2 0.002277 0.025439 -0.000316 0.000000 0.007291 0.000000
# 3 -0.002217 -0.000316 0.009537 0.000000 0.005773 0.000000
# 4 0.000000 0.000000 0.000000 0.071754 0.000000 -0.010266
# 5 0.006890 0.007291 0.005773 0.000000 0.036856 0.000000
# 6 0.000000 0.000000 0.000000 -0.010266 0.000000 0.068685
#
#
# Mechanical properties :
#
#
# Convention : Reuss Voigt Hill
#
# Bulk Modulus (GPa) = 21.75244 42.35283 32.05264
# Shear Modulus (GPa) = 20.86677 29.54750 25.20713
#
# Velocity S-wave (km/s) = 3.09428 3.68208 3.40090
# Velocity P-wave (km/s) = 4.76939 6.12456 5.48896
#
# Compressibility (1/GPa) = 0.04597185
#
# Stress axis : x y z
#
# Youngs Moduli (GPa) = 86.89464 39.30993 104.85087
#
# Poissons Ratio (x) = -0.08949 0.23247
# Poissons Ratio (y) = -0.19783 0.03311
# Poissons Ratio (z) = 0.19266 0.01241
#
# Static dielectric constant tensor:
#      x y z
#    x 1.823220 0.000000 -0.050670 
#    y 0.000000 1.816060 0.000000 
#    z -0.050670 0.000000 1.881080 
# 
# From -- ./inp_files/49031.got.cif
#   From: 2010.05.17/outbox.cif.g08.bks.cpg/sg11_25_cif.got.tgz:49031.got - 2010.06.03 12:22:45.
