data_PCOD9156759
_publ_section_title
;
Structure prediction by ZEFSAII (Michael W. Deem and Ramdas Pophale) SiO2 
 PCOD9156759
Probable space group: P 21/M
;
_chemical_formula_sum "Si O2"
_cell_formula_units_Z 32
_cell_length_a 21.908529
_cell_length_b 8.729180
_cell_length_c 13.019999
_cell_angle_alpha 90.000000
_cell_angle_beta 53.355656
_cell_angle_gamma 90.000000
_cell_volume 1997.857959
_symmetry_space_group_name_H-M "P 21/M"
_symmetry_group_IT_number 11
_symmetry_cell_setting 'monoclinic'
loop_
_space_group_symop_operation_xyz
x,y,z
-x,1/2+y,-z
-x,-y,-z
x,1/2-y,z
loop_
_atom_site_type_symbol
_atom_site_label
_atom_site_fract_x
_atom_site_fract_y
_atom_site_fract_z
Si Si1 0.999996 0.933955 0.385156
Si Si2 0.833144 0.565466 0.549998
Si Si3 0.407919 0.433247 0.483589
Si Si4 0.585611 0.433329 0.298824
Si Si5 0.679715 0.933302 0.015482
Si Si6 0.679932 0.432690 0.619583
Si Si7 0.166731 0.934364 0.217873
Si Si8 0.415486 0.433781 0.094678
O O1 0.999488 0.750000 0.391419
O O2 0.082815 0.977468 0.258657
O O3 0.917514 0.978098 0.423806
O O4 0.000000 0.000000 0.500000
O O5 0.826418 0.750000 0.559487
O O6 0.764430 0.495835 0.554801
O O7 0.827106 0.503212 0.673038
O O8 0.399773 0.250000 0.489418
O O9 0.496399 0.470817 0.370133
O O10 0.392958 0.495173 0.612866
O O11 0.354480 0.508736 0.452607
O O12 0.592381 0.250000 0.296817
O O13 0.636287 0.498946 0.156644
O O14 0.683442 0.750000 0.019430
O O15 0.632344 0.971580 0.959739
O O16 0.763725 0.001236 0.917164
O O17 0.679842 0.250000 0.623411
O O18 0.627333 0.497262 0.764216
O O19 0.171694 0.750000 0.219630
O O20 0.418492 0.250000 0.101764
O O21 0.500000 0.500000 0.000000
#
# Coordination Sequence:
#
# PCOD9156759 Si02
#       8
#     4   4   4   4   4   4   4   4
#     4   8  16  28  45  68  96 131 168 206 248 298
#     4  10  18  31  48  70 102 136 170 208 253 303
#     4  10  21  38  58  77 100 130 169 215 263 305
#     4  10  21  37  57  78 100 129 170 216 259 302
#     4  11  22  34  50  73 103 138 172 209 254 303
#     4  12  23  34  51  75 104 136 173 212 254 302
#     4  10  18  30  48  72 101 134 171 209 252 302
#     4  11  23  36  50  70 101 137 174 209 252 306
#
# _framework density 16.017154999999999
#
# number of rings (size 3 to 8) (size 9 to 14) (size 15 to 20)
#    0.000    1.750    1.250    4.125    0.000    6.000 
#    0.000    0.000    0.000    0.000    0.000    0.875 
#    0.000    0.000    0.000    0.000    0.000    0.000 
#
# Total GULP energy -178586.230670 kJ/mol
# GULP energy per Si atom -5580.819708 kJ/mol
# Density = 1.598070 g / cm^3
# Si number density = 16.017155 Si / 1000 Ang^3
#
#
#
# Elastic Constant Matrix: (Units=GPa)
#
#
# Indices 1 2 3 4 5 6 
#
# 1 135.8488 51.7141 60.8806 0.0000 -15.4626 0.0000
# 2 51.7141 61.9250 35.8740 0.0000 -4.2901 0.0000
# 3 60.8806 35.8740 57.1173 0.0000 -6.2091 0.0000
# 4 0.0000 0.0000 0.0000 26.4243 0.0000 0.5149
# 5 -15.4626 -4.2901 -6.2091 0.0000 23.3260 0.0000
# 6 0.0000 0.0000 0.0000 0.5149 0.0000 25.8664
#
#
#
# Elastic Compliance Matrix: (Units=1/GPa)
#
#
# Indices 1 2 3 4 5 6 
#
# 1 0.015874 -0.005370 -0.012883 0.000000 0.006106 0.000000
# 2 -0.005370 0.027206 -0.011541 0.000000 -0.001628 0.000000
# 3 -0.012883 -0.011541 0.038442 0.000000 -0.000430 0.000000
# 4 0.000000 0.000000 0.000000 0.037859 0.000000 -0.000754
# 5 0.006106 -0.001628 -0.000430 0.000000 0.046504 0.000000
# 6 0.000000 0.000000 0.000000 -0.000754 0.000000 0.038675
#
#
# Mechanical properties :
#
#
# Convention : Reuss Voigt Hill
#
# Bulk Modulus (GPa) = 45.59193 61.31429 53.45311
# Shear Modulus (GPa) = 18.41901 22.21816 20.31859
#
# Velocity S-wave (km/s) = 3.39478 3.72848 3.56554
# Velocity P-wave (km/s) = 6.62512 7.54314 7.09899
#
# Compressibility (1/GPa) = 0.02193370
#
# Stress axis : x y z
#
# Youngs Moduli (GPa) = 62.99613 36.75677 26.01342
#
# Poissons Ratio (x) = 0.19738 0.33514
# Poissons Ratio (y) = 0.33829 0.30021
# Poissons Ratio (z) = 0.81160 0.42419
#
# Static dielectric constant tensor:
#      x y z
#    x 1.541360 0.000000 -0.032100 
#    y 0.000000 1.533340 0.000000 
#    z -0.032100 0.000000 1.515090 
# 
# From -- ./inp_files/42795.got.cif
#   From: 2010.05.17/outbox.cif.g08.bks.cpg/sg11_22_cif.got.tgz:42795.got - 2010.06.03 12:22:45.
