data_PCOD9156289
_publ_section_title
;
Structure prediction by ZEFSAII (Michael W. Deem and Ramdas Pophale) SiO2 
 PCOD9156289
Probable space group: P 21/M
;
_chemical_formula_sum "Si O2"
_cell_formula_units_Z 28
_cell_length_a 16.105631
_cell_length_b 9.012723
_cell_length_c 12.303191
_cell_angle_alpha 90.000000
_cell_angle_beta 77.503014
_cell_angle_gamma 90.000000
_cell_volume 1743.564876
_symmetry_space_group_name_H-M "P 21/M"
_symmetry_group_IT_number 11
_symmetry_cell_setting 'monoclinic'
loop_
_space_group_symop_operation_xyz
x,y,z
-x,1/2+y,-z
-x,-y,-z
x,1/2-y,z
loop_
_atom_site_type_symbol
_atom_site_label
_atom_site_fract_x
_atom_site_fract_y
_atom_site_fract_z
Si Si1 0.718941 0.076480 0.076404
Si Si2 0.208535 0.576301 0.698033
Si Si3 0.366763 0.425357 0.559419
Si Si4 0.955783 0.921290 0.176360
Si Si5 0.490991 0.425480 0.329061
Si Si6 0.117830 0.078803 0.050231
Si Si7 0.537192 0.572890 0.097720
O O1 0.702799 0.250000 0.059051
O O2 0.750469 0.063874 0.192441
O O3 0.634147 0.982120 0.084776
O O4 0.795521 0.013912 0.981282
O O5 0.202596 0.750000 0.673701
O O6 0.273564 0.492470 0.600739
O O7 0.115920 0.502593 0.732626
O O8 0.366712 0.250000 0.585010
O O9 0.408714 0.444585 0.428980
O O10 0.429947 0.509241 0.624571
O O11 0.965947 0.750000 0.205096
O O12 0.919859 0.922676 0.062344
O O13 0.045484 0.005394 0.145071
O O14 0.504830 0.250000 0.306990
O O15 0.487593 0.510753 0.216864
O O16 0.133273 0.250000 0.074811
O O17 0.533146 0.750000 0.094290
O O18 0.500000 0.500000 0.000000
#
# Coordination Sequence:
#
# PCOD9156289 Si02
#       7
#     4   4   4   4   4   4   4
#     4  10  19  31  46  65  90 121 158 196 236 281
#     4  10  18  27  43  65  94 125 157 194 232 280
#     4  10  19  30  48  70  95 125 158 195 236 284
#     4   9  16  25  38  58  87 120 155 190 229 276
#     4  10  20  34  49  69  94 122 158 198 239 284
#     4   9  16  26  40  59  85 118 155 190 230 278
#     4  12  24  37  53  70  93 124 161 203 245 286
#
# _framework density 16.059052000000001
#
# number of rings (size 3 to 8) (size 9 to 14) (size 15 to 20)
#    0.000    2.000    1.429    3.857    0.000    6.286 
#    0.000    0.000    0.000    0.000    0.000    0.000 
#    0.000    1.143    0.000    4.286    0.000    6.571 
#
# Total GULP energy -156218.336177 kJ/mol
# GULP energy per Si atom -5579.226292 kJ/mol
# Density = 1.602250 g / cm^3
# Si number density = 16.059052 Si / 1000 Ang^3
#
#
#
# Elastic Constant Matrix: (Units=GPa)
#
#
# Indices 1 2 3 4 5 6 
#
# 1 38.8194 44.9935 39.1702 0.0000 -27.3891 0.0000
# 2 44.9935 154.8165 66.1992 0.0000 -23.1632 0.0000
# 3 39.1702 66.1992 79.8889 0.0000 -22.9811 0.0000
# 4 0.0000 0.0000 0.0000 24.3291 0.0000 -8.6103
# 5 -27.3891 -23.1632 -22.9811 0.0000 35.4903 0.0000
# 6 0.0000 0.0000 0.0000 -8.6103 0.0000 26.4720
#
#
#
# Elastic Compliance Matrix: (Units=1/GPa)
#
#
# Indices 1 2 3 4 5 6 
#
# 1 0.104599 -0.010774 -0.026004 0.000000 0.056852 0.000000
# 2 -0.010774 0.011173 -0.005247 0.000000 -0.004420 0.000000
# 3 -0.026004 -0.005247 0.028090 0.000000 -0.005304 0.000000
# 4 0.000000 0.000000 0.000000 0.046450 0.000000 0.015108
# 5 0.056852 -0.004420 -0.005304 0.000000 0.065732 0.000000
# 6 0.000000 0.000000 0.000000 0.015108 0.000000 0.042690
#
#
# Mechanical properties :
#
#
# Convention : Reuss Voigt Hill
#
# Bulk Modulus (GPa) = 16.71915 63.80562 40.26238
# Shear Modulus (GPa) = 12.41558 25.46908 18.94233
#
# Velocity S-wave (km/s) = 2.78352 3.98674 3.43817
# Velocity P-wave (km/s) = 4.55679 7.81090 6.39431
#
# Compressibility (1/GPa) = 0.05981166
#
# Stress axis : x y z
#
# Youngs Moduli (GPa) = 9.56036 89.50335 35.60028
#
# Poissons Ratio (x) = 0.96429 0.92574
# Poissons Ratio (y) = 0.10300 0.18680
# Poissons Ratio (z) = 0.24860 0.46965
#
# Static dielectric constant tensor:
#      x y z
#    x 1.520810 0.000000 -0.021900 
#    y 0.000000 1.535550 0.000000 
#    z -0.021900 0.000000 1.532950 
# 
# From -- ./inp_files/37501.got.cif
#   From: 2010.05.17/outbox.cif.g08.bks.cpg/sg11_19_cif.got.tgz:37501.got - 2010.06.03 12:22:45.
