data_PCOD9156431
_publ_section_title
;
Structure prediction by ZEFSAII (Michael W. Deem and Ramdas Pophale) SiO2 
 PCOD9156431
Probable space group: P 21/M
;
_chemical_formula_sum "Si O2"
_cell_formula_units_Z 32
_cell_length_a 11.675054
_cell_length_b 28.576163
_cell_length_c 5.415999
_cell_angle_alpha 90.000000
_cell_angle_beta 90.004969
_cell_angle_gamma 90.000000
_cell_volume 1806.930241
_symmetry_space_group_name_H-M "P 21/M"
_symmetry_group_IT_number 11
_symmetry_cell_setting 'monoclinic'
loop_
_space_group_symop_operation_xyz
x,y,z
-x,1/2+y,-z
-x,-y,-z
x,1/2-y,z
loop_
_atom_site_type_symbol
_atom_site_label
_atom_site_fract_x
_atom_site_fract_y
_atom_site_fract_z
Si Si1 0.853457 0.017218 0.749949
Si Si2 0.883769 0.540714 0.249960
Si Si3 0.574823 0.804995 0.250128
Si Si4 0.422410 0.334991 0.249874
Si Si5 0.610508 0.456611 0.750061
Si Si6 0.160225 0.304447 0.249829
Si Si7 0.475238 0.438225 0.250037
Si Si8 0.174728 0.351783 0.749833
O O1 0.847581 0.986396 0.499269
O O2 0.745658 0.051671 0.750005
O O3 0.847600 0.986373 0.000555
O O4 0.977728 0.041396 0.749987
O O5 0.834098 0.592667 0.250050
O O6 0.601404 0.750000 0.250109
O O7 0.514538 0.819368 0.502400
O O8 0.692682 0.834978 0.250164
O O9 0.514540 0.819378 0.997849
O O10 0.299790 0.308685 0.249835
O O11 0.403000 0.390588 0.249922
O O12 0.550035 0.438826 0.500801
O O13 0.594457 0.513327 0.750010
O O14 0.550103 0.438837 0.999394
O O15 0.130179 0.250000 0.249904
O O16 0.122655 0.330229 0.499785
O O17 0.122648 0.330204 0.999794
#
# Coordination Sequence:
#
# PCOD9156431 Si02
#       8
#     4   4   4   4   4   4   4   4
#     4  10  21  36  51  68 103 134 161 227 245 280
#     4  10  21  33  51  78  94 128 185 193 250 305
#     4  10  19  29  44  71 102 129 150 193 255 300
#     4  10  18  29  46  64  96 129 159 197 220 307
#     4  10  21  35  49  65 102 130 163 223 245 272
#     4  10  19  31  46  73 104 131 152 195 257 300
#     4  10  21  33  47  74  90 130 182 196 241 300
#     4  10  18  28  46  69  97 129 158 196 221 314
#
# _framework density 17.709592000000001
#
# number of rings (size 3 to 8) (size 9 to 14) (size 15 to 20)
#    0.000    2.000    0.000    6.000    7.000    0.000 
#    0.000    0.000    0.000    0.000    0.000    0.000 
#    0.000   34.000    0.000    0.000    0.000    0.000 
#
# Total GULP energy -178452.575185 kJ/mol
# GULP energy per Si atom -5576.642975 kJ/mol
# Density = 1.766928 g / cm^3
# Si number density = 17.709592 Si / 1000 Ang^3
#
#
#
# Elastic Constant Matrix: (Units=GPa)
#
#
# Indices 1 2 3 4 5 6 
#
# 1 28.7359 1.6168 10.0795 0.0000 -0.0151 0.0000
# 2 1.6168 70.7787 10.5553 0.0000 -0.0006 0.0000
# 3 10.0795 10.5553 166.4642 0.0000 -0.0472 0.0000
# 4 0.0000 0.0000 0.0000 21.5487 0.0000 -0.0064
# 5 -0.0151 -0.0006 -0.0472 0.0000 6.2823 0.0000
# 6 0.0000 0.0000 0.0000 -0.0064 0.0000 11.5055
#
#
#
# Elastic Compliance Matrix: (Units=1/GPa)
#
#
# Indices 1 2 3 4 5 6 
#
# 1 0.035572 -0.000496 -0.002122 0.000000 0.000069 0.000000
# 2 -0.000496 0.014270 -0.000875 0.000000 -0.000006 0.000000
# 3 -0.002122 -0.000875 0.006191 0.000000 0.000041 0.000000
# 4 0.000000 0.000000 0.000000 0.046407 0.000000 0.000026
# 5 0.000069 -0.000006 0.000041 0.000000 0.159178 0.000000
# 6 0.000000 0.000000 0.000000 0.000026 0.000000 0.086915
#
#
# Mechanical properties :
#
#
# Convention : Reuss Voigt Hill
#
# Bulk Modulus (GPa) = 20.38860 34.49800 27.44330
# Shear Modulus (GPa) = 13.44559 24.11578 18.78069
#
# Velocity S-wave (km/s) = 2.75840 3.69417 3.26004
# Velocity P-wave (km/s) = 4.65647 6.14150 5.44981
#
# Compressibility (1/GPa) = 0.04904703
#
# Stress axis : x y z
#
# Youngs Moduli (GPa) = 28.11196 70.07544 161.51702
#
# Poissons Ratio (x) = 0.03476 0.34281
# Poissons Ratio (y) = 0.01395 0.14130
# Poissons Ratio (z) = 0.05967 0.06130
#
# Static dielectric constant tensor:
#      x y z
#    x 1.588770 0.000000 0.000010 
#    y 0.000000 1.588040 0.000000 
#    z 0.000010 0.000000 1.741880 
# 
# From -- ./inp_files/5596.got.cif
#   From: 2010.05.17/outbox.cif.g08.bks.cpg/sg11_3_cif.got.tgz:5596.got - 2010.06.03 12:22:45.
