data_PCOD9156082
_publ_section_title
;
Structure prediction by ZEFSAII (Michael W. Deem and Ramdas Pophale) SiO2 
 PCOD9156082
Probable space group: P 21/M
;
_chemical_formula_sum "Si O2"
_cell_formula_units_Z 32
_cell_length_a 22.411556
_cell_length_b 13.295896
_cell_length_c 12.160539
_cell_angle_alpha 90.000000
_cell_angle_beta 158.942578
_cell_angle_gamma 90.000000
_cell_volume 1301.978399
_symmetry_space_group_name_H-M "P 21/M"
_symmetry_group_IT_number 11
_symmetry_cell_setting 'monoclinic'
loop_
_space_group_symop_operation_xyz
x,y,z
-x,1/2+y,-z
-x,-y,-z
x,1/2-y,z
loop_
_atom_site_type_symbol
_atom_site_label
_atom_site_fract_x
_atom_site_fract_y
_atom_site_fract_z
Si Si1 0.067471 0.127697 0.572362
Si Si2 0.408386 0.863642 0.753177
Si Si3 0.274330 0.414005 0.566956
Si Si4 0.448712 0.434480 0.235109
Si Si5 0.549393 0.637785 0.519323
Si Si6 0.889583 0.958058 0.908801
Si Si7 0.953513 0.636942 0.228532
Si Si8 0.933774 0.363961 0.108832
O O1 0.090441 0.250000 0.618330
O O2 0.952795 0.112011 0.269589
O O3 0.251089 0.083011 0.879890
O O4 0.994853 0.094217 0.565088
O O5 0.332863 0.750000 0.623875
O O6 0.478984 0.888928 0.753032
O O7 0.309892 0.965134 0.619700
O O8 0.564432 0.864611 0.104420
O O9 0.234787 0.387099 0.371163
O O10 0.117602 0.379377 0.371512
O O11 0.484151 0.551336 0.326066
O O12 0.502693 0.381113 0.442995
O O13 0.499013 0.750000 0.399647
O O14 0.751436 0.633594 0.873417
O O15 0.999951 0.910337 0.193346
O O16 0.819969 0.055551 0.851716
O O17 0.000000 0.000000 0.000000
O O18 0.012614 0.750000 0.328401
O O19 0.881727 0.250000 0.002759
#
# Coordination Sequence:
#
# PCOD9156082 Si02
#       8
#     4   4   4   4   4   4   4   4
#     4   9  17  32  58  84 105 139 190 235 283 344
#     4  11  21  35  58  84 115 155 194 236 282 342
#     4  10  22  37  54  84 118 147 193 239 284 334
#     4  10  17  30  54  82 115 150 194 236 278 338
#     4   9  18  31  52  84 117 151 188 230 288 347
#     4  10  22  37  54  80 111 145 190 232 278 340
#     4   9  18  34  55  80 109 142 182 234 286 337
#     4  10  20  38  62  81 107 148 194 241 284 343
#
# _framework density 24.577981999999999
#
# number of rings (size 3 to 8) (size 9 to 14) (size 15 to 20)
#    0.000    2.250    1.250    3.000    0.000    3.500 
#    0.000    6.250    0.000    3.750    0.000    0.000 
#    0.000    0.000    0.000    0.000    0.000    0.000 
#
# Total GULP energy -178755.351332 kJ/mol
# GULP energy per Si atom -5586.104729 kJ/mol
# Density = 2.452204 g / cm^3
# Si number density = 24.577982 Si / 1000 Ang^3
#
#
#
# Elastic Constant Matrix: (Units=GPa)
#
#
# Indices 1 2 3 4 5 6 
#
# 1 113.3308 31.0944 29.4562 0.0000 -36.9015 0.0000
# 2 31.0944 143.5992 6.1134 0.0000 -17.9990 0.0000
# 3 29.4562 6.1134 86.4758 0.0000 -35.1229 0.0000
# 4 0.0000 0.0000 0.0000 29.3092 0.0000 -1.2514
# 5 -36.9015 -17.9990 -35.1229 0.0000 44.5085 0.0000
# 6 0.0000 0.0000 0.0000 -1.2514 0.0000 19.5614
#
#
#
# Elastic Compliance Matrix: (Units=1/GPa)
#
#
# Indices 1 2 3 4 5 6 
#
# 1 0.012378 -0.001485 -0.000275 0.000000 0.009445 0.000000
# 2 -0.001485 0.007574 0.001051 0.000000 0.002662 0.000000
# 3 -0.000275 0.001051 0.017165 0.000000 0.013742 0.000000
# 4 0.000000 0.000000 0.000000 0.034212 0.000000 0.002189
# 5 0.009445 0.002662 0.013742 0.000000 0.042219 0.000000
# 6 0.000000 0.000000 0.000000 0.002189 0.000000 0.051261
#
#
# Mechanical properties :
#
#
# Convention : Reuss Voigt Hill
#
# Bulk Modulus (GPa) = 28.01144 52.97044 40.49094
# Shear Modulus (GPa) = 28.06992 37.12527 32.59759
#
# Velocity S-wave (km/s) = 3.38313 3.89074 3.64578
# Velocity P-wave (km/s) = 5.16551 6.46395 5.85086
#
# Compressibility (1/GPa) = 0.03569969
#
# Stress axis : x y z
#
# Youngs Moduli (GPa) = 80.78893 132.02758 58.25847
#
# Poissons Ratio (x) = 0.19602 0.01603
# Poissons Ratio (y) = 0.11995 -0.06125
# Poissons Ratio (z) = 0.02224 -0.13880
#
# Static dielectric constant tensor:
#      x y z
#    x 2.018080 0.000000 -0.001460 
#    y 0.000000 2.047740 0.000000 
#    z -0.001460 0.000000 1.974860 
# 
# From -- ./inp_files/44250.got.cif
#   From: 2010.05.17/outbox.cif.g08.bks.cpg/sg11_23_cif.got.tgz:44250.got - 2010.06.03 12:22:45.
