data_PCOD9156848
_publ_section_title
;
Structure prediction by ZEFSAII (Michael W. Deem and Ramdas Pophale) SiO2 
 PCOD9156848
Probable space group: P 21/M
;
_chemical_formula_sum "Si O2"
_cell_formula_units_Z 32
_cell_length_a 13.766340
_cell_length_b 7.470118
_cell_length_c 28.581558
_cell_angle_alpha 90.000000
_cell_angle_beta 27.794523
_cell_angle_gamma 90.000000
_cell_volume 1370.563636
_symmetry_space_group_name_H-M "P 21/M"
_symmetry_group_IT_number 11
_symmetry_cell_setting 'monoclinic'
loop_
_space_group_symop_operation_xyz
x,y,z
-x,1/2+y,-z
-x,-y,-z
x,1/2-y,z
loop_
_atom_site_type_symbol
_atom_site_label
_atom_site_fract_x
_atom_site_fract_y
_atom_site_fract_z
Si Si1 0.790677 0.464441 0.286514
Si Si2 0.403221 0.536871 0.092024
Si Si3 0.579455 0.036438 0.740439
Si Si4 0.828603 0.963290 0.035220
Si Si5 0.162049 0.032547 0.067619
Si Si6 0.971687 0.969091 0.413239
Si Si7 0.444803 0.034471 0.358958
Si Si8 0.047589 0.035470 0.685685
O O1 0.789576 0.250000 0.282713
O O2 0.614957 0.529768 0.324933
O O3 0.014482 0.533745 0.171821
O O4 0.785591 0.499238 0.344250
O O5 0.385352 0.750000 0.105212
O O6 0.177357 0.463418 0.200470
O O7 0.500000 0.500000 0.000000
O O8 0.598715 0.472978 0.038804
O O9 0.586360 0.250000 0.744386
O O10 0.391181 0.964669 0.852507
O O11 0.805295 0.970038 0.661624
O O12 0.530876 0.008514 0.706197
O O13 0.799989 0.750000 0.041908
O O14 0.925462 0.023111 0.944830
O O15 0.000000 0.000000 0.000000
O O16 0.166870 0.250000 0.070923
O O17 0.973797 0.750000 0.412255
O O18 0.926243 0.026252 0.378941
O O19 0.782234 0.026362 0.526942
O O20 0.450571 0.250000 0.359145
O O21 0.037058 0.250000 0.687433
#
# Coordination Sequence:
#
# PCOD9156848 Si02
#       8
#     4   4   4   4   4   4   4   4
#     4  10  20  34  52  76 107 144 180 217 266 320
#     4  10  18  30  50  74  99 132 171 210 253 304
#     4  10  20  36  59  83 108 139 180 228 274 321
#     4  10  20  34  53  78 107 142 177 212 258 314
#     4   9  17  31  50  70 100 138 172 205 253 316
#     4   9  19  37  58  81 108 140 180 226 275 324
#     4  10  21  37  58  80 106 142 182 225 275 328
#     4  10  20  34  54  79 107 141 181 221 264 319
#
# _framework density 23.348058000000002
#
# number of rings (size 3 to 8) (size 9 to 14) (size 15 to 20)
#    0.000    2.250    1.250    1.875    0.000    5.500 
#    0.000    2.500    0.000    3.000    0.000    0.000 
#    0.000    0.000    0.000    0.000    0.000    0.000 
#
# Total GULP energy -178527.400402 kJ/mol
# GULP energy per Si atom -5578.981263 kJ/mol
# Density = 2.329492 g / cm^3
# Si number density = 23.348058 Si / 1000 Ang^3
#
#
#
# Elastic Constant Matrix: (Units=GPa)
#
#
# Indices 1 2 3 4 5 6 
#
# 1 113.2597 -8.4828 7.1744 0.0000 2.0173 0.0000
# 2 -8.4828 67.0632 2.7148 0.0000 -4.0096 0.0000
# 3 7.1744 2.7148 67.4052 0.0000 1.2998 0.0000
# 4 0.0000 0.0000 0.0000 6.3207 0.0000 5.0596
# 5 2.0173 -4.0096 1.2998 0.0000 35.6713 0.0000
# 6 0.0000 0.0000 0.0000 5.0596 0.0000 -11.7384
#
#
#
# Elastic Compliance Matrix: (Units=1/GPa)
#
#
# Indices 1 2 3 4 5 6 
#
# 1 0.008985 0.001156 -0.000996 0.000000 -0.000342 0.000000
# 2 0.001156 0.015188 -0.000767 0.000000 0.001670 0.000000
# 3 -0.000996 -0.000767 0.014984 0.000000 -0.000576 0.000000
# 4 0.000000 0.000000 0.000000 0.117626 0.000000 0.050701
# 5 -0.000342 0.001670 -0.000576 0.000000 0.028262 0.000000
# 6 0.000000 0.000000 0.000000 0.050701 0.000000 -0.063337
#
#
# Mechanical properties :
#
#
# Convention : Reuss Voigt Hill
#
# Bulk Modulus (GPa) = 26.35505 27.83787 27.09646
# Shear Modulus (GPa) = 36.88141 22.47217 29.67679
#
# Velocity S-wave (km/s) = 3.97877 3.10576 3.56906
# Velocity P-wave (km/s) = 5.69385 4.98095 5.34929
#
# Compressibility (1/GPa) = 0.03794340
#
# Stress axis : x y z
#
# Youngs Moduli (GPa) = 111.29563 65.83944 66.73927
#
# Poissons Ratio (x) = -0.07614 0.06649
# Poissons Ratio (y) = -0.12870 0.05119
# Poissons Ratio (z) = 0.11089 0.05050
#
# Static dielectric constant tensor:
#      x y z
#    x 1.987650 0.000000 -0.035450 
#    y 0.000000 1.990940 0.000000 
#    z -0.035450 0.000000 1.854480 
# 
# From -- ./inp_files/71407.got.cif
#   From: 2010.05.17/outbox.cif.g08.bks.cpg/sg11_36_cif.got.tgz:71407.got - 2010.06.03 12:22:45.
