data_PCOD9156477
_publ_section_title
;
Structure prediction by ZEFSAII (Michael W. Deem and Ramdas Pophale) SiO2 
 PCOD9156477
Probable space group: P 21/M
;
_chemical_formula_sum "Si O2"
_cell_formula_units_Z 32
_cell_length_a 14.550942
_cell_length_b 9.217536
_cell_length_c 10.773942
_cell_angle_alpha 90.000000
_cell_angle_beta 102.995255
_cell_angle_gamma 90.000000
_cell_volume 1408.032957
_symmetry_space_group_name_H-M "P 21/M"
_symmetry_group_IT_number 11
_symmetry_cell_setting 'monoclinic'
loop_
_space_group_symop_operation_xyz
x,y,z
-x,1/2+y,-z
-x,-y,-z
x,1/2-y,z
loop_
_atom_site_type_symbol
_atom_site_label
_atom_site_fract_x
_atom_site_fract_y
_atom_site_fract_z
Si Si1 0.301660 0.577684 0.373650
Si Si2 0.651122 0.419478 0.239562
Si Si3 0.192127 0.078411 0.118658
Si Si4 0.024409 0.919544 0.180022
Si Si5 0.128641 0.915307 0.479117
Si Si6 0.650967 0.084483 0.964234
Si Si7 0.850764 0.576991 0.278093
Si Si8 0.487874 0.581653 0.314458
O O1 0.293919 0.750000 0.336078
O O2 0.249443 0.477818 0.257205
O O3 0.239570 0.563708 0.477855
O O4 0.412021 0.541258 0.397919
O O5 0.664744 0.250000 0.269401
O O6 0.750703 0.498970 0.253761
O O7 0.579233 0.487623 0.315260
O O8 0.607905 0.434344 0.087196
O O9 0.184747 0.250000 0.111653
O O10 0.260689 0.020610 0.032005
O O11 0.088731 0.009713 0.105488
O O12 0.023339 0.750000 0.143271
O O13 0.076902 0.927080 0.330973
O O14 0.919220 0.967319 0.185621
O O15 0.114916 0.750000 0.520072
O O16 0.102401 0.028861 0.576720
O O17 0.514792 0.750000 0.339205
O O18 0.576084 0.069643 0.830600
O O19 0.841284 0.750000 0.270260
O O20 0.312282 0.750000 0.030779
#
# Coordination Sequence:
#
# PCOD9156477 Si02
#       8
#     4   4   4   4   4   4   4   4
#     4   8  16  32  53  78 109 140 168 206 260 312
#     4  11  23  37  53  75 105 141 178 216 260 309
#     4  10  18  28  51  84 109 130 166 216 260 304
#     4   9  19  36  56  77 105 140 173 210 260 313
#     4   9  17  33  57  81 105 134 170 213 260 310
#     4   9  19  36  56  77 105 140 173 210 260 313
#     4  11  23  37  53  75 105 141 178 216 260 309
#     4   9  17  33  57  81 105 134 170 213 260 310
#
# _framework density 22.726738999999998
#
# number of rings (size 3 to 8) (size 9 to 14) (size 15 to 20)
#    0.000    2.500    0.000    4.125    0.000    6.000 
#    0.000    1.250    0.000    0.000    0.000    0.000 
#    0.000    0.000    0.000    0.000    0.000    0.000 
#
# Total GULP energy -178798.365188 kJ/mol
# GULP energy per Si atom -5587.448912 kJ/mol
# Density = 2.267501 g / cm^3
# Si number density = 22.726739 Si / 1000 Ang^3
#
#
#
# Elastic Constant Matrix: (Units=GPa)
#
#
# Indices 1 2 3 4 5 6 
#
# 1 152.4604 80.4258 19.1884 0.0000 -28.1943 0.0000
# 2 80.4258 99.9655 21.2954 0.0000 -26.3567 0.0000
# 3 19.1884 21.2954 68.9309 0.0000 -21.3026 0.0000
# 4 0.0000 0.0000 0.0000 17.6462 0.0000 -8.7123
# 5 -28.1943 -26.3567 -21.3026 0.0000 45.9891 0.0000
# 6 0.0000 0.0000 0.0000 -8.7123 0.0000 33.6636
#
#
#
# Elastic Compliance Matrix: (Units=1/GPa)
#
#
# Indices 1 2 3 4 5 6 
#
# 1 0.011562 -0.008772 0.000150 0.000000 0.002130 0.000000
# 2 -0.008772 0.018637 -0.001957 0.000000 0.004397 0.000000
# 3 0.000150 -0.001957 0.017217 0.000000 0.006945 0.000000
# 4 0.000000 0.000000 0.000000 0.064971 0.000000 0.016815
# 5 0.002130 0.004397 0.006945 0.000000 0.028787 0.000000
# 6 0.000000 0.000000 0.000000 0.016815 0.000000 0.034058
#
#
# Mechanical properties :
#
#
# Convention : Reuss Voigt Hill
#
# Bulk Modulus (GPa) = 38.08546 62.57512 50.33029
# Shear Modulus (GPa) = 24.37342 32.82291 28.59817
#
# Velocity S-wave (km/s) = 3.27839 3.80444 3.55117
# Velocity P-wave (km/s) = 5.57896 6.84776 6.24567
#
# Compressibility (1/GPa) = 0.02625674
#
# Stress axis : x y z
#
# Youngs Moduli (GPa) = 86.49382 53.65688 58.08378
#
# Poissons Ratio (x) = 0.47068 -0.00871
# Poissons Ratio (y) = 0.75872 0.11367
# Poissons Ratio (z) = -0.01296 0.10501
#
# Static dielectric constant tensor:
#      x y z
#    x 1.881040 0.000000 0.045770 
#    y 0.000000 1.750290 0.000000 
#    z 0.045770 0.000000 1.914290 
# 
# From -- ./inp_files/38263.got.cif
#   From: 2010.05.17/outbox.cif.g08.bks.cpg/sg11_20_cif.got.tgz:38263.got - 2010.06.03 12:22:45.
