data_PCOD9156658
_publ_section_title
;
Structure prediction by ZEFSAII (Michael W. Deem and Ramdas Pophale) SiO2 
 PCOD9156658
Probable space group: P 21/M
;
_chemical_formula_sum "Si O2"
_cell_formula_units_Z 28
_cell_length_a 9.733889
_cell_length_b 8.628480
_cell_length_c 27.443870
_cell_angle_alpha 90.000000
_cell_angle_beta 143.514889
_cell_angle_gamma 90.000000
_cell_volume 1370.569549
_symmetry_space_group_name_H-M "P 21/M"
_symmetry_group_IT_number 11
_symmetry_cell_setting 'monoclinic'
loop_
_space_group_symop_operation_xyz
x,y,z
-x,1/2+y,-z
-x,-y,-z
x,1/2-y,z
loop_
_atom_site_type_symbol
_atom_site_label
_atom_site_fract_x
_atom_site_fract_y
_atom_site_fract_z
Si Si1 0.249014 0.068209 0.873482
Si Si2 0.349404 0.433023 0.076588
Si Si3 0.035465 0.934282 0.907954
Si Si4 0.054553 0.934751 0.639274
Si Si5 0.851222 0.431709 0.681850
Si Si6 0.403227 0.565213 0.523989
Si Si7 0.445004 0.565754 0.210552
O O1 0.317438 0.250000 0.894047
O O2 0.015686 0.054935 0.775110
O O3 0.441059 0.969345 0.900527
O O4 0.194639 0.005861 0.911314
O O5 0.324440 0.250000 0.078287
O O6 0.412353 0.517683 0.144671
O O7 0.126710 0.500205 0.985394
O O8 0.050025 0.750000 0.912060
O O9 0.773632 0.989511 0.825341
O O10 0.058323 0.750000 0.638733
O O11 0.307422 0.002691 0.701933
O O12 0.977499 0.988080 0.671790
O O13 0.855058 0.999403 0.546771
O O14 0.825020 0.250000 0.662279
O O15 0.598255 0.505059 0.616549
O O16 0.500000 0.500000 0.500000
O O17 0.399523 0.750000 0.521987
O O18 0.436853 0.750000 0.212949
#
# Coordination Sequence:
#
# PCOD9156658 Si02
#       7
#     4   4   4   4   4   4   4
#     4  11  23  40  62  88 120 157 197 243 293 347
#     4  12  24  41  64  89 117 152 197 245 295 347
#     4  12  26  43  61  85 118 156 198 243 295 351
#     4  11  20  33  55  84 117 151 193 237 290 345
#     4  10  19  33  55  83 117 152 192 238 289 342
#     4  10  18  29  49  79 116 151 189 236 289 339
#     4  12  24  41  62  87 119 154 196 243 295 351
#
# _framework density 20.429462000000001
#
# number of rings (size 3 to 8) (size 9 to 14) (size 15 to 20)
#    0.000    0.857    1.429    9.857    0.000    1.714 
#    0.000    0.000    0.000    0.857    0.000    0.000 
#    0.000    0.000    0.000    0.000    0.000    0.000 
#
# Total GULP energy -156669.111161 kJ/mol
# GULP energy per Si atom -5595.325399 kJ/mol
# Density = 2.038296 g / cm^3
# Si number density = 20.429462 Si / 1000 Ang^3
#
#
#
# Elastic Constant Matrix: (Units=GPa)
#
#
# Indices 1 2 3 4 5 6 
#
# 1 37.9826 -18.4418 -4.6518 0.0000 9.0599 0.0000
# 2 -18.4418 124.0558 32.1897 0.0000 0.1487 0.0000
# 3 -4.6518 32.1897 91.2587 0.0000 30.4513 0.0000
# 4 0.0000 0.0000 0.0000 36.5045 0.0000 7.7236
# 5 9.0599 0.1487 30.4513 0.0000 27.9810 0.0000
# 6 0.0000 0.0000 0.0000 7.7236 0.0000 24.7421
#
#
#
# Elastic Compliance Matrix: (Units=1/GPa)
#
#
# Indices 1 2 3 4 5 6 
#
# 1 0.032904 0.003245 0.006428 0.000000 -0.017666 0.000000
# 2 0.003245 0.009718 -0.004545 0.000000 0.003844 0.000000
# 3 0.006428 -0.004545 0.021316 0.000000 -0.025255 0.000000
# 4 0.000000 0.000000 0.000000 0.029331 0.000000 -0.009156
# 5 -0.017666 0.003844 -0.025255 0.000000 0.068922 0.000000
# 6 0.000000 0.000000 0.000000 -0.009156 0.000000 0.043275
#
#
# Mechanical properties :
#
#
# Convention : Reuss Voigt Hill
#
# Bulk Modulus (GPa) = 13.47841 30.16550 21.82196
# Shear Modulus (GPa) = 22.73315 34.12557 28.42936
#
# Velocity S-wave (km/s) = 3.33943 4.09150 3.73444
# Velocity P-wave (km/s) = 4.63475 6.09247 5.41291
#
# Compressibility (1/GPa) = 0.07419271
#
# Stress axis : x y z
#
# Youngs Moduli (GPa) = 30.39101 102.90162 46.91389
#
# Poissons Ratio (x) = -0.33390 -0.30154
# Poissons Ratio (y) = -0.09861 0.21323
# Poissons Ratio (z) = -0.19534 0.46770
#
# Static dielectric constant tensor:
#      x y z
#    x 1.735400 0.000000 0.024780 
#    y 0.000000 1.682760 0.000000 
#    z 0.024780 0.000000 1.772140 
# 
# From -- ./inp_files/70886.got.cif
#   From: 2010.05.17/outbox.cif.g08.bks.cpg/sg11_36_cif.got.tgz:70886.got - 2010.06.03 12:22:45.
