data_PCOD9156493
_publ_section_title
;
Structure prediction by ZEFSAII (Michael W. Deem and Ramdas Pophale) SiO2 
 PCOD9156493
Probable space group: P 21/M
;
_chemical_formula_sum "Si O2"
_cell_formula_units_Z 32
_cell_length_a 10.444269
_cell_length_b 9.306827
_cell_length_c 21.017562
_cell_angle_alpha 90.000000
_cell_angle_beta 101.666849
_cell_angle_gamma 90.000000
_cell_volume 2000.762370
_symmetry_space_group_name_H-M "P 21/M"
_symmetry_group_IT_number 11
_symmetry_cell_setting 'monoclinic'
loop_
_space_group_symop_operation_xyz
x,y,z
-x,1/2+y,-z
-x,-y,-z
x,1/2-y,z
loop_
_atom_site_type_symbol
_atom_site_label
_atom_site_fract_x
_atom_site_fract_y
_atom_site_fract_z
Si Si1 0.872174 0.078331 0.960546
Si Si2 0.877231 0.414678 0.681343
Si Si3 0.805070 0.583760 0.299031
Si Si4 0.365526 0.578393 0.972804
Si Si5 0.207526 0.921804 0.829963
Si Si6 0.146567 0.414944 0.444618
Si Si7 0.170999 0.915779 0.572773
Si Si8 0.933417 0.422039 0.824608
O O1 0.888482 0.250000 0.971029
O O2 0.745799 0.033572 0.987875
O O3 0.862535 0.050878 0.884140
O O4 0.000000 0.000000 0.000000
O O5 0.835344 0.250000 0.666885
O O6 0.823377 0.515584 0.620662
O O7 0.854100 0.457515 0.752299
O O8 0.035958 0.416937 0.691032
O O9 0.763881 0.750000 0.294683
O O10 0.755654 0.497213 0.232701
O O11 0.774485 0.504459 0.361963
O O12 0.382679 0.750000 0.980345
O O13 0.500000 0.500000 0.000000
O O14 0.309041 0.549376 0.896758
O O15 0.194045 0.750000 0.820470
O O16 0.068291 0.989631 0.836573
O O17 0.188561 0.250000 0.453007
O O18 0.199374 0.507911 0.508677
O O19 0.987755 0.416601 0.435613
O O20 0.212444 0.750000 0.577797
O O21 0.962995 0.250000 0.823702
#
# Coordination Sequence:
#
# PCOD9156493 Si02
#       8
#     4   4   4   4   4   4   4   4
#     4  10  19  33  51  73  95 120 155 197 240 284
#     4   8  14  23  33  50  74 103 137 174 216 265
#     4   9  16  25  37  54  76 105 142 181 222 269
#     4  10  22  36  50  70  96 125 158 195 238 288
#     4  10  18  29  44  64  88 113 147 190 231 275
#     4   9  15  21  30  45  68 102 139 176 215 259
#     4   9  15  22  32  47  69 101 139 180 219 259
#     4   9  17  28  45  65  87 114 147 187 232 277
#
# _framework density 15.993902
#
# number of rings (size 3 to 8) (size 9 to 14) (size 15 to 20)
#    0.000    2.750    1.250    2.250    0.000    7.500 
#    0.000    0.000    0.000    0.000    0.000    0.000 
#    0.000    0.000    0.000    1.125    0.000   13.500 
#
# Total GULP energy -178244.469463 kJ/mol
# GULP energy per Si atom -5570.139671 kJ/mol
# Density = 1.595750 g / cm^3
# Si number density = 15.993902 Si / 1000 Ang^3
#
#
#
# Elastic Constant Matrix: (Units=GPa)
#
#
# Indices 1 2 3 4 5 6 
#
# 1 46.4365 30.1656 47.5608 0.0000 -4.8873 0.0000
# 2 30.1656 96.0514 86.4445 0.0000 -10.6488 0.0000
# 3 47.5608 86.4445 159.3243 0.0000 -28.4504 0.0000
# 4 0.0000 0.0000 0.0000 30.5228 0.0000 -1.1247
# 5 -4.8873 -10.6488 -28.4504 0.0000 13.8765 0.0000
# 6 0.0000 0.0000 0.0000 -1.1247 0.0000 13.3645
#
#
#
# Elastic Compliance Matrix: (Units=1/GPa)
#
#
# Indices 1 2 3 4 5 6 
#
# 1 0.032640 -0.001682 -0.011057 0.000000 -0.012464 0.000000
# 2 -0.001682 0.021572 -0.013176 0.000000 -0.011052 0.000000
# 3 -0.011057 -0.013176 0.022441 0.000000 0.032004 0.000000
# 4 0.000000 0.000000 0.000000 0.032864 0.000000 0.002766
# 5 -0.012464 -0.011052 0.032004 0.000000 0.124810 0.000000
# 6 0.000000 0.000000 0.000000 0.002766 0.000000 0.075058
#
#
# Mechanical properties :
#
#
# Convention : Reuss Voigt Hill
#
# Bulk Modulus (GPa) = 40.28320 70.01712 55.15016
# Shear Modulus (GPa) = 13.53224 20.72884 17.13054
#
# Velocity S-wave (km/s) = 2.91191 3.60397 3.27627
# Velocity P-wave (km/s) = 6.04541 7.82244 6.99062
#
# Compressibility (1/GPa) = 0.02482424
#
# Stress axis : x y z
#
# Youngs Moduli (GPa) = 30.63736 46.35652 44.56162
#
# Poissons Ratio (x) = 0.07796 0.49271
# Poissons Ratio (y) = 0.05152 0.58713
# Poissons Ratio (z) = 0.33875 0.61078
#
# Static dielectric constant tensor:
#      x y z
#    x 1.495940 0.000000 -0.026500 
#    y 0.000000 1.535000 0.000000 
#    z -0.026500 0.000000 1.551670 
# 
# From -- ./inp_files/64253.got.cif
#   From: 2010.05.17/outbox.cif.g08.bks.cpg/sg11_33_cif.got.tgz:64253.got - 2010.06.03 12:22:45.
