data_PCOD9156578
_publ_section_title
;
Structure prediction by ZEFSAII (Michael W. Deem and Ramdas Pophale) SiO2 
 PCOD9156578
Probable space group: P 21/M
;
_chemical_formula_sum "Si O2"
_cell_formula_units_Z 28
_cell_length_a 14.554748
_cell_length_b 7.383274
_cell_length_c 14.229674
_cell_angle_alpha 90.000000
_cell_angle_beta 50.230059
_cell_angle_gamma 90.000000
_cell_volume 1175.330150
_symmetry_space_group_name_H-M "P 21/M"
_symmetry_group_IT_number 11
_symmetry_cell_setting 'monoclinic'
loop_
_space_group_symop_operation_xyz
x,y,z
-x,1/2+y,-z
-x,-y,-z
x,1/2-y,z
loop_
_atom_site_type_symbol
_atom_site_label
_atom_site_fract_x
_atom_site_fract_y
_atom_site_fract_z
Si Si1 0.892121 0.465321 0.498637
Si Si2 0.284802 0.529272 0.232733
Si Si3 0.534108 0.959258 0.121701
Si Si4 0.205897 0.457925 0.081509
Si Si5 0.477189 0.468097 0.371276
Si Si6 0.303333 0.960195 0.647144
Si Si7 0.945214 0.473113 0.252879
O O1 0.877868 0.250000 0.498064
O O2 0.776016 0.532587 0.630678
O O3 0.920080 0.534019 0.376555
O O4 0.000000 0.500000 0.500000
O O5 0.283801 0.750000 0.231303
O O6 0.421687 0.465319 0.137667
O O7 0.210573 0.462875 0.191994
O O8 0.547378 0.750000 0.084645
O O9 0.489229 0.965678 0.258081
O O10 0.666422 0.042452 0.029834
O O11 0.207403 0.250000 0.047004
O O12 0.077426 0.534357 0.136372
O O13 0.476617 0.250000 0.372063
O O14 0.594129 0.536292 0.352191
O O15 0.360897 0.528525 0.505280
O O16 0.292831 0.750000 0.679719
O O17 0.169200 0.033447 0.732444
O O18 0.947128 0.250000 0.251707
#
# Coordination Sequence:
#
# PCOD9156578 Si02
#       7
#     4   4   4   4   4   4   4
#     4  10  18  29  47  70  98 130 163 201 246 295
#     4  10  20  33  50  73 102 139 174 209 261 306
#     4  10  21  36  53  73 102 140 176 210 253 304
#     4  10  20  34  53  75 100 137 180 213 245 298
#     4  10  20  34  55  82 104 128 168 215 258 300
#     4   9  18  35  58  79 104 134 163 205 261 315
#     4   9  17  32  53  75 102 137 171 202 250 308
#
# _framework density 23.823093
#
# number of rings (size 3 to 8) (size 9 to 14) (size 15 to 20)
#    0.000    2.286    1.429    1.714    0.000    4.000 
#    0.000    3.571    0.000    0.000    0.000    0.000 
#    0.000    0.000    0.000    0.000    0.000    0.000 
#
# Total GULP energy -156423.466254 kJ/mol
# GULP energy per Si atom -5586.552366 kJ/mol
# Density = 2.376887 g / cm^3
# Si number density = 23.823093 Si / 1000 Ang^3
#
#
#
# Elastic Constant Matrix: (Units=GPa)
#
#
# Indices 1 2 3 4 5 6 
#
# 1 110.8292 -1.0087 22.8333 0.0000 -54.2282 0.0000
# 2 -1.0087 91.1723 -6.2019 0.0000 -6.0374 0.0000
# 3 22.8333 -6.2019 56.4409 0.0000 -37.9323 0.0000
# 4 0.0000 0.0000 0.0000 7.0635 0.0000 4.2174
# 5 -54.2282 -6.0374 -37.9323 0.0000 56.4655 0.0000
# 6 0.0000 0.0000 0.0000 4.2174 0.0000 7.5115
#
#
#
# Elastic Compliance Matrix: (Units=1/GPa)
#
#
# Indices 1 2 3 4 5 6 
#
# 1 0.019489 0.002530 0.009398 0.000000 0.025301 0.000000
# 2 0.002530 0.011806 0.005023 0.000000 0.007067 0.000000
# 3 0.009398 0.005023 0.038092 0.000000 0.035152 0.000000
# 4 0.000000 0.000000 0.000000 0.212963 0.000000 -0.119568
# 5 0.025301 0.007067 0.035152 0.000000 0.066378 0.000000
# 6 0.000000 0.000000 0.000000 -0.119568 0.000000 0.200260
#
#
# Mechanical properties :
#
#
# Convention : Reuss Voigt Hill
#
# Bulk Modulus (GPa) = 9.68156 32.18752 20.93454
# Shear Modulus (GPa) = 9.09890 30.39609 19.74749
#
# Velocity S-wave (km/s) = 1.95644 3.57586 2.88222
# Velocity P-wave (km/s) = 3.02924 5.53077 4.45902
#
# Compressibility (1/GPa) = 0.10328910
#
# Stress axis : x y z
#
# Youngs Moduli (GPa) = 51.30996 84.70363 26.25196
#
# Poissons Ratio (x) = -0.21433 -0.24670
# Poissons Ratio (y) = -0.12983 -0.13186
# Poissons Ratio (z) = -0.48219 -0.42546
#
# Static dielectric constant tensor:
#      x y z
#    x 1.913550 0.000000 -0.043330 
#    y 0.000000 1.885970 0.000000 
#    z -0.043330 0.000000 1.904170 
# 
# From -- ./inp_files/37399.got.cif
#   From: 2010.05.17/outbox.cif.g08.bks.cpg/sg11_19_cif.got.tgz:37399.got - 2010.06.03 12:22:45.
