data_PCOD9156597
_publ_section_title
;
Structure prediction by ZEFSAII (Michael W. Deem and Ramdas Pophale) SiO2 
 PCOD9156597
Probable space group: P 21/M
;
_chemical_formula_sum "Si O2"
_cell_formula_units_Z 32
_cell_length_a 18.181596
_cell_length_b 8.759357
_cell_length_c 24.413222
_cell_angle_alpha 90.000000
_cell_angle_beta 148.988644
_cell_angle_gamma 90.000000
_cell_volume 2003.142710
_symmetry_space_group_name_H-M "P 21/M"
_symmetry_group_IT_number 11
_symmetry_cell_setting 'monoclinic'
loop_
_space_group_symop_operation_xyz
x,y,z
-x,1/2+y,-z
-x,-y,-z
x,1/2-y,z
loop_
_atom_site_type_symbol
_atom_site_label
_atom_site_fract_x
_atom_site_fract_y
_atom_site_fract_z
Si Si1 0.264073 0.932733 0.087177
Si Si2 0.163651 0.566899 0.823051
Si Si3 0.609201 0.066487 0.114283
Si Si4 0.441432 0.933125 0.519609
Si Si5 0.669909 0.065870 0.747513
Si Si6 0.383591 0.433437 0.053467
Si Si7 0.886671 0.066374 0.694280
Si Si8 0.956355 0.066240 0.864812
O O1 0.266126 0.750000 0.084808
O O2 0.323060 0.977726 0.184376
O O3 0.352319 0.001956 0.093198
O O4 0.101424 0.989377 0.977225
O O5 0.167079 0.750000 0.830263
O O6 0.236487 0.522508 0.811330
O O7 0.004878 0.507267 0.730927
O O8 0.263309 0.497032 0.934814
O O9 0.603248 0.250000 0.108602
O O10 0.538274 0.022003 0.126794
O O11 0.500000 0.000000 0.000000
O O12 0.446006 0.750000 0.519208
O O13 0.276108 0.979310 0.421189
O O14 0.500000 0.000000 0.500000
O O15 0.541581 0.991495 0.632136
O O16 0.657560 0.250000 0.735689
O O17 0.819721 0.023768 0.814108
O O18 0.371674 0.250000 0.046730
O O19 0.896400 0.250000 0.696422
O O20 0.924636 0.025331 0.781408
O O21 0.973302 0.250000 0.878283
#
# Coordination Sequence:
#
# PCOD9156597 Si02
#       8
#     4   4   4   4   4   4   4   4
#     4  11  22  33  49  74 102 130 167 208 242 285
#     4  10  18  29  47  72  99 126 164 203 239 288
#     4   8  16  28  43  66  95 128 161 195 235 286
#     4  11  22  37  56  74  96 127 167 209 249 295
#     4  10  22  39  53  70  98 130 167 212 251 285
#     4  10  18  30  47  67  99 136 163 193 241 293
#     4  10  20  33  50  73 100 130 162 200 247 292
#     4  10  19  34  52  69  99 134 164 199 244 295
#
# _framework density 15.974899000000001
#
# number of rings (size 3 to 8) (size 9 to 14) (size 15 to 20)
#    0.000    2.000    2.500    1.875    0.000    3.500 
#    0.000    0.000    0.000    0.000    0.000    0.875 
#    0.000    0.000    0.000    0.000    0.000    0.000 
#
# Total GULP energy -178463.478267 kJ/mol
# GULP energy per Si atom -5576.983696 kJ/mol
# Density = 1.593854 g / cm^3
# Si number density = 15.974899 Si / 1000 Ang^3
#
#
#
# Elastic Constant Matrix: (Units=GPa)
#
#
# Indices 1 2 3 4 5 6 
#
# 1 145.9689 41.5280 90.1628 0.0000 25.9084 0.0000
# 2 41.5280 28.7174 38.2878 0.0000 3.9812 0.0000
# 3 90.1628 38.2878 110.5080 0.0000 3.4618 0.0000
# 4 0.0000 0.0000 0.0000 24.3654 0.0000 1.7195
# 5 25.9084 3.9812 3.4618 0.0000 22.2650 0.0000
# 6 0.0000 0.0000 0.0000 1.7195 0.0000 20.8429
#
#
#
# Elastic Compliance Matrix: (Units=1/GPa)
#
#
# Indices 1 2 3 4 5 6 
#
# 1 0.022352 -0.010939 -0.013760 0.000000 -0.021914 0.000000
# 2 -0.010939 0.071567 -0.015947 0.000000 0.002411 0.000000
# 3 -0.013760 -0.015947 0.025334 0.000000 0.014925 0.000000
# 4 0.000000 0.000000 0.000000 0.041282 0.000000 -0.003406
# 5 -0.021914 0.002411 0.014925 0.000000 0.067662 0.000000
# 6 0.000000 0.000000 0.000000 -0.003406 0.000000 0.048259
#
#
# Mechanical properties :
#
#
# Convention : Reuss Voigt Hill
#
# Bulk Modulus (GPa) = 26.34261 69.46128 47.90195
# Shear Modulus (GPa) = 13.49885 21.17570 17.33728
#
# Velocity S-wave (km/s) = 2.91005 3.64478 3.29794
# Velocity P-wave (km/s) = 5.27418 7.82869 6.67478
#
# Compressibility (1/GPa) = 0.03796131
#
# Stress axis : x y z
#
# Youngs Moduli (GPa) = 44.73855 13.97286 39.47315
#
# Poissons Ratio (x) = 0.15285 0.54317
# Poissons Ratio (y) = 0.48939 0.62946
# Poissons Ratio (z) = 0.61562 0.22282
#
# Static dielectric constant tensor:
#      x y z
#    x 1.561800 0.000000 0.019230 
#    y 0.000000 1.535460 0.000000 
#    z 0.019230 0.000000 1.500080 
# 
# From -- ./inp_files/43812.got.cif
#   From: 2010.05.17/outbox.cif.g08.bks.cpg/sg11_22_cif.got.tgz:43812.got - 2010.06.03 12:22:45.
