data_PCOD9156996
_publ_section_title
;
Structure prediction by ZEFSAII (Michael W. Deem and Ramdas Pophale) SiO2 
 PCOD9156996
Probable space group: P 21/M
;
_chemical_formula_sum "Si O2"
_cell_formula_units_Z 24
_cell_length_a 16.231028
_cell_length_b 8.646049
_cell_length_c 23.932021
_cell_angle_alpha 90.000000
_cell_angle_beta 23.951259
_cell_angle_gamma 90.000000
_cell_volume 1363.407392
_symmetry_space_group_name_H-M "P 21/M"
_symmetry_group_IT_number 11
_symmetry_cell_setting 'monoclinic'
loop_
_space_group_symop_operation_xyz
x,y,z
-x,1/2+y,-z
-x,-y,-z
x,1/2-y,z
loop_
_atom_site_type_symbol
_atom_site_label
_atom_site_fract_x
_atom_site_fract_y
_atom_site_fract_z
Si Si1 0.259342 0.933770 0.283943
Si Si2 0.667770 0.565056 0.352557
Si Si3 0.376809 0.065574 0.448726
Si Si4 0.957055 0.065207 0.257907
Si Si5 0.178877 0.565917 0.464142
Si Si6 0.401913 0.933951 0.004277
O O1 0.276385 0.750000 0.263575
O O2 0.249090 0.961022 0.356897
O O3 0.046094 0.994187 0.391415
O O4 0.444442 0.020590 0.140376
O O5 0.500000 0.500000 0.500000
O O6 0.668658 0.750000 0.353413
O O7 0.584396 0.504547 0.345239
O O8 0.875495 0.498734 0.249015
O O9 0.382693 0.250000 0.449143
O O10 0.193197 0.002781 0.601561
O O11 0.325813 0.010354 0.418213
O O12 0.941708 0.250000 0.268287
O O13 0.183627 0.010191 0.129436
O O14 0.167659 0.750000 0.480498
O O15 0.379908 0.750000 0.022148
O O16 0.500000 0.000000 0.000000
#
# Coordination Sequence:
#
# PCOD9156996 Si02
#       6
#     4   4   4   4   4   4
#     4  10  21  37  55  77 105 137 174 214 259 308
#     4  10  18  31  50  75 105 136 172 213 260 307
#     4  11  20  32  52  79 108 138 175 215 258 306
#     4  11  21  35  53  76 107 140 174 213 261 310
#     4  10  20  35  55  78 105 137 173 215 259 305
#     4  12  24  38  55  77 106 139 175 212 256 309
#
# _framework density 17.602955000000001
#
# number of rings (size 3 to 8) (size 9 to 14) (size 15 to 20)
#    0.000    1.333    0.000   10.000    0.000    2.000 
#    0.000    0.000    0.000    1.000    0.000    0.000 
#    0.000    0.000    0.000    0.000    0.000    0.000 
#
# Total GULP energy -134105.100838 kJ/mol
# GULP energy per Si atom -5587.712535 kJ/mol
# Density = 1.756289 g / cm^3
# Si number density = 17.602955 Si / 1000 Ang^3
#
#
#
# Elastic Constant Matrix: (Units=GPa)
#
#
# Indices 1 2 3 4 5 6 
#
# 1 127.8064 66.0900 33.8648 0.0000 -38.7911 0.0000
# 2 66.0900 158.9334 26.8485 0.0000 -15.0442 0.0000
# 3 33.8648 26.8485 52.5672 0.0000 -20.6295 0.0000
# 4 0.0000 0.0000 0.0000 28.5606 0.0000 -3.8810
# 5 -38.7911 -15.0442 -20.6295 0.0000 28.2885 0.0000
# 6 0.0000 0.0000 0.0000 -3.8810 0.0000 34.7419
#
#
#
# Elastic Compliance Matrix: (Units=1/GPa)
#
#
# Indices 1 2 3 4 5 6 
#
# 1 0.016419 -0.004907 -0.000364 0.000000 0.019640 0.000000
# 2 -0.004907 0.008401 -0.002825 0.000000 -0.004322 0.000000
# 3 -0.000364 -0.002825 0.027900 0.000000 0.018345 0.000000
# 4 0.000000 0.000000 0.000000 0.035553 0.000000 0.003972
# 5 0.019640 -0.004322 0.018345 0.000000 0.073362 0.000000
# 6 0.000000 0.000000 0.000000 0.003972 0.000000 0.029227
#
#
# Mechanical properties :
#
#
# Convention : Reuss Voigt Hill
#
# Bulk Modulus (GPa) = 27.37667 65.87928 46.62797
# Shear Modulus (GPa) = 22.80704 32.48512 27.64608
#
# Velocity S-wave (km/s) = 3.60340 4.30051 3.96730
# Velocity P-wave (km/s) = 5.73574 7.88452 6.89436
#
# Compressibility (1/GPa) = 0.03652745
#
# Stress axis : x y z
#
# Youngs Moduli (GPa) = 60.90347 119.03730 35.84252
#
# Poissons Ratio (x) = 0.58414 0.01303
# Poissons Ratio (y) = 0.29887 0.10127
# Poissons Ratio (z) = 0.02215 0.33633
#
# Static dielectric constant tensor:
#      x y z
#    x 1.630920 0.000000 -0.005100 
#    y 0.000000 1.584790 0.000000 
#    z -0.005100 0.000000 1.580710 
# 
# From -- ./inp_files/71833.got.cif
#   From: 2010.05.17/outbox.cif.g08.bks.cpg/sg11_36_cif.got.tgz:71833.got - 2010.06.03 12:22:45.
