data_PCOD9156083
_publ_section_title
;
Structure prediction by ZEFSAII (Michael W. Deem and Ramdas Pophale) SiO2 
 PCOD9156083
Probable space group: P 21/M
;
_chemical_formula_sum "Si O2"
_cell_formula_units_Z 32
_cell_length_a 17.080716
_cell_length_b 25.364059
_cell_length_c 11.091907
_cell_angle_alpha 90.000000
_cell_angle_beta 161.910672
_cell_angle_gamma 90.000000
_cell_volume 1492.078880
_symmetry_space_group_name_H-M "P 21/M"
_symmetry_group_IT_number 11
_symmetry_cell_setting 'monoclinic'
loop_
_space_group_symop_operation_xyz
x,y,z
-x,1/2+y,-z
-x,-y,-z
x,1/2-y,z
loop_
_atom_site_type_symbol
_atom_site_label
_atom_site_fract_x
_atom_site_fract_y
_atom_site_fract_z
Si Si1 0.674473 0.692155 0.776346
Si Si2 0.605659 0.693128 0.389430
Si Si3 0.690446 0.576884 0.816150
Si Si4 0.282550 0.478242 0.556066
Si Si5 0.790484 0.424988 0.714371
Si Si6 0.985977 0.981001 0.615588
Si Si7 0.839456 0.309331 0.833901
Si Si8 0.601560 0.087517 0.856766
O O1 0.763659 0.750000 0.951472
O O2 0.688682 0.693758 0.652380
O O3 0.789651 0.636394 0.988737
O O4 0.377584 0.688087 0.381374
O O5 0.493681 0.750000 0.196610
O O6 0.420252 0.644261 0.114968
O O7 0.866741 0.686677 0.698212
O O8 0.446545 0.567409 0.543223
O O9 0.603085 0.579499 0.549545
O O10 0.867441 0.527250 0.098156
O O11 0.247058 0.536989 0.453488
O O12 0.524264 0.453086 0.847075
O O13 0.261408 0.472199 0.668188
O O14 0.043042 0.444532 0.152233
O O15 0.800940 0.362671 0.700986
O O16 0.140425 0.926605 0.831353
O O17 0.000000 0.000000 0.500000
O O18 0.813599 0.250000 0.742026
#
# Coordination Sequence:
#
# PCOD9156083 Si02
#       8
#     4   4   4   4   4   4   4   4
#     4   8  16  27  45  75 108 133 162 206 260 308
#     4   9  17  28  48  78 109 131 159 206 263 310
#     4  10  18  34  56  78 107 136 173 215 260 308
#     4  11  21  32  55  75 103 135 175 214 264 307
#     4  10  17  30  54  83 103 133 173 214 257 312
#     4  12  26  39  50  73 109 141 179 224 265 306
#     4   9  16  26  42  74 114 134 153 205 267 312
#     4  11  20  36  58  81 104 137 176 214 260 317
#
# _framework density 21.446587000000001
#
# number of rings (size 3 to 8) (size 9 to 14) (size 15 to 20)
#    0.000    2.000    3.750    1.875    1.750    0.500 
#    0.000    0.000    0.000    0.750    0.000    0.000 
#    0.000    0.000    0.000    0.000    0.000    0.000 
#
# Total GULP energy -178368.033705 kJ/mol
# GULP energy per Si atom -5574.001053 kJ/mol
# Density = 2.139777 g / cm^3
# Si number density = 21.446587 Si / 1000 Ang^3
#
#
#
# Elastic Constant Matrix: (Units=GPa)
#
#
# Indices 1 2 3 4 5 6 
#
# 1 104.0617 20.3678 16.6010 0.0000 20.2809 0.0000
# 2 20.3678 131.8546 10.8435 0.0000 10.5575 0.0000
# 3 16.6010 10.8435 19.1014 0.0000 15.3809 0.0000
# 4 0.0000 0.0000 0.0000 4.0210 0.0000 7.8094
# 5 20.2809 10.5575 15.3809 0.0000 31.9487 0.0000
# 6 0.0000 0.0000 0.0000 7.8094 0.0000 20.5689
#
#
#
# Elastic Compliance Matrix: (Units=1/GPa)
#
#
# Indices 1 2 3 4 5 6 
#
# 1 0.011581 -0.000950 -0.006302 0.000000 -0.004004 0.000000
# 2 -0.000950 0.008044 -0.003407 0.000000 -0.000415 0.000000
# 3 -0.006302 -0.003407 0.090856 0.000000 -0.038614 0.000000
# 4 0.000000 0.000000 0.000000 0.946961 0.000000 -0.359532
# 5 -0.004004 -0.000415 -0.038614 0.000000 0.052569 0.000000
# 6 0.000000 0.000000 0.000000 -0.359532 0.000000 0.185120
#
#
# Mechanical properties :
#
#
# Convention : Reuss Voigt Hill
#
# Bulk Modulus (GPa) = 11.21522 38.96027 25.08774
# Shear Modulus (GPa) = 3.71424 25.12141 14.41782
#
# Velocity S-wave (km/s) = 1.31743 3.42621 2.59562
# Velocity P-wave (km/s) = 2.74861 5.81872 4.55041
#
# Compressibility (1/GPa) = 0.08916457
#
# Stress axis : x y z
#
# Youngs Moduli (GPa) = 86.34591 124.31212 11.00640
#
# Poissons Ratio (x) = 0.11811 0.06936
# Poissons Ratio (y) = 0.08204 0.03749
# Poissons Ratio (z) = 0.54414 0.42348
#
# Static dielectric constant tensor:
#      x y z
#    x 1.795930 0.000000 0.036870 
#    y 0.000000 1.853330 0.000000 
#    z 0.036870 0.000000 1.824800 
# 
# From -- ./inp_files/42046.got.cif
#   From: 2010.05.17/outbox.cif.g08.bks.cpg/sg11_22_cif.got.tgz:42046.got - 2010.06.03 12:22:45.
