data_PCOD9156890
_publ_section_title
;
Structure prediction by ZEFSAII (Michael W. Deem and Ramdas Pophale) SiO2 
 PCOD9156890
Probable space group: P 21/M
;
_chemical_formula_sum "Si O2"
_cell_formula_units_Z 28
_cell_length_a 15.815376
_cell_length_b 9.080312
_cell_length_c 19.004101
_cell_angle_alpha 90.000000
_cell_angle_beta 146.382119
_cell_angle_gamma 90.000000
_cell_volume 1510.998641
_symmetry_space_group_name_H-M "P 21/M"
_symmetry_group_IT_number 11
_symmetry_cell_setting 'monoclinic'
loop_
_space_group_symop_operation_xyz
x,y,z
-x,1/2+y,-z
-x,-y,-z
x,1/2-y,z
loop_
_atom_site_type_symbol
_atom_site_label
_atom_site_fract_x
_atom_site_fract_y
_atom_site_fract_z
Si Si1 0.631345 0.578084 0.885507
Si Si2 0.359986 0.577695 0.589385
Si Si3 0.531334 0.416226 0.949304
Si Si4 0.832530 0.928753 0.888308
Si Si5 0.071569 0.417063 0.440211
Si Si6 0.562748 0.073414 0.614615
Si Si7 0.180255 0.089363 0.677066
O O1 0.652044 0.750000 0.915955
O O2 0.466056 0.562758 0.732517
O O3 0.633864 0.490441 0.960148
O O4 0.753505 0.537433 0.909487
O O5 0.369077 0.750000 0.574847
O O6 0.187604 0.525502 0.481884
O O7 0.439250 0.472402 0.587864
O O8 0.582730 0.250000 0.998772
O O9 0.360683 0.413951 0.799812
O O10 0.500000 0.500000 0.000000
O O11 0.836224 0.750000 0.883737
O O12 0.720189 0.999491 0.751780
O O13 0.000000 0.000000 0.000000
O O14 0.084680 0.250000 0.423623
O O15 0.125236 0.422376 0.558832
O O16 0.897777 0.471199 0.326155
O O17 0.578321 0.250000 0.619273
O O18 0.500000 0.000000 0.500000
O O19 0.129365 0.250000 0.668178
#
# Coordination Sequence:
#
# PCOD9156890 Si02
#       7
#     4   4   4   4   4   4   4
#     4   9  19  35  56  81 110 144 188 234 279 333
#     4  10  19  33  55  82 112 145 183 229 279 337
#     4  11  22  36  54  76 107 145 188 232 279 332
#     4  10  21  39  63  93 122 155 198 246 297 356
#     4  10  18  30  51  78 104 134 176 221 267 320
#     4  11  22  38  60  87 120 155 192 239 293 353
#     4   9  19  33  48  72 104 137 174 220 270 319
#
# _framework density 18.530792000000002
#
# number of rings (size 3 to 8) (size 9 to 14) (size 15 to 20)
#    0.000    2.000    1.429    3.857    0.000    4.571 
#    0.000    1.429    0.000    5.143    0.000    0.000 
#    0.000    0.000    0.000    0.000    0.000    0.000 
#
# Total GULP energy -156056.910877 kJ/mol
# GULP energy per Si atom -5573.461103 kJ/mol
# Density = 1.848861 g / cm^3
# Si number density = 18.530792 Si / 1000 Ang^3
#
#
#
# Elastic Constant Matrix: (Units=GPa)
#
#
# Indices 1 2 3 4 5 6 
#
# 1 89.5954 65.4007 41.9893 0.0000 -0.5785 0.0000
# 2 65.4007 123.2513 43.9628 0.0000 -12.8356 0.0000
# 3 41.9893 43.9628 45.0953 0.0000 -2.3692 0.0000
# 4 0.0000 0.0000 0.0000 24.1841 0.0000 1.5454
# 5 -0.5785 -12.8356 -2.3692 0.0000 32.7289 0.0000
# 6 0.0000 0.0000 0.0000 1.5454 0.0000 36.8788
#
#
#
# Elastic Compliance Matrix: (Units=1/GPa)
#
#
# Indices 1 2 3 4 5 6 
#
# 1 0.023638 -0.007673 -0.014722 0.000000 -0.003657 0.000000
# 2 -0.007673 0.015478 -0.007663 0.000000 0.005380 0.000000
# 3 -0.014722 -0.007663 0.043347 0.000000 -0.000128 0.000000
# 4 0.000000 0.000000 0.000000 0.041461 0.000000 -0.001737
# 5 -0.003657 0.005380 -0.000128 0.000000 0.032590 0.000000
# 6 0.000000 0.000000 0.000000 -0.001737 0.000000 0.027189
#
#
# Mechanical properties :
#
#
# Convention : Reuss Voigt Hill
#
# Bulk Modulus (GPa) = 44.74611 62.29416 53.52013
# Shear Modulus (GPa) = 19.89914 25.86431 22.88173
#
# Velocity S-wave (km/s) = 3.28051 3.74002 3.51778
# Velocity P-wave (km/s) = 6.20873 7.23463 6.74122
#
# Compressibility (1/GPa) = 0.02234831
#
# Stress axis : x y z
#
# Youngs Moduli (GPa) = 42.30502 64.60636 23.06956
#
# Poissons Ratio (x) = 0.49569 0.33963
# Poissons Ratio (y) = 0.32459 0.17678
# Poissons Ratio (z) = 0.62282 0.49507
#
# Static dielectric constant tensor:
#      x y z
#    x 1.646280 0.000000 -0.001310 
#    y 0.000000 1.665280 0.000000 
#    z -0.001310 0.000000 1.661420 
# 
# From -- ./inp_files/60131.got.cif
#   From: 2010.05.17/outbox.cif.g08.bks.cpg/sg11_31_cif.got.tgz:60131.got - 2010.06.03 12:22:45.
