data_PCOD9156701
_publ_section_title
;
Structure prediction by ZEFSAII (Michael W. Deem and Ramdas Pophale) SiO2 
 PCOD9156701
Probable space group: P 21/M
;
_chemical_formula_sum "Si O2"
_cell_formula_units_Z 32
_cell_length_a 31.585342
_cell_length_b 8.670363
_cell_length_c 22.051887
_cell_angle_alpha 90.000000
_cell_angle_beta 19.206829
_cell_angle_gamma 90.000000
_cell_volume 1986.721844
_symmetry_space_group_name_H-M "P 21/M"
_symmetry_group_IT_number 11
_symmetry_cell_setting 'monoclinic'
loop_
_space_group_symop_operation_xyz
x,y,z
-x,1/2+y,-z
-x,-y,-z
x,1/2-y,z
loop_
_atom_site_type_symbol
_atom_site_label
_atom_site_fract_x
_atom_site_fract_y
_atom_site_fract_z
Si Si1 0.201164 0.936019 0.226115
Si Si2 0.888107 0.435083 0.431704
Si Si3 0.501470 0.064142 0.179587
Si Si4 0.283262 0.934404 0.555743
Si Si5 0.013791 0.433944 0.579289
Si Si6 0.043632 0.937091 0.794480
Si Si7 0.879948 0.564832 0.123602
Si Si8 0.398362 0.064709 0.185761
O O1 0.196072 0.750000 0.240313
O O2 0.114230 0.976672 0.285371
O O3 0.132530 0.010959 0.376871
O O4 0.349247 0.982174 0.019804
O O5 0.880795 0.250000 0.441164
O O6 0.972554 0.489874 0.373899
O O7 0.943951 0.489579 0.291315
O O8 0.744028 0.500704 0.633436
O O9 0.495357 0.250000 0.192023
O O10 0.442586 0.019285 0.193887
O O11 0.415805 0.993161 0.348596
O O12 0.280951 0.750000 0.561249
O O13 0.170350 0.985408 0.661215
O O14 0.244306 0.999556 0.674196
O O15 0.017562 0.250000 0.580228
O O16 0.045526 0.750000 0.791108
O O17 0.917923 0.981696 0.003623
O O18 0.878714 0.750000 0.128752
O O19 0.000000 0.500000 0.000000
O O20 0.397173 0.250000 0.183926
O O21 0.500000 0.000000 0.000000
#
# Coordination Sequence:
#
# PCOD9156701 Si02
#       8
#     4   4   4   4   4   4   4   4
#     4   9  19  36  54  71  95 126 163 207 253 295
#     4  11  20  33  50  69  98 133 164 198 241 287
#     4  10  20  33  49  70  95 127 162 199 242 290
#     4  10  18  30  46  69  98 129 161 195 238 288
#     4  10  20  34  52  74  96 123 164 210 251 291
#     4   8  16  29  45  66  94 128 161 192 232 283
#     4   9  16  28  45  67  94 127 163 196 235 283
#     4  11  22  33  47  70  98 129 164 198 240 294
#
# _framework density 16.106935
#
# number of rings (size 3 to 8) (size 9 to 14) (size 15 to 20)
#    0.000    2.250    1.250    3.375    0.000    2.500 
#    0.000    1.875    0.000    0.000    0.000    0.875 
#    0.000    0.000    0.000    0.000    0.000    0.000 
#
# Total GULP energy -178448.879341 kJ/mol
# GULP energy per Si atom -5576.527479 kJ/mol
# Density = 1.607027 g / cm^3
# Si number density = 16.106935 Si / 1000 Ang^3
#
#
#
# Elastic Constant Matrix: (Units=GPa)
#
#
# Indices 1 2 3 4 5 6 
#
# 1 78.4571 19.8733 30.7290 0.0000 17.6653 0.0000
# 2 19.8733 30.4595 17.7368 0.0000 4.6044 0.0000
# 3 30.7290 17.7368 57.8605 0.0000 15.4361 0.0000
# 4 0.0000 0.0000 0.0000 23.7850 0.0000 4.3997
# 5 17.6653 4.6044 15.4361 0.0000 25.6433 0.0000
# 6 0.0000 0.0000 0.0000 4.3997 0.0000 20.0124
#
#
#
# Elastic Compliance Matrix: (Units=1/GPa)
#
#
# Indices 1 2 3 4 5 6 
#
# 1 0.018671 -0.007842 -0.005309 0.000000 -0.008258 0.000000
# 2 -0.007842 0.043259 -0.010085 0.000000 0.003705 0.000000
# 3 -0.005309 -0.010085 0.025893 0.000000 -0.010119 0.000000
# 4 0.000000 0.000000 0.000000 0.043826 0.000000 -0.009635
# 5 -0.008258 0.003705 -0.010119 0.000000 0.050111 0.000000
# 6 0.000000 0.000000 0.000000 -0.009635 0.000000 0.052087
#
#
# Mechanical properties :
#
#
# Convention : Reuss Voigt Hill
#
# Bulk Modulus (GPa) = 24.18230 33.71727 28.94978
# Shear Modulus (GPa) = 17.00087 20.45067 18.72577
#
# Velocity S-wave (km/s) = 3.25237 3.56712 3.41338
# Velocity P-wave (km/s) = 5.39908 6.15992 5.79201
#
# Compressibility (1/GPa) = 0.04135256
#
# Stress axis : x y z
#
# Youngs Moduli (GPa) = 53.55916 23.11646 38.62016
#
# Poissons Ratio (x) = 0.18128 0.20503
# Poissons Ratio (y) = 0.42002 0.38947
# Poissons Ratio (z) = 0.28433 0.23312
#
# Static dielectric constant tensor:
#      x y z
#    x 1.541230 0.000000 0.016590 
#    y 0.000000 1.540880 0.000000 
#    z 0.016590 0.000000 1.538260 
# 
# From -- ./inp_files/42564.got.cif
#   From: 2010.05.17/outbox.cif.g08.bks.cpg/sg11_22_cif.got.tgz:42564.got - 2010.06.03 12:22:45.
