data_PCOD9156713
_publ_section_title
;
Structure prediction by ZEFSAII (Michael W. Deem and Ramdas Pophale) SiO2 
 PCOD9156713
Probable space group: P 21/M
;
_chemical_formula_sum "Si O2"
_cell_formula_units_Z 24
_cell_length_a 24.036073
_cell_length_b 7.994226
_cell_length_c 17.516086
_cell_angle_alpha 90.000000
_cell_angle_beta 156.702552
_cell_angle_gamma 90.000000
_cell_volume 1331.154722
_symmetry_space_group_name_H-M "P 21/M"
_symmetry_group_IT_number 11
_symmetry_cell_setting 'monoclinic'
loop_
_space_group_symop_operation_xyz
x,y,z
-x,1/2+y,-z
-x,-y,-z
x,1/2-y,z
loop_
_atom_site_type_symbol
_atom_site_label
_atom_site_fract_x
_atom_site_fract_y
_atom_site_fract_z
Si Si1 0.898145 0.951800 0.939916
Si Si2 0.060939 0.455197 0.837900
Si Si3 0.193403 0.550804 0.779429
Si Si4 0.347072 0.051284 0.113179
Si Si5 0.420717 0.050373 0.477650
Si Si6 0.909240 0.055859 0.503601
O O1 0.892253 0.750000 0.936126
O O2 0.739099 0.013959 0.725670
O O3 0.950388 0.009969 0.089133
O O4 0.000000 0.000000 0.000000
O O5 0.058792 0.250000 0.833663
O O6 0.941580 0.516414 0.628092
O O7 0.213510 0.506558 0.996455
O O8 0.163565 0.750000 0.740918
O O9 0.195490 0.490089 0.694102
O O10 0.061998 0.459683 0.654840
O O11 0.324588 0.520619 0.000154
O O12 0.336526 0.250000 0.093977
O O13 0.488320 0.007576 0.335635
O O14 0.415221 0.250000 0.472377
O O15 0.500000 0.000000 0.500000
O O16 0.872895 0.250000 0.469125
#
# Coordination Sequence:
#
# PCOD9156713 Si02
#       6
#     4   4   4   4   4   4
#     4  10  21  36  51  71 100 132 167 204 245 291
#     4   8  14  28  46  65  92 127 161 196 239 288
#     4   9  15  23  37  64  95 123 157 196 240 291
#     4  10  18  30  47  68  96 130 163 199 246 293
#     4  11  21  34  52  75 100 129 166 207 249 296
#     4   8  14  24  40  60  90 128 159 192 241 294
#
# _framework density 18.029458999999999
#
# number of rings (size 3 to 8) (size 9 to 14) (size 15 to 20)
#    0.000    2.667    1.667    2.500    0.000    2.000 
#    0.000    0.833    0.000    0.000    0.000    1.167 
#    0.000    0.000    0.000    0.000    0.000    0.000 
#
# Total GULP energy -133626.088183 kJ/mol
# GULP energy per Si atom -5567.753674 kJ/mol
# Density = 1.798842 g / cm^3
# Si number density = 18.029459 Si / 1000 Ang^3
#
#
#
# Elastic Constant Matrix: (Units=GPa)
#
#
# Indices 1 2 3 4 5 6 
#
# 1 125.9887 5.7357 90.2920 0.0000 -40.5701 0.0000
# 2 5.7357 24.5031 5.7400 0.0000 -3.7214 0.0000
# 3 90.2920 5.7400 113.8873 0.0000 -43.5975 0.0000
# 4 0.0000 0.0000 0.0000 19.6058 0.0000 -4.4934
# 5 -40.5701 -3.7214 -43.5975 0.0000 43.8986 0.0000
# 6 0.0000 0.0000 0.0000 -4.4934 0.0000 19.7794
#
#
#
# Elastic Compliance Matrix: (Units=1/GPa)
#
#
# Indices 1 2 3 4 5 6 
#
# 1 0.018851 -0.000663 -0.013333 0.000000 0.004123 0.000000
# 2 -0.000663 0.041468 -0.000731 0.000000 0.002176 0.000000
# 3 -0.013333 -0.000731 0.023632 0.000000 0.011086 0.000000
# 4 0.000000 0.000000 0.000000 0.053807 0.000000 0.012224
# 5 0.004123 0.002176 0.011086 0.000000 0.037785 0.000000
# 6 0.000000 0.000000 0.000000 0.012224 0.000000 0.053334
#
#
# Mechanical properties :
#
#
# Convention : Reuss Voigt Hill
#
# Bulk Modulus (GPa) = 18.34997 51.99049 35.17023
# Shear Modulus (GPa) = 18.08334 27.49752 22.79043
#
# Velocity S-wave (km/s) = 3.17044 3.90955 3.55923
# Velocity P-wave (km/s) = 4.85820 7.01986 6.03658
#
# Compressibility (1/GPa) = 0.05449600
#
# Stress axis : x y z
#
# Youngs Moduli (GPa) = 53.04827 24.11486 42.31522
#
# Poissons Ratio (x) = 0.01599 0.56420
# Poissons Ratio (y) = 0.03517 0.03094
# Poissons Ratio (z) = 0.70731 0.01763
#
# Static dielectric constant tensor:
#      x y z
#    x 1.622840 0.000000 -0.064140 
#    y 0.000000 1.651610 0.000000 
#    z -0.064140 0.000000 1.645150 
# 
# From -- ./inp_files/25752.got.cif
#   From: 2010.05.17/outbox.cif.g08.bks.cpg/sg11_13_cif.got.tgz:25752.got - 2010.06.03 12:22:45.
