data_PCOD9156395
_publ_section_title
;
Structure prediction by ZEFSAII (Michael W. Deem and Ramdas Pophale) SiO2 
 PCOD9156395
Probable space group: P 21/M
;
_chemical_formula_sum "Si O2"
_cell_formula_units_Z 32
_cell_length_a 15.834293
_cell_length_b 7.855326
_cell_length_c 15.308631
_cell_angle_alpha 90.000000
_cell_angle_beta 60.500933
_cell_angle_gamma 90.000000
_cell_volume 1657.295770
_symmetry_space_group_name_H-M "P 21/M"
_symmetry_group_IT_number 11
_symmetry_cell_setting 'monoclinic'
loop_
_space_group_symop_operation_xyz
x,y,z
-x,1/2+y,-z
-x,-y,-z
x,1/2-y,z
loop_
_atom_site_type_symbol
_atom_site_label
_atom_site_fract_x
_atom_site_fract_y
_atom_site_fract_z
Si Si1 0.621257 0.456174 0.853904
Si Si2 0.216437 0.540618 0.366163
Si Si3 0.149117 0.541932 0.776764
Si Si4 0.036247 0.553501 0.348990
Si Si5 0.777410 0.448958 0.075776
Si Si6 0.070495 0.448485 0.145987
Si Si7 0.180185 0.552923 0.571034
Si Si8 0.598641 0.548642 0.060863
O O1 0.620876 0.250000 0.855249
O O2 0.700213 0.513014 0.743322
O O3 0.512346 0.514938 0.884992
O O4 0.641084 0.514809 0.942480
O O5 0.215220 0.750000 0.367091
O O6 0.111915 0.487025 0.381523
O O7 0.229306 0.480155 0.459010
O O8 0.153444 0.750000 0.772017
O O9 0.201856 0.483467 0.837628
O O10 0.191158 0.478359 0.662569
O O11 0.034990 0.495867 0.836470
O O12 0.013127 0.750000 0.379794
O O13 0.088358 0.544448 0.227716
O O14 0.935317 0.455927 0.389949
O O15 0.802138 0.250000 0.064057
O O16 0.668293 0.470430 0.097724
O O17 0.848166 0.530161 0.968121
O O18 0.062961 0.250000 0.172794
O O19 0.209913 0.750000 0.561205
O O20 0.596518 0.750000 0.076394
#
# Coordination Sequence:
#
# PCOD9156395 Si02
#       8
#     4   4   4   4   4   4   4   4
#     4   9  18  34  53  73  97 123 154 193 237 283
#     4   9  17  29  49  71  91 121 158 194 231 276
#     4   8  17  31  47  67  92 124 160 196 232 273
#     4  10  18  28  44  71 102 128 154 185 230 283
#     4  11  20  31  48  69  94 125 159 194 236 283
#     4  10  19  32  48  69  96 125 160 198 234 275
#     4   9  17  32  49  66  92 125 161 196 229 269
#     4  10  20  33  50  73  98 124 154 191 237 285
#
# _framework density 19.308564000000001
#
# number of rings (size 3 to 8) (size 9 to 14) (size 15 to 20)
#    0.000    2.500    0.000    3.750    0.000    1.500 
#    0.000    7.500    0.000    0.750    0.000    0.000 
#    0.000    0.000    0.000    0.000    0.000    0.500 
#
# Total GULP energy -178556.724598 kJ/mol
# GULP energy per Si atom -5579.897644 kJ/mol
# Density = 1.926462 g / cm^3
# Si number density = 19.308564 Si / 1000 Ang^3
#
#
#
# Elastic Constant Matrix: (Units=GPa)
#
#
# Indices 1 2 3 4 5 6 
#
# 1 67.1755 -3.4254 24.2047 0.0000 24.0807 0.0000
# 2 -3.4254 28.8019 -6.4984 0.0000 0.1887 0.0000
# 3 24.2047 -6.4984 84.1473 0.0000 15.1694 0.0000
# 4 0.0000 0.0000 0.0000 12.5118 0.0000 -1.2398
# 5 24.0807 0.1887 15.1694 0.0000 25.2828 0.0000
# 6 0.0000 0.0000 0.0000 -1.2398 0.0000 18.0045
#
#
#
# Elastic Compliance Matrix: (Units=1/GPa)
#
#
# Indices 1 2 3 4 5 6 
#
# 1 0.023417 0.002278 -0.002844 0.000000 -0.020614 0.000000
# 2 0.002278 0.035660 0.002845 0.000000 -0.004143 0.000000
# 3 -0.002844 0.002845 0.013946 0.000000 -0.005680 0.000000
# 4 0.000000 0.000000 0.000000 0.080474 0.000000 0.005541
# 5 -0.020614 -0.004143 -0.005680 0.000000 0.062625 0.000000
# 6 0.000000 0.000000 0.000000 0.005541 0.000000 0.055923
#
#
# Mechanical properties :
#
#
# Convention : Reuss Voigt Hill
#
# Bulk Modulus (GPa) = 12.88942 23.18738 18.03840
# Shear Modulus (GPa) = 17.04477 22.21609 19.63043
#
# Velocity S-wave (km/s) = 2.97435 3.39570 3.19198
# Velocity P-wave (km/s) = 4.29949 5.23539 4.79035
#
# Compressibility (1/GPa) = 0.07758301
#
# Stress axis : x y z
#
# Youngs Moduli (GPa) = 42.70426 28.04256 71.70732
#
# Poissons Ratio (x) = -0.06389 0.20391
# Poissons Ratio (y) = -0.09730 -0.20404
# Poissons Ratio (z) = 0.12144 -0.07979
#
# Static dielectric constant tensor:
#      x y z
#    x 1.659160 0.000000 0.017050 
#    y 0.000000 1.695120 0.000000 
#    z 0.017050 0.000000 1.699780 
# 
# From -- ./inp_files/51670.got.cif
#   From: 2010.05.17/outbox.cif.g08.bks.cpg/sg11_26_cif.got.tgz:51670.got - 2010.06.03 12:22:45.
