data_PCOD9156630
_publ_section_title
;
Structure prediction by ZEFSAII (Michael W. Deem and Ramdas Pophale) SiO2 
 PCOD9156630
Probable space group: P 21/M
;
_chemical_formula_sum "Si O2"
_cell_formula_units_Z 28
_cell_length_a 13.520858
_cell_length_b 8.406464
_cell_length_c 13.710069
_cell_angle_alpha 90.000000
_cell_angle_beta 61.235669
_cell_angle_gamma 90.000000
_cell_volume 1366.035223
_symmetry_space_group_name_H-M "P 21/M"
_symmetry_group_IT_number 11
_symmetry_cell_setting 'monoclinic'
loop_
_space_group_symop_operation_xyz
x,y,z
-x,1/2+y,-z
-x,-y,-z
x,1/2-y,z
loop_
_atom_site_type_symbol
_atom_site_label
_atom_site_fract_x
_atom_site_fract_y
_atom_site_fract_z
Si Si1 0.272295 0.940845 0.970539
Si Si2 0.356842 0.433991 0.635047
Si Si3 0.063961 0.556987 0.177845
Si Si4 0.516001 0.437264 0.239369
Si Si5 0.680703 0.437318 0.554297
Si Si6 0.144780 0.938373 0.827734
Si Si7 0.936202 0.559355 0.434894
O O1 0.285269 0.750000 0.974116
O O2 0.397652 0.001822 0.884449
O O3 0.195541 0.967716 0.910625
O O4 0.192741 0.996754 0.096544
O O5 0.387915 0.250000 0.633385
O O6 0.415285 0.535823 0.692077
O O7 0.375592 0.487679 0.515893
O O8 0.223855 0.460984 0.717613
O O9 0.063056 0.750000 0.174279
O O10 0.981792 0.491896 0.132544
O O11 0.006695 0.505284 0.306160
O O12 0.498494 0.250000 0.233178
O O13 0.396321 0.518268 0.316369
O O14 0.681785 0.250000 0.540984
O O15 0.808158 0.498290 0.498963
O O16 0.156525 0.750000 0.802108
O O17 0.933367 0.750000 0.433916
O O18 0.000000 0.500000 0.500000
#
# Coordination Sequence:
#
# PCOD9156630 Si02
#       7
#     4   4   4   4   4   4   4
#     4   8  17  32  51  79 113 149 185 223 267 326
#     4  11  20  32  50  77 113 152 192 229 272 328
#     4  10  19  34  56  79 108 145 185 228 279 333
#     4  10  20  35  54  80 115 151 188 225 271 330
#     4  12  23  37  57  80 111 146 186 233 282 333
#     4  10  18  29  48  77 113 150 186 225 271 326
#     4  11  24  41  62  86 111 142 185 237 290 337
#
# _framework density 20.497275999999999
#
# number of rings (size 3 to 8) (size 9 to 14) (size 15 to 20)
#    0.000    1.714    1.429    5.571    0.000    0.571 
#    0.000    3.571    0.000    0.857    0.000    0.000 
#    0.000    0.000    0.000    0.000    0.000    0.000 
#
# Total GULP energy -156291.221469 kJ/mol
# GULP energy per Si atom -5581.829338 kJ/mol
# Density = 2.045062 g / cm^3
# Si number density = 20.497276 Si / 1000 Ang^3
#
#
#
# Elastic Constant Matrix: (Units=GPa)
#
#
# Indices 1 2 3 4 5 6 
#
# 1 43.9532 -0.6062 40.9599 0.0000 -14.3121 0.0000
# 2 -0.6062 31.1018 19.1830 0.0000 -0.1050 0.0000
# 3 40.9599 19.1830 141.8935 0.0000 -48.8039 0.0000
# 4 0.0000 0.0000 0.0000 13.2753 0.0000 -5.8523
# 5 -14.3121 -0.1050 -48.8039 0.0000 29.5430 0.0000
# 6 0.0000 0.0000 0.0000 -5.8523 0.0000 24.0133
#
#
#
# Elastic Compliance Matrix: (Units=1/GPa)
#
#
# Indices 1 2 3 4 5 6 
#
# 1 0.032591 0.007797 -0.011630 0.000000 -0.003396 0.000000
# 2 0.007797 0.041542 -0.015092 0.000000 -0.021007 0.000000
# 3 -0.011630 -0.015092 0.024290 0.000000 0.034439 0.000000
# 4 0.000000 0.000000 0.000000 0.084395 0.000000 0.020568
# 5 -0.003396 -0.021007 0.034439 0.000000 0.089020 0.000000
# 6 0.000000 0.000000 0.000000 0.020568 0.000000 0.046656
#
#
# Mechanical properties :
#
#
# Convention : Reuss Voigt Hill
#
# Bulk Modulus (GPa) = 16.50900 37.33575 26.92238
# Shear Modulus (GPa) = 13.27892 23.86045 18.56969
#
# Velocity S-wave (km/s) = 2.54803 3.41556 3.01318
# Velocity P-wave (km/s) = 4.09003 5.81457 5.02681
#
# Compressibility (1/GPa) = 0.06057303
#
# Stress axis : x y z
#
# Youngs Moduli (GPa) = 30.68306 24.07198 41.16896
#
# Poissons Ratio (x) = -0.18769 0.47880
# Poissons Ratio (y) = -0.23924 0.62133
# Poissons Ratio (z) = 0.35685 0.36330
#
# Static dielectric constant tensor:
#      x y z
#    x 1.719680 0.000000 -0.058550 
#    y 0.000000 1.694570 0.000000 
#    z -0.058550 0.000000 1.826220 
# 
# From -- ./inp_files/49154.got.cif
#   From: 2010.05.17/outbox.cif.g08.bks.cpg/sg11_25_cif.got.tgz:49154.got - 2010.06.03 12:22:45.
