data_PCOD9156760
_publ_section_title
;
Structure prediction by ZEFSAII (Michael W. Deem and Ramdas Pophale) SiO2 
 PCOD9156760
Probable space group: P 21/M
;
_chemical_formula_sum "Si O2"
_cell_formula_units_Z 28
_cell_length_a 11.442563
_cell_length_b 14.932849
_cell_length_c 9.257882
_cell_angle_alpha 90.000000
_cell_angle_beta 138.153880
_cell_angle_gamma 90.000000
_cell_volume 1055.333220
_symmetry_space_group_name_H-M "P 21/M"
_symmetry_group_IT_number 11
_symmetry_cell_setting 'monoclinic'
loop_
_space_group_symop_operation_xyz
x,y,z
-x,1/2+y,-z
-x,-y,-z
x,1/2-y,z
loop_
_atom_site_type_symbol
_atom_site_label
_atom_site_fract_x
_atom_site_fract_y
_atom_site_fract_z
Si Si1 0.522521 0.348774 0.013127
Si Si2 0.682262 0.396287 0.896545
Si Si3 0.555337 0.593952 0.739739
Si Si4 0.797044 0.353620 0.716175
Si Si5 0.211725 0.447231 0.604456
Si Si6 0.934375 0.144671 0.545056
Si Si7 0.301078 0.151958 0.419743
O O1 0.452607 0.250000 0.913805
O O2 0.695718 0.357518 0.070258
O O3 0.404922 0.426527 0.837847
O O4 0.502714 0.356297 0.167235
O O5 0.650251 0.502137 0.867630
O O6 0.829772 0.374095 0.913740
O O7 0.502454 0.354279 0.664524
O O8 0.367873 0.584640 0.484717
O O9 0.678678 0.637783 0.732329
O O10 0.735799 0.250000 0.651064
O O11 0.945521 0.360891 0.730885
O O12 0.173011 0.551821 0.583243
O O13 0.197410 0.416675 0.425621
O O14 0.102006 0.380836 0.605910
O O15 0.880263 0.250000 0.470162
O O16 0.229948 0.250000 0.382523
#
# Coordination Sequence:
#
# PCOD9156760 Si02
#       7
#     4   4   4   4   4   4   4
#     4  11  21  34  52  76 107 140 174 215 261 309
#     4  10  18  30  48  72 103 137 172 212 256 304
#     4  11  20  31  50  78 109 137 170 215 265 311
#     4  10  18  31  51  76 103 133 171 211 258 310
#     4  10  20  36  57  80 102 134 178 217 255 301
#     4  10  20  34  56  81 105 134 173 219 257 299
#     4  10  18  32  54  78 104 137 178 219 256 301
#
# _framework density 26.531904000000001
#
# number of rings (size 3 to 8) (size 9 to 14) (size 15 to 20)
#    0.000    1.714    0.000   10.286    0.000    0.000 
#    0.000    0.000    0.000   11.143    0.000    6.000 
#    0.000    0.000    0.000    0.000    0.000    0.000 
#
# Total GULP energy -156327.817662 kJ/mol
# GULP energy per Si atom -5583.136345 kJ/mol
# Density = 2.647152 g / cm^3
# Si number density = 26.531904 Si / 1000 Ang^3
#
#
#
# Elastic Constant Matrix: (Units=GPa)
#
#
# Indices 1 2 3 4 5 6 
#
# 1 164.6844 61.4378 50.2453 0.0000 -77.0055 0.0000
# 2 61.4378 191.9315 39.7013 0.0000 -32.6531 0.0000
# 3 50.2453 39.7013 84.5124 0.0000 -43.4397 0.0000
# 4 0.0000 0.0000 0.0000 29.1258 0.0000 -10.2584
# 5 -77.0055 -32.6531 -43.4397 0.0000 56.4096 0.0000
# 6 0.0000 0.0000 0.0000 -10.2584 0.0000 43.3345
#
#
#
# Elastic Compliance Matrix: (Units=1/GPa)
#
#
# Indices 1 2 3 4 5 6 
#
# 1 0.017947 -0.002066 0.003772 0.000000 0.026208 0.000000
# 2 -0.002066 0.006159 -0.002122 0.000000 -0.000890 0.000000
# 3 0.003772 -0.002122 0.020858 0.000000 0.019983 0.000000
# 4 0.000000 0.000000 0.000000 0.037457 0.000000 0.008867
# 5 0.026208 -0.000890 0.019983 0.000000 0.068378 0.000000
# 6 0.000000 0.000000 0.000000 0.008867 0.000000 0.025175
#
#
# Mechanical properties :
#
#
# Convention : Reuss Voigt Hill
#
# Bulk Modulus (GPa) = 22.65966 82.65523 52.65744
# Shear Modulus (GPa) = 26.10696 45.09024 35.59860
#
# Velocity S-wave (km/s) = 3.14025 4.12694 3.66693
# Velocity P-wave (km/s) = 4.65911 7.34368 6.14967
#
# Compressibility (1/GPa) = 0.04413129
#
# Stress axis : x y z
#
# Youngs Moduli (GPa) = 55.71872 162.35733 47.94215
#
# Poissons Ratio (x) = 0.33549 -0.18083
# Poissons Ratio (y) = 0.11513 0.10175
# Poissons Ratio (z) = -0.21016 0.34456
#
# Static dielectric constant tensor:
#      x y z
#    x 2.209940 0.000000 0.009820 
#    y 0.000000 2.034660 0.000000 
#    z 0.009820 0.000000 2.149070 
# 
# From -- ./inp_files/18153.got.cif
#   From: 2010.05.17/outbox.cif.g08.bks.cpg/sg11_10_cif.got.tgz:18153.got - 2010.06.03 12:22:45.
