data_PCOD9156925
_publ_section_title
;
Structure prediction by ZEFSAII (Michael W. Deem and Ramdas Pophale) SiO2 
 PCOD9156925
Probable space group: P 21/M
;
_chemical_formula_sum "Si O2"
_cell_formula_units_Z 32
_cell_length_a 15.097257
_cell_length_b 7.619606
_cell_length_c 25.789640
_cell_angle_alpha 90.000000
_cell_angle_beta 150.427020
_cell_angle_gamma 90.000000
_cell_volume 1464.168153
_symmetry_space_group_name_H-M "P 21/M"
_symmetry_group_IT_number 11
_symmetry_cell_setting 'monoclinic'
loop_
_space_group_symop_operation_xyz
x,y,z
-x,1/2+y,-z
-x,-y,-z
x,1/2-y,z
loop_
_atom_site_type_symbol
_atom_site_label
_atom_site_fract_x
_atom_site_fract_y
_atom_site_fract_z
Si Si1 0.218280 0.036683 0.471982
Si Si2 0.212757 0.957992 0.970385
Si Si3 0.241506 0.051182 0.371826
Si Si4 0.474657 0.043500 0.292804
Si Si5 0.797816 0.534129 0.760129
Si Si6 0.526280 0.453353 0.204772
Si Si7 0.832995 0.953895 0.165014
Si Si8 0.804483 0.038236 0.263175
O O1 0.220245 0.250000 0.471197
O O2 0.287824 0.970574 0.451102
O O3 0.011606 0.980803 0.373568
O O4 0.343456 0.976009 0.581986
O O5 0.217197 0.750000 0.980706
O O6 0.006050 0.017726 0.870485
O O7 0.267300 0.996265 0.938692
O O8 0.345233 0.041057 0.079131
O O9 0.311907 0.250000 0.407276
O O10 0.279239 0.971274 0.334742
O O11 0.022716 0.056479 0.261932
O O12 0.432483 0.250000 0.265251
O O13 0.319012 0.971828 0.251023
O O14 0.496246 0.967353 0.246302
O O15 0.794333 0.750000 0.756373
O O16 0.578198 0.250000 0.239837
O O17 0.679691 0.530931 0.245634
O O18 0.879605 0.750000 0.185700
O O19 0.740714 0.987495 0.173023
O O20 0.802001 0.250000 0.263564
#
# Coordination Sequence:
#
# PCOD9156925 Si02
#       8
#     4   4   4   4   4   4   4   4
#     4   9  18  33  53  76 103 138 177 214 258 313
#     4  10  20  36  57  78 105 141 173 207 259 318
#     4   8  15  31  53  76 107 143 172 203 255 319
#     4  10  21  36  53  76 106 138 177 223 262 300
#     4   8  16  33  55  77 105 141 172 204 259 319
#     4  10  22  38  54  75 103 137 180 224 261 301
#     4  10  18  30  53  84 110 131 166 215 260 308
#     4   9  19  37  56  74 105 144 173 207 262 318
#
# _framework density 21.855414
#
# number of rings (size 3 to 8) (size 9 to 14) (size 15 to 20)
#    0.000    2.750    0.000    3.000    0.000    5.000 
#    0.000    3.125    0.000    0.000    0.000    0.000 
#    0.000    0.000    0.000    0.000    0.000    0.000 
#
# Total GULP energy -178588.402032 kJ/mol
# GULP energy per Si atom -5580.887563 kJ/mol
# Density = 2.180567 g / cm^3
# Si number density = 21.855414 Si / 1000 Ang^3
#
#
#
# Elastic Constant Matrix: (Units=GPa)
#
#
# Indices 1 2 3 4 5 6 
#
# 1 219.8275 2.4544 82.7668 0.0000 -32.5604 0.0000
# 2 2.4544 55.8385 -13.9069 0.0000 2.3028 0.0000
# 3 82.7668 -13.9069 102.0386 0.0000 -26.0547 0.0000
# 4 0.0000 0.0000 0.0000 23.2896 0.0000 -15.8287
# 5 -32.5604 2.3028 -26.0547 0.0000 44.2987 0.0000
# 6 0.0000 0.0000 0.0000 -15.8287 0.0000 70.4462
#
#
#
# Elastic Compliance Matrix: (Units=1/GPa)
#
#
# Indices 1 2 3 4 5 6 
#
# 1 0.006853 -0.001698 -0.005274 0.000000 0.002024 0.000000
# 2 -0.001698 0.018973 0.003992 0.000000 0.000114 0.000000
# 3 -0.005274 0.003992 0.015979 0.000000 0.005314 0.000000
# 4 0.000000 0.000000 0.000000 0.050677 0.000000 0.011387
# 5 0.002024 0.000114 0.005314 0.000000 0.027181 0.000000
# 6 0.000000 0.000000 0.000000 0.011387 0.000000 0.016754
#
#
# Mechanical properties :
#
#
# Convention : Reuss Voigt Hill
#
# Bulk Modulus (GPa) = 27.89685 57.81479 42.85582
# Shear Modulus (GPa) = 32.39926 48.03292 40.21609
#
# Velocity S-wave (km/s) = 3.85442 4.69311 4.29429
# Velocity P-wave (km/s) = 5.70970 7.47515 6.65126
#
# Compressibility (1/GPa) = 0.03584633
#
# Stress axis : x y z
#
# Youngs Moduli (GPa) = 145.91517 52.70634 62.58262
#
# Poissons Ratio (x) = 0.08950 0.33003
# Poissons Ratio (y) = 0.24778 -0.24985
# Poissons Ratio (z) = 0.76950 -0.21042
#
# Static dielectric constant tensor:
#      x y z
#    x 1.833810 0.000000 0.001860 
#    y 0.000000 1.805210 0.000000 
#    z 0.001860 0.000000 1.770740 
# 
# From -- ./inp_files/51718.got.cif
#   From: 2010.05.17/outbox.cif.g08.bks.cpg/sg11_26_cif.got.tgz:51718.got - 2010.06.03 12:22:45.
