data_PCOD9156349
_publ_section_title
;
Structure prediction by ZEFSAII (Michael W. Deem and Ramdas Pophale) SiO2 
 PCOD9156349
Probable space group: P 21/M
;
_chemical_formula_sum "Si O2"
_cell_formula_units_Z 28
_cell_length_a 13.979554
_cell_length_b 8.797620
_cell_length_c 22.738843
_cell_angle_alpha 90.000000
_cell_angle_beta 140.026557
_cell_angle_gamma 90.000000
_cell_volume 1796.612281
_symmetry_space_group_name_H-M "P 21/M"
_symmetry_group_IT_number 11
_symmetry_cell_setting 'monoclinic'
loop_
_space_group_symop_operation_xyz
x,y,z
-x,1/2+y,-z
-x,-y,-z
x,1/2-y,z
loop_
_atom_site_type_symbol
_atom_site_label
_atom_site_fract_x
_atom_site_fract_y
_atom_site_fract_z
Si Si1 0.847645 0.068462 0.718211
Si Si2 0.771677 0.067680 0.898915
Si Si3 0.461266 0.069442 0.386991
Si Si4 0.529991 0.567440 0.293286
Si Si5 0.201794 0.567185 0.433203
Si Si6 0.021603 0.068192 0.105075
Si Si7 0.137612 0.068646 0.529810
O O1 0.856225 0.250000 0.725515
O O2 0.878053 0.021917 0.665034
O O3 0.679238 0.017428 0.653347
O O4 0.949543 0.998065 0.817019
O O5 0.787667 0.250000 0.899879
O O6 0.596157 0.032758 0.814404
O O7 0.853188 0.992586 0.881316
O O8 0.865109 0.023905 0.000688
O O9 0.436869 0.250000 0.380307
O O10 0.621943 0.031000 0.490327
O O11 0.479674 0.020007 0.328030
O O12 0.524473 0.750000 0.301856
O O13 0.702744 0.528196 0.365084
O O14 0.191323 0.750000 0.435051
O O15 0.145717 0.491099 0.466587
O O16 0.031678 0.250000 0.112443
O O17 0.125589 0.250000 0.523495
O O18 0.000000 0.000000 0.500000
#
# Coordination Sequence:
#
# PCOD9156349 Si02
#       7
#     4   4   4   4   4   4   4
#     4  11  20  30  43  62  93 131 160 188 228 273
#     4   9  17  30  45  63  91 124 159 196 232 269
#     4  10  18  28  43  65  91 121 158 196 226 264
#     4   9  17  30  48  68  91 123 156 187 229 280
#     4   9  20  34  47  65  91 122 157 193 231 275
#     4  10  19  28  42  65  92 125 162 197 229 263
#     4  10  20  34  53  74  95 118 148 188 236 284
#
# _framework density 15.584887999999999
#
# number of rings (size 3 to 8) (size 9 to 14) (size 15 to 20)
#    0.000    2.286    1.429    2.143    0.000    2.857 
#    0.000    0.000    0.000    0.000    0.000    1.000 
#    0.000    0.000    0.000    0.000    0.000    0.000 
#
# Total GULP energy -156054.767983 kJ/mol
# GULP energy per Si atom -5573.384571 kJ/mol
# Density = 1.554942 g / cm^3
# Si number density = 15.584888 Si / 1000 Ang^3
#
#
#
# Elastic Constant Matrix: (Units=GPa)
#
#
# Indices 1 2 3 4 5 6 
#
# 1 70.5239 23.1627 65.4869 0.0000 6.0458 0.0000
# 2 23.1627 24.8910 42.4263 0.0000 -0.8668 0.0000
# 3 65.4869 42.4263 155.5389 0.0000 -5.4832 0.0000
# 4 0.0000 0.0000 0.0000 21.0987 0.0000 -0.1774
# 5 6.0458 -0.8668 -5.4832 0.0000 14.8219 0.0000
# 6 0.0000 0.0000 0.0000 -0.1774 0.0000 20.4860
#
#
#
# Elastic Compliance Matrix: (Units=1/GPa)
#
#
# Indices 1 2 3 4 5 6 
#
# 1 0.027515 -0.010228 -0.009333 0.000000 -0.015274 0.000000
# 2 -0.010228 0.079039 -0.017167 0.000000 0.002444 0.000000
# 3 -0.009333 -0.017167 0.015340 0.000000 0.008478 0.000000
# 4 0.000000 0.000000 0.000000 0.047400 0.000000 0.000411
# 5 -0.015274 0.002444 0.008478 0.000000 0.076977 0.000000
# 6 0.000000 0.000000 0.000000 0.000411 0.000000 0.048817
#
#
# Mechanical properties :
#
#
# Convention : Reuss Voigt Hill
#
# Bulk Modulus (GPa) = 20.64502 57.01173 38.82838
# Shear Modulus (GPa) = 12.99744 19.27317 16.13530
#
# Velocity S-wave (km/s) = 2.89100 3.52043 3.22113
# Velocity P-wave (km/s) = 4.94160 7.29283 6.22916
#
# Compressibility (1/GPa) = 0.04843783
#
# Stress axis : x y z
#
# Youngs Moduli (GPa) = 36.34399 12.65198 65.18751
#
# Poissons Ratio (x) = 0.12940 0.60841
# Poissons Ratio (y) = 0.37173 1.11907
# Poissons Ratio (z) = 0.33921 0.21720
#
# Static dielectric constant tensor:
#      x y z
#    x 1.480340 0.000000 0.005150 
#    y 0.000000 1.507150 0.000000 
#    z 0.005150 0.000000 1.571400 
# 
# From -- ./inp_files/42370.got.cif
#   From: 2010.05.17/outbox.cif.g08.bks.cpg/sg11_22_cif.got.tgz:42370.got - 2010.06.03 12:22:45.
