data_PCOD9156474
_publ_section_title
;
Structure prediction by ZEFSAII (Michael W. Deem and Ramdas Pophale) SiO2 
 PCOD9156474
Probable space group: P 21/M
;
_chemical_formula_sum "Si O2"
_cell_formula_units_Z 32
_cell_length_a 7.104589
_cell_length_b 21.093722
_cell_length_c 12.545924
_cell_angle_alpha 90.000000
_cell_angle_beta 132.939811
_cell_angle_gamma 90.000000
_cell_volume 1376.408297
_symmetry_space_group_name_H-M "P 21/M"
_symmetry_group_IT_number 11
_symmetry_cell_setting 'monoclinic'
loop_
_space_group_symop_operation_xyz
x,y,z
-x,1/2+y,-z
-x,-y,-z
x,1/2-y,z
loop_
_atom_site_type_symbol
_atom_site_label
_atom_site_fract_x
_atom_site_fract_y
_atom_site_fract_z
Si Si1 0.516426 0.448686 0.841889
Si Si2 0.871263 0.563106 0.483730
Si Si3 0.734525 0.182134 0.982735
Si Si4 0.242962 0.319796 0.311228
Si Si5 0.875530 0.319530 0.379442
Si Si6 0.851906 0.549089 0.093002
Si Si7 0.283092 0.038795 0.352060
Si Si8 0.632300 0.821340 0.949902
O O1 0.398193 0.444927 0.678844
O O2 0.677363 0.384404 0.908548
O O3 0.293435 0.448014 0.847600
O O4 0.684509 0.508246 0.944275
O O5 0.900345 0.559840 0.621583
O O6 0.000000 0.500000 0.500000
O O7 0.014311 0.626277 0.502669
O O8 0.687290 0.250000 0.908747
O O9 0.544481 0.181174 0.011848
O O10 0.024833 0.180735 0.136719
O O11 0.377898 0.250000 0.358335
O O12 0.372254 0.390061 0.350420
O O13 0.077177 0.316684 0.357611
O O14 0.879325 0.250000 0.429558
O O15 0.588632 0.332881 0.224744
O O16 0.110429 0.507635 0.212371
O O17 0.833342 0.621573 0.043655
O O18 0.500000 0.000000 0.500000
O O19 0.738222 0.750000 0.976412
#
# Coordination Sequence:
#
# PCOD9156474 Si02
#       8
#     4   4   4   4   4   4   4   4
#     4  10  18  28  50  76 102 128 169 213 260 297
#     4  11  20  32  50  78 107 136 169 213 260 306
#     4   8  13  23  43  72  99 122 161 214 254 289
#     4   8  14  29  51  71  93 132 176 205 242 302
#     4   8  15  27  46  74 107 134 164 211 262 303
#     4  10  18  31  50  73  99 135 171 210 256 306
#     4  11  22  36  52  75 109 138 172 212 259 311
#     4   8  14  25  44  70  98 131 169 209 253 304
#
# _framework density 23.248915
#
# number of rings (size 3 to 8) (size 9 to 14) (size 15 to 20)
#    0.000    2.750    2.500    2.250    3.500    0.500 
#    0.000    1.250    0.000    0.750    0.000    0.000 
#    0.000    0.000    0.000    0.000    0.000    0.000 
#
# Total GULP energy -178249.596751 kJ/mol
# GULP energy per Si atom -5570.299898 kJ/mol
# Density = 2.319600 g / cm^3
# Si number density = 23.248915 Si / 1000 Ang^3
#
#
#
# Elastic Constant Matrix: (Units=GPa)
#
#
# Indices 1 2 3 4 5 6 
#
# 1 67.0648 24.0283 5.4151 0.0000 2.9150 0.0000
# 2 24.0283 239.7163 85.2165 0.0000 21.4660 0.0000
# 3 5.4151 85.2165 77.2822 0.0000 6.0867 0.0000
# 4 0.0000 0.0000 0.0000 41.3134 0.0000 2.1797
# 5 2.9150 21.4660 6.0867 0.0000 22.1587 0.0000
# 6 0.0000 0.0000 0.0000 2.1797 0.0000 2.1118
#
#
#
# Elastic Compliance Matrix: (Units=1/GPa)
#
#
# Indices 1 2 3 4 5 6 
#
# 1 0.015522 -0.001872 0.001016 0.000000 -0.000508 0.000000
# 2 -0.001872 0.007594 -0.007853 0.000000 -0.004954 0.000000
# 3 0.001016 -0.007853 0.021402 0.000000 0.001595 0.000000
# 4 0.000000 0.000000 0.000000 0.025599 0.000000 -0.026423
# 5 -0.000508 -0.004954 0.001595 0.000000 0.049557 0.000000
# 6 0.000000 0.000000 0.000000 -0.026423 0.000000 0.500810
#
#
# Mechanical properties :
#
#
# Convention : Reuss Voigt Hill
#
# Bulk Modulus (GPa) = 36.89865 68.15369 52.52617
# Shear Modulus (GPa) = 7.72877 31.07700 19.40289
#
# Velocity S-wave (km/s) = 1.82526 3.66007 2.89203
# Velocity P-wave (km/s) = 4.51084 6.87313 5.81324
#
# Compressibility (1/GPa) = 0.02710126
#
# Stress axis : x y z
#
# Youngs Moduli (GPa) = 64.42664 131.67678 46.72516
#
# Poissons Ratio (x) = 0.24644 -0.04748
# Poissons Ratio (y) = 0.12058 0.36692
# Poissons Ratio (z) = -0.06547 1.03402
#
# Static dielectric constant tensor:
#      x y z
#    x 2.001890 0.000000 -0.030440 
#    y 0.000000 2.117160 0.000000 
#    z -0.030440 0.000000 1.824660 
# 
# From -- ./inp_files/48253.got.cif
#   From: 2010.05.17/outbox.cif.g08.bks.cpg/sg11_25_cif.got.tgz:48253.got - 2010.06.03 12:22:45.
