data_PCOD9156290
_publ_section_title
;
Structure prediction by ZEFSAII (Michael W. Deem and Ramdas Pophale) SiO2 
 PCOD9156290
Probable space group: P 21/M
;
_chemical_formula_sum "Si O2"
_cell_formula_units_Z 32
_cell_length_a 27.088213
_cell_length_b 7.423462
_cell_length_c 21.112116
_cell_angle_alpha 90.000000
_cell_angle_beta 160.512579
_cell_angle_gamma 90.000000
_cell_volume 1416.264990
_symmetry_space_group_name_H-M "P 21/M"
_symmetry_group_IT_number 11
_symmetry_cell_setting 'monoclinic'
loop_
_space_group_symop_operation_xyz
x,y,z
-x,1/2+y,-z
-x,-y,-z
x,1/2-y,z
loop_
_atom_site_type_symbol
_atom_site_label
_atom_site_fract_x
_atom_site_fract_y
_atom_site_fract_z
Si Si1 0.888204 0.546526 0.289299
Si Si2 0.667440 0.469894 0.763290
Si Si3 0.365858 0.467154 0.928100
Si Si4 0.678515 0.029553 0.365233
Si Si5 0.364049 0.967905 0.546332
Si Si6 0.183439 0.537123 0.592469
Si Si7 0.319000 0.542881 0.355955
Si Si8 0.714110 0.461217 0.956666
O O1 0.916067 0.750000 0.346141
O O2 0.772571 0.462219 0.198064
O O3 0.045144 0.458573 0.463592
O O4 0.803796 0.554393 0.120284
O O5 0.660032 0.250000 0.753368
O O6 0.498332 0.537206 0.565699
O O7 0.731503 0.532566 0.773223
O O8 0.745952 0.523624 0.923420
O O9 0.368222 0.250000 0.935056
O O10 0.329442 0.515814 0.811872
O O11 0.517759 0.527591 0.144071
O O12 0.679258 0.250000 0.366716
O O13 0.699119 0.970958 0.462566
O O14 0.792627 0.968001 0.449463
O O15 0.355873 0.750000 0.534539
O O16 0.292526 0.035933 0.393882
O O17 0.538470 0.014640 0.755794
O O18 0.154830 0.750000 0.551705
O O19 0.269154 0.750000 0.297415
O O20 0.747816 0.250000 0.001379
#
# Coordination Sequence:
#
# PCOD9156290 Si02
#       8
#     4   4   4   4   4   4   4   4
#     4  10  20  34  49  66  90 119 151 185 222 265
#     4   8  14  23  34  57  90 115 141 180 219 253
#     4  10  19  33  51  67  89 118 145 183 227 268
#     4   9  17  31  49  69  93 118 146 183 223 260
#     4   9  15  27  46  65  90 122 151 179 218 266
#     4  10  21  34  49  69  91 116 148 186 224 266
#     4   8  13  21  37  59  84 117 148 173 211 262
#     4  10  18  27  43  66  92 119 149 187 224 260
#
# _framework density 22.594642
#
# number of rings (size 3 to 8) (size 9 to 14) (size 15 to 20)
#    0.000    2.750    1.250    1.125    0.000    1.500 
#    0.000    0.625    0.000    0.000    0.000    0.875 
#    0.000    0.000    0.000    0.000    0.000    0.000 
#
# Total GULP energy -178465.204138 kJ/mol
# GULP energy per Si atom -5577.037629 kJ/mol
# Density = 2.254322 g / cm^3
# Si number density = 22.594642 Si / 1000 Ang^3
#
#
#
# Elastic Constant Matrix: (Units=GPa)
#
#
# Indices 1 2 3 4 5 6 
#
# 1 133.2356 8.6867 16.0766 0.0000 -33.3107 0.0000
# 2 8.6867 81.4965 -1.3294 0.0000 2.6616 0.0000
# 3 16.0766 -1.3294 13.9613 0.0000 -9.3111 0.0000
# 4 0.0000 0.0000 0.0000 1.0285 0.0000 -1.9619
# 5 -33.3107 2.6616 -9.3111 0.0000 40.1942 0.0000
# 6 0.0000 0.0000 0.0000 -1.9619 0.0000 -9.3967
#
#
#
# Elastic Compliance Matrix: (Units=1/GPa)
#
#
# Indices 1 2 3 4 5 6 
#
# 1 0.010193 -0.001429 -0.007305 0.000000 0.006849 0.000000
# 2 -0.001429 0.012504 0.001767 0.000000 -0.001603 0.000000
# 3 -0.007305 0.001767 0.089994 0.000000 0.014676 0.000000
# 4 0.000000 0.000000 0.000000 0.695340 0.000000 -0.145178
# 5 0.006849 -0.001603 0.014676 0.000000 0.034062 0.000000
# 6 0.000000 0.000000 0.000000 -0.145178 0.000000 -0.076109
#
#
# Mechanical properties :
#
#
# Convention : Reuss Voigt Hill
#
# Bulk Modulus (GPa) = 10.12586 30.61793 20.37189
# Shear Modulus (GPa) = 6.15130 20.04916 13.10023
#
# Velocity S-wave (km/s) = 1.65178 2.98206 2.41050
# Velocity P-wave (km/s) = 2.85115 5.04354 4.09673
#
# Compressibility (1/GPa) = 0.09875707
#
# Stress axis : x y z
#
# Youngs Moduli (GPa) = 98.11051 79.97447 11.11181
#
# Poissons Ratio (x) = 0.11431 0.08117
# Poissons Ratio (y) = 0.14023 -0.01964
# Poissons Ratio (z) = 0.71669 -0.14134
#
# Static dielectric constant tensor:
#      x y z
#    x 1.904530 0.000000 -0.014910 
#    y 0.000000 1.826560 0.000000 
#    z -0.014910 0.000000 1.800060 
# 
# From -- ./inp_files/43047.got.cif
#   From: 2010.05.17/outbox.cif.g08.bks.cpg/sg11_22_cif.got.tgz:43047.got - 2010.06.03 12:22:45.
