data_PCOD9156749
_publ_section_title
;
Structure prediction by ZEFSAII (Michael W. Deem and Ramdas Pophale) SiO2 
 PCOD9156749
Probable space group: P 21/M
;
_chemical_formula_sum "Si O2"
_cell_formula_units_Z 26
_cell_length_a 7.606694
_cell_length_b 9.816376
_cell_length_c 14.581581
_cell_angle_alpha 90.000000
_cell_angle_beta 81.608377
_cell_angle_gamma 90.000000
_cell_volume 1077.151971
_symmetry_space_group_name_H-M "P 21/M"
_symmetry_group_IT_number 11
_symmetry_cell_setting 'monoclinic'
loop_
_space_group_symop_operation_xyz
x,y,z
-x,1/2+y,-z
-x,-y,-z
x,1/2-y,z
loop_
_atom_site_type_symbol
_atom_site_label
_atom_site_fract_x
_atom_site_fract_y
_atom_site_fract_z
Si Si1 0.750596 0.406958 0.458695
Si Si2 0.825707 0.905040 0.616885
Si Si3 0.906059 0.100349 0.769874
Si Si4 0.473320 0.985276 0.883838
Si Si5 0.410245 0.250000 0.019821
Si Si6 0.325967 0.089564 0.710170
Si Si7 0.137410 0.891285 0.017446
O O1 0.685890 0.250000 0.468259
O O2 0.728684 0.496787 0.551772
O O3 0.676335 0.496016 0.379964
O O4 0.965035 0.398623 0.427725
O O5 0.758224 0.750000 0.623519
O O6 0.832871 0.981938 0.712724
O O7 0.872074 0.250000 0.729393
O O8 0.825537 0.103423 0.877494
O O9 0.119843 0.087362 0.761398
O O10 0.443911 0.022340 0.780699
O O11 0.619488 0.873501 0.901572
O O12 0.450296 0.128362 0.939524
O O13 0.304628 0.899804 0.938603
O O14 0.369194 0.250000 0.690932
O O15 0.038764 0.750000 0.008933
O O16 0.000000 0.000000 0.000000
#
# Coordination Sequence:
#
# PCOD9156749 Si02
#       7
#     4   4   4   4   2   4   4
#     4   9  17  26  43  66  94 134 170 205 249 301
#     4   9  16  28  41  63  98 134 169 202 243 308
#     4   9  18  30  45  70 102 138 168 202 256 310
#     4  11  21  39  54  76 104 141 182 224 263 316
#     4  10  24  38  56  70 100 144 184 228 268 298
#     4  10  18  30  48  71 102 135 170 213 258 312
#     4  11  22  34  53  79 108 140 176 218 264 319
#
# _framework density 24.137727999999999
#
# number of rings (size 3 to 8) (size 9 to 14) (size 15 to 20)
#    0.000    2.154    3.077    0.923    2.154    4.308 
#    0.000    0.000    0.000    0.000    0.000    0.000 
#    0.000    7.385    0.000    0.000    0.000    0.000 
#
# Total GULP energy -144810.698565 kJ/mol
# GULP energy per Si atom -5569.642252 kJ/mol
# Density = 2.408279 g / cm^3
# Si number density = 24.137728 Si / 1000 Ang^3
#
#
#
# Elastic Constant Matrix: (Units=GPa)
#
#
# Indices 1 2 3 4 5 6 
#
# 1 47.0552 9.0215 -4.1525 0.0000 -13.3379 0.0000
# 2 9.0215 264.5917 67.7645 0.0000 23.3455 0.0000
# 3 -4.1525 67.7645 84.0736 0.0000 33.9699 0.0000
# 4 0.0000 0.0000 0.0000 37.6460 0.0000 2.6733
# 5 -13.3379 23.3455 33.9699 0.0000 28.0335 0.0000
# 6 0.0000 0.0000 0.0000 2.6733 0.0000 -9.8760
#
#
#
# Elastic Compliance Matrix: (Units=1/GPa)
#
#
# Indices 1 2 3 4 5 6 
#
# 1 0.027061 -0.001177 -0.006492 0.000000 0.021722 0.000000
# 2 -0.001177 0.004840 -0.004123 0.000000 0.000406 0.000000
# 3 -0.006492 -0.004123 0.028914 0.000000 -0.034692 0.000000
# 4 0.000000 0.000000 0.000000 0.026062 0.000000 0.007055
# 5 0.021722 0.000406 -0.034692 0.000000 0.087708 0.000000
# 6 0.000000 0.000000 0.000000 0.007055 0.000000 -0.099346
#
#
# Mechanical properties :
#
#
# Convention : Reuss Voigt Hill
#
# Bulk Modulus (GPa) = 26.85788 60.10971 43.48380
# Shear Modulus (GPa) = 44.95073 32.69983 38.82528
#
# Velocity S-wave (km/s) = 4.32007 3.68464 4.01495
# Velocity P-wave (km/s) = 6.00293 6.56194 6.28865
#
# Compressibility (1/GPa) = 0.03723301
#
# Stress axis : x y z
#
# Youngs Moduli (GPa) = 36.95300 206.62717 34.58496
#
# Poissons Ratio (x) = 0.24313 0.22451
# Poissons Ratio (y) = 0.04348 0.14259
# Poissons Ratio (z) = 0.23988 0.85190
#
# Static dielectric constant tensor:
#      x y z
#    x 2.104650 0.000000 -0.001460 
#    y 0.000000 1.897100 0.000000 
#    z -0.001460 0.000000 1.914260 
# 
# From -- ./inp_files/37027.got.cif
#   From: 2010.05.17/outbox.cif.g08.bks.cpg/sg11_19_cif.got.tgz:37027.got - 2010.06.03 12:22:45.
