data_PCOD9156774
_publ_section_title
;
Structure prediction by ZEFSAII (Michael W. Deem and Ramdas Pophale) SiO2 
 PCOD9156774
Probable space group: P 21/M
;
_chemical_formula_sum "Si O2"
_cell_formula_units_Z 28
_cell_length_a 15.455953
_cell_length_b 7.569786
_cell_length_c 17.482741
_cell_angle_alpha 90.000000
_cell_angle_beta 133.609136
_cell_angle_gamma 90.000000
_cell_volume 1481.032551
_symmetry_space_group_name_H-M "P 21/M"
_symmetry_group_IT_number 11
_symmetry_cell_setting 'monoclinic'
loop_
_space_group_symop_operation_xyz
x,y,z
-x,1/2+y,-z
-x,-y,-z
x,1/2-y,z
loop_
_atom_site_type_symbol
_atom_site_label
_atom_site_fract_x
_atom_site_fract_y
_atom_site_fract_z
Si Si1 0.244614 0.036848 0.637475
Si Si2 0.615028 0.037797 0.017777
Si Si3 0.428402 0.546015 0.336211
Si Si4 0.111800 0.036938 0.403420
Si Si5 0.521161 0.032999 0.798357
Si Si6 0.155195 0.959728 0.751975
Si Si7 0.331843 0.959888 0.435160
O O1 0.245995 0.250000 0.635765
O O2 0.171123 0.973083 0.518996
O O3 0.382415 0.977713 0.718532
O O4 0.185739 0.983988 0.681427
O O5 0.624911 0.250000 0.019791
O O6 0.734852 0.967622 0.131025
O O7 0.589010 0.974647 0.916030
O O8 0.500000 0.000000 0.000000
O O9 0.391080 0.750000 0.306751
O O10 0.423902 0.469891 0.248411
O O11 0.566855 0.539884 0.447771
O O12 0.355550 0.470170 0.363802
O O13 0.106617 0.250000 0.405271
O O14 0.977088 0.969470 0.312052
O O15 0.202133 0.992244 0.390365
O O16 0.520966 0.250000 0.796978
O O17 0.151241 0.750000 0.764365
O O18 0.355011 0.750000 0.448359
#
# Coordination Sequence:
#
# PCOD9156774 Si02
#       7
#     4   4   4   4   4   4   4
#     4  10  18  30  49  69  93 129 160 184 228 284
#     4  10  19  32  49  69  92 121 159 196 230 271
#     4   9  17  32  50  70  97 126 154 189 236 286
#     4  10  20  34  48  65  97 134 158 185 233 287
#     4   9  16  29  50  70  92 124 156 185 229 284
#     4  10  21  33  47  69  96 126 160 197 233 271
#     4  10  19  29  48  75  97 120 155 197 236 275
#
# _framework density 18.905729000000001
#
# number of rings (size 3 to 8) (size 9 to 14) (size 15 to 20)
#    0.000    2.286    2.857    0.857    0.000    1.714 
#    0.000    0.714    0.000    0.857    0.000    0.000 
#    0.000    0.000    0.000    0.000    0.000    0.429 
#
# Total GULP energy -156259.714165 kJ/mol
# GULP energy per Si atom -5580.704077 kJ/mol
# Density = 1.886270 g / cm^3
# Si number density = 18.905729 Si / 1000 Ang^3
#
#
#
# Elastic Constant Matrix: (Units=GPa)
#
#
# Indices 1 2 3 4 5 6 
#
# 1 162.8331 -6.4579 105.4838 0.0000 -12.2950 0.0000
# 2 -6.4579 44.6598 8.5896 0.0000 0.3299 0.0000
# 3 105.4838 8.5896 137.5369 0.0000 1.4150 0.0000
# 4 0.0000 0.0000 0.0000 -0.3844 0.0000 1.5118
# 5 -12.2950 0.3299 1.4150 0.0000 33.5897 0.0000
# 6 0.0000 0.0000 0.0000 1.5118 0.0000 15.7626
#
#
#
# Elastic Compliance Matrix: (Units=1/GPa)
#
#
# Indices 1 2 3 4 5 6 
#
# 1 0.013736 0.004032 -0.010843 0.000000 0.005445 0.000000
# 2 0.004032 0.023848 -0.004596 0.000000 0.001435 0.000000
# 3 -0.010843 -0.004596 0.015921 0.000000 -0.004594 0.000000
# 4 0.000000 0.000000 0.000000 -1.888934 0.000000 0.181169
# 5 0.005445 0.001435 -0.004594 0.000000 0.031944 0.000000
# 6 0.000000 0.000000 0.000000 0.181169 0.000000 0.046065
#
#
# Mechanical properties :
#
#
# Convention : Reuss Voigt Hill
#
# Bulk Modulus (GPa) = 32.58358 62.25119 47.41738
# Shear Modulus (GPa) = -2.89960 25.62121 11.36080
#
# Velocity S-wave (km/s) = -1.23978 3.68531 2.45402
# Velocity P-wave (km/s) = 3.90164 7.14894 5.75891
#
# Compressibility (1/GPa) = 0.03069031
#
# Stress axis : x y z
#
# Youngs Moduli (GPa) = 72.79954 41.93250 62.81006
#
# Poissons Ratio (x) = -0.16905 0.68104
# Poissons Ratio (y) = -0.29349 0.28868
# Poissons Ratio (z) = 0.78936 0.19273
#
# Static dielectric constant tensor:
#      x y z
#    x 1.647350 0.000000 -0.011100 
#    y 0.000000 1.712970 0.000000 
#    z -0.011100 0.000000 1.650650 
# 
# From -- ./inp_files/37452.got.cif
#   From: 2010.05.17/outbox.cif.g08.bks.cpg/sg11_19_cif.got.tgz:37452.got - 2010.06.03 12:22:45.
