data_PCOD9156869
_publ_section_title
;
Structure prediction by ZEFSAII (Michael W. Deem and Ramdas Pophale) SiO2 
 PCOD9156869
Probable space group: P 21/M
;
_chemical_formula_sum "Si O2"
_cell_formula_units_Z 32
_cell_length_a 9.026700
_cell_length_b 19.461903
_cell_length_c 20.662500
_cell_angle_alpha 90.000000
_cell_angle_beta 148.835252
_cell_angle_gamma 90.000000
_cell_volume 1878.486455
_symmetry_space_group_name_H-M "P 21/M"
_symmetry_group_IT_number 11
_symmetry_cell_setting 'monoclinic'
loop_
_space_group_symop_operation_xyz
x,y,z
-x,1/2+y,-z
-x,-y,-z
x,1/2-y,z
loop_
_atom_site_type_symbol
_atom_site_label
_atom_site_fract_x
_atom_site_fract_y
_atom_site_fract_z
Si Si1 0.672028 0.969025 0.624526
Si Si2 0.382405 0.170546 0.989679
Si Si3 0.892977 0.613395 0.985705
Si Si4 0.309358 0.533224 0.619777
Si Si5 0.278879 0.458894 0.869587
Si Si6 0.589787 0.470179 0.852525
Si Si7 0.935427 0.671171 0.744512
Si Si8 0.581375 0.671811 0.744224
O O1 0.475005 0.975086 0.614273
O O2 0.766312 0.889973 0.645976
O O3 0.500000 0.000000 0.500000
O O4 0.967344 0.007048 0.753371
O O5 0.352816 0.250000 0.960912
O O6 0.283501 0.118045 0.898151
O O7 0.194348 0.153059 0.982503
O O8 0.722908 0.158552 0.130354
O O9 0.769835 0.535864 0.945686
O O10 0.743064 0.651574 0.870177
O O11 0.220145 0.597026 0.090444
O O12 0.462757 0.495971 0.737322
O O13 0.334875 0.615037 0.642594
O O14 0.000000 0.500000 0.500000
O O15 0.375299 0.458154 0.831103
O O16 0.500000 0.500000 0.000000
O O17 0.884332 0.750000 0.703479
O O18 0.811253 0.666264 0.771444
O O19 0.477594 0.750000 0.707340
#
# Coordination Sequence:
#
# PCOD9156869 Si02
#       8
#     4   4   4   4   4   4   4   4
#     4  11  22  37  59  85 113 152 196 242 289 345
#     4  11  21  33  53  84 120 150 185 238 295 343
#     4  10  18  30  50  80 112 142 176 227 281 337
#     4  10  21  36  56  80 114 149 192 238 282 342
#     4  12  21  36  60  85 113 148 194 238 284 337
#     4  10  20  32  55  81 109 143 188 229 282 328
#     4   9  18  34  55  82 111 145 186 234 288 344
#     4   9  18  32  53  78 107 141 182 230 283 341
#
# _framework density 17.034990000000001
#
# number of rings (size 3 to 8) (size 9 to 14) (size 15 to 20)
#    0.000    1.750    2.500    2.625    3.500    1.000 
#    0.000    1.250    0.000    6.000    0.000    0.000 
#    0.000    0.000    0.000    0.000    0.000    0.000 
#
# Total GULP energy -178387.334765 kJ/mol
# GULP energy per Si atom -5574.604211 kJ/mol
# Density = 1.699622 g / cm^3
# Si number density = 17.034990 Si / 1000 Ang^3
#
#
#
# Elastic Constant Matrix: (Units=GPa)
#
#
# Indices 1 2 3 4 5 6 
#
# 1 80.3741 55.8520 34.4129 0.0000 3.8017 0.0000
# 2 55.8520 129.9797 56.6367 0.0000 2.0693 0.0000
# 3 34.4129 56.6367 72.8123 0.0000 6.7142 0.0000
# 4 0.0000 0.0000 0.0000 22.5650 0.0000 1.4825
# 5 3.8017 2.0693 6.7142 0.0000 30.4194 0.0000
# 6 0.0000 0.0000 0.0000 1.4825 0.0000 27.0874
#
#
#
# Elastic Compliance Matrix: (Units=1/GPa)
#
#
# Indices 1 2 3 4 5 6 
#
# 1 0.018461 -0.006287 -0.003737 0.000000 -0.001055 0.000000
# 2 -0.006287 0.013825 -0.007929 0.000000 0.001595 0.000000
# 3 -0.003737 -0.007929 0.022023 0.000000 -0.003855 0.000000
# 4 0.000000 0.000000 0.000000 0.044476 0.000000 -0.002434
# 5 -0.001055 0.001595 -0.003855 0.000000 0.033748 0.000000
# 6 0.000000 0.000000 0.000000 -0.002434 0.000000 0.037051
#
#
# Mechanical properties :
#
#
# Convention : Reuss Voigt Hill
#
# Bulk Modulus (GPa) = 54.34313 64.10772 59.22543
# Shear Modulus (GPa) = 23.62667 25.09865 24.36266
#
# Velocity S-wave (km/s) = 3.72822 3.84260 3.78584
# Velocity P-wave (km/s) = 7.10654 7.57642 7.34524
#
# Compressibility (1/GPa) = 0.01840159
#
# Stress axis : x y z
#
# Youngs Moduli (GPa) = 54.16839 72.33397 45.40648
#
# Poissons Ratio (x) = 0.45479 0.16969
# Poissons Ratio (y) = 0.34058 0.36003
# Poissons Ratio (z) = 0.20244 0.57354
#
# Static dielectric constant tensor:
#      x y z
#    x 1.583610 0.000000 0.023360 
#    y 0.000000 1.589520 0.000000 
#    z 0.023360 0.000000 1.554170 
# 
# From -- ./inp_files/64007.got.cif
#   From: 2010.05.17/outbox.cif.g08.bks.cpg/sg11_33_cif.got.tgz:64007.got - 2010.06.03 12:22:45.
