data_PCOD9156874
_publ_section_title
;
Structure prediction by ZEFSAII (Michael W. Deem and Ramdas Pophale) SiO2 
 PCOD9156874
Probable space group: P 21/M
;
_chemical_formula_sum "Si O2"
_cell_formula_units_Z 32
_cell_length_a 22.075184
_cell_length_b 8.985826
_cell_length_c 12.050354
_cell_angle_alpha 90.000000
_cell_angle_beta 129.975399
_cell_angle_gamma 90.000000
_cell_volume 1831.776611
_symmetry_space_group_name_H-M "P 21/M"
_symmetry_group_IT_number 11
_symmetry_cell_setting 'monoclinic'
loop_
_space_group_symop_operation_xyz
x,y,z
-x,1/2+y,-z
-x,-y,-z
x,1/2-y,z
loop_
_atom_site_type_symbol
_atom_site_label
_atom_site_fract_x
_atom_site_fract_y
_atom_site_fract_z
Si Si1 0.231472 0.073647 0.136081
Si Si2 0.578631 0.573333 0.047259
Si Si3 0.827239 0.426574 0.279234
Si Si4 0.259969 0.072384 0.631900
Si Si5 0.316358 0.426652 0.020256
Si Si6 0.966609 0.075603 0.849278
Si Si7 0.915639 0.071072 0.170400
Si Si8 0.777529 0.075880 0.640621
O O1 0.216320 0.250000 0.128695
O O2 0.304578 0.052908 0.136999
O O3 0.245229 0.001463 0.271043
O O4 0.155504 0.997652 0.987731
O O5 0.568800 0.750000 0.043927
O O6 0.656958 0.533399 0.210363
O O7 0.500000 0.500000 0.000000
O O8 0.602626 0.538051 0.947876
O O9 0.828782 0.250000 0.299621
O O10 0.811553 0.508551 0.376601
O O11 0.898775 0.466843 0.279781
O O12 0.751037 0.474584 0.116700
O O13 0.253609 0.250000 0.620419
O O14 0.258367 0.003033 0.508683
O O15 0.299339 0.250000 0.977088
O O16 0.987998 0.250000 0.873662
O O17 0.872437 0.062993 0.740921
O O18 0.005398 0.995493 0.789281
O O19 0.000000 0.000000 0.000000
O O20 0.913873 0.250000 0.157701
O O21 0.757241 0.250000 0.619021
#
# Coordination Sequence:
#
# PCOD9156874 Si02
#       8
#     4   4   4   4   4   4   4   4
#     4  10  18  30  51  74 100 137 175 213 259 303
#     4   9  18  33  55  83 110 133 163 204 249 301
#     4   9  17  30  50  74 100 131 168 215 261 301
#     4  10  21  37  55  76 104 137 173 209 251 312
#     4   8  16  30  48  75 106 134 169 209 248 299
#     4  11  22  34  50  72 102 136 174 221 267 311
#     4  10  19  31  49  74 102 131 172 221 263 306
#     4  11  23  36  51  74 104 136 174 219 262 308
#
# _framework density 17.469379
#
# number of rings (size 3 to 8) (size 9 to 14) (size 15 to 20)
#    0.000    2.250    1.250    3.000    0.000    6.000 
#    0.000    0.625    0.000    0.750    0.000    0.000 
#    0.000    0.000    0.000    0.000    0.000    0.000 
#
# Total GULP energy -178413.193076 kJ/mol
# GULP energy per Si atom -5575.412284 kJ/mol
# Density = 1.742962 g / cm^3
# Si number density = 17.469379 Si / 1000 Ang^3
#
#
#
# Elastic Constant Matrix: (Units=GPa)
#
#
# Indices 1 2 3 4 5 6 
#
# 1 127.8279 51.8385 34.9691 0.0000 -23.7747 0.0000
# 2 51.8385 72.9378 32.8656 0.0000 -12.5022 0.0000
# 3 34.9691 32.8656 47.4976 0.0000 -24.2493 0.0000
# 4 0.0000 0.0000 0.0000 23.4259 0.0000 -3.8161
# 5 -23.7747 -12.5022 -24.2493 0.0000 25.8390 0.0000
# 6 0.0000 0.0000 0.0000 -3.8161 0.0000 33.3612
#
#
#
# Elastic Compliance Matrix: (Units=1/GPa)
#
#
# Indices 1 2 3 4 5 6 
#
# 1 0.012251 -0.007406 0.000059 0.000000 0.007743 0.000000
# 2 -0.007406 0.024953 -0.017526 0.000000 -0.011188 0.000000
# 3 0.000059 -0.017526 0.055360 0.000000 0.043528 0.000000
# 4 0.000000 0.000000 0.000000 0.043498 0.000000 0.004976
# 5 0.007743 -0.011188 0.043528 0.000000 0.081263 0.000000
# 6 0.000000 0.000000 0.000000 0.004976 0.000000 0.030544
#
#
# Mechanical properties :
#
#
# Convention : Reuss Voigt Hill
#
# Bulk Modulus (GPa) = 23.35469 54.17884 38.76676
# Shear Modulus (GPa) = 16.03142 25.09789 20.56465
#
# Velocity S-wave (km/s) = 3.03262 3.79447 3.43473
# Velocity P-wave (km/s) = 5.06560 7.09071 6.16192
#
# Compressibility (1/GPa) = 0.04281796
#
# Stress axis : x y z
#
# Youngs Moduli (GPa) = 81.62918 40.07526 18.06354
#
# Poissons Ratio (x) = 0.29679 -0.00106
# Poissons Ratio (y) = 0.60453 0.31657
# Poissons Ratio (z) = -0.00478 0.70234
#
# Static dielectric constant tensor:
#      x y z
#    x 1.627440 0.000000 -0.020000 
#    y 0.000000 1.594970 0.000000 
#    z -0.020000 0.000000 1.578090 
# 
# From -- ./inp_files/42922.got.cif
#   From: 2010.05.17/outbox.cif.g08.bks.cpg/sg11_22_cif.got.tgz:42922.got - 2010.06.03 12:22:45.
