data_PCOD9156222
_publ_section_title
;
Structure prediction by ZEFSAII (Michael W. Deem and Ramdas Pophale) SiO2 
 PCOD9156222
Probable space group: P 21/M
;
_chemical_formula_sum "Si O2"
_cell_formula_units_Z 32
_cell_length_a 21.363072
_cell_length_b 8.732980
_cell_length_c 33.167810
_cell_angle_alpha 90.000000
_cell_angle_beta 18.158920
_cell_angle_gamma 90.000000
_cell_volume 1928.480671
_symmetry_space_group_name_H-M "P 21/M"
_symmetry_group_IT_number 11
_symmetry_cell_setting 'monoclinic'
loop_
_space_group_symop_operation_xyz
x,y,z
-x,1/2+y,-z
-x,-y,-z
x,1/2-y,z
loop_
_atom_site_type_symbol
_atom_site_label
_atom_site_fract_x
_atom_site_fract_y
_atom_site_fract_z
Si Si1 0.981699 0.428253 0.362377
Si Si2 0.314701 0.066984 0.010179
Si Si3 0.238660 0.072256 0.970638
Si Si4 0.262026 0.074053 0.268760
Si Si5 0.289985 0.931115 0.112019
Si Si6 0.627866 0.437140 0.629604
Si Si7 0.829886 0.936098 0.075177
Si Si8 0.722168 0.072782 0.659402
O O1 0.973374 0.250000 0.354641
O O2 0.101575 0.432320 0.331375
O O3 0.109772 0.520451 0.251732
O O4 0.759872 0.484106 0.510487
O O5 0.291945 0.250000 0.026242
O O6 0.250722 0.992836 0.091151
O O7 0.208686 0.007635 0.033887
O O8 0.549790 0.027809 0.860184
O O9 0.176227 0.250000 0.010780
O O10 0.147833 0.007620 0.984919
O O11 0.480032 0.072368 0.815853
O O12 0.329957 0.250000 0.231050
O O13 0.188333 0.018242 0.357635
O O14 0.313409 0.750000 0.096716
O O15 0.500000 0.000000 0.000000
O O16 0.635382 0.250000 0.626698
O O17 0.394391 0.480655 0.772887
O O18 0.729626 0.489746 0.609398
O O19 0.835507 0.750000 0.071245
O O20 0.000000 0.000000 0.000000
O O21 0.788930 0.250000 0.619398
#
# Coordination Sequence:
#
# PCOD9156222 Si02
#       8
#     4   4   4   4   4   4   4   4
#     4  10  20  33  47  64  90 126 167 204 240 282
#     4  10  18  31  50  67  89 124 165 205 243 281
#     4   7  13  26  45  68  93 123 155 186 228 285
#     4  10  18  26  40  64  92 121 159 203 240 274
#     4  12  23  34  48  68  93 125 165 209 249 283
#     4   8  16  32  50  66  91 129 164 194 232 288
#     4   9  16  30  52  77 102 127 155 187 230 286
#     4   8  14  27  45  61  84 123 164 193 226 275
#
# _framework density 16.593374000000001
#
# number of rings (size 3 to 8) (size 9 to 14) (size 15 to 20)
#    0.000    2.750    1.250    4.125    0.000    1.000 
#    0.000    7.500    0.000    0.000    0.000    0.875 
#    0.000    0.000    0.000    0.000    0.000    0.000 
#
# Total GULP energy -178262.113897 kJ/mol
# GULP energy per Si atom -5570.691059 kJ/mol
# Density = 1.655561 g / cm^3
# Si number density = 16.593374 Si / 1000 Ang^3
#
#
#
# Elastic Constant Matrix: (Units=GPa)
#
#
# Indices 1 2 3 4 5 6 
#
# 1 116.1913 33.1913 57.1451 0.0000 15.6539 0.0000
# 2 33.1913 52.0045 27.3993 0.0000 10.6924 0.0000
# 3 57.1451 27.3993 86.4778 0.0000 23.4504 0.0000
# 4 0.0000 0.0000 0.0000 14.6425 0.0000 3.2772
# 5 15.6539 10.6924 23.4504 0.0000 26.8068 0.0000
# 6 0.0000 0.0000 0.0000 3.2772 0.0000 25.4913
#
#
#
# Elastic Compliance Matrix: (Units=1/GPa)
#
#
# Indices 1 2 3 4 5 6 
#
# 1 0.013674 -0.004811 -0.007691 0.000000 0.000662 0.000000
# 2 -0.004811 0.025056 -0.003685 0.000000 -0.003961 0.000000
# 3 -0.007691 -0.003685 0.021234 0.000000 -0.012614 0.000000
# 4 0.000000 0.000000 0.000000 0.070317 0.000000 -0.009040
# 5 0.000662 -0.003961 -0.012614 0.000000 0.049532 0.000000
# 6 0.000000 0.000000 0.000000 -0.009040 0.000000 0.040391
#
#
# Mechanical properties :
#
#
# Convention : Reuss Voigt Hill
#
# Bulk Modulus (GPa) = 36.24643 54.46053 45.35348
# Shear Modulus (GPa) = 19.10018 22.51733 20.80876
#
# Velocity S-wave (km/s) = 3.39643 3.68775 3.54508
# Velocity P-wave (km/s) = 6.10510 7.14315 6.64443
#
# Compressibility (1/GPa) = 0.02758893
#
# Stress axis : x y z
#
# Youngs Moduli (GPa) = 73.12905 39.91078 47.09339
#
# Poissons Ratio (x) = 0.19203 0.36221
# Poissons Ratio (y) = 0.35186 0.17355
# Poissons Ratio (z) = 0.56246 0.14708
#
# Static dielectric constant tensor:
#      x y z
#    x 1.579040 0.000000 0.021210 
#    y 0.000000 1.570890 0.000000 
#    z 0.021210 0.000000 1.584790 
# 
# From -- ./inp_files/73610.got.cif
#   From: 2010.05.17/outbox.cif.g08.bks.cpg/sg11_37_cif.got.tgz:73610.got - 2010.06.03 12:22:45.
