data_PCOD9156042
_publ_section_title
;
Structure prediction by ZEFSAII (Michael W. Deem and Ramdas Pophale) SiO2 
 PCOD9156042
Probable space group: P 21/M
;
_chemical_formula_sum "Si O2"
_cell_formula_units_Z 32
_cell_length_a 12.869859
_cell_length_b 17.315486
_cell_length_c 18.841207
_cell_angle_alpha 90.000000
_cell_angle_beta 26.700711
_cell_angle_gamma 90.000000
_cell_volume 1886.612437
_symmetry_space_group_name_H-M "P 21/M"
_symmetry_group_IT_number 11
_symmetry_cell_setting 'monoclinic'
loop_
_space_group_symop_operation_xyz
x,y,z
-x,1/2+y,-z
-x,-y,-z
x,1/2-y,z
loop_
_atom_site_type_symbol
_atom_site_label
_atom_site_fract_x
_atom_site_fract_y
_atom_site_fract_z
Si Si1 0.578186 0.576894 0.746251
Si Si2 0.840061 0.424149 0.106439
Si Si3 0.414282 0.529821 0.127003
Si Si4 0.706541 0.658618 0.198430
Si Si5 0.900536 0.010479 0.440279
Si Si6 0.473466 0.486566 0.599905
Si Si7 0.463021 0.662516 0.197708
Si Si8 0.026740 0.165801 0.435356
O O1 0.351332 0.586185 0.837883
O O2 0.524326 0.534678 0.852244
O O3 0.753876 0.520864 0.596409
O O4 0.733223 0.650619 0.670823
O O5 0.691417 0.446002 0.266880
O O6 0.000000 0.500000 0.000000
O O7 0.025568 0.355810 0.986011
O O8 0.516301 0.607159 0.099674
O O9 0.136675 0.536793 0.290125
O O10 0.500000 0.500000 0.000000
O O11 0.665085 0.750000 0.240169
O O12 0.627484 0.596130 0.307261
O O13 0.569334 0.638242 0.209192
O O14 0.726348 0.006335 0.481205
O O15 0.981723 0.097336 0.407593
O O16 0.500000 0.500000 0.500000
O O17 0.539509 0.750000 0.138062
O O18 0.187744 0.661948 0.379479
O O19 0.021951 0.250000 0.404485
#
# Coordination Sequence:
#
# PCOD9156042 Si02
#       8
#     4   4   4   4   4   4   4   4
#     4  10  18  34  52  74 105 137 186 224 257 319
#     4   9  19  34  55  76 105 146 190 227 263 323
#     4  11  20  31  51  80 109 139 170 218 277 321
#     4  10  20  36  59  81 107 145 188 230 275 327
#     4  10  18  34  52  75 105 136 182 220 256 320
#     4  10  20  34  55  81 110 142 184 229 276 326
#     4  10  18  33  56  80 104 137 181 220 262 322
#     4  10  17  29  55  80  98 129 176 227 264 305
#
# _framework density 16.961618999999999
#
# number of rings (size 3 to 8) (size 9 to 14) (size 15 to 20)
#    0.000    2.000    3.750    2.250    0.000    3.500 
#    0.000    3.125    0.000    3.000    0.000    0.000 
#    0.000    0.000    0.000    0.000    0.000    0.000 
#
# Total GULP energy -178145.752645 kJ/mol
# GULP energy per Si atom -5567.054770 kJ/mol
# Density = 1.692301 g / cm^3
# Si number density = 16.961619 Si / 1000 Ang^3
#
#
#
# Elastic Constant Matrix: (Units=GPa)
#
#
# Indices 1 2 3 4 5 6 
#
# 1 110.6348 38.3330 61.3671 0.0000 18.6011 0.0000
# 2 38.3330 75.7127 24.0155 0.0000 9.7057 0.0000
# 3 61.3671 24.0155 71.0564 0.0000 0.5326 0.0000
# 4 0.0000 0.0000 0.0000 14.8897 0.0000 -0.2264
# 5 18.6011 9.7057 0.5326 0.0000 35.8064 0.0000
# 6 0.0000 0.0000 0.0000 -0.2264 0.0000 19.9135
#
#
#
# Elastic Compliance Matrix: (Units=1/GPa)
#
#
# Indices 1 2 3 4 5 6 
#
# 1 0.021768 -0.004271 -0.017282 0.000000 -0.009894 0.000000
# 2 -0.004271 0.016208 -0.001773 0.000000 -0.002148 0.000000
# 3 -0.017282 -0.001773 0.029531 0.000000 0.009019 0.000000
# 4 0.000000 0.000000 0.000000 0.067172 0.000000 0.000764
# 5 -0.009894 -0.002148 0.009019 0.000000 0.033516 0.000000
# 6 0.000000 0.000000 0.000000 0.000764 0.000000 0.050226
#
#
# Mechanical properties :
#
#
# Convention : Reuss Voigt Hill
#
# Bulk Modulus (GPa) = 47.95256 56.09280 52.02268
# Shear Modulus (GPa) = 18.38069 23.03447 20.70758
#
# Velocity S-wave (km/s) = 3.29548 3.68915 3.49786
# Velocity P-wave (km/s) = 6.54315 7.16161 6.85935
#
# Compressibility (1/GPa) = 0.02085395
#
# Stress axis : x y z
#
# Youngs Moduli (GPa) = 45.93879 61.69768 33.86327
#
# Poissons Ratio (x) = 0.26352 0.58523
# Poissons Ratio (y) = 0.19621 0.06005
# Poissons Ratio (z) = 0.79392 0.10940
#
# Static dielectric constant tensor:
#      x y z
#    x 1.582110 0.000000 -0.018190 
#    y 0.000000 1.628650 0.000000 
#    z -0.018190 0.000000 1.592800 
# 
# From -- ./inp_files/59610.got.cif
#   From: 2010.05.17/outbox.cif.g08.bks.cpg/sg11_30_cif.got.tgz:59610.got - 2010.06.03 12:22:45.
