data_PCOD9156300
_publ_section_title
;
Structure prediction by ZEFSAII (Michael W. Deem and Ramdas Pophale) SiO2 
 PCOD9156300
Probable space group: P 21/M
;
_chemical_formula_sum "Si O2"
_cell_formula_units_Z 28
_cell_length_a 30.421898
_cell_length_b 8.738679
_cell_length_c 14.300339
_cell_angle_alpha 90.000000
_cell_angle_beta 28.047378
_cell_angle_gamma 90.000000
_cell_volume 1787.567491
_symmetry_space_group_name_H-M "P 21/M"
_symmetry_group_IT_number 11
_symmetry_cell_setting 'monoclinic'
loop_
_space_group_symop_operation_xyz
x,y,z
-x,1/2+y,-z
-x,-y,-z
x,1/2-y,z
loop_
_atom_site_type_symbol
_atom_site_label
_atom_site_fract_x
_atom_site_fract_y
_atom_site_fract_z
Si Si1 0.325068 0.433935 0.674977
Si Si2 0.277866 0.935222 0.968533
Si Si3 0.076989 0.566745 0.425454
Si Si4 0.174308 0.933151 0.817980
Si Si5 0.476299 0.566049 0.646336
Si Si6 0.099235 0.066695 0.779896
Si Si7 0.970476 0.566071 0.284304
O O1 0.318406 0.250000 0.685584
O O2 0.292059 0.492927 0.839132
O O3 0.258695 0.503965 0.721172
O O4 0.434754 0.480017 0.458144
O O5 0.277423 0.750000 0.958586
O O6 0.367970 0.977685 0.863312
O O7 0.179989 0.981861 0.197458
O O8 0.073033 0.750000 0.429551
O O9 0.056025 0.510902 0.569213
O O10 0.000000 0.500000 0.500000
O O11 0.176545 0.750000 0.809954
O O12 0.172081 0.998724 0.716875
O O13 0.075609 0.977037 0.053386
O O14 0.500000 0.500000 0.500000
O O15 0.478720 0.750000 0.637978
O O16 0.097999 0.250000 0.789869
O O17 0.100290 0.027301 0.667941
O O18 0.000000 0.000000 0.000000
O O19 0.970215 0.750000 0.296173
#
# Coordination Sequence:
#
# PCOD9156300 Si02
#       7
#     4   4   4   4   4   4   4
#     4  10  18  27  44  69  90 113 145 182 223 264
#     4   9  18  32  45  60  87 121 151 181 218 260
#     4  11  22  32  45  64  88 120 154 183 213 250
#     4  10  19  30  45  66  92 120 145 177 221 265
#     4   8  15  28  44  61  84 112 144 180 219 263
#     4   9  17  30  47  66  88 115 146 181 220 263
#     4   9  19  33  46  62  88 119 148 178 215 255
#
# _framework density 15.663745
#
# number of rings (size 3 to 8) (size 9 to 14) (size 15 to 20)
#    0.000    2.571    0.000    3.429    0.000    8.571 
#    0.000    0.000    0.000    0.000    0.000    1.000 
#    0.000    0.000    0.000    0.000    0.000    0.000 
#
# Total GULP energy -155926.573195 kJ/mol
# GULP energy per Si atom -5568.806186 kJ/mol
# Density = 1.562809 g / cm^3
# Si number density = 15.663745 Si / 1000 Ang^3
#
#
#
# Elastic Constant Matrix: (Units=GPa)
#
#
# Indices 1 2 3 4 5 6 
#
# 1 160.5514 44.1486 70.5604 0.0000 -18.5569 0.0000
# 2 44.1486 31.7254 28.9991 0.0000 -4.6756 0.0000
# 3 70.5604 28.9991 93.5779 0.0000 -18.5865 0.0000
# 4 0.0000 0.0000 0.0000 17.3638 0.0000 0.2491
# 5 -18.5569 -4.6756 -18.5865 0.0000 27.5820 0.0000
# 6 0.0000 0.0000 0.0000 0.2491 0.0000 30.1448
#
#
#
# Elastic Compliance Matrix: (Units=1/GPa)
#
#
# Indices 1 2 3 4 5 6 
#
# 1 0.011877 -0.011772 -0.004753 0.000000 0.002792 0.000000
# 2 -0.011772 0.055741 -0.009344 0.000000 -0.004768 0.000000
# 3 -0.004753 -0.009344 0.018722 0.000000 0.007834 0.000000
# 4 0.000000 0.000000 0.000000 0.057598 0.000000 -0.000476
# 5 0.002792 -0.004768 0.007834 0.000000 0.042605 0.000000
# 6 0.000000 0.000000 0.000000 -0.000476 0.000000 0.033177
#
#
# Mechanical properties :
#
#
# Convention : Reuss Voigt Hill
#
# Bulk Modulus (GPa) = 28.90054 63.69678 46.29866
# Shear Modulus (GPa) = 17.66828 24.49456 21.08142
#
# Velocity S-wave (km/s) = 3.36217 3.95875 3.67259
# Velocity P-wave (km/s) = 5.79335 7.85169 6.89971
#
# Compressibility (1/GPa) = 0.03460142
#
# Stress axis : x y z
#
# Youngs Moduli (GPa) = 84.19395 17.94014 53.41314
#
# Poissons Ratio (x) = 0.21119 0.25388
# Poissons Ratio (y) = 0.99114 0.49910
# Poissons Ratio (z) = 0.40018 0.16764
#
# Static dielectric constant tensor:
#      x y z
#    x 1.528620 0.000000 -0.026840 
#    y 0.000000 1.524540 0.000000 
#    z -0.026840 0.000000 1.519840 
# 
# From -- ./inp_files/56401.got.cif
#   From: 2010.05.17/outbox.cif.g08.bks.cpg/sg11_29_cif.got.tgz:56401.got - 2010.06.03 12:22:45.
