data_PCOD9156071
_publ_section_title
;
Structure prediction by ZEFSAII (Michael W. Deem and Ramdas Pophale) SiO2 
 PCOD9156071
Probable space group: P 21/M
;
_chemical_formula_sum "Si O2"
_cell_formula_units_Z 24
_cell_length_a 6.810265
_cell_length_b 11.583187
_cell_length_c 16.096831
_cell_angle_alpha 90.000000
_cell_angle_beta 53.453040
_cell_angle_gamma 90.000000
_cell_volume 1020.111329
_symmetry_space_group_name_H-M "P 21/M"
_symmetry_group_IT_number 11
_symmetry_cell_setting 'monoclinic'
loop_
_space_group_symop_operation_xyz
x,y,z
-x,1/2+y,-z
-x,-y,-z
x,1/2-y,z
loop_
_atom_site_type_symbol
_atom_site_label
_atom_site_fract_x
_atom_site_fract_y
_atom_site_fract_z
Si Si1 0.860146 0.877686 0.027757
Si Si2 0.185022 0.877494 0.639723
Si Si3 0.243184 0.375479 0.388272
Si Si4 0.263533 0.125393 0.131146
Si Si5 0.404713 0.944276 0.228891
Si Si6 0.152319 0.123303 0.607751
O O1 0.987125 0.750000 0.999605
O O2 0.650068 0.875850 0.151007
O O3 0.741941 0.883409 0.965631
O O4 0.000000 0.000000 0.000000
O O5 0.308753 0.750000 0.604278
O O6 0.001930 0.878972 0.606051
O O7 0.013719 0.875601 0.763958
O O8 0.283331 0.008808 0.610858
O O9 0.354235 0.250000 0.343001
O O10 0.408240 0.475855 0.309525
O O11 0.182763 0.383190 0.500162
O O12 0.369287 0.250000 0.127519
O O13 0.392183 0.028357 0.152115
O O14 0.138955 0.883848 0.299283
O O15 0.238509 0.250000 0.614880
#
# Coordination Sequence:
#
# PCOD9156071 Si02
#       6
#     4   4   4   4   4   4
#     4  11  24  39  52  72 103 140 178 216 258 306
#     4   8  13  23  40  63  91 124 156 189 232 286
#     4   8  14  24  42  72 106 131 153 190 251 312
#     4   8  16  32  53  75 100 130 170 215 260 309
#     4  10  17  30  52  78 101 130 168 215 255 297
#     4   9  15  24  41  72 108 131 151 195 252 302
#
# _framework density 23.526844000000001
#
# number of rings (size 3 to 8) (size 9 to 14) (size 15 to 20)
#    0.000    3.333    0.000    4.500    0.000    1.333 
#    0.000    5.000    0.000    0.000    0.000   18.667 
#    0.000   21.333    0.000    0.000    0.000    0.000 
#
# Total GULP energy -133723.204456 kJ/mol
# GULP energy per Si atom -5571.800186 kJ/mol
# Density = 2.347330 g / cm^3
# Si number density = 23.526844 Si / 1000 Ang^3
#
#
#
# Elastic Constant Matrix: (Units=GPa)
#
#
# Indices 1 2 3 4 5 6 
#
# 1 56.2070 26.6513 9.6342 0.0000 -2.0321 0.0000
# 2 26.6513 228.6705 52.4822 0.0000 -3.3511 0.0000
# 3 9.6342 52.4822 99.1348 0.0000 -8.8729 0.0000
# 4 0.0000 0.0000 0.0000 20.1558 0.0000 9.7213
# 5 -2.0321 -3.3511 -8.8729 0.0000 29.9266 0.0000
# 6 0.0000 0.0000 0.0000 9.7213 0.0000 -6.3189
#
#
#
# Elastic Compliance Matrix: (Units=1/GPa)
#
#
# Indices 1 2 3 4 5 6 
#
# 1 0.018904 -0.002034 -0.000684 0.000000 0.000853 0.000000
# 2 -0.002034 0.005198 -0.002583 0.000000 -0.000322 0.000000
# 3 -0.000684 -0.002583 0.011804 0.000000 0.003164 0.000000
# 4 0.000000 0.000000 0.000000 0.028481 0.000000 0.043816
# 5 0.000853 -0.000322 0.003164 0.000000 0.034375 0.000000
# 6 0.000000 0.000000 0.000000 0.043816 0.000000 -0.090846
#
#
# Mechanical properties :
#
#
# Convention : Reuss Voigt Hill
#
# Bulk Modulus (GPa) = 39.51849 62.39419 50.95634
# Shear Modulus (GPa) = 185.51120 28.43568 106.97344
#
# Velocity S-wave (km/s) = 8.88943 3.48033 6.75036
# Velocity P-wave (km/s) = 11.05425 6.53669 9.08088
#
# Compressibility (1/GPa) = 0.02530461
#
# Stress axis : x y z
#
# Youngs Moduli (GPa) = 52.89941 192.37158 84.71357
#
# Poissons Ratio (x) = 0.39123 0.05795
# Poissons Ratio (y) = 0.10758 0.21883
# Poissons Ratio (z) = 0.03619 0.49692
#
# Static dielectric constant tensor:
#      x y z
#    x 1.883870 0.000000 -0.060690 
#    y 0.000000 2.018000 0.000000 
#    z -0.060690 0.000000 1.865250 
# 
# From -- ./inp_files/57705.got.cif
#   From: 2010.05.17/outbox.cif.g08.bks.cpg/sg11_29_cif.got.tgz:57705.got - 2010.06.03 12:22:45.
