data_PCOD9156267
_publ_section_title
;
Structure prediction by ZEFSAII (Michael W. Deem and Ramdas Pophale) SiO2 
 PCOD9156267
Probable space group: P 21/M
;
_chemical_formula_sum "Si O2"
_cell_formula_units_Z 32
_cell_length_a 13.159149
_cell_length_b 7.540737
_cell_length_c 20.142541
_cell_angle_alpha 90.000000
_cell_angle_beta 61.765309
_cell_angle_gamma 90.000000
_cell_volume 1760.922446
_symmetry_space_group_name_H-M "P 21/M"
_symmetry_group_IT_number 11
_symmetry_cell_setting 'monoclinic'
loop_
_space_group_symop_operation_xyz
x,y,z
-x,1/2+y,-z
-x,-y,-z
x,1/2-y,z
loop_
_atom_site_type_symbol
_atom_site_label
_atom_site_fract_x
_atom_site_fract_y
_atom_site_fract_z
Si Si1 0.332760 0.458755 0.413499
Si Si2 0.269222 0.964771 0.584012
Si Si3 0.102399 0.463065 0.416455
Si Si4 0.789675 0.962107 0.169889
Si Si5 0.873911 0.962318 0.008337
Si Si6 0.004255 0.532533 0.688126
Si Si7 0.961245 0.957910 0.846431
Si Si8 0.411747 0.538199 0.666381
O O1 0.336802 0.250000 0.395814
O O2 0.307256 0.476050 0.499595
O O3 0.223391 0.533780 0.407360
O O4 0.460108 0.533786 0.361079
O O5 0.270074 0.750000 0.584090
O O6 0.353444 0.029204 0.616362
O O7 0.137962 0.020929 0.639161
O O8 0.111031 0.250000 0.409671
O O9 0.065554 0.526804 0.355010
O O10 0.000000 0.500000 0.500000
O O11 0.801247 0.750000 0.165053
O O12 0.790146 0.026482 0.093038
O O13 0.677454 0.008001 0.246546
O O14 0.905274 0.030537 0.170681
O O15 0.859134 0.750000 0.007703
O O16 0.882890 0.033733 0.930473
O O17 0.000000 0.000000 0.000000
O O18 0.003830 0.750000 0.689150
O O19 0.956076 0.468885 0.773734
O O20 0.932701 0.750000 0.850368
O O21 0.422702 0.750000 0.654357
#
# Coordination Sequence:
#
# PCOD9156267 Si02
#       8
#     4   4   4   4   4   4   4   4
#     4  10  21  33  46  64  86 113 148 186 218 252
#     4  10  18  30  47  64  86 115 147 178 212 258
#     4  10  19  32  47  64  85 110 143 183 220 253
#     4  10  18  27  41  66  93 115 142 178 215 253
#     4   8  15  25  40  62  88 115 142 171 208 256
#     4   9  16  27  46  67  85 112 146 176 209 255
#     4   9  15  28  46  63  88 120 146 171 211 261
#     4  10  20  33  45  61  87 120 151 175 210 261
#
# _framework density 18.172294999999998
#
# number of rings (size 3 to 8) (size 9 to 14) (size 15 to 20)
#    0.000    2.500    2.500    0.750    0.000    1.500 
#    0.000    0.625    0.000    0.000    0.000    0.875 
#    0.000    0.000    0.000    0.000    0.000    0.000 
#
# Total GULP energy -178400.331078 kJ/mol
# GULP energy per Si atom -5575.010346 kJ/mol
# Density = 1.813093 g / cm^3
# Si number density = 18.172295 Si / 1000 Ang^3
#
#
#
# Elastic Constant Matrix: (Units=GPa)
#
#
# Indices 1 2 3 4 5 6 
#
# 1 124.6183 5.2502 79.8954 0.0000 8.7307 0.0000
# 2 5.2502 44.8981 -10.8619 0.0000 1.8304 0.0000
# 3 79.8954 -10.8619 128.9858 0.0000 33.1041 0.0000
# 4 0.0000 0.0000 0.0000 7.2908 0.0000 -3.8835
# 5 8.7307 1.8304 33.1041 0.0000 19.5591 0.0000
# 6 0.0000 0.0000 0.0000 -3.8835 0.0000 1.3113
#
#
#
# Elastic Compliance Matrix: (Units=1/GPa)
#
#
# Indices 1 2 3 4 5 6 
#
# 1 0.017917 -0.007197 -0.017369 0.000000 0.022074 0.000000
# 2 -0.007197 0.026669 0.011527 0.000000 -0.018793 0.000000
# 3 -0.017369 0.011527 0.031416 0.000000 -0.046497 0.000000
# 4 0.000000 0.000000 0.000000 -0.237508 0.000000 -0.703397
# 5 0.022074 -0.018793 -0.046497 0.000000 0.121730 0.000000
# 6 0.000000 0.000000 0.000000 -0.703397 0.000000 -1.320551
#
#
# Mechanical properties :
#
#
# Convention : Reuss Voigt Hill
#
# Bulk Modulus (GPa) = 20.03101 49.67441 34.85271
# Shear Modulus (GPa) = -3.79476 20.58012 8.39268
#
# Velocity S-wave (km/s) = -1.44663 3.36891 2.15138
# Velocity P-wave (km/s) = 2.87340 6.52130 5.03904
#
# Compressibility (1/GPa) = 0.04992259
#
# Stress axis : x y z
#
# Youngs Moduli (GPa) = 55.81255 37.49678 31.83117
#
# Poissons Ratio (x) = 0.26987 0.55289
# Poissons Ratio (y) = 0.40169 -0.36691
# Poissons Ratio (z) = 0.96943 -0.43222
#
# Static dielectric constant tensor:
#      x y z
#    x 1.611200 0.000000 0.014420 
#    y 0.000000 1.638590 0.000000 
#    z 0.014420 0.000000 1.652080 
# 
# From -- ./inp_files/42485.got.cif
#   From: 2010.05.17/outbox.cif.g08.bks.cpg/sg11_22_cif.got.tgz:42485.got - 2010.06.03 12:22:45.
