data_PCOD9156563
_publ_section_title
;
Structure prediction by ZEFSAII (Michael W. Deem and Ramdas Pophale) SiO2 
 PCOD9156563
Probable space group: P 21/M
;
_chemical_formula_sum "Si O2"
_cell_formula_units_Z 28
_cell_length_a 12.263428
_cell_length_b 7.639558
_cell_length_c 16.703628
_cell_angle_alpha 90.000000
_cell_angle_beta 52.454772
_cell_angle_gamma 90.000000
_cell_volume 1240.778645
_symmetry_space_group_name_H-M "P 21/M"
_symmetry_group_IT_number 11
_symmetry_cell_setting 'monoclinic'
loop_
_space_group_symop_operation_xyz
x,y,z
-x,1/2+y,-z
-x,-y,-z
x,1/2-y,z
loop_
_atom_site_type_symbol
_atom_site_label
_atom_site_fract_x
_atom_site_fract_y
_atom_site_fract_z
Si Si1 0.997404 0.950815 0.189023
Si Si2 0.276325 0.034294 0.753690
Si Si3 0.156269 0.960045 0.410405
Si Si4 0.190662 0.455448 0.970282
Si Si5 0.765832 0.038110 0.802995
Si Si6 0.514379 0.044990 0.131187
Si Si7 0.569125 0.049575 0.653108
O O1 0.980719 0.750000 0.222900
O O2 0.116802 0.031349 0.190216
O O3 0.844165 0.025887 0.251675
O O4 0.064855 0.952972 0.070510
O O5 0.278563 0.250000 0.752470
O O6 0.227844 0.981711 0.864663
O O7 0.433222 0.972733 0.672025
O O8 0.171379 0.750000 0.403713
O O9 0.188384 0.019764 0.306189
O O10 0.277602 0.029475 0.414433
O O11 0.000000 0.000000 0.500000
O O12 0.160905 0.250000 0.980491
O O13 0.331726 0.484918 0.956994
O O14 0.766137 0.250000 0.808524
O O15 0.606262 0.985940 0.878472
O O16 0.520208 0.250000 0.145904
O O17 0.471493 0.950705 0.233735
O O18 0.579571 0.250000 0.620440
#
# Coordination Sequence:
#
# PCOD9156563 Si02
#       7
#     4   4   4   4   4   4   4
#     4  10  19  31  48  68  90 121 161 197 227 268
#     4   8  15  29  49  69  90 121 159 193 225 265
#     4   9  17  30  50  73  94 117 145 182 229 278
#     4  10  19  31  46  66  95 126 157 196 236 268
#     4   9  19  34  48  66  95 124 149 185 236 283
#     4  10  18  29  47  68  90 120 160 198 229 270
#     4   8  15  30  49  70  96 121 147 185 233 274
#
# _framework density 22.566476999999999
#
# number of rings (size 3 to 8) (size 9 to 14) (size 15 to 20)
#    0.000    2.857    0.000    3.857    0.000    3.429 
#    0.000    2.857    0.000    0.857    0.000    0.000 
#    0.000    0.000    0.000    0.000    0.000    1.429 
#
# Total GULP energy -156113.235243 kJ/mol
# GULP energy per Si atom -5575.472687 kJ/mol
# Density = 2.251511 g / cm^3
# Si number density = 22.566477 Si / 1000 Ang^3
#
#
#
# Elastic Constant Matrix: (Units=GPa)
#
#
# Indices 1 2 3 4 5 6 
#
# 1 166.8787 2.1965 33.8938 0.0000 -62.0167 0.0000
# 2 2.1965 58.6760 -7.4381 0.0000 1.6119 0.0000
# 3 33.8938 -7.4381 52.8833 0.0000 -42.2999 0.0000
# 4 0.0000 0.0000 0.0000 14.5426 0.0000 -7.1127
# 5 -62.0167 1.6119 -42.2999 0.0000 44.5710 0.0000
# 6 0.0000 0.0000 0.0000 -7.1127 0.0000 5.6964
#
#
#
# Elastic Compliance Matrix: (Units=1/GPa)
#
#
# Indices 1 2 3 4 5 6 
#
# 1 0.032512 0.004154 0.065637 0.000000 0.107379 0.000000
# 2 0.004154 0.018427 0.016686 0.000000 0.020949 0.000000
# 3 0.065637 0.016686 0.214863 0.000000 0.294639 0.000000
# 4 0.000000 0.000000 0.000000 0.176633 0.000000 0.220549
# 5 0.107379 0.020949 0.294639 0.000000 0.450712 0.000000
# 6 0.000000 0.000000 0.000000 0.220549 0.000000 0.450931
#
#
# Mechanical properties :
#
#
# Convention : Reuss Voigt Hill
#
# Bulk Modulus (GPa) = 2.27918 37.30469 19.79194
# Shear Modulus (GPa) = 3.79542 29.61440 16.70491
#
# Velocity S-wave (km/s) = 1.29828 3.62652 2.72371
# Velocity P-wave (km/s) = 1.80543 5.83973 4.32215
#
# Compressibility (1/GPa) = 0.43875418
#
# Stress axis : x y z
#
# Youngs Moduli (GPa) = 30.75827 54.26816 4.65414
#
# Poissons Ratio (x) = -0.22541 -0.30548
# Poissons Ratio (y) = -0.12776 -0.07766
# Poissons Ratio (z) = -2.01887 -0.90553
#
# Static dielectric constant tensor:
#      x y z
#    x 1.940150 0.000000 -0.028550 
#    y 0.000000 1.829580 0.000000 
#    z -0.028550 0.000000 1.820810 
# 
# From -- ./inp_files/42350.got.cif
#   From: 2010.05.17/outbox.cif.g08.bks.cpg/sg11_22_cif.got.tgz:42350.got - 2010.06.03 12:22:45.
