data_PCOD9156500
_publ_section_title
;
Structure prediction by ZEFSAII (Michael W. Deem and Ramdas Pophale) SiO2 
 PCOD9156500
Probable space group: P 21/M
;
_chemical_formula_sum "Si O2"
_cell_formula_units_Z 28
_cell_length_a 17.635127
_cell_length_b 8.913308
_cell_length_c 14.670416
_cell_angle_alpha 90.000000
_cell_angle_beta 129.269688
_cell_angle_gamma 90.000000
_cell_volume 1785.250579
_symmetry_space_group_name_H-M "P 21/M"
_symmetry_group_IT_number 11
_symmetry_cell_setting 'monoclinic'
loop_
_space_group_symop_operation_xyz
x,y,z
-x,1/2+y,-z
-x,-y,-z
x,1/2-y,z
loop_
_atom_site_type_symbol
_atom_site_label
_atom_site_fract_x
_atom_site_fract_y
_atom_site_fract_z
Si Si1 0.737178 0.429562 0.952635
Si Si2 0.106819 0.928990 0.079372
Si Si3 0.380589 0.069416 0.589838
Si Si4 0.417065 0.073999 0.301108
Si Si5 0.583540 0.070867 0.187788
Si Si6 0.254944 0.074586 0.330725
Si Si7 0.639826 0.928839 0.043439
O O1 0.733133 0.250000 0.957513
O O2 0.833122 0.471718 0.966863
O O3 0.647245 0.488638 0.823008
O O4 0.721594 0.504865 0.038547
O O5 0.100012 0.750000 0.075963
O O6 0.172129 0.983661 0.214532
O O7 0.000000 0.000000 0.000000
O O8 0.387649 0.250000 0.596222
O O9 0.287089 0.028038 0.456445
O O10 0.477248 0.000590 0.616398
O O11 0.381204 0.005425 0.692344
O O12 0.426207 0.250000 0.283632
O O13 0.353631 0.063490 0.344679
O O14 0.594900 0.250000 0.201613
O O15 0.637957 0.005062 0.140865
O O16 0.467682 0.039149 0.082547
O O17 0.226324 0.250000 0.309605
O O18 0.648888 0.750000 0.058409
#
# Coordination Sequence:
#
# PCOD9156500 Si02
#       7
#     4   4   4   4   4   4   4
#     4  10  19  31  49  72  98 128 163 201 244 291
#     4  10  21  36  55  77  99 126 159 202 250 294
#     4  11  20  30  45  67  97 133 167 201 240 282
#     4  10  18  29  44  65  95 131 167 200 235 280
#     4  10  20  31  45  66  96 133 170 206 241 280
#     4   9  20  34  48  68  96 129 164 201 241 289
#     4  10  19  31  47  68  95 130 168 205 245 283
#
# _framework density 15.684072
#
# number of rings (size 3 to 8) (size 9 to 14) (size 15 to 20)
#    0.000    2.000    1.429    3.000    0.000    4.571 
#    0.000    0.000    0.000    0.000    0.000    1.000 
#    0.000    0.000    0.000    0.000    0.000    0.000 
#
# Total GULP energy -156208.795188 kJ/mol
# GULP energy per Si atom -5578.885542 kJ/mol
# Density = 1.564837 g / cm^3
# Si number density = 15.684072 Si / 1000 Ang^3
#
#
#
# Elastic Constant Matrix: (Units=GPa)
#
#
# Indices 1 2 3 4 5 6 
#
# 1 75.7090 42.8993 56.7194 0.0000 4.5759 0.0000
# 2 42.8993 57.7434 39.9166 0.0000 1.2752 0.0000
# 3 56.7194 39.9166 83.0624 0.0000 -1.1674 0.0000
# 4 0.0000 0.0000 0.0000 23.0118 0.0000 -1.7453
# 5 4.5759 1.2752 -1.1674 0.0000 18.9853 0.0000
# 6 0.0000 0.0000 0.0000 -1.7453 0.0000 27.1465
#
#
#
# Elastic Compliance Matrix: (Units=1/GPa)
#
#
# Indices 1 2 3 4 5 6 
#
# 1 0.033900 -0.013356 -0.016847 0.000000 -0.008310 0.000000
# 2 -0.013356 0.031315 -0.005918 0.000000 0.000752 0.000000
# 3 -0.016847 -0.005918 0.026473 0.000000 0.006086 0.000000
# 4 0.000000 0.000000 0.000000 0.043669 0.000000 0.002807
# 5 -0.008310 0.000752 0.006086 0.000000 0.054999 0.000000
# 6 0.000000 0.000000 0.000000 0.002807 0.000000 0.037018
#
#
# Mechanical properties :
#
#
# Convention : Reuss Voigt Hill
#
# Bulk Modulus (GPa) = 51.42582 55.06505 53.24543
# Shear Modulus (GPa) = 16.33465 18.96067 17.64766
#
# Velocity S-wave (km/s) = 3.23070 3.48071 3.35803
# Velocity P-wave (km/s) = 6.83932 7.16512 7.00411
#
# Compressibility (1/GPa) = 0.01944549
#
# Stress axis : x y z
#
# Youngs Moduli (GPa) = 29.49844 31.93370 37.77443
#
# Poissons Ratio (x) = 0.42650 0.63640
# Poissons Ratio (y) = 0.39397 0.22355
# Poissons Ratio (z) = 0.49697 0.18899
#
# Static dielectric constant tensor:
#      x y z
#    x 1.532780 0.000000 -0.023950 
#    y 0.000000 1.522160 0.000000 
#    z -0.023950 0.000000 1.507310 
# 
# From -- ./inp_files/42613.got.cif
#   From: 2010.05.17/outbox.cif.g08.bks.cpg/sg11_22_cif.got.tgz:42613.got - 2010.06.03 12:22:45.
