data_PCOD9156416
_publ_section_title
;
Structure prediction by ZEFSAII (Michael W. Deem and Ramdas Pophale) SiO2 
 PCOD9156416
Probable space group: P 21/M
;
_chemical_formula_sum "Si O2"
_cell_formula_units_Z 24
_cell_length_a 12.440553
_cell_length_b 8.981370
_cell_length_c 22.034897
_cell_angle_alpha 90.000000
_cell_angle_beta 38.152018
_cell_angle_gamma 90.000000
_cell_volume 1520.919052
_symmetry_space_group_name_H-M "P 21/M"
_symmetry_group_IT_number 11
_symmetry_cell_setting 'monoclinic'
loop_
_space_group_symop_operation_xyz
x,y,z
-x,1/2+y,-z
-x,-y,-z
x,1/2-y,z
loop_
_atom_site_type_symbol
_atom_site_label
_atom_site_fract_x
_atom_site_fract_y
_atom_site_fract_z
Si Si1 0.915294 0.427649 0.336703
Si Si2 0.976230 0.428157 0.945053
Si Si3 0.419610 0.071724 0.474890
Si Si4 0.774217 0.427267 0.263048
Si Si5 0.721160 0.072725 0.841274
Si Si6 0.361438 0.571949 0.981274
O O1 0.912819 0.250000 0.344718
O O2 0.771398 0.501864 0.444237
O O3 0.856179 0.461129 0.293154
O O4 0.106847 0.493414 0.259668
O O5 0.981988 0.250000 0.946685
O O6 0.124227 0.484532 0.833294
O O7 0.000000 0.500000 0.000000
O O8 0.790359 0.470013 0.997797
O O9 0.408802 0.250000 0.486519
O O10 0.567602 0.040115 0.359076
O O11 0.500000 0.000000 0.500000
O O12 0.795065 0.250000 0.244077
O O13 0.734916 0.250000 0.828359
O O14 0.543014 0.011871 0.891653
O O15 0.704246 0.038935 0.921036
O O16 0.390224 0.750000 0.965256
#
# Coordination Sequence:
#
# PCOD9156416 Si02
#       6
#     4   4   4   4   4   4
#     4  10  18  28  45  70  99 130 159 193 238 290
#     4  11  22  35  51  70  95 128 166 204 240 283
#     4   9  17  28  43  66  95 126 159 195 237 288
#     4   9  18  31  46  66  94 127 161 199 239 280
#     4  10  18  29  48  71  96 127 160 196 240 290
#     4   9  19  33  46  67  95 126 161 198 242 286
#
# _framework density 15.779933
#
# number of rings (size 3 to 8) (size 9 to 14) (size 15 to 20)
#    0.000    2.333    1.667    3.000    0.000    5.333 
#    0.000    0.000    0.000    0.000    0.000    1.167 
#    0.000    0.000    0.000    0.000    0.000    0.000 
#
# Total GULP energy -133788.159958 kJ/mol
# GULP energy per Si atom -5574.506665 kJ/mol
# Density = 1.574402 g / cm^3
# Si number density = 15.779933 Si / 1000 Ang^3
#
#
#
# Elastic Constant Matrix: (Units=GPa)
#
#
# Indices 1 2 3 4 5 6 
#
# 1 82.3912 44.3572 65.2391 0.0000 -15.2877 0.0000
# 2 44.3572 57.8383 65.4901 0.0000 -15.2119 0.0000
# 3 65.2391 65.4901 126.8370 0.0000 -36.3472 0.0000
# 4 0.0000 0.0000 0.0000 32.2841 0.0000 -5.8856
# 5 -15.2877 -15.2119 -36.3472 0.0000 27.2294 0.0000
# 6 0.0000 0.0000 0.0000 -5.8856 0.0000 21.3299
#
#
#
# Elastic Compliance Matrix: (Units=1/GPa)
#
#
# Indices 1 2 3 4 5 6 
#
# 1 0.022785 -0.009743 -0.007422 0.000000 -0.002557 0.000000
# 2 -0.009743 0.047137 -0.021617 0.000000 -0.007993 0.000000
# 3 -0.007422 -0.021617 0.029488 0.000000 0.023119 0.000000
# 4 0.000000 0.000000 0.000000 0.032616 0.000000 0.009000
# 5 -0.002557 -0.007993 0.023119 0.000000 0.061684 0.000000
# 6 0.000000 0.000000 0.000000 0.009000 0.000000 0.049366
#
#
# Mechanical properties :
#
#
# Convention : Reuss Voigt Hill
#
# Bulk Modulus (GPa) = 45.77560 68.58216 57.17888
# Shear Modulus (GPa) = 15.24755 22.30069 18.77412
#
# Velocity S-wave (km/s) = 3.11185 3.76337 3.45301
# Velocity P-wave (km/s) = 6.47944 7.90190 7.22576
#
# Compressibility (1/GPa) = 0.02184570
#
# Stress axis : x y z
#
# Youngs Moduli (GPa) = 43.88903 21.21481 33.91183
#
# Poissons Ratio (x) = 0.20670 0.25168
# Poissons Ratio (y) = 0.42762 0.73308
# Poissons Ratio (z) = 0.32572 0.45861
#
# Static dielectric constant tensor:
#      x y z
#    x 1.507890 0.000000 -0.025340 
#    y 0.000000 1.504240 0.000000 
#    z -0.025340 0.000000 1.536140 
# 
# From -- ./inp_files/36978.got.cif
#   From: 2010.05.17/outbox.cif.g08.bks.cpg/sg11_19_cif.got.tgz:36978.got - 2010.06.03 12:22:45.
