data_PCOD9156502
_publ_section_title
;
Structure prediction by ZEFSAII (Michael W. Deem and Ramdas Pophale) SiO2 
 PCOD9156502
Probable space group: P 21/M
;
_chemical_formula_sum "Si O2"
_cell_formula_units_Z 32
_cell_length_a 26.673069
_cell_length_b 12.884260
_cell_length_c 13.336406
_cell_angle_alpha 90.000000
_cell_angle_beta 26.575342
_cell_angle_gamma 90.000000
_cell_volume 2050.417245
_symmetry_space_group_name_H-M "P 21/M"
_symmetry_group_IT_number 11
_symmetry_cell_setting 'monoclinic'
loop_
_space_group_symop_operation_xyz
x,y,z
-x,1/2+y,-z
-x,-y,-z
x,1/2-y,z
loop_
_atom_site_type_symbol
_atom_site_label
_atom_site_fract_x
_atom_site_fract_y
_atom_site_fract_z
Si Si1 0.585488 0.128636 0.164425
Si Si2 0.726750 0.993402 0.061493
Si Si3 0.092646 0.456873 0.410038
Si Si4 0.795135 0.130215 0.654604
Si Si5 0.894816 0.128163 0.260174
Si Si6 0.671271 0.626668 0.362448
Si Si7 0.096613 0.868102 0.133485
Si Si8 0.874317 0.515648 0.107685
O O1 0.593979 0.250000 0.180542
O O2 0.632664 0.054519 0.167389
O O3 0.455862 0.107001 0.374686
O O4 0.668344 0.116349 0.921114
O O5 0.684457 0.923929 0.228623
O O6 0.811094 0.078841 0.959006
O O7 0.800978 0.928405 0.848588
O O8 0.131648 0.550235 0.412310
O O9 0.000000 0.500000 0.500000
O O10 0.025034 0.374378 0.596354
O O11 0.827220 0.250000 0.619754
O O12 0.818907 0.113677 0.495074
O O13 0.892235 0.250000 0.237352
O O14 0.857611 0.053226 0.236838
O O15 0.021703 0.093483 0.060653
O O16 0.689267 0.750000 0.324843
O O17 0.764027 0.575719 0.268340
O O18 0.127079 0.750000 0.057907
O O19 0.093382 0.937398 0.039776
#
# Coordination Sequence:
#
# PCOD9156502 Si02
#       8
#     4   4   4   4   4   4   4   4
#     4   9  17  31  51  73  98 129 165 198 234 280
#     4   9  18  30  47  69  98 128 168 198 232 276
#     4   9  17  28  41  68  97 126 157 195 231 279
#     4   9  17  31  51  72  94 124 161 198 235 282
#     4  10  19  33  54  73  94 123 158 200 245 293
#     4  10  20  33  49  71  98 130 164 200 240 284
#     4  10  18  29  44  67 100 131 158 193 239 286
#     4  10  20  33  48  73 100 121 158 198 248 291
#
# _framework density 15.606579999999999
#
# number of rings (size 3 to 8) (size 9 to 14) (size 15 to 20)
#    0.000    2.500    1.250    1.500    0.000    3.500 
#    0.000    0.625    0.000    0.750    0.000    0.000 
#    0.000    0.000    0.000    0.000    0.000    0.000 
#
# Total GULP energy -178240.868554 kJ/mol
# GULP energy per Si atom -5570.027142 kJ/mol
# Density = 1.557106 g / cm^3
# Si number density = 15.606580 Si / 1000 Ang^3
#
#
#
# Elastic Constant Matrix: (Units=GPa)
#
#
# Indices 1 2 3 4 5 6 
#
# 1 83.7376 40.1055 56.6319 0.0000 -0.8917 0.0000
# 2 40.1055 76.0258 54.3788 0.0000 -1.7325 0.0000
# 3 56.6319 54.3788 97.2422 0.0000 -4.0346 0.0000
# 4 0.0000 0.0000 0.0000 23.2292 0.0000 -0.2234
# 5 -0.8917 -1.7325 -4.0346 0.0000 18.9652 0.0000
# 6 0.0000 0.0000 0.0000 -0.2234 0.0000 16.1980
#
#
#
# Elastic Compliance Matrix: (Units=1/GPa)
#
#
# Indices 1 2 3 4 5 6 
#
# 1 0.020368 -0.003750 -0.009826 0.000000 -0.001475 0.000000
# 2 -0.003750 0.022619 -0.010479 0.000000 -0.000339 0.000000
# 3 -0.009826 -0.010479 0.022001 0.000000 0.003261 0.000000
# 4 0.000000 0.000000 0.000000 0.043055 0.000000 0.000594
# 5 -0.001475 -0.000339 0.003261 0.000000 0.053322 0.000000
# 6 0.000000 0.000000 0.000000 0.000594 0.000000 0.061744
#
#
# Mechanical properties :
#
#
# Convention : Reuss Voigt Hill
#
# Bulk Modulus (GPa) = 59.24747 62.13755 60.69251
# Shear Modulus (GPa) = 18.06065 18.73777 18.39921
#
# Velocity S-wave (km/s) = 3.40552 3.46877 3.43729
# Velocity P-wave (km/s) = 7.31498 7.47961 7.39776
#
# Compressibility (1/GPa) = 0.01687836
#
# Stress axis : x y z
#
# Youngs Moduli (GPa) = 49.09754 44.21014 45.45179
#
# Poissons Ratio (x) = 0.16578 0.44661
# Poissons Ratio (y) = 0.18411 0.47629
# Poissons Ratio (z) = 0.48243 0.46328
#
# Static dielectric constant tensor:
#      x y z
#    x 1.497540 0.000000 0.012500 
#    y 0.000000 1.500810 0.000000 
#    z 0.012500 0.000000 1.538200 
# 
# From -- ./inp_files/35469.got.cif
#   From: 2010.05.17/outbox.cif.g08.bks.cpg/sg11_18_cif.got.tgz:35469.got - 2010.06.03 12:22:45.
