data_PCOD9156243
_publ_section_title
;
Structure prediction by ZEFSAII (Michael W. Deem and Ramdas Pophale) SiO2 
 PCOD9156243
Probable space group: P 21/M
;
_chemical_formula_sum "Si O2"
_cell_formula_units_Z 32
_cell_length_a 13.738872
_cell_length_b 9.241724
_cell_length_c 18.853000
_cell_angle_alpha 90.000000
_cell_angle_beta 110.319593
_cell_angle_gamma 90.000000
_cell_volume 2244.817224
_symmetry_space_group_name_H-M "P 21/M"
_symmetry_group_IT_number 11
_symmetry_cell_setting 'monoclinic'
loop_
_space_group_symop_operation_xyz
x,y,z
-x,1/2+y,-z
-x,-y,-z
x,1/2-y,z
loop_
_atom_site_type_symbol
_atom_site_label
_atom_site_fract_x
_atom_site_fract_y
_atom_site_fract_z
Si Si1 0.155220 0.583710 0.568630
Si Si2 0.222980 0.576220 0.735111
Si Si3 0.000141 0.078719 0.891989
Si Si4 0.923764 0.583717 0.579706
Si Si5 0.165487 0.578250 0.029486
Si Si6 0.986631 0.577518 0.268849
Si Si7 0.636109 0.921889 0.968881
Si Si8 0.603305 0.421632 0.107828
O O1 0.177396 0.750000 0.554983
O O2 0.227249 0.537672 0.652762
O O3 0.150949 0.485716 0.498087
O O4 0.039272 0.580702 0.573649
O O5 0.202394 0.750000 0.732590
O O6 0.325497 0.546686 0.806413
O O7 0.125843 0.492924 0.744575
O O8 0.025304 0.250000 0.905669
O O9 0.899264 0.050733 0.914885
O O10 0.984268 0.048173 0.805262
O O11 0.093778 0.986433 0.948640
O O12 0.898141 0.750000 0.587749
O O13 0.935585 0.492546 0.654432
O O14 0.177581 0.750000 0.023645
O O15 0.275540 0.499743 0.053980
O O16 0.981438 0.750000 0.278345
O O17 0.653201 0.750000 0.974949
O O18 0.518890 0.949821 0.912280
O O19 0.639836 0.987093 0.049260
O O20 0.614251 0.250000 0.094176
#
# Coordination Sequence:
#
# PCOD9156243 Si02
#       8
#     4   4   4   4   4   4   4   4
#     4   8  14  24  37  53  75 103 133 163 194 231
#     4   9  17  28  41  58  80 107 138 168 199 236
#     4   9  19  32  44  61  82 106 139 174 205 241
#     4   9  16  25  37  54  77 105 135 162 192 235
#     4  10  19  31  46  61  81 109 138 170 208 246
#     4  10  18  27  40  58  81 107 135 168 202 235
#     4  10  19  30  44  62  84 109 138 171 206 244
#     4   9  18  31  45  61  82 109 140 172 204 240
#
# _framework density 14.255058
#
# number of rings (size 3 to 8) (size 9 to 14) (size 15 to 20)
#    0.000    2.750    0.000    3.000    0.000    7.500 
#    0.000    0.000    0.000    0.000    0.000    0.000 
#    0.000    1.000    0.000    2.000    0.000    3.000 
#
# Total GULP energy -178277.398463 kJ/mol
# GULP energy per Si atom -5571.168702 kJ/mol
# Density = 1.422261 g / cm^3
# Si number density = 14.255058 Si / 1000 Ang^3
#
#
#
# Elastic Constant Matrix: (Units=GPa)
#
#
# Indices 1 2 3 4 5 6 
#
# 1 52.7781 37.9320 40.2805 0.0000 2.4684 0.0000
# 2 37.9320 64.2333 61.5773 0.0000 -1.0069 0.0000
# 3 40.2805 61.5773 136.1415 0.0000 7.4347 0.0000
# 4 0.0000 0.0000 0.0000 23.0217 0.0000 -0.0015
# 5 2.4684 -1.0069 7.4347 0.0000 16.1510 0.0000
# 6 0.0000 0.0000 0.0000 -0.0015 0.0000 19.4764
#
#
#
# Elastic Compliance Matrix: (Units=1/GPa)
#
#
# Indices 1 2 3 4 5 6 
#
# 1 0.033645 -0.018930 -0.001074 0.000000 -0.005828 0.000000
# 2 -0.018930 0.039085 -0.012687 0.000000 0.011170 0.000000
# 3 -0.001074 -0.012687 0.013782 0.000000 -0.006971 0.000000
# 4 0.000000 0.000000 0.000000 0.043437 0.000000 0.000003
# 5 -0.005828 0.011170 -0.006971 0.000000 0.066712 0.000000
# 6 0.000000 0.000000 0.000000 0.000003 0.000000 0.051344
#
#
# Mechanical properties :
#
#
# Convention : Reuss Voigt Hill
#
# Bulk Modulus (GPa) = 47.32847 59.19249 53.26048
# Shear Modulus (GPa) = 15.60395 19.28735 17.44565
#
# Velocity S-wave (km/s) = 3.31210 3.68233 3.50211
# Velocity P-wave (km/s) = 6.92098 7.72615 7.33462
#
# Compressibility (1/GPa) = 0.02112893
#
# Stress axis : x y z
#
# Youngs Moduli (GPa) = 29.72233 25.58530 72.55634
#
# Poissons Ratio (x) = 0.48433 0.07794
# Poissons Ratio (y) = 0.56264 0.92055
# Poissons Ratio (z) = 0.03193 0.32461
#
# Static dielectric constant tensor:
#      x y z
#    x 1.448650 0.000000 0.006520 
#    y 0.000000 1.477880 0.000000 
#    z 0.006520 0.000000 1.476640 
# 
# From -- ./inp_files/59889.got.cif
#   From: 2010.05.17/outbox.cif.g08.bks.cpg/sg11_30_cif.got.tgz:59889.got - 2010.06.03 12:22:45.
