data_PCOD9156698
_publ_section_title
;
Structure prediction by ZEFSAII (Michael W. Deem and Ramdas Pophale) SiO2 
 PCOD9156698
Probable space group: P 21/M
;
_chemical_formula_sum "Si O2"
_cell_formula_units_Z 32
_cell_length_a 18.346542
_cell_length_b 8.565971
_cell_length_c 24.729243
_cell_angle_alpha 90.000000
_cell_angle_beta 30.418044
_cell_angle_gamma 90.000000
_cell_volume 1967.678650
_symmetry_space_group_name_H-M "P 21/M"
_symmetry_group_IT_number 11
_symmetry_cell_setting 'monoclinic'
loop_
_space_group_symop_operation_xyz
x,y,z
-x,1/2+y,-z
-x,-y,-z
x,1/2-y,z
loop_
_atom_site_type_symbol
_atom_site_label
_atom_site_fract_x
_atom_site_fract_y
_atom_site_fract_z
Si Si1 0.056399 0.937113 0.521288
Si Si2 0.458609 0.438707 0.134077
Si Si3 0.117155 0.437909 0.882509
Si Si4 0.103898 0.937422 0.060340
Si Si5 0.223622 0.436920 0.092866
Si Si6 0.340071 0.062391 0.823734
Si Si7 0.183858 0.440175 0.240037
Si Si8 0.627788 0.936618 0.687982
O O1 0.051459 0.750000 0.522706
O O2 0.948163 0.991120 0.637787
O O3 0.219150 0.992280 0.425593
O O4 0.000000 0.000000 0.500000
O O5 0.471914 0.250000 0.123934
O O6 0.333880 0.487294 0.172229
O O7 0.409932 0.482036 0.225885
O O8 0.611787 0.511782 0.022315
O O9 0.116482 0.250000 0.883951
O O10 0.268743 0.486626 0.811872
O O11 0.049517 0.484957 0.868208
O O12 0.000000 0.500000 0.000000
O O13 0.115860 0.750000 0.051089
O O14 0.129610 0.995187 0.104244
O O15 0.230642 0.005150 0.940840
O O16 0.215752 0.250000 0.096071
O O17 0.177217 0.491500 0.182244
O O18 0.346947 0.250000 0.821617
O O19 0.495889 0.992964 0.735694
O O20 0.183510 0.250000 0.240282
O O21 0.637877 0.750000 0.680125
#
# Coordination Sequence:
#
# PCOD9156698 Si02
#       8
#     4   4   4   4   4   4   4   4
#     4  11  21  37  56  73  96 128 168 211 254 294
#     4  10  19  34  51  68  98 133 162 199 248 292
#     4   8  16  28  44  66  95 129 162 194 235 290
#     4  10  18  30  46  68 101 135 160 195 246 290
#     4  11  21  32  49  73  99 130 170 204 237 290
#     4  10  18  30  48  72  98 128 167 202 237 291
#     4   9  20  37  52  68  95 130 166 209 249 284
#     4  11  21  33  51  75 102 131 164 204 252 294
#
# _framework density 16.262817999999999
#
# number of rings (size 3 to 8) (size 9 to 14) (size 15 to 20)
#    0.000    2.000    2.500    2.250    0.000    1.500 
#    0.000    3.125    0.000    0.000    0.000    0.875 
#    0.000    0.000    0.000    0.000    0.000    0.000 
#
# Total GULP energy -178462.322735 kJ/mol
# GULP energy per Si atom -5576.947585 kJ/mol
# Density = 1.622580 g / cm^3
# Si number density = 16.262818 Si / 1000 Ang^3
#
#
#
# Elastic Constant Matrix: (Units=GPa)
#
#
# Indices 1 2 3 4 5 6 
#
# 1 173.9737 26.9589 72.9221 0.0000 -10.2732 0.0000
# 2 26.9589 27.7424 18.8674 0.0000 0.6057 0.0000
# 3 72.9221 18.8674 67.3707 0.0000 6.7119 0.0000
# 4 0.0000 0.0000 0.0000 16.6370 0.0000 -1.1148
# 5 -10.2732 0.6057 6.7119 0.0000 22.1965 0.0000
# 6 0.0000 0.0000 0.0000 -1.1148 0.0000 22.0534
#
#
#
# Elastic Compliance Matrix: (Units=1/GPa)
#
#
# Indices 1 2 3 4 5 6 
#
# 1 0.012594 -0.003094 -0.013769 0.000000 0.010077 0.000000
# 2 -0.003094 0.045437 -0.009392 0.000000 0.000168 0.000000
# 3 -0.013769 -0.009392 0.034011 0.000000 -0.016401 0.000000
# 4 0.000000 0.000000 0.000000 0.060311 0.000000 0.003049
# 5 0.010077 0.000168 -0.016401 0.000000 0.054671 0.000000
# 6 0.000000 0.000000 0.000000 0.003049 0.000000 0.045499
#
#
# Mechanical properties :
#
#
# Convention : Reuss Voigt Hill
#
# Bulk Modulus (GPa) = 25.29682 56.28705 40.79193
# Shear Modulus (GPa) = 15.71291 22.19997 18.95644
#
# Velocity S-wave (km/s) = 3.11173 3.69870 3.41784
# Velocity P-wave (km/s) = 5.33847 7.27506 6.38066
#
# Compressibility (1/GPa) = 0.03953066
#
# Stress axis : x y z
#
# Youngs Moduli (GPa) = 79.40399 22.00871 29.40211
#
# Poissons Ratio (x) = 0.06809 0.40484
# Poissons Ratio (y) = 0.24568 0.27616
# Poissons Ratio (z) = 1.09331 0.20672
#
# Static dielectric constant tensor:
#      x y z
#    x 1.577060 0.000000 -0.007130 
#    y 0.000000 1.443430 0.000000 
#    z -0.007130 0.000000 1.511130 
# 
# From -- ./inp_files/64233.got.cif
#   From: 2010.05.17/outbox.cif.g08.bks.cpg/sg11_33_cif.got.tgz:64233.got - 2010.06.03 12:22:45.
