data_PCOD9156496
_publ_section_title
;
Structure prediction by ZEFSAII (Michael W. Deem and Ramdas Pophale) SiO2 
 PCOD9156496
Probable space group: P 21/M
;
_chemical_formula_sum "Si O2"
_cell_formula_units_Z 32
_cell_length_a 15.686723
_cell_length_b 7.746420
_cell_length_c 31.985135
_cell_angle_alpha 90.000000
_cell_angle_beta 151.461288
_cell_angle_gamma 90.000000
_cell_volume 1856.882216
_symmetry_space_group_name_H-M "P 21/M"
_symmetry_group_IT_number 11
_symmetry_cell_setting 'monoclinic'
loop_
_space_group_symop_operation_xyz
x,y,z
-x,1/2+y,-z
-x,-y,-z
x,1/2-y,z
loop_
_atom_site_type_symbol
_atom_site_label
_atom_site_fract_x
_atom_site_fract_y
_atom_site_fract_z
Si Si1 0.946326 0.961702 0.575977
Si Si2 0.024961 0.454386 0.073958
Si Si3 0.320058 0.545204 0.702196
Si Si4 0.261460 0.457150 0.433413
Si Si5 0.645994 0.959019 0.379682
Si Si6 0.711123 0.953948 0.884344
Si Si7 0.336083 0.542602 0.374936
Si Si8 0.264675 0.541827 0.252002
O O1 0.948271 0.750000 0.576422
O O2 0.879109 0.018034 0.592674
O O3 0.797710 0.013447 0.477831
O O4 0.141364 0.024890 0.646632
O O5 0.015027 0.250000 0.063690
O O6 0.170779 0.526160 0.103349
O O7 0.100218 0.490505 0.152086
O O8 0.832781 0.524487 0.977620
O O9 0.319353 0.750000 0.710662
O O10 0.313221 0.520575 0.649351
O O11 0.511618 0.473248 0.799529
O O12 0.267706 0.250000 0.439378
O O13 0.230598 0.499806 0.371714
O O14 0.460362 0.522362 0.531043
O O15 0.643793 0.750000 0.378284
O O16 0.450536 0.018037 0.310859
O O17 0.692058 0.750000 0.867883
O O18 0.346230 0.750000 0.376830
O O19 0.260572 0.480304 0.298161
O O20 0.270949 0.750000 0.255227
#
# Coordination Sequence:
#
# PCOD9156496 Si02
#       8
#     4   4   4   4   4   4   4   4
#     4   9  17  30  47  65  90 125 158 185 219 262
#     4  10  19  30  46  66  89 115 149 190 228 267
#     4  10  19  31  46  65  91 122 156 191 220 256
#     4   9  16  29  46  65  88 118 154 187 219 261
#     4  10  18  29  44  64  92 126 158 183 212 259
#     4   9  18  31  44  63  89 118 150 185 226 268
#     4   9  17  29  45  65  90 119 150 184 224 266
#     4  10  18  29  46  66  92 124 151 179 222 273
#
# _framework density 17.233187000000001
#
# number of rings (size 3 to 8) (size 9 to 14) (size 15 to 20)
#    0.000    2.500    2.500    0.750    0.000    1.500 
#    0.000    1.250    0.000    0.000    0.000    0.875 
#    0.000    0.000    0.000    0.000    0.000    0.000 
#
# Total GULP energy -178436.825936 kJ/mol
# GULP energy per Si atom -5576.150810 kJ/mol
# Density = 1.719396 g / cm^3
# Si number density = 17.233187 Si / 1000 Ang^3
#
#
#
# Elastic Constant Matrix: (Units=GPa)
#
#
# Indices 1 2 3 4 5 6 
#
# 1 126.2997 -7.0462 70.3358 0.0000 -5.5961 0.0000
# 2 -7.0462 18.8045 -5.3222 0.0000 5.4401 0.0000
# 3 70.3358 -5.3222 95.1090 0.0000 -6.2980 0.0000
# 4 0.0000 0.0000 0.0000 11.1776 0.0000 -6.0639
# 5 -5.5961 5.4401 -6.2980 0.0000 22.8565 0.0000
# 6 0.0000 0.0000 0.0000 -6.0639 0.0000 16.5570
#
#
#
# Elastic Compliance Matrix: (Units=1/GPa)
#
#
# Indices 1 2 3 4 5 6 
#
# 1 0.013557 0.002264 -0.009896 0.000000 0.000054 0.000000
# 2 0.002264 0.058005 0.000707 0.000000 -0.013057 0.000000
# 3 -0.009896 0.000707 0.018029 0.000000 0.002377 0.000000
# 4 0.000000 0.000000 0.000000 0.111648 0.000000 0.040890
# 5 0.000054 -0.013057 0.002377 0.000000 0.047527 0.000000
# 6 0.000000 0.000000 0.000000 0.040890 0.000000 0.075373
#
#
# Mechanical properties :
#
#
# Convention : Reuss Voigt Hill
#
# Bulk Modulus (GPa) = 13.20281 39.57202 26.38741
# Shear Modulus (GPa) = 13.76515 22.26794 18.01655
#
# Velocity S-wave (km/s) = 2.82930 3.59856 3.23686
# Velocity P-wave (km/s) = 4.28382 6.34655 5.41432
#
# Compressibility (1/GPa) = 0.07574148
#
# Stress axis : x y z
#
# Youngs Moduli (GPa) = 73.76138 17.24003 55.46505
#
# Poissons Ratio (x) = -0.03903 0.54887
# Poissons Ratio (y) = -0.16697 -0.03923
# Poissons Ratio (z) = 0.72992 -0.01219
#
# Static dielectric constant tensor:
#      x y z
#    x 1.584560 0.000000 0.002660 
#    y 0.000000 1.633020 0.000000 
#    z 0.002660 0.000000 1.587200 
# 
# From -- ./inp_files/51240.got.cif
#   From: 2010.05.17/outbox.cif.g08.bks.cpg/sg11_26_cif.got.tgz:51240.got - 2010.06.03 12:22:45.
