data_PCOD9156859
_publ_section_title
;
Structure prediction by ZEFSAII (Michael W. Deem and Ramdas Pophale) SiO2 
 PCOD9156859
Probable space group: P 21/M
;
_chemical_formula_sum "Si O2"
_cell_formula_units_Z 32
_cell_length_a 28.248045
_cell_length_b 9.148041
_cell_length_c 22.111861
_cell_angle_alpha 90.000000
_cell_angle_beta 161.511307
_cell_angle_gamma 90.000000
_cell_volume 1812.015919
_symmetry_space_group_name_H-M "P 21/M"
_symmetry_group_IT_number 11
_symmetry_cell_setting 'monoclinic'
loop_
_space_group_symop_operation_xyz
x,y,z
-x,1/2+y,-z
-x,-y,-z
x,1/2-y,z
loop_
_atom_site_type_symbol
_atom_site_label
_atom_site_fract_x
_atom_site_fract_y
_atom_site_fract_z
Si Si1 0.590471 0.418541 0.021308
Si Si2 0.024060 0.076582 0.093369
Si Si3 0.863577 0.574226 0.011030
Si Si4 0.449725 0.574723 0.376701
Si Si5 0.445525 0.923558 0.737298
Si Si6 0.134649 0.576348 0.428659
Si Si7 0.269283 0.081706 0.701419
Si Si8 0.623445 0.920349 0.465874
O O1 0.629149 0.250000 0.058348
O O2 0.706087 0.496071 0.206384
O O3 0.561124 0.501222 0.923102
O O4 0.430369 0.422696 0.862333
O O5 0.988357 0.250000 0.047868
O O6 0.198562 0.061446 0.321038
O O7 0.927834 0.993659 0.027051
O O8 0.000000 0.000000 0.000000
O O9 0.847568 0.750000 0.986175
O O10 0.985140 0.543095 0.210484
O O11 0.706639 0.496567 0.832215
O O12 0.500000 0.500000 0.500000
O O13 0.436798 0.750000 0.368996
O O14 0.566681 0.546133 0.464467
O O15 0.464046 0.750000 0.761344
O O16 0.279207 0.957917 0.561998
O O17 0.451627 0.983524 0.676966
O O18 0.139694 0.750000 0.446525
O O19 0.155956 0.491963 0.517168
O O20 0.232226 0.250000 0.667614
O O21 0.589222 0.750000 0.412377
#
# Coordination Sequence:
#
# PCOD9156859 Si02
#       8
#     4   4   4   4   4   4   4   4
#     4   9  16  26  41  65 102 143 177 215 264 315
#     4  11  22  36  57  82 108 139 177 223 276 333
#     4  11  22  38  57  81 111 144 182 226 274 329
#     4  11  24  42  61  82 108 143 183 229 278 332
#     4  10  18  30  50  76 105 139 179 222 268 318
#     4   9  18  31  48  73 106 141 176 220 269 318
#     4   9  16  25  41  67 100 139 180 219 260 313
#     4  10  22  38  55  78 108 140 178 223 274 327
#
# _framework density 17.659889
#
# number of rings (size 3 to 8) (size 9 to 14) (size 15 to 20)
#    0.000    2.000    1.250    3.000    0.000    7.000 
#    0.000    0.000    0.000    0.000    0.000    0.875 
#    0.000    0.000    0.000    0.000    0.000    0.000 
#
# Total GULP energy -178614.807954 kJ/mol
# GULP energy per Si atom -5581.712749 kJ/mol
# Density = 1.761969 g / cm^3
# Si number density = 17.659889 Si / 1000 Ang^3
#
#
#
# Elastic Constant Matrix: (Units=GPa)
#
#
# Indices 1 2 3 4 5 6 
#
# 1 42.4972 34.5667 5.9584 0.0000 -21.9671 0.0000
# 2 34.5667 76.8207 27.4699 0.0000 -26.4143 0.0000
# 3 5.9584 27.4699 36.4681 0.0000 -21.9648 0.0000
# 4 0.0000 0.0000 0.0000 29.9153 0.0000 -9.8681
# 5 -21.9671 -26.4143 -21.9648 0.0000 39.0692 0.0000
# 6 0.0000 0.0000 0.0000 -9.8681 0.0000 30.6850
#
#
#
# Elastic Compliance Matrix: (Units=1/GPa)
#
#
# Indices 1 2 3 4 5 6 
#
# 1 0.054654 -0.024070 0.027077 0.000000 0.029680 0.000000
# 2 -0.024070 0.029699 -0.021918 0.000000 -0.005776 0.000000
# 3 0.027077 -0.021918 0.060104 0.000000 0.034197 0.000000
# 4 0.000000 0.000000 0.000000 0.037395 0.000000 0.012026
# 5 0.029680 -0.005776 0.034197 0.000000 0.057603 0.000000
# 6 0.000000 0.000000 0.000000 0.012026 0.000000 0.036457
#
#
# Mechanical properties :
#
#
# Convention : Reuss Voigt Hill
#
# Bulk Modulus (GPa) = 9.37767 32.41956 20.89861
# Shear Modulus (GPa) = 14.31525 25.78664 20.05094
#
# Velocity S-wave (km/s) = 2.85021 3.82538 3.37322
# Velocity P-wave (km/s) = 4.01911 6.15702 5.19914
#
# Compressibility (1/GPa) = 0.10663633
#
# Stress axis : x y z
#
# Youngs Moduli (GPa) = 18.29682 33.67095 16.63794
#
# Poissons Ratio (x) = 0.81046 -0.45051
# Poissons Ratio (y) = 0.44040 0.36467
# Poissons Ratio (z) = -0.49543 0.73799
#
# Static dielectric constant tensor:
#      x y z
#    x 1.587610 0.000000 0.003250 
#    y 0.000000 1.590310 0.000000 
#    z 0.003250 0.000000 1.596410 
# 
# From -- ./inp_files/67240.got.cif
#   From: 2010.05.17/outbox.cif.g08.bks.cpg/sg11_34_cif.got.tgz:67240.got - 2010.06.03 12:22:45.
