data_PCOD9156478
_publ_section_title
;
Structure prediction by ZEFSAII (Michael W. Deem and Ramdas Pophale) SiO2 
 PCOD9156478
Probable space group: P 21/M
;
_chemical_formula_sum "Si O2"
_cell_formula_units_Z 26
_cell_length_a 10.510016
_cell_length_b 18.619056
_cell_length_c 12.835255
_cell_angle_alpha 90.000000
_cell_angle_beta 145.790682
_cell_angle_gamma 90.000000
_cell_volume 1412.115398
_symmetry_space_group_name_H-M "P 21/M"
_symmetry_group_IT_number 11
_symmetry_cell_setting 'monoclinic'
loop_
_space_group_symop_operation_xyz
x,y,z
-x,1/2+y,-z
-x,-y,-z
x,1/2-y,z
loop_
_atom_site_type_symbol
_atom_site_label
_atom_site_fract_x
_atom_site_fract_y
_atom_site_fract_z
Si Si1 0.663308 0.596579 0.642800
Si Si2 0.726244 0.909887 0.929158
Si Si3 0.359668 0.250000 0.320168
Si Si4 0.029620 0.598473 0.468778
Si Si5 0.832503 0.462861 0.657094
Si Si6 0.228772 0.250000 0.007423
Si Si7 0.364471 0.995488 0.800714
Si Si8 0.124496 0.750000 0.424342
O O1 0.741105 0.588136 0.815260
O O2 0.670642 0.680622 0.630515
O O3 0.807924 0.546387 0.666514
O O4 0.402326 0.572250 0.465686
O O5 0.551779 0.971045 0.844898
O O6 0.655668 0.829500 0.921903
O O7 0.964370 0.927326 0.142195
O O8 0.612531 0.250000 0.437254
O O9 0.185105 0.250000 0.103462
O O10 0.122100 0.553375 0.432014
O O11 0.179491 0.568983 0.665877
O O12 0.067769 0.679696 0.455674
O O13 0.774589 0.569181 0.310565
O O14 0.031559 0.250000 0.786415
O O15 0.500000 0.000000 0.000000
#
# Coordination Sequence:
#
# PCOD9156478 Si02
#       8
#     4   4   2   4   4   2   4   2
#     4  10  21  32  53  80 110 140 180 222 272 327
#     4  11  19  34  53  84 108 145 178 225 276 322
#     4  10  18  32  50  77 108 144 176 223 277 316
#     4  11  22  34  58  83 108 142 181 227 279 325
#     4  11  19  34  52  81 110 141 180 225 270 327
#     4  10  18  28  54  79 112 133 176 234 275 311
#     4  11  21  36  54  80 110 143 179 222 276 333
#     4  12  18  36  54  82 110 133 180 237 276 315
#
# _framework density 18.412092999999999
#
# number of rings (size 3 to 8) (size 9 to 14) (size 15 to 20)
#    0.000    1.231    6.154    1.385    0.000    0.000 
#    0.000    0.000    0.000    5.538    0.000    0.000 
#    0.000    0.000    0.000    0.000    0.000    0.000 
#
# Total GULP energy -144839.760595 kJ/mol
# GULP energy per Si atom -5570.760023 kJ/mol
# Density = 1.837019 g / cm^3
# Si number density = 18.412093 Si / 1000 Ang^3
#
#
#
# Elastic Constant Matrix: (Units=GPa)
#
#
# Indices 1 2 3 4 5 6 
#
# 1 38.2804 47.2484 7.2319 0.0000 1.4056 0.0000
# 2 47.2484 167.5396 26.0816 0.0000 -7.1441 0.0000
# 3 7.2319 26.0816 114.1744 0.0000 -11.7664 0.0000
# 4 0.0000 0.0000 0.0000 19.7370 0.0000 -4.8278
# 5 1.4056 -7.1441 -11.7664 0.0000 10.6849 0.0000
# 6 0.0000 0.0000 0.0000 -4.8278 0.0000 32.3861
#
#
#
# Elastic Compliance Matrix: (Units=1/GPa)
#
#
# Indices 1 2 3 4 5 6 
#
# 1 0.042171 -0.012324 -0.001440 0.000000 -0.015374 0.000000
# 2 -0.012324 0.009872 -0.000707 0.000000 0.007443 0.000000
# 3 -0.001440 -0.000707 0.010132 0.000000 0.010874 0.000000
# 4 0.000000 0.000000 0.000000 0.052584 0.000000 0.007839
# 5 -0.015374 0.007443 0.010874 0.000000 0.112563 0.000000
# 6 0.000000 0.000000 0.000000 0.007839 0.000000 0.032046
#
#
# Mechanical properties :
#
#
# Convention : Reuss Voigt Hill
#
# Bulk Modulus (GPa) = 30.09220 53.45758 41.77489
# Shear Modulus (GPa) = 16.70074 28.52377 22.61226
#
# Velocity S-wave (km/s) = 3.01500 3.94024 3.50826
# Velocity P-wave (km/s) = 5.33849 7.05674 6.25688
#
# Compressibility (1/GPa) = 0.03323121
#
# Stress axis : x y z
#
# Youngs Moduli (GPa) = 23.71300 101.29871 98.69730
#
# Poissons Ratio (x) = 1.24842 0.14214
# Poissons Ratio (y) = 0.29224 0.06982
# Poissons Ratio (z) = 0.03415 0.07167
#
# Static dielectric constant tensor:
#      x y z
#    x 1.624150 0.000000 0.000430 
#    y 0.000000 1.693120 0.000000 
#    z 0.000430 0.000000 1.688040 
# 
# From -- ./inp_files/32790.got.cif
#   From: 2010.05.17/outbox.cif.g08.bks.cpg/sg11_17_cif.got.tgz:32790.got - 2010.06.03 12:22:45.
