data_PCOD9156185
_publ_section_title
;
Structure prediction by ZEFSAII (Michael W. Deem and Ramdas Pophale) SiO2 
 PCOD9156185
Probable space group: P 21/M
;
_chemical_formula_sum "Si O2"
_cell_formula_units_Z 32
_cell_length_a 16.283720
_cell_length_b 21.714168
_cell_length_c 9.017556
_cell_angle_alpha 90.000000
_cell_angle_beta 147.716658
_cell_angle_gamma 90.000000
_cell_volume 1702.995868
_symmetry_space_group_name_H-M "P 21/M"
_symmetry_group_IT_number 11
_symmetry_cell_setting 'monoclinic'
loop_
_space_group_symop_operation_xyz
x,y,z
-x,1/2+y,-z
-x,-y,-z
x,1/2-y,z
loop_
_atom_site_type_symbol
_atom_site_label
_atom_site_fract_x
_atom_site_fract_y
_atom_site_fract_z
Si Si1 0.820321 0.133693 0.445853
Si Si2 0.000781 0.683072 0.543606
Si Si3 0.372153 0.024142 0.688880
Si Si4 0.898036 0.058467 0.817799
Si Si5 0.343794 0.955153 0.043688
Si Si6 0.727435 0.910428 0.186008
Si Si7 0.770150 0.369074 0.875827
Si Si8 0.567713 0.321999 0.299488
O O1 0.916172 0.178574 0.488389
O O2 0.935756 0.097271 0.730224
O O3 0.691197 0.163157 0.356331
O O4 0.742441 0.084788 0.214727
O O5 0.926807 0.750000 0.450398
O O6 0.878649 0.627944 0.375111
O O7 0.137100 0.674269 0.871126
O O8 0.474785 0.051463 0.714399
O O9 0.270870 0.068221 0.638209
O O10 0.272355 0.968428 0.474396
O O11 0.500000 0.000000 0.000000
O O12 0.892545 0.100891 0.951551
O O13 0.000000 0.000000 0.000000
O O14 0.302018 0.923964 0.135320
O O15 0.294308 0.026494 0.943224
O O16 0.578814 0.866626 0.940645
O O17 0.649310 0.336497 0.581951
O O18 0.526693 0.250000 0.228852
#
# Coordination Sequence:
#
# PCOD9156185 Si02
#       8
#     4   4   4   4   4   4   4   4
#     4  10  20  38  61  84 113 154 193 239 282 350
#     4  11  24  40  58  84 118 158 201 238 282 344
#     4  10  17  35  58  83 121 145 181 235 287 358
#     4  11  21  33  54  89 120 143 180 234 304 354
#     4  10  19  36  62  90 114 143 196 238 304 340
#     4  11  21  35  64  88 117 149 189 251 292 345
#     4  10  23  36  59  87 116 153 189 244 291 342
#     4  11  22  40  61  83 113 159 203 231 279 346
#
# _framework density 18.790414999999999
#
# number of rings (size 3 to 8) (size 9 to 14) (size 15 to 20)
#    0.000    1.500    3.750    4.125    1.750    3.000 
#    0.000    0.000    0.000    0.000    0.000    0.000 
#    0.000    0.000    0.000    0.000    0.000    0.000 
#
# Total GULP energy -178504.236062 kJ/mol
# GULP energy per Si atom -5578.257377 kJ/mol
# Density = 1.874765 g / cm^3
# Si number density = 18.790415 Si / 1000 Ang^3
#
#
#
# Elastic Constant Matrix: (Units=GPa)
#
#
# Indices 1 2 3 4 5 6 
#
# 1 77.7695 31.8900 27.8980 0.0000 -13.7354 0.0000
# 2 31.8900 117.3924 16.8306 0.0000 -3.6970 0.0000
# 3 27.8980 16.8306 46.0756 0.0000 -5.4551 0.0000
# 4 0.0000 0.0000 0.0000 19.6162 0.0000 6.4129
# 5 -13.7354 -3.6970 -5.4551 0.0000 28.0078 0.0000
# 6 0.0000 0.0000 0.0000 6.4129 0.0000 19.4856
#
#
#
# Elastic Compliance Matrix: (Units=1/GPa)
#
#
# Indices 1 2 3 4 5 6 
#
# 1 0.018899 -0.003579 -0.009309 0.000000 0.006983 0.000000
# 2 -0.003579 0.009676 -0.001457 0.000000 -0.000762 0.000000
# 3 -0.009309 -0.001457 0.027953 0.000000 0.000687 0.000000
# 4 0.000000 0.000000 0.000000 0.057124 0.000000 -0.018800
# 5 0.006983 -0.000762 0.000687 0.000000 0.039162 0.000000
# 6 0.000000 0.000000 0.000000 -0.018800 0.000000 0.057507
#
#
# Mechanical properties :
#
#
# Convention : Reuss Voigt Hill
#
# Bulk Modulus (GPa) = 35.92332 43.83051 39.87691
# Shear Modulus (GPa) = 20.13762 24.39651 22.26707
#
# Velocity S-wave (km/s) = 3.27723 3.60717 3.44615
# Velocity P-wave (km/s) = 5.78617 6.38166 6.09119
#
# Compressibility (1/GPa) = 0.02783707
#
# Stress axis : x y z
#
# Youngs Moduli (GPa) = 52.91332 103.35123 35.77381
#
# Poissons Ratio (x) = 0.36994 0.33301
# Poissons Ratio (y) = 0.18940 0.05213
# Poissons Ratio (z) = 0.49255 0.15062
#
# Static dielectric constant tensor:
#      x y z
#    x 1.681030 0.000000 0.011520 
#    y 0.000000 1.680550 0.000000 
#    z 0.011520 0.000000 1.666070 
# 
# From -- ./inp_files/23131.got.cif
#   From: 2010.05.17/outbox.cif.g08.bks.cpg/sg11_12_cif.got.tgz:23131.got - 2010.06.03 12:22:45.
