data_PCOD9156358
_publ_section_title
;
Structure prediction by ZEFSAII (Michael W. Deem and Ramdas Pophale) SiO2 
 PCOD9156358
Probable space group: P 21/M
;
_chemical_formula_sum "Si O2"
_cell_formula_units_Z 32
_cell_length_a 18.417674
_cell_length_b 7.756921
_cell_length_c 24.572011
_cell_angle_alpha 90.000000
_cell_angle_beta 149.330656
_cell_angle_gamma 90.000000
_cell_volume 1790.628595
_symmetry_space_group_name_H-M "P 21/M"
_symmetry_group_IT_number 11
_symmetry_cell_setting 'monoclinic'
loop_
_space_group_symop_operation_xyz
x,y,z
-x,1/2+y,-z
-x,-y,-z
x,1/2-y,z
loop_
_atom_site_type_symbol
_atom_site_label
_atom_site_fract_x
_atom_site_fract_y
_atom_site_fract_z
Si Si1 0.443289 0.457215 0.523456
Si Si2 0.849018 0.048546 0.190643
Si Si3 0.620238 0.043185 0.122261
Si Si4 0.876790 0.540278 0.693143
Si Si5 0.960448 0.045443 0.870641
Si Si6 0.716870 0.449525 0.903364
Si Si7 0.613305 0.951388 0.952652
Si Si8 0.312736 0.961752 0.237257
O O1 0.500000 0.500000 0.500000
O O2 0.439717 0.250000 0.525704
O O3 0.281255 0.519748 0.424222
O O4 0.555642 0.519741 0.640696
O O5 0.874874 0.250000 0.218704
O O6 0.765953 0.973583 0.189586
O O7 0.997932 0.974814 0.265603
O O8 0.737975 0.038966 0.068467
O O9 0.637960 0.250000 0.136869
O O10 0.541988 0.984898 0.127116
O O11 0.500000 0.000000 0.000000
O O12 0.878399 0.750000 0.693317
O O13 0.912349 0.487121 0.777733
O O14 0.978273 0.250000 0.889697
O O15 0.835175 0.984190 0.829856
O O16 0.112845 0.962366 0.979907
O O17 0.675310 0.250000 0.877493
O O18 0.644227 0.531326 0.909174
O O19 0.678729 0.520989 0.819432
O O20 0.622807 0.750000 0.973428
O O21 0.311191 0.750000 0.236205
#
# Coordination Sequence:
#
# PCOD9156358 Si02
#       8
#     4   4   4   4   4   4   4   4
#     4  10  19  34  51  69  91 119 155 195 233 272
#     4   9  16  28  44  66  94 122 149 183 226 278
#     4   8  15  26  41  61  90 121 149 179 221 275
#     4  10  19  29  48  73  95 120 152 187 228 277
#     4  11  20  32  49  68  93 122 153 191 233 276
#     4  11  21  33  47  65  92 126 160 192 228 273
#     4  10  18  28  43  66  92 122 153 186 227 274
#     4   9  20  35  49  65  90 124 159 195 232 269
#
# _framework density 17.870819999999998
#
# number of rings (size 3 to 8) (size 9 to 14) (size 15 to 20)
#    0.000    2.250    2.500    1.500    0.000    0.500 
#    0.000    3.125    0.000    0.000    0.000    0.875 
#    0.000    0.000    0.000    0.000    0.000    0.000 
#
# Total GULP energy -178399.000916 kJ/mol
# GULP energy per Si atom -5574.968779 kJ/mol
# Density = 1.783015 g / cm^3
# Si number density = 17.870820 Si / 1000 Ang^3
#
#
#
# Elastic Constant Matrix: (Units=GPa)
#
#
# Indices 1 2 3 4 5 6 
#
# 1 165.4242 -4.1733 75.1851 0.0000 23.7696 0.0000
# 2 -4.1733 26.8300 -5.8444 0.0000 2.5617 0.0000
# 3 75.1851 -5.8444 68.2796 0.0000 -2.4436 0.0000
# 4 0.0000 0.0000 0.0000 6.0522 0.0000 -5.1178
# 5 23.7696 2.5617 -2.4436 0.0000 26.9945 0.0000
# 6 0.0000 0.0000 0.0000 -5.1178 0.0000 8.5829
#
#
#
# Elastic Compliance Matrix: (Units=1/GPa)
#
#
# Indices 1 2 3 4 5 6 
#
# 1 0.017663 0.000035 -0.020069 0.000000 -0.017373 0.000000
# 2 0.000035 0.038279 0.003117 0.000000 -0.003381 0.000000
# 3 -0.020069 0.003117 0.037755 0.000000 0.020793 0.000000
# 4 0.000000 0.000000 0.000000 0.333272 0.000000 0.198723
# 5 -0.017373 -0.003381 0.020793 0.000000 0.054545 0.000000
# 6 0.000000 0.000000 0.000000 0.198723 0.000000 0.235006
#
#
# Mechanical properties :
#
#
# Convention : Reuss Voigt Hill
#
# Bulk Modulus (GPa) = 16.70452 43.42983 30.06717
# Shear Modulus (GPa) = 6.49091 21.35033 13.92062
#
# Velocity S-wave (km/s) = 1.90788 3.46020 2.79401
# Velocity P-wave (km/s) = 3.77108 6.34971 5.22206
#
# Compressibility (1/GPa) = 0.05986405
#
# Stress axis : x y z
#
# Youngs Moduli (GPa) = 56.61401 26.12397 26.48660
#
# Poissons Ratio (x) = -0.00091 0.53155
# Poissons Ratio (y) = -0.00197 -0.08256
# Poissons Ratio (z) = 1.13617 -0.08143
#
# Static dielectric constant tensor:
#      x y z
#    x 1.651360 0.000000 0.028950 
#    y 0.000000 1.725880 0.000000 
#    z 0.028950 0.000000 1.582320 
# 
# From -- ./inp_files/43813.got.cif
#   From: 2010.05.17/outbox.cif.g08.bks.cpg/sg11_22_cif.got.tgz:43813.got - 2010.06.03 12:22:45.
