data_PCOD9156446
_publ_section_title
;
Structure prediction by ZEFSAII (Michael W. Deem and Ramdas Pophale) SiO2 
 PCOD9156446
Probable space group: P 21/M
;
_chemical_formula_sum "Si O2"
_cell_formula_units_Z 32
_cell_length_a 20.944648
_cell_length_b 7.766785
_cell_length_c 25.762942
_cell_angle_alpha 90.000000
_cell_angle_beta 22.935577
_cell_angle_gamma 90.000000
_cell_volume 1633.185857
_symmetry_space_group_name_H-M "P 21/M"
_symmetry_group_IT_number 11
_symmetry_cell_setting 'monoclinic'
loop_
_space_group_symop_operation_xyz
x,y,z
-x,1/2+y,-z
-x,-y,-z
x,1/2-y,z
loop_
_atom_site_type_symbol
_atom_site_label
_atom_site_fract_x
_atom_site_fract_y
_atom_site_fract_z
Si Si1 0.548076 0.954533 0.092663
Si Si2 0.939932 0.050962 0.196856
Si Si3 0.139914 0.540497 0.213040
Si Si4 0.547687 0.038777 0.308405
Si Si5 0.849666 0.457361 0.150672
Si Si6 0.183127 0.450807 0.600281
Si Si7 0.344133 0.543247 0.152827
Si Si8 0.692147 0.450284 0.090292
O O1 0.530807 0.750000 0.111729
O O2 0.714560 0.988006 0.935187
O O3 0.397689 0.020981 0.169532
O O4 0.572647 0.032962 0.130748
O O5 0.889346 0.250000 0.238131
O O6 0.881952 0.978254 0.184761
O O7 0.868719 0.961463 0.300894
O O8 0.136954 0.042076 0.049803
O O9 0.138261 0.750000 0.213811
O O10 0.191165 0.482536 0.232700
O O11 0.966747 0.475161 0.321320
O O12 0.546657 0.250000 0.310473
O O13 0.681021 0.981873 0.250972
O O14 0.363979 0.976153 0.456233
O O15 0.611804 0.986650 0.203652
O O16 0.843858 0.250000 0.158190
O O17 0.000000 0.500000 0.000000
O O18 0.193428 0.250000 0.577861
O O19 0.331488 0.750000 0.166216
O O20 0.500000 0.500000 0.000000
O O21 0.734303 0.250000 0.065959
#
# Coordination Sequence:
#
# PCOD9156446 Si02
#       8
#     4   4   4   4   4   4   4   4
#     4  10  18  28  46  73 105 132 164 214 264 300
#     4  11  22  34  53  80 106 132 168 215 262 306
#     4   9  16  28  48  72  99 134 174 205 248 308
#     4   9  20  37  55  76 102 135 175 214 254 303
#     4  10  20  36  56  77 104 135 171 214 256 302
#     4  10  20  35  55  77 104 138 173 210 253 307
#     4   8  15  26  41  67 100 132 164 206 253 299
#     4  11  20  33  54  75 100 136 176 215 253 304
#
# _framework density 19.593608
#
# number of rings (size 3 to 8) (size 9 to 14) (size 15 to 20)
#    0.000    2.250    2.500    1.125    0.000    1.500 
#    0.000    1.875    0.000    0.750    0.000    0.000 
#    0.000    0.000    0.000    0.000    0.000    0.750 
#
# Total GULP energy -178470.329606 kJ/mol
# GULP energy per Si atom -5577.197800 kJ/mol
# Density = 1.954901 g / cm^3
# Si number density = 19.593608 Si / 1000 Ang^3
#
#
#
# Elastic Constant Matrix: (Units=GPa)
#
#
# Indices 1 2 3 4 5 6 
#
# 1 156.5394 -4.7908 44.8642 0.0000 -27.5442 0.0000
# 2 -4.7908 30.5668 -2.3971 0.0000 -3.2051 0.0000
# 3 44.8642 -2.3971 87.7780 0.0000 -14.0517 0.0000
# 4 0.0000 0.0000 0.0000 -7.1181 0.0000 -18.5749
# 5 -27.5442 -3.2051 -14.0517 0.0000 25.7157 0.0000
# 6 0.0000 0.0000 0.0000 -18.5749 0.0000 -3.5543
#
#
#
# Elastic Compliance Matrix: (Units=1/GPa)
#
#
# Indices 1 2 3 4 5 6 
#
# 1 0.008737 0.001949 -0.003151 0.000000 0.007880 0.000000
# 2 0.001949 0.033821 0.001026 0.000000 0.006863 0.000000
# 3 -0.003151 0.001026 0.013710 0.000000 0.004244 0.000000
# 4 0.000000 0.000000 0.000000 0.011117 0.000000 -0.058096
# 5 0.007880 0.006863 0.004244 0.000000 0.050501 0.000000
# 6 0.000000 0.000000 0.000000 -0.058096 0.000000 0.022263
#
#
# Mechanical properties :
#
#
# Convention : Reuss Voigt Hill
#
# Bulk Modulus (GPa) = 17.88395 38.91519 28.39957
# Shear Modulus (GPa) = 31.41872 18.82253 25.12062
#
# Velocity S-wave (km/s) = 4.00874 3.10279 3.58450
# Velocity P-wave (km/s) = 5.52937 5.72195 5.62648
#
# Compressibility (1/GPa) = 0.05591606
#
# Stress axis : x y z
#
# Youngs Moduli (GPa) = 114.45036 29.56764 72.93707
#
# Poissons Ratio (x) = -0.05761 0.22984
# Poissons Ratio (y) = -0.22301 -0.07486
# Poissons Ratio (z) = 0.36065 -0.03035
#
# Static dielectric constant tensor:
#      x y z
#    x 1.725800 0.000000 -0.038620 
#    y 0.000000 1.711750 0.000000 
#    z -0.038620 0.000000 1.647170 
# 
# From -- ./inp_files/66432.got.cif
#   From: 2010.05.17/outbox.cif.g08.bks.cpg/sg11_34_cif.got.tgz:66432.got - 2010.06.03 12:22:45.
