data_PCOD9156988
_publ_section_title
;
Structure prediction by ZEFSAII (Michael W. Deem and Ramdas Pophale) SiO2 
 PCOD9156988
Probable space group: P 21/M
;
_chemical_formula_sum "Si O2"
_cell_formula_units_Z 32
_cell_length_a 12.216016
_cell_length_b 8.634564
_cell_length_c 22.298516
_cell_angle_alpha 90.000000
_cell_angle_beta 129.453929
_cell_angle_gamma 90.000000
_cell_volume 1816.099567
_symmetry_space_group_name_H-M "P 21/M"
_symmetry_group_IT_number 11
_symmetry_cell_setting 'monoclinic'
loop_
_space_group_symop_operation_xyz
x,y,z
-x,1/2+y,-z
-x,-y,-z
x,1/2-y,z
loop_
_atom_site_type_symbol
_atom_site_label
_atom_site_fract_x
_atom_site_fract_y
_atom_site_fract_z
Si Si1 0.462514 0.436232 0.171589
Si Si2 0.345580 0.064365 0.463739
Si Si3 0.669493 0.064530 0.411351
Si Si4 0.542290 0.564290 0.079104
Si Si5 0.237411 0.435474 0.675715
Si Si6 0.857112 0.563756 0.231787
Si Si7 0.857551 0.563263 0.716547
Si Si8 0.645613 0.937799 0.743230
O O1 0.475788 0.250000 0.174981
O O2 0.443813 0.499041 0.098289
O O3 0.609455 0.509574 0.246419
O O4 0.352273 0.479529 0.185783
O O5 0.353068 0.250000 0.467697
O O6 0.236271 0.017652 0.373759
O O7 0.500000 0.000000 0.500000
O O8 0.300122 0.002191 0.512760
O O9 0.672257 0.250000 0.414053
O O10 0.507509 0.015455 0.337565
O O11 0.771745 0.007309 0.393528
O O12 0.536141 0.750000 0.077424
O O13 0.703848 0.516707 0.152156
O O14 0.500000 0.500000 0.000000
O O15 0.234280 0.250000 0.669777
O O16 0.134915 0.483838 0.694885
O O17 0.861298 0.750000 0.232331
O O18 0.985553 0.498486 0.238373
O O19 0.861998 0.750000 0.719975
O O20 0.773350 0.506951 0.746109
O O21 0.645861 0.750000 0.740667
#
# Coordination Sequence:
#
# PCOD9156988 Si02
#       8
#     4   4   4   4   4   4   4   4
#     4   9  16  28  50  77 105 134 166 205 254 302
#     4  11  21  33  49  72 102 135 174 221 266 306
#     4  10  18  31  50  72  99 129 172 222 268 311
#     4  10  20  35  56  82 110 133 164 208 252 301
#     4   9  17  31  49  71 100 131 169 216 262 305
#     4   9  20  36  52  75 106 134 165 210 254 304
#     4  10  20  34  51  72 102 138 175 212 253 308
#     4   8  15  29  47  71 101 131 166 211 253 293
#
# _framework density 17.620179
#
# number of rings (size 3 to 8) (size 9 to 14) (size 15 to 20)
#    0.000    2.500    1.250    3.375    0.000    4.000 
#    0.000    1.875    0.000    0.750    0.000    0.000 
#    0.000    0.000    0.000    0.000    0.000    0.000 
#
# Total GULP energy -178334.601655 kJ/mol
# GULP energy per Si atom -5572.956302 kJ/mol
# Density = 1.758007 g / cm^3
# Si number density = 17.620179 Si / 1000 Ang^3
#
#
#
# Elastic Constant Matrix: (Units=GPa)
#
#
# Indices 1 2 3 4 5 6 
#
# 1 138.3576 20.0478 54.4036 0.0000 -29.9721 0.0000
# 2 20.0478 24.8364 17.0974 0.0000 -6.8368 0.0000
# 3 54.4036 17.0974 70.1703 0.0000 -28.7469 0.0000
# 4 0.0000 0.0000 0.0000 23.3061 0.0000 -4.4187
# 5 -29.9721 -6.8368 -28.7469 0.0000 33.2434 0.0000
# 6 0.0000 0.0000 0.0000 -4.4187 0.0000 28.3704
#
#
#
# Elastic Compliance Matrix: (Units=1/GPa)
#
#
# Indices 1 2 3 4 5 6 
#
# 1 0.010970 -0.003637 -0.005999 0.000000 0.003955 0.000000
# 2 -0.003637 0.049587 -0.009954 0.000000 -0.001689 0.000000
# 3 -0.005999 -0.009954 0.028298 0.000000 0.017015 0.000000
# 4 0.000000 0.000000 0.000000 0.044213 0.000000 0.006886
# 5 0.003955 -0.001689 0.017015 0.000000 0.048013 0.000000
# 6 0.000000 0.000000 0.000000 0.006886 0.000000 0.036321
#
#
# Mechanical properties :
#
#
# Convention : Reuss Voigt Hill
#
# Bulk Modulus (GPa) = 20.13082 46.27353 33.20217
# Shear Modulus (GPa) = 18.30567 26.43833 22.37200
#
# Velocity S-wave (km/s) = 3.22670 3.87778 3.56712
# Velocity P-wave (km/s) = 5.03307 6.80942 5.98749
#
# Compressibility (1/GPa) = 0.04967508
#
# Stress axis : x y z
#
# Youngs Moduli (GPa) = 91.15565 20.16668 35.33847
#
# Poissons Ratio (x) = 0.07334 0.21199
# Poissons Ratio (y) = 0.33151 0.35177
# Poissons Ratio (z) = 0.54682 0.20075
#
# Static dielectric constant tensor:
#      x y z
#    x 1.629170 0.000000 -0.025830 
#    y 0.000000 1.595060 0.000000 
#    z -0.025830 0.000000 1.613650 
# 
# From -- ./inp_files/40628.got.cif
#   From: 2010.05.17/outbox.cif.g08.bks.cpg/sg11_21_cif.got.tgz:40628.got - 2010.06.03 12:22:45.
