data_PCOD9156679
_publ_section_title
;
Structure prediction by ZEFSAII (Michael W. Deem and Ramdas Pophale) SiO2 
 PCOD9156679
Probable space group: P 21/M
;
_chemical_formula_sum "Si O2"
_cell_formula_units_Z 30
_cell_length_a 26.605423
_cell_length_b 11.480302
_cell_length_c 13.648832
_cell_angle_alpha 90.000000
_cell_angle_beta 164.485273
_cell_angle_gamma 90.000000
_cell_volume 1115.116168
_symmetry_space_group_name_H-M "P 21/M"
_symmetry_group_IT_number 11
_symmetry_cell_setting 'monoclinic'
loop_
_space_group_symop_operation_xyz
x,y,z
-x,1/2+y,-z
-x,-y,-z
x,1/2-y,z
loop_
_atom_site_type_symbol
_atom_site_label
_atom_site_fract_x
_atom_site_fract_y
_atom_site_fract_z
Si Si1 0.362905 0.448191 0.321973
Si Si2 0.808586 0.622960 0.287900
Si Si3 0.629159 0.119462 0.502854
Si Si4 0.963900 0.376301 0.548900
Si Si5 0.125706 0.877648 0.389495
Si Si6 0.414475 0.250000 0.561690
Si Si7 0.426026 0.070364 0.751369
Si Si8 0.866449 0.619896 0.632658
O O1 0.500000 0.500000 0.500000
O O2 0.275573 0.545499 0.231731
O O3 0.468433 0.353811 0.586386
O O4 0.184515 0.382642 0.941929
O O5 0.883359 0.750000 0.395998
O O6 0.879456 0.504109 0.370933
O O7 0.837212 0.619005 0.460085
O O8 0.584175 0.622875 0.858546
O O9 0.701511 0.250000 0.631825
O O10 0.615284 0.057310 0.371002
O O11 0.887720 0.250000 0.370848
O O12 0.944446 0.369140 0.630834
O O13 0.095003 0.750000 0.287109
O O14 0.037011 0.992297 0.173663
O O15 0.351938 0.898976 0.822432
O O16 0.355621 0.151188 0.531644
O O17 0.319754 0.103572 0.650660
O O18 0.937787 0.750000 0.789790
#
# Coordination Sequence:
#
# PCOD9156679 Si02
#       8
#     4   4   4   4   4   2   4   4
#     4  11  25  43  67  85 113 157 211 260 316 381
#     4   9  19  37  60  94 129 168 201 250 306 363
#     4  10  22  38  60  88 125 156 200 259 317 362
#     4  10  20  38  62  93 123 162 205 252 317 378
#     4  10  19  30  55  90 128 165 204 241 299 362
#     4  10  22  40  60  88 120 154 208 250 312 372
#     4  11  18  32  58  92 120 163 202 248 301 352
#     4  10  18  29  52  90 129 163 208 249 287 353
#
# _framework density 26.903027999999999
#
# number of rings (size 3 to 8) (size 9 to 14) (size 15 to 20)
#    0.000    1.867    4.667    0.400    0.933    1.067 
#    0.000    0.667    0.000   12.800   13.867    0.000 
#    0.000    0.000    0.000    0.000    0.000    0.000 
#
# Total GULP energy -167253.519007 kJ/mol
# GULP energy per Si atom -5575.117300 kJ/mol
# Density = 2.684180 g / cm^3
# Si number density = 26.903028 Si / 1000 Ang^3
#
#
#
# Elastic Constant Matrix: (Units=GPa)
#
#
# Indices 1 2 3 4 5 6 
#
# 1 147.2988 54.4570 33.7650 0.0000 16.8846 0.0000
# 2 54.4570 302.0909 30.8354 0.0000 4.0848 0.0000
# 3 33.7650 30.8354 80.8847 0.0000 31.9565 0.0000
# 4 0.0000 0.0000 0.0000 -793.9375 0.0000 -117.2646
# 5 16.8846 4.0848 31.9565 0.0000 40.8353 0.0000
# 6 0.0000 0.0000 0.0000 -117.2646 0.0000 -3.4438
#
#
#
# Elastic Compliance Matrix: (Units=1/GPa)
#
#
# Indices 1 2 3 4 5 6 
#
# 1 0.007908 -0.001170 -0.002330 0.000000 -0.001329 0.000000
# 2 -0.001170 0.003645 -0.001373 0.000000 0.001193 0.000000
# 3 -0.002330 -0.001373 0.019433 0.000000 -0.014107 0.000000
# 4 0.000000 0.000000 0.000000 0.000313 0.000000 -0.010644
# 5 -0.001329 0.001193 -0.014107 0.000000 0.035958 0.000000
# 6 0.000000 0.000000 0.000000 -0.010644 0.000000 0.072066
#
#
# Mechanical properties :
#
#
# Convention : Reuss Voigt Hill
#
# Bulk Modulus (GPa) = 47.07959 85.37660 66.22809
# Shear Modulus (GPa) = 32.02102 -123.89471 -45.93685
#
# Velocity S-wave (km/s) = 3.45373 -6.79355 -4.13667
# Velocity P-wave (km/s) = 5.78291 5.45276 1.36188
#
# Compressibility (1/GPa) = 0.02124063
#
# Stress axis : x y z
#
# Youngs Moduli (GPa) = 126.45669 274.33998 51.45993
#
# Poissons Ratio (x) = 0.32090 0.11990
# Poissons Ratio (y) = 0.14792 0.07064
# Poissons Ratio (z) = 0.29464 0.37661
#
# Static dielectric constant tensor:
#      x y z
#    x 2.031310 0.000000 -0.030200 
#    y 0.000000 2.156800 0.000000 
#    z -0.030200 0.000000 2.157300 
# 
# From -- ./inp_files/56326.got.cif
#   From: 2010.05.17/outbox.cif.g08.bks.cpg/sg11_29_cif.got.tgz:56326.got - 2010.06.03 12:22:45.
