data_PCOD9156453
_publ_section_title
;
Structure prediction by ZEFSAII (Michael W. Deem and Ramdas Pophale) SiO2 
 PCOD9156453
Probable space group: P 21/M
;
_chemical_formula_sum "Si O2"
_cell_formula_units_Z 32
_cell_length_a 26.787090
_cell_length_b 7.587515
_cell_length_c 16.491320
_cell_angle_alpha 90.000000
_cell_angle_beta 150.205361
_cell_angle_gamma 90.000000
_cell_volume 1665.494455
_symmetry_space_group_name_H-M "P 21/M"
_symmetry_group_IT_number 11
_symmetry_cell_setting 'monoclinic'
loop_
_space_group_symop_operation_xyz
x,y,z
-x,1/2+y,-z
-x,-y,-z
x,1/2-y,z
loop_
_atom_site_type_symbol
_atom_site_label
_atom_site_fract_x
_atom_site_fract_y
_atom_site_fract_z
Si Si1 0.079955 0.960257 0.307681
Si Si2 0.949315 0.038400 0.552308
Si Si3 0.222984 0.038171 0.370952
Si Si4 0.117891 0.464502 0.061408
Si Si5 0.352232 0.039743 0.124507
Si Si6 0.674371 0.535497 0.730853
Si Si7 0.153677 0.038401 0.756673
Si Si8 0.424984 0.038171 0.572954
O O1 0.066191 0.750000 0.293391
O O2 0.077181 0.028668 0.395616
O O3 0.180328 0.991024 0.398070
O O4 0.985710 0.030158 0.122384
O O5 0.957366 0.250000 0.568466
O O6 0.057341 0.971679 0.672027
O O7 0.868862 0.999998 0.368861
O O8 0.224433 0.250000 0.368112
O O9 0.146814 0.974803 0.192633
O O10 0.334221 0.975916 0.502664
O O11 0.113850 0.250000 0.058318
O O12 0.212649 0.510015 0.137945
O O13 0.338995 0.250000 0.111796
O O14 0.349040 0.969843 0.212368
O O15 0.462586 0.008973 0.244840
O O16 0.258745 0.971331 0.940312
O O17 0.669379 0.750000 0.724910
O O18 0.600993 0.474803 0.555172
O O19 0.153734 0.250000 0.764840
O O20 0.419244 0.250000 0.562923
#
# Coordination Sequence:
#
# PCOD9156453 Si02
#       8
#     4   4   4   4   4   4   4   4
#     4  10  18  28  47  71  91 116 152 190 224 261
#     4   9  18  32  49  70  95 120 146 179 223 273
#     4   9  18  31  45  63  91 126 157 184 219 263
#     4   8  14  26  44  66  93 123 152 181 217 265
#     4  10  18  28  47  71  91 116 152 190 224 261
#     4   8  14  26  44  66  93 123 152 181 217 265
#     4   9  18  32  49  70  95 120 146 179 223 273
#     4   9  18  31  45  63  91 126 157 184 219 263
#
# _framework density 19.213512999999999
#
# number of rings (size 3 to 8) (size 9 to 14) (size 15 to 20)
#    0.000    3.000    0.000    3.000    0.000    4.500 
#    0.000    0.000    0.000    4.500    0.000    0.000 
#    0.000    0.000    0.000    0.000    0.000    0.000 
#
# Total GULP energy -178489.179463 kJ/mol
# GULP energy per Si atom -5577.786858 kJ/mol
# Density = 1.916978 g / cm^3
# Si number density = 19.213513 Si / 1000 Ang^3
#
#
#
# Elastic Constant Matrix: (Units=GPa)
#
#
# Indices 1 2 3 4 5 6 
#
# 1 145.1391 1.0473 86.2387 0.0000 -10.3207 0.0000
# 2 1.0473 41.3472 3.3062 0.0000 -2.7781 0.0000
# 3 86.2387 3.3062 148.3825 0.0000 6.3286 0.0000
# 4 0.0000 0.0000 0.0000 12.1939 0.0000 2.3712
# 5 -10.3207 -2.7781 6.3286 0.0000 13.1486 0.0000
# 6 0.0000 0.0000 0.0000 2.3712 0.0000 14.1197
#
#
#
# Elastic Compliance Matrix: (Units=1/GPa)
#
#
# Indices 1 2 3 4 5 6 
#
# 1 0.012595 0.001255 -0.007944 0.000000 0.013975 0.000000
# 2 0.001255 0.024748 -0.001578 0.000000 0.006974 0.000000
# 3 -0.007944 -0.001578 0.011916 0.000000 -0.012304 0.000000
# 4 0.000000 0.000000 0.000000 0.084777 0.000000 -0.014237
# 5 0.013975 0.006974 -0.012304 0.000000 0.094418 0.000000
# 6 0.000000 0.000000 0.000000 -0.014237 0.000000 0.073214
#
#
# Mechanical properties :
#
#
# Convention : Reuss Voigt Hill
#
# Bulk Modulus (GPa) = 30.55762 57.33926 43.94844
# Shear Modulus (GPa) = 15.19245 24.17756 19.68501
#
# Velocity S-wave (km/s) = 2.81502 3.55119 3.20432
# Velocity P-wave (km/s) = 5.14826 6.83539 6.05091
#
# Compressibility (1/GPa) = 0.03272506
#
# Stress axis : x y z
#
# Youngs Moduli (GPa) = 79.39822 40.40666 83.91895
#
# Poissons Ratio (x) = -0.05072 0.66665
# Poissons Ratio (y) = -0.09966 0.13245
# Poissons Ratio (z) = 0.63074 0.06378
#
# Static dielectric constant tensor:
#      x y z
#    x 1.668310 0.000000 0.004690 
#    y 0.000000 1.734920 0.000000 
#    z 0.004690 0.000000 1.664510 
# 
# From -- ./inp_files/51732.got.cif
#   From: 2010.05.17/outbox.cif.g08.bks.cpg/sg11_26_cif.got.tgz:51732.got - 2010.06.03 12:22:45.
