data_PCOD9156462
_publ_section_title
;
Structure prediction by ZEFSAII (Michael W. Deem and Ramdas Pophale) SiO2 
 PCOD9156462
Probable space group: P 21/M
;
_chemical_formula_sum "Si O2"
_cell_formula_units_Z 28
_cell_length_a 13.841728
_cell_length_b 8.704094
_cell_length_c 13.724561
_cell_angle_alpha 90.000000
_cell_angle_beta 121.363701
_cell_angle_gamma 90.000000
_cell_volume 1411.918228
_symmetry_space_group_name_H-M "P 21/M"
_symmetry_group_IT_number 11
_symmetry_cell_setting 'monoclinic'
loop_
_space_group_symop_operation_xyz
x,y,z
-x,1/2+y,-z
-x,-y,-z
x,1/2-y,z
loop_
_atom_site_type_symbol
_atom_site_label
_atom_site_fract_x
_atom_site_fract_y
_atom_site_fract_z
Si Si1 0.326832 0.569996 0.470474
Si Si2 0.060598 0.433719 0.126364
Si Si3 0.675521 0.563713 0.732585
Si Si4 0.064126 0.432809 0.750946
Si Si5 0.266172 0.065504 0.736617
Si Si6 0.874511 0.931192 0.528420
Si Si7 0.472604 0.570190 0.744146
O O1 0.294902 0.750000 0.448509
O O2 0.371482 0.513745 0.390314
O O3 0.218073 0.465321 0.436717
O O4 0.409379 0.553134 0.606162
O O5 0.058114 0.250000 0.124012
O O6 0.993653 0.490981 0.186315
O O7 0.192843 0.480152 0.192923
O O8 0.000000 0.500000 0.000000
O O9 0.666587 0.750000 0.719579
O O10 0.599526 0.516649 0.785675
O O11 0.064120 0.250000 0.764210
O O12 0.191921 0.483500 0.790789
O O13 0.984402 0.475041 0.617092
O O14 0.268993 0.250000 0.737712
O O15 0.190181 0.017671 0.603134
O O16 0.392390 0.007911 0.781868
O O17 0.899618 0.750000 0.536234
O O18 0.476408 0.750000 0.769932
#
# Coordination Sequence:
#
# PCOD9156462 Si02
#       7
#     4   4   4   4   4   4   4
#     4  10  18  28  47  76 109 146 184 220 260 316
#     4  11  24  41  61  83 107 138 179 231 286 331
#     4  10  20  35  54  76 107 142 178 224 277 324
#     4  11  21  35  55  79 109 142 182 228 274 323
#     4   9  20  34  50  77 113 150 183 220 263 316
#     4  10  18  30  48  74 110 150 186 220 264 318
#     4   9  19  33  50  77 111 147 183 218 259 319
#
# _framework density 19.831177
#
# number of rings (size 3 to 8) (size 9 to 14) (size 15 to 20)
#    0.000    2.000    1.429    2.571    0.000    3.429 
#    0.000    0.000    0.000    0.857    0.000    0.000 
#    0.000    0.000    0.000    0.000    0.000    0.000 
#
# Total GULP energy -156204.141582 kJ/mol
# GULP energy per Si atom -5578.719342 kJ/mol
# Density = 1.978604 g / cm^3
# Si number density = 19.831177 Si / 1000 Ang^3
#
#
#
# Elastic Constant Matrix: (Units=GPa)
#
#
# Indices 1 2 3 4 5 6 
#
# 1 193.0141 35.2776 26.7802 0.0000 1.6889 0.0000
# 2 35.2776 25.7060 15.9220 0.0000 2.5003 0.0000
# 3 26.7802 15.9220 32.2910 0.0000 0.3256 0.0000
# 4 0.0000 0.0000 0.0000 14.5687 0.0000 -2.0745
# 5 1.6889 2.5003 0.3256 0.0000 9.0729 0.0000
# 6 0.0000 0.0000 0.0000 -2.0745 0.0000 28.6528
#
#
#
# Elastic Compliance Matrix: (Units=1/GPa)
#
#
# Indices 1 2 3 4 5 6 
#
# 1 0.006980 -0.008782 -0.001470 0.000000 0.001174 0.000000
# 2 -0.008782 0.069016 -0.026581 0.000000 -0.016431 0.000000
# 3 -0.001470 -0.026581 0.045234 0.000000 0.005975 0.000000
# 4 0.000000 0.000000 0.000000 0.069356 0.000000 0.005021
# 5 0.001174 -0.016431 0.005975 0.000000 0.114314 0.000000
# 6 0.000000 0.000000 0.000000 0.005021 0.000000 0.035264
#
#
# Mechanical properties :
#
#
# Convention : Reuss Voigt Hill
#
# Bulk Modulus (GPa) = 21.02489 45.21896 33.12193
# Shear Modulus (GPa) = 11.63643 21.99428 16.81536
#
# Velocity S-wave (km/s) = 2.42497 3.33389 2.91507
# Velocity P-wave (km/s) = 4.29716 6.13769 5.29796
#
# Compressibility (1/GPa) = 0.04756267
#
# Stress axis : x y z
#
# Youngs Moduli (GPa) = 143.26973 14.48936 22.10726
#
# Poissons Ratio (x) = 0.12725 0.03250
# Poissons Ratio (y) = 1.25825 0.58764
# Poissons Ratio (z) = 0.21062 0.38514
#
# Static dielectric constant tensor:
#      x y z
#    x 1.779970 0.000000 0.009420 
#    y 0.000000 1.744220 0.000000 
#    z 0.009420 0.000000 1.694450 
# 
# From -- ./inp_files/49502.got.cif
#   From: 2010.05.17/outbox.cif.g08.bks.cpg/sg11_25_cif.got.tgz:49502.got - 2010.06.03 12:22:45.
