data_PCOD9156131
_publ_section_title
;
Structure prediction by ZEFSAII (Michael W. Deem and Ramdas Pophale) SiO2 
 PCOD9156131
Probable space group: P 21/M
;
_chemical_formula_sum "Si O2"
_cell_formula_units_Z 20
_cell_length_a 12.996977
_cell_length_b 11.312091
_cell_length_c 5.411712
_cell_angle_alpha 90.000000
_cell_angle_beta 83.576008
_cell_angle_gamma 90.000000
_cell_volume 790.650323
_symmetry_space_group_name_H-M "P 21/M"
_symmetry_group_IT_number 11
_symmetry_cell_setting 'monoclinic'
loop_
_space_group_symop_operation_xyz
x,y,z
-x,1/2+y,-z
-x,-y,-z
x,1/2-y,z
loop_
_atom_site_type_symbol
_atom_site_label
_atom_site_fract_x
_atom_site_fract_y
_atom_site_fract_z
Si Si1 0.636575 0.470899 0.207198
Si Si2 0.912995 0.964564 0.290334
Si Si3 0.399968 0.111362 0.282847
Si Si4 0.923149 0.250000 0.709665
Si Si5 0.889867 0.611085 0.794760
Si Si6 0.211759 0.750000 0.757259
O O1 0.632155 0.561264 0.439979
O O2 0.524078 0.406245 0.234492
O O3 0.719079 0.367949 0.242115
O O4 0.643296 0.536848 0.939411
O O5 0.997264 0.859434 0.299487
O O6 0.853062 0.958165 0.563142
O O7 0.849225 0.933329 0.066958
O O8 0.987409 0.075702 0.224975
O O9 0.372650 0.250000 0.267383
O O10 0.850609 0.250000 0.486679
O O11 0.855781 0.250000 0.974511
O O12 0.876622 0.750000 0.773759
#
# Coordination Sequence:
#
# PCOD9156131 Si02
#       6
#     4   4   4   2   4   2
#     4  10  21  35  54  86 112 144 189 222 293 325
#     4  10  20  31  51  82 103 140 179 214 278 315
#     4  10  19  35  60  82 113 139 179 251 280 330
#     4  12  22  36  54  76 120 152 184 222 266 344
#     4  10  17  32  54  76 110 130 173 239 268 313
#     4  12  24  38  56  80 120 154 184 230 264 350
#
# _framework density 25.295635000000001
#
# number of rings (size 3 to 8) (size 9 to 14) (size 15 to 20)
#    0.000    1.600    3.000    3.000    0.000    0.000 
#    0.000    0.000    0.000    7.200    0.000    0.000 
#    0.000    0.000    0.000    0.000    0.000    0.000 
#
# Total GULP energy -112034.934386 kJ/mol
# GULP energy per Si atom -5601.746719 kJ/mol
# Density = 2.523806 g / cm^3
# Si number density = 25.295635 Si / 1000 Ang^3
#
#
#
# Elastic Constant Matrix: (Units=GPa)
#
#
# Indices 1 2 3 4 5 6 
#
# 1 120.4083 36.4493 49.7053 0.0000 30.1569 0.0000
# 2 36.4493 166.6421 53.6848 0.0000 10.2177 0.0000
# 3 49.7053 53.6848 257.4074 0.0000 14.1728 0.0000
# 4 0.0000 0.0000 0.0000 42.1348 0.0000 7.9662
# 5 30.1569 10.2177 14.1728 0.0000 37.1496 0.0000
# 6 0.0000 0.0000 0.0000 7.9662 0.0000 35.2570
#
#
#
# Elastic Compliance Matrix: (Units=1/GPa)
#
#
# Indices 1 2 3 4 5 6 
#
# 1 0.011444 -0.001531 -0.001432 0.000000 -0.008323 0.000000
# 2 -0.001531 0.006699 -0.001091 0.000000 -0.000183 0.000000
# 3 -0.001432 -0.001091 0.004401 0.000000 -0.000216 0.000000
# 4 0.000000 0.000000 0.000000 0.024792 0.000000 -0.005602
# 5 -0.008323 -0.000183 -0.000216 0.000000 0.033807 0.000000
# 6 0.000000 0.000000 0.000000 -0.005602 0.000000 0.029629
#
#
# Mechanical properties :
#
#
# Convention : Reuss Voigt Hill
#
# Bulk Modulus (GPa) = 69.28125 91.57071 80.42598
# Shear Modulus (GPa) = 40.42250 49.88285 45.15267
#
# Velocity S-wave (km/s) = 4.00184 4.44553 4.22951
# Velocity P-wave (km/s) = 6.98577 7.91386 7.46425
#
# Compressibility (1/GPa) = 0.01443392
#
# Stress axis : x y z
#
# Youngs Moduli (GPa) = 87.37940 149.28413 227.22325
#
# Poissons Ratio (x) = 0.22863 0.32544
# Poissons Ratio (y) = 0.13382 0.24796
# Poissons Ratio (z) = 0.12515 0.16291
#
# Static dielectric constant tensor:
#      x y z
#    x 2.038440 0.000000 -0.004680 
#    y 0.000000 1.992330 0.000000 
#    z -0.004680 0.000000 2.049670 
# 
# From -- ./inp_files/6205.got.cif
#   From: 2010.05.17/outbox.cif.g08.bks.cpg/sg11_4_cif.got.tgz:6205.got - 2010.06.03 12:22:45.
