data_PCOD9156938
_publ_section_title
;
Structure prediction by ZEFSAII (Michael W. Deem and Ramdas Pophale) SiO2 
 PCOD9156938
Probable space group: P 21/M
;
_chemical_formula_sum "Si O2"
_cell_formula_units_Z 32
_cell_length_a 24.170795
_cell_length_b 8.958203
_cell_length_c 35.110140
_cell_angle_alpha 90.000000
_cell_angle_beta 163.836079
_cell_angle_gamma 90.000000
_cell_volume 2116.373635
_symmetry_space_group_name_H-M "P 21/M"
_symmetry_group_IT_number 11
_symmetry_cell_setting 'monoclinic'
loop_
_space_group_symop_operation_xyz
x,y,z
-x,1/2+y,-z
-x,-y,-z
x,1/2-y,z
loop_
_atom_site_type_symbol
_atom_site_label
_atom_site_fract_x
_atom_site_fract_y
_atom_site_fract_z
Si Si1 0.593579 0.423894 0.508344
Si Si2 0.023931 0.429973 0.685857
Si Si3 0.757702 0.571546 0.089657
Si Si4 0.982727 0.572122 0.802003
Si Si5 0.618228 0.428106 0.113501
Si Si6 0.584228 0.076715 0.410540
Si Si7 0.832782 0.427720 0.863277
Si Si8 0.169951 0.928689 0.227532
O O1 0.588794 0.250000 0.517129
O O2 0.781929 0.506746 0.650254
O O3 0.611908 0.427222 0.474617
O O4 0.387493 0.505571 0.381415
O O5 0.034442 0.250000 0.690122
O O6 0.115270 0.468040 0.788122
O O7 0.163772 0.502694 0.746362
O O8 0.793849 0.475753 0.532000
O O9 0.783556 0.750000 0.101173
O O10 0.841715 0.484597 0.109209
O O11 0.526670 0.541348 0.946683
O O12 0.975777 0.750000 0.798992
O O13 0.983566 0.502447 0.844772
O O14 0.626999 0.250000 0.114621
O O15 0.500000 0.500000 0.000000
O O16 0.553078 0.250000 0.379304
O O17 0.386924 0.985064 0.271071
O O18 0.840099 0.250000 0.871291
O O19 0.865430 0.466752 0.840196
O O20 0.000000 0.500000 0.000000
O O21 0.170830 0.750000 0.232106
#
# Coordination Sequence:
#
# PCOD9156938 Si02
#       8
#     4   4   4   4   4   4   4   4
#     4  10  18  31  46  61  88 121 152 187 225 262
#     4   9  16  28  44  63  88 119 154 190 229 265
#     4   9  17  30  42  57  86 124 159 189 227 264
#     4  12  22  29  42  64  89 120 156 191 225 262
#     4   9  17  27  40  58  83 118 156 192 228 264
#     4   9  17  30  48  68  91 121 153 187 227 269
#     4  10  21  36  54  72  90 115 146 185 231 277
#     4  10  21  35  48  65  87 114 150 185 223 270
#
# _framework density 15.120203999999999
#
# number of rings (size 3 to 8) (size 9 to 14) (size 15 to 20)
#    0.000    2.250    1.250    3.750    0.000    5.000 
#    0.000    0.000    0.000    0.000    0.000    0.000 
#    0.000    1.000    0.000    3.250    0.000    4.000 
#
# Total GULP energy -178425.725548 kJ/mol
# GULP energy per Si atom -5575.803923 kJ/mol
# Density = 1.508579 g / cm^3
# Si number density = 15.120204 Si / 1000 Ang^3
#
#
#
# Elastic Constant Matrix: (Units=GPa)
#
#
# Indices 1 2 3 4 5 6 
#
# 1 93.1494 53.1545 56.4964 0.0000 29.7105 0.0000
# 2 53.1545 70.8183 40.9050 0.0000 14.3439 0.0000
# 3 56.4964 40.9050 85.5858 0.0000 17.7569 0.0000
# 4 0.0000 0.0000 0.0000 23.6851 0.0000 5.9530
# 5 29.7105 14.3439 17.7569 0.0000 23.4410 0.0000
# 6 0.0000 0.0000 0.0000 5.9530 0.0000 24.2018
#
#
#
# Elastic Compliance Matrix: (Units=1/GPa)
#
#
# Indices 1 2 3 4 5 6 
#
# 1 0.032547 -0.013680 -0.009639 0.000000 -0.025579 0.000000
# 2 -0.013680 0.025939 -0.004356 0.000000 0.004766 0.000000
# 3 -0.009639 -0.004356 0.020219 0.000000 -0.000433 0.000000
# 4 0.000000 0.000000 0.000000 0.045003 0.000000 -0.011070
# 5 -0.025579 0.004766 -0.000433 0.000000 0.072492 0.000000
# 6 0.000000 0.000000 0.000000 -0.011070 0.000000 0.044042
#
#
# Mechanical properties :
#
#
# Convention : Reuss Voigt Hill
#
# Bulk Modulus (GPa) = 42.81857 61.18503 52.00180
# Shear Modulus (GPa) = 16.48113 20.86541 18.67327
#
# Velocity S-wave (km/s) = 3.30511 3.71882 3.51805
# Velocity P-wave (km/s) = 6.55326 7.68070 7.13927
#
# Compressibility (1/GPa) = 0.02335435
#
# Stress axis : x y z
#
# Youngs Moduli (GPa) = 30.72509 38.55157 49.45867
#
# Poissons Ratio (x) = 0.52740 0.47674
# Poissons Ratio (y) = 0.42033 0.21543
# Poissons Ratio (z) = 0.29617 0.16792
#
# Static dielectric constant tensor:
#      x y z
#    x 1.525960 0.000000 0.028620 
#    y 0.000000 1.503360 0.000000 
#    z 0.028620 0.000000 1.489990 
# 
# From -- ./inp_files/73641.got.cif
#   From: 2010.05.17/outbox.cif.g08.bks.cpg/sg11_37_cif.got.tgz:73641.got - 2010.06.03 12:22:45.
