data_PCOD9156030
_publ_section_title
;
Structure prediction by ZEFSAII (Michael W. Deem and Ramdas Pophale) SiO2 
 PCOD9156030
Probable space group: P 21/M
;
_chemical_formula_sum "Si O2"
_cell_formula_units_Z 28
_cell_length_a 22.196575
_cell_length_b 14.233495
_cell_length_c 20.409146
_cell_angle_alpha 90.000000
_cell_angle_beta 166.868784
_cell_angle_gamma 90.000000
_cell_volume 1464.859975
_symmetry_space_group_name_H-M "P 21/M"
_symmetry_group_IT_number 11
_symmetry_cell_setting 'monoclinic'
loop_
_space_group_symop_operation_xyz
x,y,z
-x,1/2+y,-z
-x,-y,-z
x,1/2-y,z
loop_
_atom_site_type_symbol
_atom_site_label
_atom_site_fract_x
_atom_site_fract_y
_atom_site_fract_z
Si Si1 0.972717 0.052001 0.620123
Si Si2 0.643395 0.440659 0.506921
Si Si3 0.426303 0.148463 0.023818
Si Si4 0.746363 0.356556 0.752769
Si Si5 0.667147 0.857131 0.566534
Si Si6 0.775688 0.554476 0.303210
Si Si7 0.074828 0.362063 0.866424
O O1 0.286762 0.146679 0.804640
O O2 0.734454 0.121419 0.344834
O O3 0.256040 0.078060 0.888479
O O4 0.871262 0.954481 0.479472
O O5 0.687915 0.425957 0.631560
O O6 0.628242 0.552857 0.478673
O O7 0.884832 0.392427 0.724493
O O8 0.374959 0.388522 0.202202
O O9 0.403112 0.250000 0.030529
O O10 0.993744 0.073115 0.718766
O O11 0.717369 0.250000 0.695510
O O12 0.545019 0.365989 0.599656
O O13 0.040986 0.366171 0.093046
O O14 0.643824 0.750000 0.514833
O O15 0.000000 0.500000 0.500000
O O16 0.500000 0.500000 0.000000
O O17 0.049861 0.250000 0.826410
#
# Coordination Sequence:
#
# PCOD9156030 Si02
#       7
#     4   4   4   4   4   4   4
#     4  10  20  34  49  71 104 137 170 203 249 308
#     4  12  23  37  55  80 111 143 176 218 265 314
#     4  10  17  29  51  76 100 128 164 211 256 298
#     4  10  19  34  56  82 109 136 168 216 273 322
#     4  10  21  37  59  81 103 135 178 223 268 318
#     4   8  16  29  47  69  93 123 159 202 245 285
#     4  12  24  36  52  77 110 148 181 213 259 323
#
# _framework density 19.114455
#
# number of rings (size 3 to 8) (size 9 to 14) (size 15 to 20)
#    0.000    1.714    0.000    6.000    0.000    1.143 
#    0.000    0.000    0.000    1.714    0.000    0.000 
#    0.000    0.000    0.000    0.000    0.000    0.000 
#
# Total GULP energy -155999.202796 kJ/mol
# GULP energy per Si atom -5571.400100 kJ/mol
# Density = 1.907095 g / cm^3
# Si number density = 19.114455 Si / 1000 Ang^3
#
#
#
# Elastic Constant Matrix: (Units=GPa)
#
#
# Indices 1 2 3 4 5 6 
#
# 1 -10.4791 4.1148 -12.0175 0.0000 -14.8738 0.0000
# 2 4.1148 57.7218 6.5006 0.0000 2.1457 0.0000
# 3 -12.0175 6.5006 74.4720 0.0000 11.0441 0.0000
# 4 0.0000 0.0000 0.0000 13.0852 0.0000 -0.1434
# 5 -14.8738 2.1457 11.0441 0.0000 17.8636 0.0000
# 6 0.0000 0.0000 0.0000 -0.1434 0.0000 18.9431
#
#
#
# Elastic Compliance Matrix: (Units=1/GPa)
#
#
# Indices 1 2 3 4 5 6 
#
# 1 -0.042307 0.004535 -0.002112 0.000000 -0.034465 0.000000
# 2 0.004535 0.017037 -0.001114 0.000000 0.002418 0.000000
# 3 -0.002112 -0.001114 0.014780 0.000000 -0.010762 0.000000
# 4 0.000000 0.000000 0.000000 0.076429 0.000000 0.000579
# 5 -0.034465 0.002418 -0.010762 0.000000 0.033646 0.000000
# 6 0.000000 0.000000 0.000000 0.000579 0.000000 0.052794
#
#
# Mechanical properties :
#
#
# Convention : Reuss Voigt Hill
#
# Bulk Modulus (GPa) = -127.04546 13.21227 -56.91659
# Shear Modulus (GPa) = 33.98181 18.18616 26.08399
#
# Velocity S-wave (km/s) = 4.22098 3.08788 3.69809
# Velocity P-wave (km/s) = 6.54633 4.43176 3.40689
#
# Compressibility (1/GPa) = -0.00787120
#
# Stress axis : x y z
#
# Youngs Moduli (GPa) = -23.63690 58.69659 67.65737
#
# Poissons Ratio (x) = -0.26618 0.14288
# Poissons Ratio (y) = 0.10719 0.07537
# Poissons Ratio (z) = -0.04992 0.06538
#
# Static dielectric constant tensor:
#      x y z
#    x 1.693640 0.000000 -0.016300 
#    y 0.000000 1.731380 0.000000 
#    z -0.016300 0.000000 1.647920 
# 
# From -- ./inp_files/70368.got.cif
#   From: 2010.05.17/outbox.cif.g08.bks.cpg/sg11_36_cif.got.tgz:70368.got - 2010.06.03 12:22:45.
