data_PCOD9156128
_publ_section_title
;
Structure prediction by ZEFSAII (Michael W. Deem and Ramdas Pophale) SiO2 
 PCOD9156128
Probable space group: P 21/M
;
_chemical_formula_sum "Si O2"
_cell_formula_units_Z 32
_cell_length_a 12.134776
_cell_length_b 17.211823
_cell_length_c 8.393841
_cell_angle_alpha 90.000000
_cell_angle_beta 89.710699
_cell_angle_gamma 90.000000
_cell_volume 1753.128853
_symmetry_space_group_name_H-M "P 21/M"
_symmetry_group_IT_number 11
_symmetry_cell_setting 'monoclinic'
loop_
_space_group_symop_operation_xyz
x,y,z
-x,1/2+y,-z
-x,-y,-z
x,1/2-y,z
loop_
_atom_site_type_symbol
_atom_site_label
_atom_site_fract_x
_atom_site_fract_y
_atom_site_fract_z
Si Si1 0.496123 0.073698 0.120604
Si Si2 0.601864 0.050952 0.704108
Si Si3 0.818912 0.468011 0.920709
Si Si4 0.232016 0.907092 0.559795
Si Si5 0.970796 0.062334 0.636988
Si Si6 0.589404 0.658131 0.155482
Si Si7 0.803390 0.565478 0.237027
Si Si8 0.728935 0.337823 0.122021
O O1 0.614134 0.114529 0.123832
O O2 0.461217 0.032174 0.285222
O O3 0.415209 0.133186 0.031718
O O4 0.500000 0.000000 0.000000
O O5 0.705902 0.033697 0.820017
O O6 0.658137 0.080890 0.543625
O O7 0.518110 0.116719 0.767353
O O8 0.918008 0.475946 0.795616
O O9 0.819455 0.532692 0.057790
O O10 0.814518 0.385446 0.012773
O O11 0.130158 0.891509 0.441532
O O12 0.234962 0.842675 0.695287
O O13 0.217763 0.988864 0.654870
O O14 0.084160 0.101343 0.693236
O O15 0.000000 0.000000 0.500000
O O16 0.585756 0.750000 0.172600
O O17 0.697788 0.620679 0.233120
O O18 0.712882 0.250000 0.067307
#
# Coordination Sequence:
#
# PCOD9156128 Si02
#       8
#     4   4   4   4   4   4   4   4
#     4  10  17  32  53  77 107 136 184 229 271 313
#     4  10  18  33  55  81 105 144 180 225 278 317
#     4  10  17  33  58  82 106 136 183 234 270 316
#     4   9  20  35  55  80 111 138 184 233 275 311
#     4   9  19  35  58  85 104 134 182 235 275 308
#     4  11  21  32  51  79 114 144 176 220 271 334
#     4  10  19  35  55  82 107 142 183 224 268 324
#     4  11  21  33  51  81 115 147 180 222 280 336
#
# _framework density 18.253081000000002
#
# number of rings (size 3 to 8) (size 9 to 14) (size 15 to 20)
#    0.000    2.000    3.750    3.000    0.000    2.500 
#    0.000    3.125    0.000    0.750    0.000    0.875 
#    0.000    0.000    0.000    0.000    0.000    0.000 
#
# Total GULP energy -178200.137291 kJ/mol
# GULP energy per Si atom -5568.754290 kJ/mol
# Density = 1.821154 g / cm^3
# Si number density = 18.253081 Si / 1000 Ang^3
#
#
#
# Elastic Constant Matrix: (Units=GPa)
#
#
# Indices 1 2 3 4 5 6 
#
# 1 99.4065 29.3659 29.7254 0.0000 7.0694 0.0000
# 2 29.3659 73.4805 16.3689 0.0000 -0.9147 0.0000
# 3 29.7254 16.3689 73.0940 0.0000 -8.7251 0.0000
# 4 0.0000 0.0000 0.0000 7.6296 0.0000 1.8795
# 5 7.0694 -0.9147 -8.7251 0.0000 39.8427 0.0000
# 6 0.0000 0.0000 0.0000 1.8795 0.0000 4.7718
#
#
#
# Elastic Compliance Matrix: (Units=1/GPa)
#
#
# Indices 1 2 3 4 5 6 
#
# 1 0.012952 -0.004162 -0.004745 0.000000 -0.003433 0.000000
# 2 -0.004162 0.015667 -0.001730 0.000000 0.000719 0.000000
# 3 -0.004745 -0.001730 0.016526 0.000000 0.004421 0.000000
# 4 0.000000 0.000000 0.000000 0.145154 0.000000 -0.057175
# 5 -0.003433 0.000719 0.004421 0.000000 0.026693 0.000000
# 6 0.000000 0.000000 0.000000 -0.057175 0.000000 0.232087
#
#
# Mechanical properties :
#
#
# Convention : Reuss Voigt Hill
#
# Bulk Modulus (GPa) = 41.89234 44.10017 42.99626
# Shear Modulus (GPa) = 10.45349 21.81685 16.13517
#
# Velocity S-wave (km/s) = 2.39571 3.46098 2.97639
# Velocity P-wave (km/s) = 5.53653 6.33909 5.95135
#
# Compressibility (1/GPa) = 0.02387071
#
# Stress axis : x y z
#
# Youngs Moduli (GPa) = 77.20671 63.82973 60.51109
#
# Poissons Ratio (x) = 0.26566 0.28713
# Poissons Ratio (y) = 0.32133 0.10469
# Poissons Ratio (z) = 0.36635 0.11043
#
# Static dielectric constant tensor:
#      x y z
#    x 1.688000 0.000000 0.011620 
#    y 0.000000 1.606710 0.000000 
#    z 0.011620 0.000000 1.700800 
# 
# From -- ./inp_files/18655.got.cif
#   From: 2010.05.17/outbox.cif.g08.bks.cpg/sg11_10_cif.got.tgz:18655.got - 2010.06.03 12:22:45.
