data_PCOD9156707
_publ_section_title
;
Structure prediction by ZEFSAII (Michael W. Deem and Ramdas Pophale) SiO2 
 PCOD9156707
Probable space group: P 21/M
;
_chemical_formula_sum "Si O2"
_cell_formula_units_Z 24
_cell_length_a 18.599238
_cell_length_b 8.536036
_cell_length_c 13.068604
_cell_angle_alpha 90.000000
_cell_angle_beta 44.721416
_cell_angle_gamma 90.000000
_cell_volume 1459.969085
_symmetry_space_group_name_H-M "P 21/M"
_symmetry_group_IT_number 11
_symmetry_cell_setting 'monoclinic'
loop_
_space_group_symop_operation_xyz
x,y,z
-x,1/2+y,-z
-x,-y,-z
x,1/2-y,z
loop_
_atom_site_type_symbol
_atom_site_label
_atom_site_fract_x
_atom_site_fract_y
_atom_site_fract_z
Si Si1 0.218022 0.438180 0.669915
Si Si2 0.378965 0.940628 0.902352
Si Si3 0.615049 0.561175 0.662865
Si Si4 0.003042 0.563070 0.880358
Si Si5 0.383983 0.562346 0.122318
Si Si6 0.212287 0.561627 0.907305
O O1 0.214287 0.250000 0.678386
O O2 0.312356 0.487944 0.503405
O O3 0.227737 0.501690 0.775741
O O4 0.111013 0.499381 0.731379
O O5 0.380970 0.750000 0.897520
O O6 0.497005 0.992994 0.770325
O O7 0.303436 0.992240 0.889279
O O8 0.340303 0.984754 0.055422
O O9 0.612888 0.750000 0.667126
O O10 0.657581 0.504154 0.729343
O O11 0.003223 0.750000 0.880408
O O12 0.897261 0.499772 0.941816
O O13 0.000000 0.500000 0.000000
O O14 0.384217 0.750000 0.127455
O O15 0.500000 0.500000 0.000000
O O16 0.209362 0.750000 0.907808
#
# Coordination Sequence:
#
# PCOD9156707 Si02
#       6
#     4   4   4   4   4   4
#     4  10  19  31  47  68  95 123 152 188 229 271
#     4   8  16  30  47  68  94 123 150 183 228 272
#     4   9  18  32  48  68  95 124 153 187 228 271
#     4  10  18  30  47  66  89 117 155 194 226 266
#     4   9  16  29  48  68  91 120 156 191 224 266
#     4  10  18  30  48  68  93 123 154 185 224 274
#
# _framework density 16.438704999999999
#
# number of rings (size 3 to 8) (size 9 to 14) (size 15 to 20)
#    0.000    2.667    0.000    6.000    0.000    2.000 
#    0.000    8.333    0.000    1.000    0.000    0.000 
#    0.000    0.000    0.000    0.000    0.000    0.000 
#
# Total GULP energy -133618.545522 kJ/mol
# GULP energy per Si atom -5567.439397 kJ/mol
# Density = 1.640129 g / cm^3
# Si number density = 16.438705 Si / 1000 Ang^3
#
#
#
# Elastic Constant Matrix: (Units=GPa)
#
#
# Indices 1 2 3 4 5 6 
#
# 1 105.7424 26.1746 89.3740 0.0000 -3.0242 0.0000
# 2 26.1746 47.5133 20.9163 0.0000 -0.9404 0.0000
# 3 89.3740 20.9163 74.7538 0.0000 2.4779 0.0000
# 4 0.0000 0.0000 0.0000 22.2717 0.0000 1.3032
# 5 -3.0242 -0.9404 2.4779 0.0000 18.9235 0.0000
# 6 0.0000 0.0000 0.0000 1.3032 0.0000 19.6973
#
#
#
# Elastic Compliance Matrix: (Units=1/GPa)
#
#
# Indices 1 2 3 4 5 6 
#
# 1 -0.330721 0.005165 0.397427 0.000000 -0.104637 0.000000
# 2 0.005165 0.024005 -0.013015 0.000000 0.003722 0.000000
# 3 0.397427 -0.013015 -0.462226 0.000000 0.123392 0.000000
# 4 0.000000 0.000000 0.000000 0.045075 0.000000 -0.002982
# 5 -0.104637 0.003722 0.123392 0.000000 0.020150 0.000000
# 6 0.000000 0.000000 0.000000 -0.002982 0.000000 0.050966
#
#
# Mechanical properties :
#
#
# Convention : Reuss Voigt Hill
#
# Bulk Modulus (GPa) = 97.93948 55.65993 76.79970
# Shear Modulus (GPa) = -3.50017 18.28146 7.39065
#
# Velocity S-wave (km/s) = -1.46077 3.33843 2.12265
# Velocity P-wave (km/s) = 7.54074 6.98518 7.26827
#
# Compressibility (1/GPa) = 0.01021039
#
# Stress axis : x y z
#
# Youngs Moduli (GPa) = -3.02369 41.65864 -2.16344
#
# Poissons Ratio (x) = -0.21515 0.85981
# Poissons Ratio (y) = 0.01562 -0.02816
# Poissons Ratio (z) = 1.20170 0.54217
#
# Static dielectric constant tensor:
#      x y z
#    x 1.567990 0.000000 -0.008530 
#    y 0.000000 1.557250 0.000000 
#    z -0.008530 0.000000 1.555130 
# 
# From -- ./inp_files/40495.got.cif
#   From: 2010.05.17/outbox.cif.g08.bks.cpg/sg11_21_cif.got.tgz:40495.got - 2010.06.03 12:22:45.
