data_PCOD9156957
_publ_section_title
;
Structure prediction by ZEFSAII (Michael W. Deem and Ramdas Pophale) SiO2 
 PCOD9156957
Probable space group: P 21/M
;
_chemical_formula_sum "Si O2"
_cell_formula_units_Z 32
_cell_length_a 16.749961
_cell_length_b 8.659665
_cell_length_c 21.039493
_cell_angle_alpha 90.000000
_cell_angle_beta 137.644565
_cell_angle_gamma 90.000000
_cell_volume 2056.054563
_symmetry_space_group_name_H-M "P 21/M"
_symmetry_group_IT_number 11
_symmetry_cell_setting 'monoclinic'
loop_
_space_group_symop_operation_xyz
x,y,z
-x,1/2+y,-z
-x,-y,-z
x,1/2-y,z
loop_
_atom_site_type_symbol
_atom_site_label
_atom_site_fract_x
_atom_site_fract_y
_atom_site_fract_z
Si Si1 0.285677 0.436960 0.016774
Si Si2 0.816771 0.927804 0.913585
Si Si3 0.884538 0.564953 0.468998
Si Si4 0.514114 0.935270 0.079385
Si Si5 0.929577 0.074364 0.864011
Si Si6 0.012979 0.065486 0.657514
Si Si7 0.044258 0.932539 0.814055
Si Si8 0.243628 0.564764 0.720104
O O1 0.285879 0.250000 0.014158
O O2 0.170069 0.497762 0.911309
O O3 0.270478 0.483178 0.082030
O O4 0.402463 0.505740 0.054270
O O5 0.789701 0.750000 0.882369
O O6 0.832511 0.021103 0.858040
O O7 0.945172 0.929547 0.024165
O O8 0.884573 0.750000 0.467834
O O9 0.905397 0.502724 0.552129
O O10 0.778106 0.498404 0.364089
O O11 0.000000 0.500000 0.500000
O O12 0.517704 0.750000 0.080221
O O13 0.634624 0.001787 0.179936
O O14 0.500000 0.000000 0.000000
O O15 0.909714 0.250000 0.831856
O O16 0.951165 0.968808 0.815555
O O17 0.015242 0.250000 0.653177
O O18 0.007847 0.012551 0.727108
O O19 0.134775 0.998063 0.699034
O O20 0.056783 0.750000 0.812322
O O21 0.240630 0.750000 0.718558
#
# Coordination Sequence:
#
# PCOD9156957 Si02
#       8
#     4   4   4   4   4   4   4   4
#     4  10  20  34  48  65  89 120 157 194 230 270
#     4   8  15  27  43  61  84 114 148 185 224 267
#     4  10  18  31  49  70  91 115 148 186 228 273
#     4  12  24  37  50  67  91 122 158 195 232 269
#     4   9  16  26  41  62  87 116 149 184 223 268
#     4  11  20  32  48  68  93 121 152 188 230 275
#     4  11  20  30  44  65  93 124 155 188 228 274
#     4  11  21  35  51  68  90 120 155 191 230 270
#
# _framework density 15.563789
#
# number of rings (size 3 to 8) (size 9 to 14) (size 15 to 20)
#    0.000    1.750    0.000    9.375    0.000    3.500 
#    0.000    0.000    0.000    0.000    0.000    0.000 
#    0.000    1.000    0.000    3.750    0.000    6.000 
#
# Total GULP energy -178518.829102 kJ/mol
# GULP energy per Si atom -5578.713409 kJ/mol
# Density = 1.552837 g / cm^3
# Si number density = 15.563789 Si / 1000 Ang^3
#
#
#
# Elastic Constant Matrix: (Units=GPa)
#
#
# Indices 1 2 3 4 5 6 
#
# 1 98.7065 42.8702 44.4874 0.0000 -8.8767 0.0000
# 2 42.8702 143.6615 46.3976 0.0000 -8.1202 0.0000
# 3 44.4874 46.3976 99.0342 0.0000 -14.4799 0.0000
# 4 0.0000 0.0000 0.0000 23.8014 0.0000 -3.5547
# 5 -8.8767 -8.1202 -14.4799 0.0000 15.6833 0.0000
# 6 0.0000 0.0000 0.0000 -3.5547 0.0000 26.0543
#
#
#
# Elastic Compliance Matrix: (Units=1/GPa)
#
#
# Indices 1 2 3 4 5 6 
#
# 1 0.013440 -0.002405 -0.004602 0.000000 0.002113 0.000000
# 2 -0.002405 0.008641 -0.002905 0.000000 0.000431 0.000000
# 3 -0.004602 -0.002905 0.014942 0.000000 0.009687 0.000000
# 4 0.000000 0.000000 0.000000 0.042888 0.000000 0.005851
# 5 0.002113 0.000431 0.009687 0.000000 0.074125 0.000000
# 6 0.000000 0.000000 0.000000 0.005851 0.000000 0.039180
#
#
# Mechanical properties :
#
#
# Convention : Reuss Voigt Hill
#
# Bulk Modulus (GPa) = 58.14127 67.65696 62.89912
# Shear Modulus (GPa) = 22.85494 26.95095 24.90295
#
# Velocity S-wave (km/s) = 3.83622 4.16582 4.00441
# Velocity P-wave (km/s) = 7.55380 8.16724 7.86650
#
# Compressibility (1/GPa) = 0.01719949
#
# Stress axis : x y z
#
# Youngs Moduli (GPa) = 74.40750 115.72693 66.92583
#
# Poissons Ratio (x) = 0.27832 0.30796
# Poissons Ratio (y) = 0.17895 0.19442
# Poissons Ratio (z) = 0.34239 0.33619
#
# Static dielectric constant tensor:
#      x y z
#    x 1.533910 0.000000 -0.016210 
#    y 0.000000 1.522940 0.000000 
#    z -0.016210 0.000000 1.515600 
# 
# From -- ./inp_files/65221.got.cif
#   From: 2010.05.17/outbox.cif.g08.bks.cpg/sg11_33_cif.got.tgz:65221.got - 2010.06.03 12:22:45.
