data_PCOD9156015
_publ_section_title
;
Structure prediction by ZEFSAII (Michael W. Deem and Ramdas Pophale) SiO2 
 PCOD9156015
Probable space group: P 21/M
;
_chemical_formula_sum "Si O2"
_cell_formula_units_Z 32
_cell_length_a 18.310142
_cell_length_b 8.602763
_cell_length_c 12.806562
_cell_angle_alpha 90.000000
_cell_angle_beta 75.845241
_cell_angle_gamma 90.000000
_cell_volume 1956.015029
_symmetry_space_group_name_H-M "P 21/M"
_symmetry_group_IT_number 11
_symmetry_cell_setting 'monoclinic'
loop_
_space_group_symop_operation_xyz
x,y,z
-x,1/2+y,-z
-x,-y,-z
x,1/2-y,z
loop_
_atom_site_type_symbol
_atom_site_label
_atom_site_fract_x
_atom_site_fract_y
_atom_site_fract_z
Si Si1 0.654173 0.063147 0.572384
Si Si2 0.659318 0.563677 0.334172
Si Si3 0.089507 0.563259 0.640344
Si Si4 0.185847 0.560951 0.404353
Si Si5 0.922700 0.063647 0.977683
Si Si6 0.821233 0.936085 0.190748
Si Si7 0.496979 0.564742 0.619687
Si Si8 0.074504 0.938192 0.264418
O O1 0.649398 0.250000 0.573170
O O2 0.727768 0.012240 0.610823
O O3 0.665673 0.006932 0.448661
O O4 0.575141 0.994967 0.640412
O O5 0.654381 0.750000 0.345658
O O6 0.734550 0.522853 0.244686
O O7 0.582113 0.500292 0.311052
O O8 0.089458 0.750000 0.644251
O O9 0.137633 0.512832 0.522682
O O10 0.128852 0.499189 0.730774
O O11 0.004503 0.502376 0.665729
O O12 0.186354 0.750000 0.404247
O O13 0.142505 0.510549 0.315538
O O14 0.925218 0.250000 0.979848
O O15 0.854724 0.004282 0.072942
O O16 0.916569 0.013802 0.859216
O O17 0.000000 0.000000 0.000000
O O18 0.827858 0.750000 0.186461
O O19 0.500000 0.500000 0.500000
O O20 0.495544 0.750000 0.618114
O O21 0.071045 0.750000 0.268184
#
# Coordination Sequence:
#
# PCOD9156015 Si02
#       8
#     4   4   4   4   4   4   4   4
#     4  10  17  29  48  70  99 133 162 196 239 293
#     4  10  19  31  47  70  98 129 164 202 244 294
#     4  11  20  32  51  74  99 130 167 206 247 297
#     4   9  19  33  50  73 101 132 168 203 245 298
#     4  11  22  35  54  73  97 129 169 212 254 297
#     4  11  22  34  51  73 100 132 167 208 252 296
#     4  10  18  28  44  68  99 132 162 196 237 291
#     4  10  21  37  52  70  97 132 169 209 251 295
#
# _framework density 16.359791999999999
#
# number of rings (size 3 to 8) (size 9 to 14) (size 15 to 20)
#    0.000    1.750    2.500    4.875    0.000    2.000 
#    0.000    1.875    0.000    0.000    0.000    0.875 
#    0.000    0.000    0.000    0.000    0.000    0.000 
#
# Total GULP energy -178581.370924 kJ/mol
# GULP energy per Si atom -5580.667841 kJ/mol
# Density = 1.632256 g / cm^3
# Si number density = 16.359792 Si / 1000 Ang^3
#
#
#
# Elastic Constant Matrix: (Units=GPa)
#
#
# Indices 1 2 3 4 5 6 
#
# 1 171.1291 36.2471 53.6923 0.0000 -7.9862 0.0000
# 2 36.2471 49.6895 14.2996 0.0000 -5.2886 0.0000
# 3 53.6923 14.2996 47.1840 0.0000 5.8572 0.0000
# 4 0.0000 0.0000 0.0000 17.4415 0.0000 -5.7034
# 5 -7.9862 -5.2886 5.8572 0.0000 23.2487 0.0000
# 6 0.0000 0.0000 0.0000 -5.7034 0.0000 22.9603
#
#
#
# Elastic Compliance Matrix: (Units=1/GPa)
#
#
# Indices 1 2 3 4 5 6 
#
# 1 0.010524 -0.003752 -0.011543 0.000000 0.005670 0.000000
# 2 -0.003752 0.024518 -0.003812 0.000000 0.005249 0.000000
# 3 -0.011543 -0.003812 0.037249 0.000000 -0.014217 0.000000
# 4 0.000000 0.000000 0.000000 0.062404 0.000000 0.015501
# 5 0.005670 0.005249 -0.014217 0.000000 0.049737 0.000000
# 6 0.000000 0.000000 0.000000 0.015501 0.000000 0.047404
#
#
# Mechanical properties :
#
#
# Convention : Reuss Voigt Hill
#
# Bulk Modulus (GPa) = 29.34576 52.94228 41.14402
# Shear Modulus (GPa) = 17.76774 23.64767 20.70771
#
# Velocity S-wave (km/s) = 3.29912 3.80606 3.56162
# Velocity P-wave (km/s) = 5.69991 7.19349 6.48981
#
# Compressibility (1/GPa) = 0.03407647
#
# Stress axis : x y z
#
# Youngs Moduli (GPa) = 95.01646 40.78670 26.84645
#
# Poissons Ratio (x) = 0.15303 0.30989
# Poissons Ratio (y) = 0.35651 0.10235
# Poissons Ratio (z) = 1.09677 0.15549
#
# Static dielectric constant tensor:
#      x y z
#    x 1.574800 0.000000 -0.010000 
#    y 0.000000 1.544740 0.000000 
#    z -0.010000 0.000000 1.528680 
# 
# From -- ./inp_files/40550.got.cif
#   From: 2010.05.17/outbox.cif.g08.bks.cpg/sg11_21_cif.got.tgz:40550.got - 2010.06.03 12:22:45.
