data_PCOD9156056
_publ_section_title
;
Structure prediction by ZEFSAII (Michael W. Deem and Ramdas Pophale) SiO2 
 PCOD9156056
Probable space group: P 21/M
;
_chemical_formula_sum "Si O2"
_cell_formula_units_Z 28
_cell_length_a 13.051143
_cell_length_b 17.340976
_cell_length_c 9.475987
_cell_angle_alpha 90.000000
_cell_angle_beta 32.761212
_cell_angle_gamma 90.000000
_cell_volume 1160.527428
_symmetry_space_group_name_H-M "P 21/M"
_symmetry_group_IT_number 11
_symmetry_cell_setting 'monoclinic'
loop_
_space_group_symop_operation_xyz
x,y,z
-x,1/2+y,-z
-x,-y,-z
x,1/2-y,z
loop_
_atom_site_type_symbol
_atom_site_label
_atom_site_fract_x
_atom_site_fract_y
_atom_site_fract_z
Si Si1 0.835191 0.438103 0.703146
Si Si2 0.008370 0.842933 0.706944
Si Si3 0.371321 0.085448 0.995892
Si Si4 0.829813 0.842074 0.193393
Si Si5 0.541191 0.086058 0.509220
Si Si6 0.355326 0.161088 0.318781
Si Si7 0.247688 0.662994 0.966121
O O1 0.663999 0.493731 0.945533
O O2 0.000000 0.500000 0.500000
O O3 0.830993 0.387415 0.567099
O O4 0.884952 0.380539 0.771557
O O5 0.027765 0.750000 0.675005
O O6 0.814006 0.871551 0.855917
O O7 0.984422 0.866924 0.898415
O O8 0.386646 0.119370 0.134572
O O9 0.530439 0.092279 0.690131
O O10 0.845644 0.750000 0.186694
O O11 0.632810 0.861680 0.343705
O O12 0.795420 0.872318 0.392105
O O13 0.719291 0.117909 0.216647
O O14 0.500000 0.000000 0.500000
O O15 0.303860 0.250000 0.347481
O O16 0.554419 0.163368 0.174206
O O17 0.191419 0.750000 0.002579
#
# Coordination Sequence:
#
# PCOD9156056 Si02
#       7
#     4   4   4   4   4   4   4
#     4  10  20  33  49  75 104 134 175 214 250 292
#     4   9  17  31  53  72  95 135 179 213 242 296
#     4  10  19  31  51  79 107 128 163 216 266 302
#     4   8  16  31  49  71  97 131 171 208 253 307
#     4  10  17  30  49  75 102 132 164 213 258 306
#     4   9  18  32  52  77 104 130 163 211 265 315
#     4  10  20  35  54  76 105 139 170 206 258 315
#
# _framework density 24.12696
#
# number of rings (size 3 to 8) (size 9 to 14) (size 15 to 20)
#    0.000    2.571    1.429    2.143    0.000    2.286 
#    0.000    0.714    0.000    3.429    0.000    6.000 
#    0.000    0.000    0.000    0.000    0.000    0.000 
#
# Total GULP energy -156347.358567 kJ/mol
# GULP energy per Si atom -5583.834235 kJ/mol
# Density = 2.407205 g / cm^3
# Si number density = 24.126960 Si / 1000 Ang^3
#
#
#
# Elastic Constant Matrix: (Units=GPa)
#
#
# Indices 1 2 3 4 5 6 
#
# 1 121.4997 22.0086 46.3467 0.0000 35.4256 0.0000
# 2 22.0086 105.3516 60.2047 0.0000 24.8868 0.0000
# 3 46.3467 60.2047 194.1630 0.0000 70.1070 0.0000
# 4 0.0000 0.0000 0.0000 46.3753 0.0000 11.1438
# 5 35.4256 24.8868 70.1070 0.0000 36.9756 0.0000
# 6 0.0000 0.0000 0.0000 11.1438 0.0000 0.3204
#
#
#
# Elastic Compliance Matrix: (Units=1/GPa)
#
#
# Indices 1 2 3 4 5 6 
#
# 1 0.012438 -0.000375 0.004309 0.000000 -0.019833 0.000000
# 2 -0.000375 0.011662 -0.002607 0.000000 -0.002547 0.000000
# 3 0.004309 -0.002607 0.018349 0.000000 -0.037164 0.000000
# 4 0.000000 0.000000 0.000000 -0.002931 0.000000 0.101935
# 5 -0.019833 -0.002547 -0.037164 0.000000 0.118224 0.000000
# 6 0.000000 0.000000 0.000000 0.101935 0.000000 -0.424207
#
#
# Mechanical properties :
#
#
# Convention : Reuss Voigt Hill
#
# Bulk Modulus (GPa) = 22.17244 75.34824 48.76034
# Shear Modulus (GPa) = -19.67844 36.23124 8.27640
#
# Velocity S-wave (km/s) = -2.85900 3.87937 1.85413
# Velocity P-wave (km/s) = 1.29950 7.16685 4.98372
#
# Compressibility (1/GPa) = 0.04510104
#
# Stress axis : x y z
#
# Youngs Moduli (GPa) = 80.40135 85.75028 54.49917
#
# Poissons Ratio (x) = 0.03220 -0.23482
# Poissons Ratio (y) = 0.03019 0.14207
# Poissons Ratio (z) = -0.34643 0.22354
#
# Static dielectric constant tensor:
#      x y z
#    x 1.968960 0.000000 -0.067850 
#    y 0.000000 1.882010 0.000000 
#    z -0.067850 0.000000 2.044480 
# 
# From -- ./inp_files/22719.got.cif
#   From: 2010.05.17/outbox.cif.g08.bks.cpg/sg11_12_cif.got.tgz:22719.got - 2010.06.03 12:22:45.
