data_PCOD9156561
_publ_section_title
;
Structure prediction by ZEFSAII (Michael W. Deem and Ramdas Pophale) SiO2 
 PCOD9156561
Probable space group: P 21/M
;
_chemical_formula_sum "Si O2"
_cell_formula_units_Z 32
_cell_length_a 19.412290
_cell_length_b 8.961158
_cell_length_c 24.895713
_cell_angle_alpha 90.000000
_cell_angle_beta 29.224969
_cell_angle_gamma 90.000000
_cell_volume 2114.456977
_symmetry_space_group_name_H-M "P 21/M"
_symmetry_group_IT_number 11
_symmetry_cell_setting 'monoclinic'
loop_
_space_group_symop_operation_xyz
x,y,z
-x,1/2+y,-z
-x,-y,-z
x,1/2-y,z
loop_
_atom_site_type_symbol
_atom_site_label
_atom_site_fract_x
_atom_site_fract_y
_atom_site_fract_z
Si Si1 0.346026 0.073371 0.539450
Si Si2 0.152628 0.923653 0.223781
Si Si3 0.038934 0.571723 0.916918
Si Si4 0.663150 0.426788 0.337975
Si Si5 0.099604 0.569805 0.092796
Si Si6 0.364226 0.923102 0.976765
Si Si7 0.586603 0.428407 0.891737
Si Si8 0.927085 0.427009 0.309341
O O1 0.320899 0.250000 0.552356
O O2 0.510694 0.042369 0.415659
O O3 0.325088 0.020581 0.615354
O O4 0.232442 0.985961 0.581514
O O5 0.111520 0.750000 0.257204
O O6 0.250156 0.969355 0.207913
O O7 0.019402 0.021123 0.297502
O O8 0.259421 0.931806 0.099890
O O9 0.016815 0.750000 0.932609
O O10 0.203109 0.544397 0.790383
O O11 0.949278 0.497373 0.930105
O O12 0.000000 0.500000 0.000000
O O13 0.664668 0.250000 0.351490
O O14 0.087793 0.750000 0.101711
O O15 0.261231 0.530547 0.998497
O O16 0.000278 0.502898 0.207290
O O17 0.403047 0.750000 0.943992
O O18 0.503679 0.015680 0.895803
O O19 0.577901 0.250000 0.901603
O O20 0.500000 0.500000 0.000000
O O21 0.931879 0.250000 0.299897
#
# Coordination Sequence:
#
# PCOD9156561 Si02
#       8
#     4   4   4   4   4   4   4   4
#     4  10  18  29  47  65  86 113 140 178 221 257
#     4   8  15  25  34  49  75 107 140 172 206 248
#     4  11  22  35  50  67  88 113 144 182 221 264
#     4   9  19  33  47  66  86 108 143 180 215 260
#     4  10  19  31  44  60  81 109 144 180 218 258
#     4   8  15  25  37  52  73 100 134 173 210 248
#     4   9  15  22  33  49  71 100 136 171 205 245
#     4  11  19  26  39  61  85 111 143 179 215 256
#
# _framework density 15.133908999999999
#
# number of rings (size 3 to 8) (size 9 to 14) (size 15 to 20)
#    0.000    2.500    1.250    4.125    0.000    6.500 
#    0.000    0.000    0.000    0.000    0.000    0.000 
#    0.000    0.000    0.000    1.125    0.000   13.375 
#
# Total GULP energy -178208.720199 kJ/mol
# GULP energy per Si atom -5569.022506 kJ/mol
# Density = 1.509946 g / cm^3
# Si number density = 15.133909 Si / 1000 Ang^3
#
#
#
# Elastic Constant Matrix: (Units=GPa)
#
#
# Indices 1 2 3 4 5 6 
#
# 1 100.6168 53.5504 57.7496 0.0000 -37.9464 0.0000
# 2 53.5504 73.4406 42.2361 0.0000 -23.5875 0.0000
# 3 57.7496 42.2361 57.2796 0.0000 -22.2748 0.0000
# 4 0.0000 0.0000 0.0000 16.7833 0.0000 -7.7457
# 5 -37.9464 -23.5875 -22.2748 0.0000 29.5390 0.0000
# 6 0.0000 0.0000 0.0000 -7.7457 0.0000 25.5117
#
#
#
# Elastic Compliance Matrix: (Units=1/GPa)
#
#
# Indices 1 2 3 4 5 6 
#
# 1 0.033223 -0.004715 -0.021063 0.000000 0.023031 0.000000
# 2 -0.004715 0.025770 -0.012170 0.000000 0.005344 0.000000
# 3 -0.021063 -0.012170 0.047211 0.000000 -0.001175 0.000000
# 4 0.000000 0.000000 0.000000 0.069292 0.000000 0.021038
# 5 0.023031 0.005344 -0.001175 0.000000 0.066821 0.000000
# 6 0.000000 0.000000 0.000000 0.021038 0.000000 0.045585
#
#
# Mechanical properties :
#
#
# Convention : Reuss Voigt Hill
#
# Bulk Modulus (GPa) = 32.99478 59.82325 46.40902
# Shear Modulus (GPa) = 13.37255 19.55352 16.46303
#
# Velocity S-wave (km/s) = 2.97579 3.59839 3.30180
# Velocity P-wave (km/s) = 5.80141 7.54186 6.72815
#
# Compressibility (1/GPa) = 0.03030782
#
# Stress axis : x y z
#
# Youngs Moduli (GPa) = 30.09968 38.80518 21.18152
#
# Poissons Ratio (x) = 0.18295 0.44614
# Poissons Ratio (y) = 0.14191 0.25779
# Poissons Ratio (z) = 0.63399 0.47228
#
# Static dielectric constant tensor:
#      x y z
#    x 1.529250 0.000000 -0.051330 
#    y 0.000000 1.500950 0.000000 
#    z -0.051330 0.000000 1.491710 
# 
# From -- ./inp_files/72086.got.cif
#   From: 2010.05.17/outbox.cif.g08.bks.cpg/sg11_37_cif.got.tgz:72086.got - 2010.06.03 12:22:45.
