data_PCOD9156175
_publ_section_title
;
Structure prediction by ZEFSAII (Michael W. Deem and Ramdas Pophale) SiO2 
 PCOD9156175
Probable space group: P 21/M
;
_chemical_formula_sum "Si O2"
_cell_formula_units_Z 32
_cell_length_a 22.060837
_cell_length_b 19.055592
_cell_length_c 9.908032
_cell_angle_alpha 90.000000
_cell_angle_beta 155.810313
_cell_angle_gamma 90.000000
_cell_volume 1706.711731
_symmetry_space_group_name_H-M "P 21/M"
_symmetry_group_IT_number 11
_symmetry_cell_setting 'monoclinic'
loop_
_space_group_symop_operation_xyz
x,y,z
-x,1/2+y,-z
-x,-y,-z
x,1/2-y,z
loop_
_atom_site_type_symbol
_atom_site_label
_atom_site_fract_x
_atom_site_fract_y
_atom_site_fract_z
Si Si1 0.106706 0.902278 0.641701
Si Si2 0.781501 0.968632 0.286830
Si Si3 0.494968 0.972244 0.141737
Si Si4 0.222322 0.395990 0.974853
Si Si5 0.027611 0.570033 0.969619
Si Si6 0.978002 0.168543 0.798199
Si Si7 0.325307 0.169146 0.433395
Si Si8 0.743365 0.457400 0.804468
O O1 0.110586 0.979908 0.580421
O O2 0.951693 0.880846 0.396384
O O3 0.109535 0.853891 0.514756
O O4 0.228294 0.907382 0.008067
O O5 0.709496 0.918935 0.028031
O O6 0.873273 0.921723 0.576848
O O7 0.669954 0.020326 0.135942
O O8 0.567609 0.894355 0.300910
O O9 0.585155 0.027930 0.417186
O O10 0.500000 0.000000 0.000000
O O11 0.308827 0.339082 0.237556
O O12 0.220898 0.465221 0.065704
O O13 0.067270 0.627425 0.160318
O O14 0.000000 0.500000 0.000000
O O15 0.149982 0.561695 0.102737
O O16 0.958700 0.250000 0.779379
O O17 0.155242 0.155134 0.136521
O O18 0.364815 0.250000 0.548837
#
# Coordination Sequence:
#
# PCOD9156175 Si02
#       8
#     4   4   4   4   4   4   4   4
#     4  10  17  34  55  81 110 142 184 235 287 325
#     4  11  19  31  57  85 114 140 188 235 283 327
#     4  11  23  35  53  88 119 149 193 239 279 337
#     4   9  16  32  55  88 107 136 186 240 283 325
#     4  12  18  32  58  85 109 149 184 236 286 334
#     4  10  21  35  56  84 112 146 194 239 285 344
#     4   9  19  37  56  76 113 156 189 229 283 346
#     4  10  19  32  54  80 113 142 182 232 282 327
#
# _framework density 18.749506
#
# number of rings (size 3 to 8) (size 9 to 14) (size 15 to 20)
#    0.000    1.750    3.750    3.750    0.000    4.500 
#    0.000    1.875    0.000    1.500    0.000    0.000 
#    0.000    0.000    0.000    0.000    0.000    0.000 
#
# Total GULP energy -178144.367732 kJ/mol
# GULP energy per Si atom -5567.011492 kJ/mol
# Density = 1.870683 g / cm^3
# Si number density = 18.749506 Si / 1000 Ang^3
#
#
#
# Elastic Constant Matrix: (Units=GPa)
#
#
# Indices 1 2 3 4 5 6 
#
# 1 92.4580 32.7981 31.3308 0.0000 -22.5401 0.0000
# 2 32.7981 72.4351 28.7087 0.0000 -16.5362 0.0000
# 3 31.3308 28.7087 67.6337 0.0000 -12.7232 0.0000
# 4 0.0000 0.0000 0.0000 23.7632 0.0000 -3.3899
# 5 -22.5401 -16.5362 -12.7232 0.0000 28.1581 0.0000
# 6 0.0000 0.0000 0.0000 -3.3899 0.0000 18.3136
#
#
#
# Elastic Compliance Matrix: (Units=1/GPa)
#
#
# Indices 1 2 3 4 5 6 
#
# 1 0.015514 -0.003443 -0.004119 0.000000 0.008535 0.000000
# 2 -0.003443 0.018803 -0.005276 0.000000 0.005902 0.000000
# 3 -0.004119 -0.005276 0.019377 0.000000 0.002360 0.000000
# 4 0.000000 0.000000 0.000000 0.043223 0.000000 0.008001
# 5 0.008535 0.005902 0.002360 0.000000 0.046878 0.000000
# 6 0.000000 0.000000 0.000000 0.008001 0.000000 0.056085
#
#
# Mechanical properties :
#
#
# Convention : Reuss Voigt Hill
#
# Bulk Modulus (GPa) = 35.69325 46.46688 41.08007
# Shear Modulus (GPa) = 21.28590 23.35960 22.32275
#
# Velocity S-wave (km/s) = 3.37304 3.53353 3.45422
# Velocity P-wave (km/s) = 5.85219 6.44085 6.15356
#
# Compressibility (1/GPa) = 0.02801650
#
# Stress axis : x y z
#
# Youngs Moduli (GPa) = 64.45831 53.18288 51.60692
#
# Poissons Ratio (x) = 0.18313 0.21259
# Poissons Ratio (y) = 0.22196 0.27228
# Poissons Ratio (z) = 0.26553 0.28059
#
# Static dielectric constant tensor:
#      x y z
#    x 1.692750 0.000000 -0.038680 
#    y 0.000000 1.578310 0.000000 
#    z -0.038680 0.000000 1.782010 
# 
# From -- ./inp_files/27124.got.cif
#   From: 2010.05.17/outbox.cif.g08.bks.cpg/sg11_14_cif.got.tgz:27124.got - 2010.06.03 12:22:45.
