data_PCOD9156467
_publ_section_title
;
Structure prediction by ZEFSAII (Michael W. Deem and Ramdas Pophale) SiO2 
 PCOD9156467
Probable space group: P 21/M
;
_chemical_formula_sum "Si O2"
_cell_formula_units_Z 28
_cell_length_a 32.257282
_cell_length_b 9.173331
_cell_length_c 9.792281
_cell_angle_alpha 90.000000
_cell_angle_beta 33.928498
_cell_angle_gamma 90.000000
_cell_volume 1617.319263
_symmetry_space_group_name_H-M "P 21/M"
_symmetry_group_IT_number 11
_symmetry_cell_setting 'monoclinic'
loop_
_space_group_symop_operation_xyz
x,y,z
-x,1/2+y,-z
-x,-y,-z
x,1/2-y,z
loop_
_atom_site_type_symbol
_atom_site_label
_atom_site_fract_x
_atom_site_fract_y
_atom_site_fract_z
Si Si1 0.577749 0.077049 0.315232
Si Si2 0.900756 0.577381 0.862935
Si Si3 0.816015 0.922587 0.653053
Si Si4 0.060227 0.577340 0.526925
Si Si5 0.316395 0.077349 0.769539
Si Si6 0.266468 0.423801 0.601943
Si Si7 0.708215 0.422970 0.742824
O O1 0.567918 0.250000 0.354995
O O2 0.500000 0.000000 0.500000
O O3 0.618657 0.012588 0.336387
O O4 0.635254 0.048843 0.033909
O O5 0.901100 0.750000 0.823684
O O6 0.912427 0.484159 0.694272
O O7 0.971516 0.552282 0.766890
O O8 0.821675 0.545856 0.145763
O O9 0.823455 0.750000 0.611124
O O10 0.893388 0.994461 0.484791
O O11 0.776395 0.997858 0.633128
O O12 0.758729 0.945736 0.936629
O O13 0.073912 0.750000 0.497902
O O14 0.332997 0.250000 0.732651
O O15 0.301303 0.039441 0.653850
O O16 0.275450 0.250000 0.555813
O O17 0.299630 0.511988 0.385995
O O18 0.720694 0.250000 0.705541
#
# Coordination Sequence:
#
# PCOD9156467 Si02
#       7
#     4   4   4   4   4   4   4
#     4  10  21  38  60  84 110 136 170 212 257 311
#     4   9  18  32  48  72 106 142 181 223 268 315
#     4  10  18  33  54  75 103 141 183 224 266 318
#     4  10  18  28  48  76 105 137 179 231 274 309
#     4   9  18  33  56  81 106 138 178 217 256 308
#     4  10  19  35  55  78 108 144 181 216 262 320
#     4  10  22  37  54  81 111 137 172 220 267 312
#
# _framework density 17.312598999999999
#
# number of rings (size 3 to 8) (size 9 to 14) (size 15 to 20)
#    0.000    2.286    1.429    1.714    0.000    4.000 
#    0.000    1.429    0.000    0.000    0.000    0.000 
#    0.000    0.000    0.000    0.000    0.000    0.000 
#
# Total GULP energy -156254.212076 kJ/mol
# GULP energy per Si atom -5580.507574 kJ/mol
# Density = 1.727319 g / cm^3
# Si number density = 17.312599 Si / 1000 Ang^3
#
#
#
# Elastic Constant Matrix: (Units=GPa)
#
#
# Indices 1 2 3 4 5 6 
#
# 1 122.7287 70.1955 61.7948 0.0000 -6.9262 0.0000
# 2 70.1955 68.7214 49.1945 0.0000 -7.5398 0.0000
# 3 61.7948 49.1945 52.8960 0.0000 -3.5272 0.0000
# 4 0.0000 0.0000 0.0000 24.7524 0.0000 -0.9276
# 5 -6.9262 -7.5398 -3.5272 0.0000 32.6977 0.0000
# 6 0.0000 0.0000 0.0000 -0.9276 0.0000 36.9009
#
#
#
# Elastic Compliance Matrix: (Units=1/GPa)
#
#
# Indices 1 2 3 4 5 6 
#
# 1 0.022998 -0.012681 -0.015052 0.000000 0.000324 0.000000
# 2 -0.012681 0.051614 -0.032810 0.000000 0.005676 0.000000
# 3 -0.015052 -0.032810 0.066766 0.000000 -0.003552 0.000000
# 4 0.000000 0.000000 0.000000 0.040438 0.000000 0.001017
# 5 0.000324 0.005676 -0.003552 0.000000 0.031578 0.000000
# 6 0.000000 0.000000 0.000000 0.001017 0.000000 0.027125
#
#
# Mechanical properties :
#
#
# Convention : Reuss Voigt Hill
#
# Bulk Modulus (GPa) = 49.27729 67.41287 58.34508
# Shear Modulus (GPa) = 13.57338 23.08096 18.32717
#
# Velocity S-wave (km/s) = 2.80307 3.65525 3.25715
# Velocity P-wave (km/s) = 6.24510 7.53907 6.92239
#
# Compressibility (1/GPa) = 0.02029332
#
# Stress axis : x y z
#
# Youngs Moduli (GPa) = 43.48227 19.37465 14.97761
#
# Poissons Ratio (x) = 0.24568 0.22544
# Poissons Ratio (y) = 0.55138 0.49141
# Poissons Ratio (z) = 0.65450 0.63568
#
# Static dielectric constant tensor:
#      x y z
#    x 1.577920 0.000000 -0.004630 
#    y 0.000000 1.574870 0.000000 
#    z -0.004630 0.000000 1.572840 
# 
# From -- ./inp_files/28446.got.cif
#   From: 2010.05.17/outbox.cif.g08.bks.cpg/sg11_15_cif.got.tgz:28446.got - 2010.06.03 12:22:45.
