data_PCOD9156827
_publ_section_title
;
Structure prediction by ZEFSAII (Michael W. Deem and Ramdas Pophale) SiO2 
 PCOD9156827
Probable space group: P 21/M
;
_chemical_formula_sum "Si O2"
_cell_formula_units_Z 28
_cell_length_a 12.509255
_cell_length_b 7.503599
_cell_length_c 15.643684
_cell_angle_alpha 90.000000
_cell_angle_beta 129.564603
_cell_angle_gamma 90.000000
_cell_volume 1131.988529
_symmetry_space_group_name_H-M "P 21/M"
_symmetry_group_IT_number 11
_symmetry_cell_setting 'monoclinic'
loop_
_space_group_symop_operation_xyz
x,y,z
-x,1/2+y,-z
-x,-y,-z
x,1/2-y,z
loop_
_atom_site_type_symbol
_atom_site_label
_atom_site_fract_x
_atom_site_fract_y
_atom_site_fract_z
Si Si1 0.418286 0.539674 0.784190
Si Si2 0.275800 0.955879 0.068782
Si Si3 0.162926 0.535046 0.182396
Si Si4 0.748566 0.964875 0.452158
Si Si5 0.466384 0.962442 0.385941
Si Si6 0.971577 0.537917 0.704803
Si Si7 0.720857 0.031321 0.121520
O O1 0.441389 0.750000 0.797913
O O2 0.561792 0.459345 0.819990
O O3 0.273995 0.507340 0.659149
O O4 0.392264 0.470770 0.867282
O O5 0.234864 0.750000 0.037128
O O6 0.168870 0.029175 0.085879
O O7 0.283720 0.035122 0.978232
O O8 0.161079 0.750000 0.176507
O O9 0.314354 0.468516 0.289333
O O10 0.066196 0.491561 0.213979
O O11 0.750758 0.750000 0.459250
O O12 0.600193 0.037245 0.407444
O O13 0.864505 0.031649 0.577866
O O14 0.461943 0.750000 0.369711
O O15 0.500000 0.000000 0.500000
O O16 0.970780 0.750000 0.694141
O O17 0.127142 0.476065 0.769090
O O18 0.713691 0.250000 0.116949
#
# Coordination Sequence:
#
# PCOD9156827 Si02
#       7
#     4   4   4   4   4   4   4
#     4  11  22  36  58  87 112 139 187 240 279 318
#     4  10  20  39  62  82 111 148 183 225 285 335
#     4  10  20  33  53  82 113 143 180 227 279 329
#     4  10  20  35  55  81 112 149 184 220 277 338
#     4  10  18  30  49  78 110 141 180 223 276 327
#     4  10  21  38  58  81 113 152 189 220 267 337
#     4   9  21  40  59  80 111 150 187 230 277 324
#
# _framework density 24.735233000000001
#
# number of rings (size 3 to 8) (size 9 to 14) (size 15 to 20)
#    0.000    2.000    2.857    0.857    0.000    2.857 
#    0.000    2.857    0.000    0.000    0.000    0.000 
#    0.000    0.000    0.000    0.000    0.000    0.000 
#
# Total GULP energy -156162.960549 kJ/mol
# GULP energy per Si atom -5577.248591 kJ/mol
# Density = 2.467893 g / cm^3
# Si number density = 24.735233 Si / 1000 Ang^3
#
#
#
# Elastic Constant Matrix: (Units=GPa)
#
#
# Indices 1 2 3 4 5 6 
#
# 1 107.8208 -7.7337 26.7518 0.0000 -12.9566 0.0000
# 2 -7.7337 76.9982 -8.2322 0.0000 1.9657 0.0000
# 3 26.7518 -8.2322 78.6168 0.0000 -26.5718 0.0000
# 4 0.0000 0.0000 0.0000 13.3909 0.0000 -6.0965
# 5 -12.9566 1.9657 -26.5718 0.0000 35.6747 0.0000
# 6 0.0000 0.0000 0.0000 -6.0965 0.0000 7.9981
#
#
#
# Elastic Compliance Matrix: (Units=1/GPa)
#
#
# Indices 1 2 3 4 5 6 
#
# 1 0.010224 0.000679 -0.002894 0.000000 0.001520 0.000000
# 2 0.000679 0.013184 0.001320 0.000000 0.000503 0.000000
# 3 -0.002894 0.001320 0.017993 0.000000 0.012278 0.000000
# 4 0.000000 0.000000 0.000000 0.114366 0.000000 0.087175
# 5 0.001520 0.000503 0.012278 0.000000 0.037700 0.000000
# 6 0.000000 0.000000 0.000000 0.087175 0.000000 0.191479
#
#
# Mechanical properties :
#
#
# Convention : Reuss Voigt Hill
#
# Bulk Modulus (GPa) = 25.24708 31.66753 28.45730
# Shear Modulus (GPa) = 12.50184 28.25605 20.37894
#
# Velocity S-wave (km/s) = 2.25061 3.38352 2.87345
# Velocity P-wave (km/s) = 4.12101 5.30044 4.74749
#
# Compressibility (1/GPa) = 0.03960854
#
# Stress axis : x y z
#
# Youngs Moduli (GPa) = 97.80823 75.85112 55.57799
#
# Poissons Ratio (x) = -0.05148 0.16085
# Poissons Ratio (y) = -0.06638 -0.07334
# Poissons Ratio (z) = 0.28308 -0.10009
#
# Static dielectric constant tensor:
#      x y z
#    x 1.973010 0.000000 -0.097490 
#    y 0.000000 1.920830 0.000000 
#    z -0.097490 0.000000 2.211800 
# 
# From -- ./inp_files/49482.got.cif
#   From: 2010.05.17/outbox.cif.g08.bks.cpg/sg11_25_cif.got.tgz:49482.got - 2010.06.03 12:22:45.
