data_PCOD9156281
_publ_section_title
;
Structure prediction by ZEFSAII (Michael W. Deem and Ramdas Pophale) SiO2 
 PCOD9156281
Probable space group: P 21/M
;
_chemical_formula_sum "Si O2"
_cell_formula_units_Z 28
_cell_length_a 14.849461
_cell_length_b 9.043976
_cell_length_c 13.804357
_cell_angle_alpha 90.000000
_cell_angle_beta 76.923820
_cell_angle_gamma 90.000000
_cell_volume 1805.828449
_symmetry_space_group_name_H-M "P 21/M"
_symmetry_group_IT_number 11
_symmetry_cell_setting 'monoclinic'
loop_
_space_group_symop_operation_xyz
x,y,z
-x,1/2+y,-z
-x,-y,-z
x,1/2-y,z
loop_
_atom_site_type_symbol
_atom_site_label
_atom_site_fract_x
_atom_site_fract_y
_atom_site_fract_z
Si Si1 0.106333 0.424979 0.577469
Si Si2 0.463741 0.427135 0.106079
Si Si3 0.281692 0.427017 0.258756
Si Si4 0.440694 0.928093 0.714776
Si Si5 0.271908 0.576007 0.636453
Si Si6 0.892721 0.074685 0.633123
Si Si7 0.613683 0.424576 0.588295
O O1 0.118224 0.250000 0.558626
O O2 0.180492 0.484108 0.635927
O O3 0.120359 0.508178 0.471650
O O4 0.999872 0.451390 0.633358
O O5 0.467367 0.250000 0.095879
O O6 0.357864 0.467399 0.159245
O O7 0.526070 0.466600 0.184960
O O8 0.500000 0.500000 0.000000
O O9 0.275444 0.250000 0.264712
O O10 0.180824 0.498498 0.278322
O O11 0.325499 0.488791 0.347538
O O12 0.451175 0.750000 0.700425
O O13 0.335722 0.965539 0.712258
O O14 0.511768 0.008685 0.625392
O O15 0.248297 0.750000 0.648423
O O16 0.339323 0.557253 0.527190
O O17 0.875937 0.250000 0.633251
O O18 0.612611 0.250000 0.611001
#
# Coordination Sequence:
#
# PCOD9156281 Si02
#       7
#     4   4   4   4   4   4   4
#     4  10  20  30  44  65  94 129 162 196 229 264
#     4   9  19  34  51  71  94 118 150 190 237 284
#     4  10  19  31  48  69  94 125 156 193 236 278
#     4   9  19  33  46  64  92 124 155 191 231 278
#     4  10  19  30  44  64  93 127 161 191 225 270
#     4  10  19  31  45  66  93 125 164 197 228 269
#     4  10  18  27  42  66  92 123 159 190 220 268
#
# _framework density 15.505348
#
# number of rings (size 3 to 8) (size 9 to 14) (size 15 to 20)
#    0.000    2.286    1.429    3.000    0.000    5.714 
#    0.000    0.000    0.000    0.000    0.000    1.000 
#    0.000    0.000    0.000    0.000    0.000    0.000 
#
# Total GULP energy -156110.699867 kJ/mol
# GULP energy per Si atom -5575.382138 kJ/mol
# Density = 1.547006 g / cm^3
# Si number density = 15.505348 Si / 1000 Ang^3
#
#
#
# Elastic Constant Matrix: (Units=GPa)
#
#
# Indices 1 2 3 4 5 6 
#
# 1 129.7460 58.5557 45.1727 0.0000 -8.6243 0.0000
# 2 58.5557 55.6875 35.3833 0.0000 -8.5995 0.0000
# 3 45.1727 35.3833 64.9686 0.0000 -13.1200 0.0000
# 4 0.0000 0.0000 0.0000 19.7335 0.0000 -4.4644
# 5 -8.6243 -8.5995 -13.1200 0.0000 15.3935 0.0000
# 6 0.0000 0.0000 0.0000 -4.4644 0.0000 28.8533
#
#
#
# Elastic Compliance Matrix: (Units=1/GPa)
#
#
# Indices 1 2 3 4 5 6 
#
# 1 0.015058 -0.014127 -0.003220 0.000000 -0.002200 0.000000
# 2 -0.014127 0.040840 -0.011367 0.000000 0.005212 0.000000
# 3 -0.003220 -0.011367 0.026785 0.000000 0.014675 0.000000
# 4 0.000000 0.000000 0.000000 0.052513 0.000000 0.008125
# 5 -0.002200 0.005212 0.014675 0.000000 0.079149 0.000000
# 6 0.000000 0.000000 0.000000 0.008125 0.000000 0.035915
#
#
# Mechanical properties :
#
#
# Convention : Reuss Voigt Hill
#
# Bulk Modulus (GPa) = 39.59757 58.73618 49.16687
# Shear Modulus (GPa) = 15.81743 20.21544 18.01643
#
# Velocity S-wave (km/s) = 3.19741 3.61470 3.41244
# Velocity P-wave (km/s) = 6.26296 7.44210 6.87785
#
# Compressibility (1/GPa) = 0.02525408
#
# Stress axis : x y z
#
# Youngs Moduli (GPa) = 66.40954 24.48605 37.33411
#
# Poissons Ratio (x) = 0.34592 0.12022
# Poissons Ratio (y) = 0.93819 0.42437
# Poissons Ratio (z) = 0.21385 0.27833
#
# Static dielectric constant tensor:
#      x y z
#    x 1.554320 0.000000 -0.002220 
#    y 0.000000 1.519110 0.000000 
#    z -0.002220 0.000000 1.490570 
# 
# From -- ./inp_files/50970.got.cif
#   From: 2010.05.17/outbox.cif.g08.bks.cpg/sg11_26_cif.got.tgz:50970.got - 2010.06.03 12:22:45.
