data_PCOD9156036
_publ_section_title
;
Structure prediction by ZEFSAII (Michael W. Deem and Ramdas Pophale) SiO2 
 PCOD9156036
Probable space group: P 21/M
;
_chemical_formula_sum "Si O2"
_cell_formula_units_Z 32
_cell_length_a 15.811221
_cell_length_b 14.660270
_cell_length_c 9.460269
_cell_angle_alpha 90.000000
_cell_angle_beta 53.249430
_cell_angle_gamma 90.000000
_cell_volume 1757.024212
_symmetry_space_group_name_H-M "P 21/M"
_symmetry_group_IT_number 11
_symmetry_cell_setting 'monoclinic'
loop_
_space_group_symop_operation_xyz
x,y,z
-x,1/2+y,-z
-x,-y,-z
x,1/2-y,z
loop_
_atom_site_type_symbol
_atom_site_label
_atom_site_fract_x
_atom_site_fract_y
_atom_site_fract_z
Si Si1 0.000005 0.596752 0.420045
Si Si2 0.377544 0.141102 0.973670
Si Si3 0.377547 0.641102 0.271223
Si Si4 0.768251 0.978521 0.065535
Si Si5 0.230894 0.353707 0.387337
Si Si6 0.231744 0.521479 0.602025
Si Si7 0.769097 0.146293 0.849150
Si Si8 0.000003 0.478636 0.164336
O O1 0.888009 0.643120 0.557838
O O2 0.000004 0.571956 0.253676
O O3 0.000000 0.500000 0.500000
O O4 0.112002 0.643115 0.333841
O O5 0.371595 0.250000 0.957248
O O6 0.312644 0.121504 0.181935
O O7 0.499998 0.115372 0.865033
O O8 0.320641 0.087985 0.904428
O O9 0.371598 0.750000 0.299547
O O10 0.320634 0.587985 0.454273
O O11 0.312659 0.621507 0.192738
O O12 0.759105 0.000000 0.240904
O O13 0.885635 0.935987 0.918821
O O14 0.762489 0.071597 0.979467
O O15 0.251666 0.250000 0.414578
O O16 0.237503 0.428402 0.504436
O O17 0.114359 0.564013 0.690088
O O18 0.748331 0.250000 0.917932
O O19 0.000000 0.500000 0.000000
#
# Coordination Sequence:
#
# PCOD9156036 Si02
#       8
#     4   4   4   4   4   4   4   4
#     4  10  17  29  52  79 106 135 174 221 265 313
#     4  10  22  39  56  76 105 141 182 228 274 319
#     4  10  22  39  56  76 105 141 182 228 274 319
#     4  10  20  35  57  81 109 143 178 220 269 323
#     4  10  20  34  54  80 109 142 178 219 270 327
#     4  10  20  35  57  81 109 143 178 220 269 323
#     4  10  20  34  54  80 109 142 178 219 270 327
#     4   8  16  31  49  75 108 139 168 203 256 317
#
# _framework density 18.212610999999999
#
# number of rings (size 3 to 8) (size 9 to 14) (size 15 to 20)
#    0.000    2.250    0.000    4.125    0.000    3.500 
#    0.000    1.875    0.000    7.500    0.000    0.000 
#    0.000    0.000    0.000    0.000    0.000    0.000 
#
# Total GULP energy -178331.225396 kJ/mol
# GULP energy per Si atom -5572.850794 kJ/mol
# Density = 1.817116 g / cm^3
# Si number density = 18.212611 Si / 1000 Ang^3
#
#
#
# Elastic Constant Matrix: (Units=GPa)
#
#
# Indices 1 2 3 4 5 6 
#
# 1 139.7207 41.8933 91.2294 0.0000 -25.2584 0.0000
# 2 41.8933 59.8654 43.8128 0.0000 2.2630 0.0000
# 3 91.2294 43.8128 111.8139 0.0000 -7.2935 0.0000
# 4 0.0000 0.0000 0.0000 18.9130 0.0000 -6.3866
# 5 -25.2584 2.2630 -7.2935 0.0000 34.4307 0.0000
# 6 0.0000 0.0000 0.0000 -6.3866 0.0000 24.3738
#
#
#
# Elastic Compliance Matrix: (Units=1/GPa)
#
#
# Indices 1 2 3 4 5 6 
#
# 1 0.019102 -0.004127 -0.013219 0.000000 0.011484 0.000000
# 2 -0.004127 0.024743 -0.006725 0.000000 -0.006078 0.000000
# 3 -0.013219 -0.006725 0.022065 0.000000 -0.004582 0.000000
# 4 0.000000 0.000000 0.000000 0.058006 0.000000 0.015199
# 5 0.011484 -0.006078 -0.004582 0.000000 0.036898 0.000000
# 6 0.000000 0.000000 0.000000 0.015199 0.000000 0.045010
#
#
# Mechanical properties :
#
#
# Convention : Reuss Voigt Hill
#
# Bulk Modulus (GPa) = 56.27806 73.91902 65.09854
# Shear Modulus (GPa) = 19.23896 24.50779 21.87338
#
# Velocity S-wave (km/s) = 3.25369 3.67229 3.46931
# Velocity P-wave (km/s) = 6.71439 7.65871 7.20204
#
# Compressibility (1/GPa) = 0.01776891
#
# Stress axis : x y z
#
# Youngs Moduli (GPa) = 52.35048 40.41476 45.32041
#
# Poissons Ratio (x) = 0.16679 0.59910
# Poissons Ratio (y) = 0.21605 0.30476
# Poissons Ratio (z) = 0.69203 0.27177
#
# Static dielectric constant tensor:
#      x y z
#    x 1.650390 0.000000 -0.019140 
#    y 0.000000 1.624890 0.000000 
#    z -0.019140 0.000000 1.634020 
# 
# From -- ./inp_files/22194.got.cif
#   From: 2010.05.17/outbox.cif.g08.bks.cpg/sg11_12_cif.got.tgz:22194.got - 2010.06.03 12:22:45.
