data_PCOD9156331
_publ_section_title
;
Structure prediction by ZEFSAII (Michael W. Deem and Ramdas Pophale) SiO2 
 PCOD9156331
Probable space group: P 21/M
;
_chemical_formula_sum "Si O2"
_cell_formula_units_Z 32
_cell_length_a 12.182933
_cell_length_b 8.861403
_cell_length_c 21.031655
_cell_angle_alpha 90.000000
_cell_angle_beta 64.868705
_cell_angle_gamma 90.000000
_cell_volume 2055.597336
_symmetry_space_group_name_H-M "P 21/M"
_symmetry_group_IT_number 11
_symmetry_cell_setting 'monoclinic'
loop_
_space_group_symop_operation_xyz
x,y,z
-x,1/2+y,-z
-x,-y,-z
x,1/2-y,z
loop_
_atom_site_type_symbol
_atom_site_label
_atom_site_fract_x
_atom_site_fract_y
_atom_site_fract_z
Si Si1 0.131508 0.569655 0.455730
Si Si2 0.608044 0.574851 0.113485
Si Si3 0.680993 0.928365 0.492827
Si Si4 0.632727 0.069789 0.979512
Si Si5 0.552384 0.932120 0.264631
Si Si6 0.714238 0.570428 0.693751
Si Si7 0.314534 0.574075 0.169063
Si Si8 0.592736 0.428581 0.387373
O O1 0.126398 0.750000 0.454046
O O2 0.220904 0.516429 0.490007
O O3 0.188923 0.503386 0.377037
O O4 0.000000 0.500000 0.500000
O O5 0.641675 0.750000 0.099167
O O6 0.624591 0.525267 0.182375
O O7 0.461420 0.566258 0.140488
O O8 0.668534 0.484919 0.040846
O O9 0.707921 0.750000 0.485403
O O10 0.549012 0.947865 0.558214
O O11 0.667985 0.993541 0.425150
O O12 0.622404 0.250000 0.981214
O O13 0.710222 0.027228 0.897816
O O14 0.500000 0.000000 0.000000
O O15 0.541775 0.750000 0.268341
O O16 0.417675 0.002323 0.291725
O O17 0.609610 0.993975 0.315114
O O18 0.711321 0.750000 0.686308
O O19 0.737606 0.525252 0.761285
O O20 0.281101 0.750000 0.186254
O O21 0.616945 0.250000 0.378652
#
# Coordination Sequence:
#
# PCOD9156331 Si02
#       8
#     4   4   4   4   4   4   4   4
#     4  12  24  38  54  69  91 119 150 189 232 275
#     4   8  15  24  34  51  77 108 143 177 215 259
#     4  10  20  34  50  70  93 116 149 186 228 275
#     4   9  15  22  33  49  72 103 140 177 214 255
#     4  10  18  28  42  61  87 119 149 185 227 265
#     4  11  20  30  44  64  85 110 148 187 225 270
#     4   8  15  26  37  52  75 106 141 179 220 259
#     4  10  19  30  48  70  93 119 150 188 228 271
#
# _framework density 15.567251000000001
#
# number of rings (size 3 to 8) (size 9 to 14) (size 15 to 20)
#    0.000    2.250    1.250    5.250    0.000    6.500 
#    0.000    0.000    0.000    0.000    0.000    0.000 
#    0.000    0.000    0.000    1.125    0.000   15.375 
#
# Total GULP energy -178320.742989 kJ/mol
# GULP energy per Si atom -5572.523218 kJ/mol
# Density = 1.553182 g / cm^3
# Si number density = 15.567251 Si / 1000 Ang^3
#
#
#
# Elastic Constant Matrix: (Units=GPa)
#
#
# Indices 1 2 3 4 5 6 
#
# 1 30.6091 34.5962 45.8123 0.0000 9.3078 0.0000
# 2 34.5962 101.2145 64.0127 0.0000 15.1804 0.0000
# 3 45.8123 64.0127 136.7554 0.0000 39.6629 0.0000
# 4 0.0000 0.0000 0.0000 28.7924 0.0000 7.0922
# 5 9.3078 15.1804 39.6629 0.0000 23.7212 0.0000
# 6 0.0000 0.0000 0.0000 7.0922 0.0000 18.0816
#
#
#
# Elastic Compliance Matrix: (Units=1/GPa)
#
#
# Indices 1 2 3 4 5 6 
#
# 1 0.084025 -0.014400 -0.028187 0.000000 0.023375 0.000000
# 2 -0.014400 0.016690 -0.002969 0.000000 -0.000066 0.000000
# 3 -0.028187 -0.002969 0.027931 0.000000 -0.033741 0.000000
# 4 0.000000 0.000000 0.000000 0.038446 0.000000 -0.015080
# 5 0.023375 -0.000066 -0.033741 0.000000 0.089442 0.000000
# 6 0.000000 0.000000 0.000000 -0.015080 0.000000 0.061220
#
#
# Mechanical properties :
#
#
# Convention : Reuss Voigt Hill
#
# Bulk Modulus (GPa) = 26.64342 61.93569 44.28956
# Shear Modulus (GPa) = 11.86590 22.39623 17.13106
#
# Velocity S-wave (km/s) = 2.76385 3.79710 3.32091
# Velocity P-wave (km/s) = 5.22852 7.68741 6.57395
#
# Compressibility (1/GPa) = 0.03753271
#
# Stress axis : x y z
#
# Youngs Moduli (GPa) = 11.90128 59.91716 35.80307
#
# Poissons Ratio (x) = 0.86278 1.00919
# Poissons Ratio (y) = 0.17137 0.10631
# Poissons Ratio (z) = 0.33546 0.17792
#
# Static dielectric constant tensor:
#      x y z
#    x 1.496850 0.000000 0.039350 
#    y 0.000000 1.515910 0.000000 
#    z 0.039350 0.000000 1.557240 
# 
# From -- ./inp_files/64180.got.cif
#   From: 2010.05.17/outbox.cif.g08.bks.cpg/sg11_33_cif.got.tgz:64180.got - 2010.06.03 12:22:45.
