data_PCOD9156368
_publ_section_title
;
Structure prediction by ZEFSAII (Michael W. Deem and Ramdas Pophale) SiO2 
 PCOD9156368
Probable space group: P 21/M
;
_chemical_formula_sum "Si O2"
_cell_formula_units_Z 32
_cell_length_a 24.968971
_cell_length_b 7.372818
_cell_length_c 17.880747
_cell_angle_alpha 90.000000
_cell_angle_beta 152.507774
_cell_angle_gamma 90.000000
_cell_volume 1519.540228
_symmetry_space_group_name_H-M "P 21/M"
_symmetry_group_IT_number 11
_symmetry_cell_setting 'monoclinic'
loop_
_space_group_symop_operation_xyz
x,y,z
-x,1/2+y,-z
-x,-y,-z
x,1/2-y,z
loop_
_atom_site_type_symbol
_atom_site_label
_atom_site_fract_x
_atom_site_fract_y
_atom_site_fract_z
Si Si1 0.603307 0.040718 0.938907
Si Si2 0.859784 0.956672 0.659636
Si Si3 0.198656 0.527858 0.924306
Si Si4 0.138217 0.535621 0.172652
Si Si5 0.875364 0.028187 0.006531
Si Si6 0.636019 0.527298 0.296898
Si Si7 0.287341 0.469602 0.766068
Si Si8 0.025622 0.465789 0.444694
O O1 0.585007 0.250000 0.894759
O O2 0.690281 0.963217 0.984814
O O3 0.668266 0.035987 0.099260
O O4 0.476435 0.962161 0.797676
O O5 0.873697 0.750000 0.649963
O O6 0.756409 0.035378 0.482725
O O7 0.990094 0.034401 0.818718
O O8 0.820686 0.955275 0.698080
O O9 0.198433 0.750000 0.920997
O O10 0.192990 0.475944 0.003967
O O11 0.080487 0.466001 0.736886
O O12 0.158930 0.750000 0.203178
O O13 0.175834 0.469774 0.137078
O O14 0.000000 0.500000 0.000000
O O15 0.879441 0.250000 0.008199
O O16 0.634820 0.750000 0.297431
O O17 0.635695 0.475091 0.209455
O O18 0.287181 0.250000 0.769554
O O19 0.155094 0.531843 0.588343
O O20 0.028684 0.250000 0.436643
O O21 0.000000 0.500000 0.500000
#
# Coordination Sequence:
#
# PCOD9156368 Si02
#       8
#     4   4   4   4   4   4   4   4
#     4  10  19  31  47  65  88 118 155 197 229 259
#     4   9  16  29  48  67  90 118 149 185 222 267
#     4   9  16  27  44  65  87 115 150 185 218 261
#     4   9  16  27  46  71  96 119 143 177 223 273
#     4   8  14  25  44  68  89 112 144 178 215 263
#     4   9  18  31  47  67  88 118 158 192 224 266
#     4  10  19  31  47  65  89 120 154 189 229 276
#     4  10  18  28  44  64  87 115 145 181 222 263
#
# _framework density 21.059002
#
# number of rings (size 3 to 8) (size 9 to 14) (size 15 to 20)
#    0.000    2.750    1.250    2.250    0.000    3.000 
#    0.000    1.250    0.000   11.250    0.000    0.000 
#    0.000    0.000    0.000    0.000    0.000    0.500 
#
# Total GULP energy -178540.130826 kJ/mol
# GULP energy per Si atom -5579.379088 kJ/mol
# Density = 2.101107 g / cm^3
# Si number density = 21.059002 Si / 1000 Ang^3
#
#
#
# Elastic Constant Matrix: (Units=GPa)
#
#
# Indices 1 2 3 4 5 6 
#
# 1 147.8292 -7.2534 38.7214 0.0000 -7.9098 0.0000
# 2 -7.2534 75.7822 -3.6595 0.0000 5.7081 0.0000
# 3 38.7214 -3.6595 35.5804 0.0000 9.2114 0.0000
# 4 0.0000 0.0000 0.0000 3.9366 0.0000 -7.1934
# 5 -7.9098 5.7081 9.2114 0.0000 29.2960 0.0000
# 6 0.0000 0.0000 0.0000 -7.1934 0.0000 8.6954
#
#
#
# Elastic Compliance Matrix: (Units=1/GPa)
#
#
# Indices 1 2 3 4 5 6 
#
# 1 0.010670 -0.000168 -0.013481 0.000000 0.007153 0.000000
# 2 -0.000168 0.013560 0.002475 0.000000 -0.003466 0.000000
# 3 -0.013481 0.002475 0.048006 0.000000 -0.019216 0.000000
# 4 0.000000 0.000000 0.000000 -0.496469 0.000000 -0.410709
# 5 0.007153 -0.003466 -0.019216 0.000000 0.042783 0.000000
# 6 0.000000 0.000000 0.000000 -0.410709 0.000000 -0.224760
#
#
# Mechanical properties :
#
#
# Convention : Reuss Voigt Hill
#
# Bulk Modulus (GPa) = 20.04500 34.97877 27.51188
# Shear Modulus (GPa) = -8.81473 23.81116 7.49821
#
# Velocity S-wave (km/s) = -2.04813 3.36622 1.88900
# Velocity P-wave (km/s) = 1.98647 5.63511 4.22496
#
# Compressibility (1/GPa) = 0.04988776
#
# Stress axis : x y z
#
# Youngs Moduli (GPa) = 93.71913 73.74539 20.83067
#
# Poissons Ratio (x) = 0.01242 0.28082
# Poissons Ratio (y) = 0.01579 -0.05156
# Poissons Ratio (z) = 1.26344 -0.18254
#
# Static dielectric constant tensor:
#      x y z
#    x 1.766180 0.000000 0.004900 
#    y 0.000000 1.811570 0.000000 
#    z 0.004900 0.000000 1.727380 
# 
# From -- ./inp_files/41114.got.cif
#   From: 2010.05.17/outbox.cif.g08.bks.cpg/sg11_21_cif.got.tgz:41114.got - 2010.06.03 12:22:45.
