data_PCOD9156531
_publ_section_title
;
Structure prediction by ZEFSAII (Michael W. Deem and Ramdas Pophale) SiO2 
 PCOD9156531
Probable space group: P 21/M
;
_chemical_formula_sum "Si O2"
_cell_formula_units_Z 32
_cell_length_a 32.403328
_cell_length_b 8.242444
_cell_length_c 20.621844
_cell_angle_alpha 90.000000
_cell_angle_beta 19.368067
_cell_angle_gamma 90.000000
_cell_volume 1826.560185
_symmetry_space_group_name_H-M "P 21/M"
_symmetry_group_IT_number 11
_symmetry_cell_setting 'monoclinic'
loop_
_space_group_symop_operation_xyz
x,y,z
-x,1/2+y,-z
-x,-y,-z
x,1/2-y,z
loop_
_atom_site_type_symbol
_atom_site_label
_atom_site_fract_x
_atom_site_fract_y
_atom_site_fract_z
Si Si1 0.887142 0.554863 0.393318
Si Si2 0.556013 0.562807 0.602371
Si Si3 0.186581 0.936157 0.823805
Si Si4 0.077275 0.939827 0.805514
Si Si5 0.349265 0.556302 0.409685
Si Si6 0.148803 0.559109 0.035063
Si Si7 0.379134 0.944787 0.217739
Si Si8 0.587399 0.447873 0.310676
O O1 0.897174 0.750000 0.367206
O O2 0.900885 0.463419 0.304285
O O3 0.749269 0.514110 0.621486
O O4 0.007576 0.501557 0.256389
O O5 0.523881 0.750000 0.657963
O O6 0.697575 0.545050 0.367258
O O7 0.556965 0.484646 0.671893
O O8 0.470250 0.494353 0.671965
O O9 0.221036 0.750000 0.758379
O O10 0.167998 0.953296 0.928814
O O11 0.053672 0.973006 0.987864
O O12 0.062532 0.750000 0.841994
O O13 0.209710 0.004227 0.635136
O O14 0.337431 0.750000 0.423175
O O15 0.383943 0.498281 0.286164
O O16 0.148631 0.750000 0.051474
O O17 0.272031 0.490452 0.885815
O O18 0.372238 0.750000 0.227591
O O19 0.500000 0.000000 0.000000
O O20 0.500000 0.500000 0.500000
O O21 0.587371 0.250000 0.310634
#
# Coordination Sequence:
#
# PCOD9156531 Si02
#       8
#     4   4   4   4   4   4   4   4
#     4   9  16  28  48  74 100 129 159 192 239 295
#     4  11  22  31  45  68  94 126 168 212 248 282
#     4  10  18  29  46  64  88 128 167 204 250 293
#     4   9  17  30  46  65  91 123 163 207 242 284
#     4   9  20  36  50  66  95 130 158 190 240 295
#     4   8  15  28  46  66  93 127 164 203 245 289
#     4  10  20  35  56  81 104 128 155 191 237 293
#     4  10  19  32  47  68  94 127 171 216 254 288
#
# _framework density 17.519268
#
# number of rings (size 3 to 8) (size 9 to 14) (size 15 to 20)
#    0.000    2.500    1.250    3.375    0.000    4.000 
#    0.000    0.625    0.000    0.000    0.000    0.875 
#    0.000    0.000    0.000    0.000    0.000    0.000 
#
# Total GULP energy -178340.235120 kJ/mol
# GULP energy per Si atom -5573.132348 kJ/mol
# Density = 1.747939 g / cm^3
# Si number density = 17.519268 Si / 1000 Ang^3
#
#
#
# Elastic Constant Matrix: (Units=GPa)
#
#
# Indices 1 2 3 4 5 6 
#
# 1 95.6017 11.6545 61.0078 0.0000 -30.3771 0.0000
# 2 11.6545 25.0496 7.8533 0.0000 -2.4011 0.0000
# 3 61.0078 7.8533 127.1347 0.0000 -19.3634 0.0000
# 4 0.0000 0.0000 0.0000 17.6966 0.0000 1.8966
# 5 -30.3771 -2.4011 -19.3634 0.0000 34.3273 0.0000
# 6 0.0000 0.0000 0.0000 1.8966 0.0000 18.8944
#
#
#
# Elastic Compliance Matrix: (Units=1/GPa)
#
#
# Indices 1 2 3 4 5 6 
#
# 1 0.019954 -0.005759 -0.007211 0.000000 0.013187 0.000000
# 2 -0.005759 0.042448 -0.000200 0.000000 -0.002240 0.000000
# 3 -0.007211 -0.000200 0.011338 0.000000 0.000001 0.000000
# 4 0.000000 0.000000 0.000000 0.057122 0.000000 -0.005734
# 5 0.013187 -0.002240 0.000001 0.000000 0.040645 0.000000
# 6 0.000000 0.000000 0.000000 -0.005734 0.000000 0.053501
#
#
# Mechanical properties :
#
#
# Convention : Reuss Voigt Hill
#
# Bulk Modulus (GPa) = 21.09651 45.42415 33.26033
# Shear Modulus (GPa) = 18.71614 25.33502 22.02558
#
# Velocity S-wave (km/s) = 3.27206 3.80692 3.54958
# Velocity P-wave (km/s) = 5.13256 6.73111 5.98544
#
# Compressibility (1/GPa) = 0.04740122
#
# Stress axis : x y z
#
# Youngs Moduli (GPa) = 50.11513 23.55817 88.19557
#
# Poissons Ratio (x) = 0.13567 0.63598
# Poissons Ratio (y) = 0.28861 0.01761
# Poissons Ratio (z) = 0.36138 0.00470
#
# Static dielectric constant tensor:
#      x y z
#    x 1.632440 0.000000 -0.029880 
#    y 0.000000 1.609000 0.000000 
#    z -0.029880 0.000000 1.620880 
# 
# From -- ./inp_files/54298.got.cif
#   From: 2010.05.17/outbox.cif.g08.bks.cpg/sg11_28_cif.got.tgz:54298.got - 2010.06.03 12:22:45.
