data_PCOD9156220
_publ_section_title
;
Structure prediction by ZEFSAII (Michael W. Deem and Ramdas Pophale) SiO2 
 PCOD9156220
Probable space group: P 21/M
;
_chemical_formula_sum "Si O2"
_cell_formula_units_Z 32
_cell_length_a 24.453572
_cell_length_b 9.074273
_cell_length_c 19.091490
_cell_angle_alpha 90.000000
_cell_angle_beta 150.145762
_cell_angle_gamma 90.000000
_cell_volume 2108.845047
_symmetry_space_group_name_H-M "P 21/M"
_symmetry_group_IT_number 11
_symmetry_cell_setting 'monoclinic'
loop_
_space_group_symop_operation_xyz
x,y,z
-x,1/2+y,-z
-x,-y,-z
x,1/2-y,z
loop_
_atom_site_type_symbol
_atom_site_label
_atom_site_fract_x
_atom_site_fract_y
_atom_site_fract_z
Si Si1 0.894799 0.072416 0.421233
Si Si2 0.087516 0.572966 0.045757
Si Si3 0.084257 0.074414 0.890655
Si Si4 0.981393 0.578219 0.647378
Si Si5 0.775777 0.080033 0.154750
Si Si6 0.678772 0.923550 0.919505
Si Si7 0.660250 0.425698 0.646544
Si Si8 0.529033 0.074446 0.642955
O O1 0.907331 0.250000 0.437912
O O2 0.794316 0.039232 0.256693
O O3 0.000000 0.000000 0.500000
O O4 0.897905 0.002829 0.501809
O O5 0.075492 0.750000 0.030044
O O6 0.211278 0.539515 0.209330
O O7 0.075053 0.505499 0.954571
O O8 0.000000 0.500000 0.000000
O O9 0.068678 0.250000 0.879837
O O10 0.000107 0.005696 0.740940
O O11 0.206955 0.049174 0.995783
O O12 0.953688 0.750000 0.625971
O O13 0.101830 0.573384 0.743678
O O14 0.740117 0.250000 0.111009
O O15 0.699910 0.981306 0.021443
O O16 0.658727 0.750000 0.897070
O O17 0.582961 0.006218 0.771739
O O18 0.646681 0.250000 0.622160
O O19 0.588646 0.509142 0.509190
O O20 0.608412 0.463561 0.665006
O O21 0.524273 0.250000 0.643180
#
# Coordination Sequence:
#
# PCOD9156220 Si02
#       8
#     4   4   4   4   4   4   4   4
#     4   9  15  23  34  50  73 104 140 177 213 254
#     4  11  22  36  51  67  89 116 147 185 227 270
#     4  10  19  30  44  62  83 110 146 184 220 264
#     4   9  16  25  38  54  75 105 139 179 218 255
#     4   8  15  24  34  50  76 108 141 174 211 253
#     4  10  18  26  40  61  85 112 144 181 218 259
#     4   9  19  33  47  65  87 112 142 180 223 265
#     4  10  18  29  47  66  87 113 143 181 222 265
#
# _framework density 15.174182
#
# number of rings (size 3 to 8) (size 9 to 14) (size 15 to 20)
#    0.000    2.500    1.250    3.000    0.000    6.000 
#    0.000    0.000    0.000    0.000    0.000    0.000 
#    0.000    0.000    0.000    1.125    0.000   15.125 
#
# Total GULP energy -178273.747435 kJ/mol
# GULP energy per Si atom -5571.054607 kJ/mol
# Density = 1.513964 g / cm^3
# Si number density = 15.174182 Si / 1000 Ang^3
#
#
#
# Elastic Constant Matrix: (Units=GPa)
#
#
# Indices 1 2 3 4 5 6 
#
# 1 42.5510 40.4902 54.5732 0.0000 -11.4490 0.0000
# 2 40.4902 75.0662 72.8327 0.0000 -20.3270 0.0000
# 3 54.5732 72.8327 130.8253 0.0000 -36.1904 0.0000
# 4 0.0000 0.0000 0.0000 30.0442 0.0000 -8.5828
# 5 -11.4490 -20.3270 -36.1904 0.0000 23.7991 0.0000
# 6 0.0000 0.0000 0.0000 -8.5828 0.0000 18.1036
#
#
#
# Elastic Compliance Matrix: (Units=1/GPa)
#
#
# Indices 1 2 3 4 5 6 
#
# 1 0.063160 -0.018583 -0.020690 0.000000 -0.016951 0.000000
# 2 -0.018583 0.034439 -0.009937 0.000000 0.005364 0.000000
# 3 -0.020690 -0.009937 0.028836 0.000000 0.025408 0.000000
# 4 0.000000 0.000000 0.000000 0.038498 0.000000 0.018252
# 5 -0.016951 0.005364 0.025408 0.000000 0.077083 0.000000
# 6 0.000000 0.000000 0.000000 0.018252 0.000000 0.063891
#
#
# Mechanical properties :
#
#
# Convention : Reuss Voigt Hill
#
# Bulk Modulus (GPa) = 35.69778 64.91498 50.30638
# Shear Modulus (GPa) = 12.08708 19.75916 15.92312
#
# Velocity S-wave (km/s) = 2.82539 3.61246 3.24289
# Velocity P-wave (km/s) = 5.84980 7.76354 6.87360
#
# Compressibility (1/GPa) = 0.02801295
#
# Stress axis : x y z
#
# Youngs Moduli (GPa) = 15.83291 29.03670 34.67932
#
# Poissons Ratio (x) = 0.53959 0.71753
# Poissons Ratio (y) = 0.29423 0.34462
# Poissons Ratio (z) = 0.32759 0.28854
#
# Static dielectric constant tensor:
#      x y z
#    x 1.485690 0.000000 -0.025700 
#    y 0.000000 1.503270 0.000000 
#    z -0.025700 0.000000 1.508770 
# 
# From -- ./inp_files/42500.got.cif
#   From: 2010.05.17/outbox.cif.g08.bks.cpg/sg11_22_cif.got.tgz:42500.got - 2010.06.03 12:22:45.
