data_PCOD9156982
_publ_section_title
;
Structure prediction by ZEFSAII (Michael W. Deem and Ramdas Pophale) SiO2 
 PCOD9156982
Probable space group: P 21/M
;
_chemical_formula_sum "Si O2"
_cell_formula_units_Z 28
_cell_length_a 21.284482
_cell_length_b 8.816917
_cell_length_c 19.040529
_cell_angle_alpha 90.000000
_cell_angle_beta 26.578417
_cell_angle_gamma 90.000000
_cell_volume 1598.734728
_symmetry_space_group_name_H-M "P 21/M"
_symmetry_group_IT_number 11
_symmetry_cell_setting 'monoclinic'
loop_
_space_group_symop_operation_xyz
x,y,z
-x,1/2+y,-z
-x,-y,-z
x,1/2-y,z
loop_
_atom_site_type_symbol
_atom_site_label
_atom_site_fract_x
_atom_site_fract_y
_atom_site_fract_z
Si Si1 0.842227 0.933549 0.006564
Si Si2 0.331413 0.923879 0.094005
Si Si3 0.842345 0.567301 0.160349
Si Si4 0.326662 0.425543 0.242203
Si Si5 0.341768 0.067105 0.381893
Si Si6 0.169692 0.567588 0.682697
Si Si7 0.346874 0.431751 0.934009
O O1 0.842337 0.750000 0.004443
O O2 0.005635 0.979158 0.839286
O O3 0.782194 0.974886 0.143642
O O4 0.752843 0.985453 0.029558
O O5 0.291711 0.750000 0.122586
O O6 0.279463 0.982764 0.221206
O O7 0.502352 0.930874 0.926754
O O8 0.290418 0.021105 0.067150
O O9 0.847210 0.750000 0.160898
O O10 0.776985 0.497355 0.295913
O O11 0.000000 0.500000 0.000000
O O12 0.286722 0.250000 0.273372
O O13 0.283079 0.479103 0.363397
O O14 0.342395 0.250000 0.383223
O O15 0.254488 0.998683 0.532835
O O16 0.500703 0.006778 0.227227
O O17 0.176968 0.750000 0.676609
O O18 0.360999 0.250000 0.916970
#
# Coordination Sequence:
#
# PCOD9156982 Si02
#       7
#     4   4   4   4   4   4   4
#     4   8  17  32  51  73  96 123 159 198 234 280
#     4   9  16  26  42  67  95 121 155 197 235 275
#     4   9  16  30  50  72  96 123 159 201 238 277
#     4   8  15  27  43  63  90 123 157 192 233 279
#     4  10  20  33  48  72 101 126 157 199 241 282
#     4  10  19  33  52  74  97 125 161 198 239 286
#     4  10  18  31  50  71  97 129 159 192 238 285
#
# _framework density 17.513849
#
# number of rings (size 3 to 8) (size 9 to 14) (size 15 to 20)
#    0.000    2.857    0.000    3.857    0.000    4.000 
#    0.000    9.286    0.000    0.857    0.000    0.000 
#    0.000    0.000    0.000    0.000    0.000    0.000 
#
# Total GULP energy -155921.615774 kJ/mol
# GULP energy per Si atom -5568.629135 kJ/mol
# Density = 1.747399 g / cm^3
# Si number density = 17.513849 Si / 1000 Ang^3
#
#
#
# Elastic Constant Matrix: (Units=GPa)
#
#
# Indices 1 2 3 4 5 6 
#
# 1 131.5779 39.9440 38.9679 0.0000 33.3535 0.0000
# 2 39.9440 65.2505 35.0920 0.0000 20.4131 0.0000
# 3 38.9679 35.0920 133.6123 0.0000 61.0369 0.0000
# 4 0.0000 0.0000 0.0000 17.1540 0.0000 8.3604
# 5 33.3535 20.4131 61.0369 0.0000 40.2237 0.0000
# 6 0.0000 0.0000 0.0000 8.3604 0.0000 22.6788
#
#
#
# Elastic Compliance Matrix: (Units=1/GPa)
#
#
# Indices 1 2 3 4 5 6 
#
# 1 0.011126 -0.004940 0.003656 0.000000 -0.012268 0.000000
# 2 -0.004940 0.020549 -0.003467 0.000000 -0.001072 0.000000
# 3 0.003656 -0.003467 0.025781 0.000000 -0.040394 0.000000
# 4 0.000000 0.000000 0.000000 0.071063 0.000000 -0.026197
# 5 -0.012268 -0.001072 -0.040394 0.000000 0.096873 0.000000
# 6 0.000000 0.000000 0.000000 -0.026197 0.000000 0.053751
#
#
# Mechanical properties :
#
#
# Convention : Reuss Voigt Hill
#
# Bulk Modulus (GPa) = 20.85202 62.04982 41.45092
# Shear Modulus (GPa) = 16.41336 30.44043 23.42690
#
# Velocity S-wave (km/s) = 3.06464 4.17355 3.66132
# Velocity P-wave (km/s) = 4.94515 7.66359 6.44923
#
# Compressibility (1/GPa) = 0.04795697
#
# Stress axis : x y z
#
# Youngs Moduli (GPa) = 89.87554 48.66348 38.78782
#
# Poissons Ratio (x) = 0.24039 -0.14183
# Poissons Ratio (y) = 0.44397 0.13446
# Poissons Ratio (z) = -0.32863 0.16870
#
# Static dielectric constant tensor:
#      x y z
#    x 1.618910 0.000000 0.027670 
#    y 0.000000 1.584670 0.000000 
#    z 0.027670 0.000000 1.603760 
# 
# From -- ./inp_files/42215.got.cif
#   From: 2010.05.17/outbox.cif.g08.bks.cpg/sg11_22_cif.got.tgz:42215.got - 2010.06.03 12:22:45.
