data_PCOD9156013
_publ_section_title
;
Structure prediction by ZEFSAII (Michael W. Deem and Ramdas Pophale) SiO2 
 PCOD9156013
Probable space group: P 21/M
;
_chemical_formula_sum "Si O2"
_cell_formula_units_Z 32
_cell_length_a 26.348840
_cell_length_b 9.005384
_cell_length_c 20.859220
_cell_angle_alpha 90.000000
_cell_angle_beta 21.015756
_cell_angle_gamma 90.000000
_cell_volume 1775.014712
_symmetry_space_group_name_H-M "P 21/M"
_symmetry_group_IT_number 11
_symmetry_cell_setting 'monoclinic'
loop_
_space_group_symop_operation_xyz
x,y,z
-x,1/2+y,-z
-x,-y,-z
x,1/2-y,z
loop_
_atom_site_type_symbol
_atom_site_label
_atom_site_fract_x
_atom_site_fract_y
_atom_site_fract_z
Si Si1 0.901667 0.928496 0.904630
Si Si2 0.207586 0.427806 0.568937
Si Si3 0.158575 0.071311 0.405867
Si Si4 0.285856 0.571218 0.136685
Si Si5 0.186891 0.920121 0.723656
Si Si6 0.142033 0.572118 0.175263
Si Si7 0.156288 0.421125 0.887700
Si Si8 0.604914 0.569780 0.772587
O O1 0.913746 0.750000 0.890260
O O2 0.833759 0.988165 0.919624
O O3 0.821529 0.970953 0.065161
O O4 0.058445 0.999167 0.724573
O O5 0.191063 0.250000 0.587840
O O6 0.243271 0.483378 0.598109
O O7 0.324056 0.470262 0.378925
O O8 0.162114 0.250000 0.395645
O O9 0.290663 0.020869 0.294004
O O10 0.013839 0.034227 0.613247
O O11 0.176660 0.999134 0.315290
O O12 0.278625 0.750000 0.151069
O O13 0.248472 0.535540 0.107391
O O14 0.443923 0.518363 0.967270
O O15 0.231305 0.750000 0.664765
O O16 0.218978 0.983025 0.756175
O O17 0.015137 0.924292 0.918749
O O18 0.145142 0.750000 0.160393
O O19 0.200621 0.250000 0.828368
O O20 0.602172 0.750000 0.777962
#
# Coordination Sequence:
#
# PCOD9156013 Si02
#       8
#     4   4   4   4   4   4   4   4
#     4  10  19  30  47  71  97 124 163 205 239 283
#     4  10  17  29  48  67  95 132 162 196 243 289
#     4  10  19  34  52  71  96 127 161 200 244 293
#     4  10  21  35  51  73  97 126 163 202 241 289
#     4   9  16  25  39  65  97 126 160 199 235 282
#     4  10  20  34  51  71  98 129 162 197 243 295
#     4   8  15  26  39  61  93 127 157 191 238 288
#     4   9  18  33  51  71  98 128 162 200 241 289
#
# _framework density 18.028020000000001
#
# number of rings (size 3 to 8) (size 9 to 14) (size 15 to 20)
#    0.000    2.500    1.250    2.625    0.000    4.500 
#    0.000    1.250    0.000    0.000    0.000    0.875 
#    0.000    0.000    0.000    0.000    0.000    0.000 
#
# Total GULP energy -178428.214291 kJ/mol
# GULP energy per Si atom -5575.881697 kJ/mol
# Density = 1.798699 g / cm^3
# Si number density = 18.028020 Si / 1000 Ang^3
#
#
#
# Elastic Constant Matrix: (Units=GPa)
#
#
# Indices 1 2 3 4 5 6 
#
# 1 84.8185 25.0040 10.2706 0.0000 21.8281 0.0000
# 2 25.0040 33.5016 5.5989 0.0000 11.3325 0.0000
# 3 10.2706 5.5989 14.5447 0.0000 4.7404 0.0000
# 4 0.0000 0.0000 0.0000 11.7171 0.0000 11.0817
# 5 21.8281 11.3325 4.7404 0.0000 31.9384 0.0000
# 6 0.0000 0.0000 0.0000 11.0817 0.0000 29.3292
#
#
#
# Elastic Compliance Matrix: (Units=1/GPa)
#
#
# Indices 1 2 3 4 5 6 
#
# 1 0.017208 -0.009261 -0.006120 0.000000 -0.007566 0.000000
# 2 -0.009261 0.040230 -0.006680 0.000000 -0.006953 0.000000
# 3 -0.006120 -0.006680 0.077248 0.000000 -0.004912 0.000000
# 4 0.000000 0.000000 0.000000 0.132802 0.000000 -0.050178
# 5 -0.007566 -0.006953 -0.004912 0.000000 0.039678 0.000000
# 6 0.000000 0.000000 0.000000 -0.050178 0.000000 0.053055
#
#
# Mechanical properties :
#
#
# Convention : Reuss Voigt Hill
#
# Bulk Modulus (GPa) = 11.04211 23.84576 17.44394
# Shear Modulus (GPa) = 11.50662 20.72970 16.11816
#
# Velocity S-wave (km/s) = 2.52913 3.39464 2.99333
# Velocity P-wave (km/s) = 3.82974 5.34982 4.65228
#
# Compressibility (1/GPa) = 0.09056240
#
# Stress axis : x y z
#
# Youngs Moduli (GPa) = 58.11121 24.85709 12.94531
#
# Poissons Ratio (x) = 0.23021 0.07923
# Poissons Ratio (y) = 0.53818 0.08648
# Poissons Ratio (z) = 0.35566 0.16606
#
# Static dielectric constant tensor:
#      x y z
#    x 1.640850 0.000000 -0.002990 
#    y 0.000000 1.604800 0.000000 
#    z -0.002990 0.000000 1.597450 
# 
# From -- ./inp_files/67049.got.cif
#   From: 2010.05.17/outbox.cif.g08.bks.cpg/sg11_34_cif.got.tgz:67049.got - 2010.06.03 12:22:45.
