data_PCOD9156256
_publ_section_title
;
Structure prediction by ZEFSAII (Michael W. Deem and Ramdas Pophale) SiO2 
 PCOD9156256
Probable space group: P 21/M
;
_chemical_formula_sum "Si O2"
_cell_formula_units_Z 32
_cell_length_a 16.506398
_cell_length_b 8.801962
_cell_length_c 31.457636
_cell_angle_alpha 90.000000
_cell_angle_beta 150.290983
_cell_angle_gamma 90.000000
_cell_volume 2265.088213
_symmetry_space_group_name_H-M "P 21/M"
_symmetry_group_IT_number 11
_symmetry_cell_setting 'monoclinic'
loop_
_space_group_symop_operation_xyz
x,y,z
-x,1/2+y,-z
-x,-y,-z
x,1/2-y,z
loop_
_atom_site_type_symbol
_atom_site_label
_atom_site_fract_x
_atom_site_fract_y
_atom_site_fract_z
Si Si1 0.772960 0.068127 0.480838
Si Si2 0.699623 0.432177 0.181160
Si Si3 0.903151 0.932732 0.194715
Si Si4 0.740336 0.931734 0.635060
Si Si5 0.182276 0.067904 0.585867
Si Si6 0.600835 0.932405 0.006630
Si Si7 0.156270 0.432238 0.668073
Si Si8 0.580513 0.931722 0.471869
O O1 0.764389 0.250000 0.475325
O O2 0.963054 0.026848 0.577486
O O3 0.728438 0.000816 0.414311
O O4 0.660564 0.003465 0.466769
O O5 0.715859 0.250000 0.185574
O O6 0.812165 0.506347 0.195665
O O7 0.759041 0.488066 0.253820
O O8 0.510176 0.474605 0.084432
O O9 0.913181 0.750000 0.201652
O O10 0.787337 0.976759 0.101738
O O11 0.082367 0.002505 0.274094
O O12 0.739360 0.750000 0.638850
O O13 0.690855 0.968957 0.563676
O O14 0.598337 0.002980 0.599313
O O15 0.175371 0.250000 0.579195
O O16 0.235725 0.030305 0.658363
O O17 0.000000 0.000000 0.500000
O O18 0.597123 0.750000 0.007473
O O19 0.500000 0.000000 0.000000
O O20 0.164184 0.250000 0.677175
O O21 0.573508 0.750000 0.464798
#
# Coordination Sequence:
#
# PCOD9156256 Si02
#       8
#     4   4   4   4   4   4   4   4
#     4  10  19  30  44  61  83 111 142 174 207 245
#     4  10  18  27  41  61  84 110 142 175 205 242
#     4  10  18  29  44  59  81 112 142 172 209 249
#     4  10  20  32  45  62  83 107 140 178 209 241
#     4   9  17  29  43  59  81 108 139 173 207 246
#     4   8  16  28  40  57  80 107 138 171 205 242
#     4   9  18  29  41  60  85 112 140 170 206 246
#     4  10  20  32  45  61  83 111 140 172 210 246
#
# _framework density 14.127485
#
# number of rings (size 3 to 8) (size 9 to 14) (size 15 to 20)
#    0.000    2.500    0.000    3.750    0.000    7.500 
#    0.000    0.000    0.000    0.000    0.000    0.000 
#    0.000    1.000    0.000    3.000    0.000    4.625 
#
# Total GULP energy -178234.039700 kJ/mol
# GULP energy per Si atom -5569.813741 kJ/mol
# Density = 1.409533 g / cm^3
# Si number density = 14.127485 Si / 1000 Ang^3
#
#
#
# Elastic Constant Matrix: (Units=GPa)
#
#
# Indices 1 2 3 4 5 6 
#
# 1 108.3818 39.4354 52.9260 0.0000 -5.5436 0.0000
# 2 39.4354 41.5724 37.8084 0.0000 -2.3629 0.0000
# 3 52.9260 37.8084 113.0776 0.0000 -0.7623 0.0000
# 4 0.0000 0.0000 0.0000 18.9753 0.0000 0.4463
# 5 -5.5436 -2.3629 -0.7623 0.0000 19.4827 0.0000
# 6 0.0000 0.0000 0.0000 0.4463 0.0000 24.2661
#
#
#
# Elastic Compliance Matrix: (Units=1/GPa)
#
#
# Indices 1 2 3 4 5 6 
#
# 1 0.015014 -0.011078 -0.003305 0.000000 0.002799 0.000000
# 2 -0.011078 0.043014 -0.009185 0.000000 0.001705 0.000000
# 3 -0.003305 -0.009185 0.013451 0.000000 -0.001528 0.000000
# 4 0.000000 0.000000 0.000000 0.052723 0.000000 -0.000970
# 5 0.002799 0.001705 -0.001528 0.000000 0.052271 0.000000
# 6 0.000000 0.000000 0.000000 -0.000970 0.000000 0.041228
#
#
# Mechanical properties :
#
#
# Convention : Reuss Voigt Hill
#
# Bulk Modulus (GPa) = 41.07937 58.15238 49.61588
# Shear Modulus (GPa) = 18.31828 21.40228 19.86028
#
# Velocity S-wave (km/s) = 3.60480 3.89644 3.75345
# Velocity P-wave (km/s) = 6.81666 7.84187 7.34717
#
# Compressibility (1/GPa) = 0.02434312
#
# Stress axis : x y z
#
# Youngs Moduli (GPa) = 66.60280 23.24837 74.34348
#
# Poissons Ratio (x) = 0.25755 0.24567
# Poissons Ratio (y) = 0.73783 0.68287
# Poissons Ratio (z) = 0.22009 0.21354
#
# Static dielectric constant tensor:
#      x y z
#    x 1.472280 0.000000 -0.007670 
#    y 0.000000 1.477300 0.000000 
#    z -0.007670 0.000000 1.481430 
# 
# From -- ./inp_files/51389.got.cif
#   From: 2010.05.17/outbox.cif.g08.bks.cpg/sg11_26_cif.got.tgz:51389.got - 2010.06.03 12:22:45.
