data_PCOD9156645
_publ_section_title
;
Structure prediction by ZEFSAII (Michael W. Deem and Ramdas Pophale) SiO2 
 PCOD9156645
Probable space group: P 21/M
;
_chemical_formula_sum "Si O2"
_cell_formula_units_Z 32
_cell_length_a 22.214702
_cell_length_b 9.039325
_cell_length_c 11.909863
_cell_angle_alpha 90.000000
_cell_angle_beta 129.097812
_cell_angle_gamma 90.000000
_cell_volume 1856.027595
_symmetry_space_group_name_H-M "P 21/M"
_symmetry_group_IT_number 11
_symmetry_cell_setting 'monoclinic'
loop_
_space_group_symop_operation_xyz
x,y,z
-x,1/2+y,-z
-x,-y,-z
x,1/2-y,z
loop_
_atom_site_type_symbol
_atom_site_label
_atom_site_fract_x
_atom_site_fract_y
_atom_site_fract_z
Si Si1 0.238614 0.923323 0.649527
Si Si2 0.088354 0.573878 0.312574
Si Si3 0.263662 0.926705 0.135218
Si Si4 0.177056 0.074297 0.227019
Si Si5 0.577407 0.425535 0.547610
Si Si6 0.034963 0.427285 0.652680
Si Si7 0.681312 0.426376 0.475448
Si Si8 0.217078 0.074593 0.857863
O O1 0.237783 0.750000 0.680334
O O2 0.160321 0.949777 0.484173
O O3 0.309110 0.949515 0.645529
O O4 0.240171 0.022120 0.761099
O O5 0.085328 0.750000 0.286490
O O6 0.106756 0.490044 0.218715
O O7 0.012401 0.526454 0.292074
O O8 0.255145 0.750000 0.129365
O O9 0.346228 0.965311 0.289844
O O10 0.195057 0.001413 0.127869
O O11 0.261155 0.987577 0.006941
O O12 0.171812 0.250000 0.210919
O O13 0.252331 0.023248 0.387531
O O14 0.500000 0.500000 0.500000
O O15 0.567471 0.250000 0.544828
O O16 0.602145 0.459000 0.447836
O O17 0.025076 0.250000 0.631657
O O18 0.125741 0.459956 0.765121
O O19 0.000000 0.500000 0.500000
O O20 0.699151 0.250000 0.516316
O O21 0.227803 0.250000 0.883205
#
# Coordination Sequence:
#
# PCOD9156645 Si02
#       8
#     4   4   4   4   4   4   4   4
#     4   9  16  29  50  71  97 137 176 205 245 303
#     4   9  17  31  49  69  97 135 173 209 257 313
#     4  10  21  38  55  72 101 140 173 198 244 317
#     4  10  18  29  49  75  99 125 165 219 262 291
#     4   9  18  33  56  83 106 130 161 202 247 297
#     4  10  20  33  49  71 102 135 172 218 262 305
#     4   8  16  31  49  73 105 137 169 199 241 304
#     4  11  22  33  49  76 105 132 170 221 262 293
#
# _framework density 17.241123000000002
#
# number of rings (size 3 to 8) (size 9 to 14) (size 15 to 20)
#    0.000    2.500    1.250    3.375    0.000    5.500 
#    0.000    0.625    0.000    0.750    0.000    0.000 
#    0.000    0.000    0.000    0.000    0.000    0.000 
#
# Total GULP energy -178368.536416 kJ/mol
# GULP energy per Si atom -5574.016763 kJ/mol
# Density = 1.720188 g / cm^3
# Si number density = 17.241123 Si / 1000 Ang^3
#
#
#
# Elastic Constant Matrix: (Units=GPa)
#
#
# Indices 1 2 3 4 5 6 
#
# 1 138.6895 44.3881 30.7685 0.0000 -5.8037 0.0000
# 2 44.3881 48.7612 29.3844 0.0000 -7.3130 0.0000
# 3 30.7685 29.3844 37.3348 0.0000 -9.8577 0.0000
# 4 0.0000 0.0000 0.0000 18.6551 0.0000 -4.5828
# 5 -5.8037 -7.3130 -9.8577 0.0000 17.1865 0.0000
# 6 0.0000 0.0000 0.0000 -4.5828 0.0000 31.8094
#
#
#
# Elastic Compliance Matrix: (Units=1/GPa)
#
#
# Indices 1 2 3 4 5 6 
#
# 1 0.010289 -0.008072 -0.002493 0.000000 -0.001390 0.000000
# 2 -0.008072 0.045364 -0.029078 0.000000 -0.000102 0.000000
# 3 -0.002493 -0.029078 0.056845 0.000000 0.019390 0.000000
# 4 0.000000 0.000000 0.000000 0.055571 0.000000 0.008006
# 5 -0.001390 -0.000102 0.019390 0.000000 0.068794 0.000000
# 6 0.000000 0.000000 0.000000 0.008006 0.000000 0.032591
#
#
# Mechanical properties :
#
#
# Convention : Reuss Voigt Hill
#
# Bulk Modulus (GPa) = 30.11065 48.20748 39.15907
# Shear Modulus (GPa) = 13.89615 21.54650 17.72132
#
# Velocity S-wave (km/s) = 2.84207 3.53897 3.20949
# Velocity P-wave (km/s) = 5.31716 6.68734 6.04122
#
# Compressibility (1/GPa) = 0.03321084
#
# Stress axis : x y z
#
# Youngs Moduli (GPa) = 97.19293 22.04375 17.59167
#
# Poissons Ratio (x) = 0.17794 0.04386
# Poissons Ratio (y) = 0.78456 0.51154
# Poissons Ratio (z) = 0.24231 0.64100
#
# Static dielectric constant tensor:
#      x y z
#    x 1.617180 0.000000 -0.007880 
#    y 0.000000 1.574730 0.000000 
#    z -0.007880 0.000000 1.574980 
# 
# From -- ./inp_files/42453.got.cif
#   From: 2010.05.17/outbox.cif.g08.bks.cpg/sg11_22_cif.got.tgz:42453.got - 2010.06.03 12:22:45.
