data_PCOD9156315
_publ_section_title
;
Structure prediction by ZEFSAII (Michael W. Deem and Ramdas Pophale) SiO2 
 PCOD9156315
Probable space group: P 21/M
;
_chemical_formula_sum "Si O2"
_cell_formula_units_Z 32
_cell_length_a 14.761177
_cell_length_b 7.474420
_cell_length_c 16.396307
_cell_angle_alpha 90.000000
_cell_angle_beta 89.988748
_cell_angle_gamma 90.000000
_cell_volume 1809.024792
_symmetry_space_group_name_H-M "P 21/M"
_symmetry_group_IT_number 11
_symmetry_cell_setting 'monoclinic'
loop_
_space_group_symop_operation_xyz
x,y,z
-x,1/2+y,-z
-x,-y,-z
x,1/2-y,z
loop_
_atom_site_type_symbol
_atom_site_label
_atom_site_fract_x
_atom_site_fract_y
_atom_site_fract_z
Si Si1 0.607426 0.964733 0.677777
Si Si2 0.392387 0.463859 0.500053
Si Si3 0.289146 0.469374 0.161980
Si Si4 0.101456 0.036260 0.906661
Si Si5 0.606362 0.536511 0.999943
Si Si6 0.392738 0.035257 0.677885
Si Si7 0.710782 0.969373 0.161871
Si Si8 0.898541 0.536280 0.906672
O O1 0.616994 0.750000 0.676008
O O2 0.638498 0.032834 0.588433
O O3 0.664192 0.031652 0.754781
O O4 0.500082 0.999962 0.688372
O O5 0.500000 0.500000 0.500000
O O6 0.377931 0.250000 0.500059
O O7 0.361577 0.532821 0.588572
O O8 0.291273 0.250000 0.163516
O O9 0.346047 0.528662 0.082676
O O10 0.185533 0.526705 0.147289
O O11 0.110679 0.250000 0.911850
O O12 0.185579 0.973319 0.852720
O O13 0.108547 0.966586 0.999995
O O14 0.000009 0.999929 0.876566
O O15 0.619284 0.750000 0.999938
O O16 0.500000 0.500000 0.000000
O O17 0.653998 0.471329 0.082522
O O18 0.383203 0.250000 0.676131
O O19 0.335996 0.968359 0.754925
O O20 0.708650 0.750000 0.163395
O O21 0.889246 0.750000 0.911886
#
# Coordination Sequence:
#
# PCOD9156315 Si02
#       8
#     4   4   4   4   4   4   4   4
#     4   9  16  26  40  58  80 106 133 161 191 226
#     4   8  14  24  38  56  77 100 130 164 193 220
#     4   9  16  27  42  57  77 106 133 155 190 236
#     4   9  16  28  44  59  75  98 128 163 199 233
#     4  10  18  28  39  54  78 108 135 156 181 222
#     4   9  16  26  40  58  80 106 133 161 191 226
#     4   9  16  27  42  57  77 106 133 155 190 236
#     4   9  16  28  44  59  75  98 128 163 199 233
#
# _framework density 17.689088999999999
#
# number of rings (size 3 to 8) (size 9 to 14) (size 15 to 20)
#    0.000    3.000    1.250    0.750    0.000    0.000 
#    0.000    2.500    0.000    0.000    0.000    0.875 
#    0.000    0.000    0.000    0.000    0.000    0.000 
#
# Total GULP energy -178313.243595 kJ/mol
# GULP energy per Si atom -5572.288862 kJ/mol
# Density = 1.764883 g / cm^3
# Si number density = 17.689089 Si / 1000 Ang^3
#
#
#
# Elastic Constant Matrix: (Units=GPa)
#
#
# Indices 1 2 3 4 5 6 
#
# 1 137.9882 -1.5494 99.3992 0.0000 0.2174 0.0000
# 2 -1.5494 50.8615 9.5586 0.0000 0.0254 0.0000
# 3 99.3992 9.5586 190.9255 0.0000 0.2707 0.0000
# 4 0.0000 0.0000 0.0000 -3.5071 0.0000 -0.0051
# 5 0.2174 0.0254 0.2707 0.0000 6.2403 0.0000
# 6 0.0000 0.0000 0.0000 -0.0051 0.0000 16.7194
#
#
#
# Elastic Compliance Matrix: (Units=1/GPa)
#
#
# Indices 1 2 3 4 5 6 
#
# 1 0.011711 0.001517 -0.006172 0.000000 -0.000146 0.000000
# 2 0.001517 0.020044 -0.001793 0.000000 -0.000057 0.000000
# 3 -0.006172 -0.001793 0.008541 0.000000 -0.000148 0.000000
# 4 0.000000 0.000000 0.000000 -0.285137 0.000000 -0.000088
# 5 -0.000146 -0.000057 -0.000148 0.000000 0.160260 0.000000
# 6 0.000000 0.000000 0.000000 -0.000088 0.000000 0.059811
#
#
# Mechanical properties :
#
#
# Convention : Reuss Voigt Hill
#
# Bulk Modulus (GPa) = 36.49816 66.06578 51.28197
# Shear Modulus (GPa) = -1824.63089 22.04832 -901.29129
#
# Velocity S-wave (km/s) = -32.15183 3.53432 -22.59700
# Velocity P-wave (km/s) = 36.84620 7.35423 25.52996
#
# Compressibility (1/GPa) = 0.02739864
#
# Stress axis : x y z
#
# Youngs Moduli (GPa) = 85.39299 49.88908 117.08062
#
# Poissons Ratio (x) = -0.07567 0.72268
# Poissons Ratio (y) = -0.12953 0.20994
# Poissons Ratio (z) = 0.52708 0.08946
#
# Static dielectric constant tensor:
#      x y z
#    x 1.586130 0.000000 0.000040 
#    y 0.000000 1.665050 0.000000 
#    z 0.000040 0.000000 1.632190 
# 
# From -- ./inp_files/43048.got.cif
#   From: 2010.05.17/outbox.cif.g08.bks.cpg/sg11_22_cif.got.tgz:43048.got - 2010.06.03 12:22:45.
