data_PCOD9156486
_publ_section_title
;
Structure prediction by ZEFSAII (Michael W. Deem and Ramdas Pophale) SiO2 
 PCOD9156486
Probable space group: P 21/M
;
_chemical_formula_sum "Si O2"
_cell_formula_units_Z 32
_cell_length_a 15.786724
_cell_length_b 7.519735
_cell_length_c 15.407777
_cell_angle_alpha 90.000000
_cell_angle_beta 100.468777
_cell_angle_gamma 90.000000
_cell_volume 1798.640864
_symmetry_space_group_name_H-M "P 21/M"
_symmetry_group_IT_number 11
_symmetry_cell_setting 'monoclinic'
loop_
_space_group_symop_operation_xyz
x,y,z
-x,1/2+y,-z
-x,-y,-z
x,1/2-y,z
loop_
_atom_site_type_symbol
_atom_site_label
_atom_site_fract_x
_atom_site_fract_y
_atom_site_fract_z
Si Si1 0.251456 0.968722 0.248913
Si Si2 0.364215 0.954979 0.423561
Si Si3 0.569210 0.963713 0.195127
Si Si4 0.891055 0.965699 0.063491
Si Si5 0.622965 0.034955 0.884612
Si Si6 0.450969 0.538231 0.610838
Si Si7 0.292464 0.459538 0.914789
Si Si8 0.920445 0.460601 0.867477
O O1 0.252124 0.750000 0.249752
O O2 0.291491 0.031777 0.347186
O O3 0.314997 0.022733 0.182348
O O4 0.155263 0.029744 0.208091
O O5 0.340090 0.750000 0.434335
O O6 0.389547 0.031512 0.522155
O O7 0.453818 0.959874 0.386270
O O8 0.567031 0.750000 0.184975
O O9 0.474587 0.028734 0.148650
O O10 0.645085 0.033844 0.147820
O O11 0.581022 0.003113 0.298653
O O12 0.891439 0.750000 0.066689
O O13 0.804164 0.032360 0.092482
O O14 0.982028 0.031220 0.119055
O O15 0.890698 0.014517 0.961669
O O16 0.622328 0.250000 0.883529
O O17 0.660631 0.978044 0.983840
O O18 0.460239 0.750000 0.600298
O O19 0.282436 0.250000 0.894675
O O20 0.925879 0.250000 0.852421
#
# Coordination Sequence:
#
# PCOD9156486 Si02
#       8
#     4   4   4   4   4   4   4   4
#     4   9  15  26  45  65  84 112 142 166 204 257
#     4   9  17  31  47  63  88 114 138 173 217 259
#     4  10  20  33  45  57  84 122 150 174 211 250
#     4   9  17  28  41  61  86 108 138 178 210 243
#     4  10  18  29  44  61  84 117 150 175 200 244
#     4  10  19  29  45  67  86 109 143 181 214 248
#     4  10  20  31  43  61  86 117 147 179 214 244
#     4   9  16  27  44  62  82 110 140 169 208 254
#
# _framework density 17.791212999999999
#
# number of rings (size 3 to 8) (size 9 to 14) (size 15 to 20)
#    0.000    2.500    2.500    0.750    0.000    1.500 
#    0.000    0.625    0.000    0.000    0.000    0.875 
#    0.000    0.000    0.000    0.000    0.000    0.000 
#
# Total GULP energy -178471.289767 kJ/mol
# GULP energy per Si atom -5577.227805 kJ/mol
# Density = 1.775072 g / cm^3
# Si number density = 17.791213 Si / 1000 Ang^3
#
#
#
# Elastic Constant Matrix: (Units=GPa)
#
#
# Indices 1 2 3 4 5 6 
#
# 1 143.3264 2.2439 86.9428 0.0000 20.3583 0.0000
# 2 2.2439 44.1661 -8.3878 0.0000 1.6585 0.0000
# 3 86.9428 -8.3878 106.8349 0.0000 22.2979 0.0000
# 4 0.0000 0.0000 0.0000 12.8050 0.0000 -0.9833
# 5 20.3583 1.6585 22.2979 0.0000 32.0257 0.0000
# 6 0.0000 0.0000 0.0000 -0.9833 0.0000 -2.5060
#
#
#
# Elastic Compliance Matrix: (Units=1/GPa)
#
#
# Indices 1 2 3 4 5 6 
#
# 1 0.014165 -0.002891 -0.011591 0.000000 -0.000785 0.000000
# 2 -0.002891 0.023801 0.004792 0.000000 -0.002731 0.000000
# 3 -0.011591 0.004792 0.020689 0.000000 -0.007285 0.000000
# 4 0.000000 0.000000 0.000000 0.075810 0.000000 -0.029747
# 5 -0.000785 -0.002731 -0.007285 0.000000 0.036938 0.000000
# 6 0.000000 0.000000 0.000000 -0.029747 0.000000 -0.387374
#
#
# Mechanical properties :
#
#
# Convention : Reuss Voigt Hill
#
# Bulk Modulus (GPa) = 25.46162 50.65836 38.05999
# Shear Modulus (GPa) = -27.24818 22.70017 -2.27400
#
# Velocity S-wave (km/s) = -3.91775 3.57588 -1.13178
# Velocity P-wave (km/s) = 2.47439 6.75165 4.44197
#
# Compressibility (1/GPa) = 0.03927480
#
# Stress axis : x y z
#
# Youngs Moduli (GPa) = 70.59789 42.01459 48.33384
#
# Poissons Ratio (x) = 0.12148 0.56022
# Poissons Ratio (y) = 0.20413 -0.23160
# Poissons Ratio (z) = 0.81827 -0.20132
#
# Static dielectric constant tensor:
#      x y z
#    x 1.621830 0.000000 0.023900 
#    y 0.000000 1.716910 0.000000 
#    z 0.023900 0.000000 1.595310 
# 
# From -- ./inp_files/51339.got.cif
#   From: 2010.05.17/outbox.cif.g08.bks.cpg/sg11_26_cif.got.tgz:51339.got - 2010.06.03 12:22:45.
