data_PCOD9156595
_publ_section_title
;
Structure prediction by ZEFSAII (Michael W. Deem and Ramdas Pophale) SiO2 
 PCOD9156595
Probable space group: P 21/M
;
_chemical_formula_sum "Si O2"
_cell_formula_units_Z 28
_cell_length_a 27.832027
_cell_length_b 7.628894
_cell_length_c 9.689230
_cell_angle_alpha 90.000000
_cell_angle_beta 37.385712
_cell_angle_gamma 90.000000
_cell_volume 1249.141125
_symmetry_space_group_name_H-M "P 21/M"
_symmetry_group_IT_number 11
_symmetry_cell_setting 'monoclinic'
loop_
_space_group_symop_operation_xyz
x,y,z
-x,1/2+y,-z
-x,-y,-z
x,1/2-y,z
loop_
_atom_site_type_symbol
_atom_site_label
_atom_site_fract_x
_atom_site_fract_y
_atom_site_fract_z
Si Si1 0.868464 0.963640 0.262979
Si Si2 0.922732 0.452967 0.835542
Si Si3 0.691076 0.547315 0.663185
Si Si4 0.215825 0.448510 0.046040
Si Si5 0.356208 0.954444 0.534783
Si Si6 0.476337 0.459873 0.895636
Si Si7 0.910716 0.535120 0.463590
O O1 0.869064 0.750000 0.251082
O O2 0.777881 0.026355 0.488490
O O3 0.915041 0.015329 0.294279
O O4 0.900821 0.037150 0.046998
O O5 0.920442 0.250000 0.797853
O O6 0.012353 0.523211 0.627101
O O7 0.854862 0.549641 0.905723
O O8 0.696051 0.750000 0.695418
O O9 0.675249 0.543203 0.533768
O O10 0.612902 0.468893 0.914537
O O11 0.238226 0.250000 0.028263
O O12 0.292536 0.530381 0.801092
O O13 0.171004 0.525723 0.280752
O O14 0.363091 0.750000 0.482350
O O15 0.445274 0.019808 0.364986
O O16 0.469852 0.250000 0.893025
O O17 0.500000 0.500000 0.000000
O O18 0.910949 0.750000 0.468731
#
# Coordination Sequence:
#
# PCOD9156595 Si02
#       7
#     4   4   4   4   4   4   4
#     4  10  19  34  55  77 102 132 166 204 248 301
#     4  11  21  35  54  76 101 128 166 213 258 299
#     4   9  16  28  49  74 100 129 164 199 244 301
#     4  11  21  35  53  72  99 135 174 210 247 296
#     4  10  18  29  47  72 103 130 162 206 253 294
#     4   8  15  26  42  69 100 129 157 197 246 293
#     4   9  21  37  52  73 101 134 170 208 249 299
#
# _framework density 22.415400000000002
#
# number of rings (size 3 to 8) (size 9 to 14) (size 15 to 20)
#    0.000    2.286    1.429    2.143    0.000    0.571 
#    0.000    4.286    0.000    0.857    0.000    0.000 
#    0.000    0.000    0.000    0.000    0.000    0.857 
#
# Total GULP energy -156224.832192 kJ/mol
# GULP energy per Si atom -5579.458293 kJ/mol
# Density = 2.236438 g / cm^3
# Si number density = 22.415400 Si / 1000 Ang^3
#
#
#
# Elastic Constant Matrix: (Units=GPa)
#
#
# Indices 1 2 3 4 5 6 
#
# 1 25.5470 -3.9309 7.3007 0.0000 -1.6867 0.0000
# 2 -3.9309 56.1771 -1.6703 0.0000 -3.3938 0.0000
# 3 7.3007 -1.6703 120.0484 0.0000 -18.9786 0.0000
# 4 0.0000 0.0000 0.0000 14.8336 0.0000 4.5880
# 5 -1.6867 -3.3938 -18.9786 0.0000 42.0670 0.0000
# 6 0.0000 0.0000 0.0000 4.5880 0.0000 3.9752
#
#
#
# Elastic Compliance Matrix: (Units=1/GPa)
#
#
# Indices 1 2 3 4 5 6 
#
# 1 0.040280 0.002800 -0.002282 0.000000 0.000811 0.000000
# 2 0.002800 0.018112 0.000356 0.000000 0.001734 0.000000
# 3 -0.002282 0.000356 0.009114 0.000000 0.004049 0.000000
# 4 0.000000 0.000000 0.000000 0.104841 0.000000 -0.121003
# 5 0.000811 0.001734 0.004049 0.000000 0.025771 0.000000
# 6 0.000000 0.000000 0.000000 -0.121003 0.000000 0.391216
#
#
# Mechanical properties :
#
#
# Convention : Reuss Voigt Hill
#
# Bulk Modulus (GPa) = 14.43993 22.79682 18.61838
# Shear Modulus (GPa) = 8.18771 25.51335 16.85053
#
# Velocity S-wave (km/s) = 1.91328 3.37739 2.74476
# Velocity P-wave (km/s) = 3.36702 5.03997 4.28591
#
# Compressibility (1/GPa) = 0.06925239
#
# Stress axis : x y z
#
# Youngs Moduli (GPa) = 24.82609 55.21172 109.72336
#
# Poissons Ratio (x) = -0.15457 0.25043
# Poissons Ratio (y) = -0.06950 -0.03905
# Poissons Ratio (z) = 0.05666 -0.01965
#
# Static dielectric constant tensor:
#      x y z
#    x 1.797420 0.000000 -0.038080 
#    y 0.000000 1.846710 0.000000 
#    z -0.038080 0.000000 1.878730 
# 
# From -- ./inp_files/28282.got.cif
#   From: 2010.05.17/outbox.cif.g08.bks.cpg/sg11_15_cif.got.tgz:28282.got - 2010.06.03 12:22:45.
