data_PCOD9156081
_publ_section_title
;
Structure prediction by ZEFSAII (Michael W. Deem and Ramdas Pophale) SiO2 
 PCOD9156081
Probable space group: P 21/M
;
_chemical_formula_sum "Si O2"
_cell_formula_units_Z 32
_cell_length_a 10.532914
_cell_length_b 21.056867
_cell_length_c 9.383495
_cell_angle_alpha 90.000000
_cell_angle_beta 113.467068
_cell_angle_gamma 90.000000
_cell_volume 1909.031779
_symmetry_space_group_name_H-M "P 21/M"
_symmetry_group_IT_number 11
_symmetry_cell_setting 'monoclinic'
loop_
_space_group_symop_operation_xyz
x,y,z
-x,1/2+y,-z
-x,-y,-z
x,1/2-y,z
loop_
_atom_site_type_symbol
_atom_site_label
_atom_site_fract_x
_atom_site_fract_y
_atom_site_fract_z
Si Si1 0.030500 0.106067 0.538768
Si Si2 0.649584 0.178099 0.446810
Si Si3 0.209163 0.995292 0.536486
Si Si4 0.845740 0.177399 0.262249
Si Si5 0.929691 0.176236 0.754267
Si Si6 0.496910 0.951226 0.631976
Si Si7 0.197456 0.019795 0.196646
Si Si8 0.079526 0.903437 0.968441
O O1 0.904567 0.055329 0.462989
O O2 0.986426 0.162351 0.413652
O O3 0.025651 0.133514 0.695160
O O4 0.165054 0.065553 0.563493
O O5 0.594514 0.250000 0.434582
O O6 0.722528 0.171981 0.323651
O O7 0.776969 0.171226 0.614653
O O8 0.543095 0.121131 0.424050
O O9 0.361499 0.975957 0.655333
O O10 0.200625 0.993330 0.360295
O O11 0.846325 0.250000 0.210787
O O12 0.846073 0.127730 0.133772
O O13 0.969116 0.250000 0.767070
O O14 0.929408 0.148502 0.911257
O O15 0.649138 0.954373 0.766127
O O16 0.500000 0.000000 0.500000
O O17 0.074319 0.071254 0.137542
O O18 0.158537 0.963830 0.070518
#
# Coordination Sequence:
#
# PCOD9156081 Si02
#       8
#     4   4   4   4   4   4   4   4
#     4  10  17  30  54  79  99 128 172 220 264 294
#     4   9  18  35  57  80 103 135 180 225 262 310
#     4  10  17  30  54  78 102 129 169 224 262 303
#     4  10  19  32  54  78 104 136 175 218 260 313
#     4  10  18  31  53  78 102 135 173 210 259 318
#     4  10  18  33  54  80 105 137 179 221 263 317
#     4  10  21  32  51  74 109 137 169 219 268 316
#     4  11  20  35  49  78 109 134 172 220 267 313
#
# _framework density 16.762425
#
# number of rings (size 3 to 8) (size 9 to 14) (size 15 to 20)
#    0.000    2.000    5.000    2.250    0.000    0.000 
#    0.000    1.875    0.000    0.000    0.000    0.000 
#    0.000    0.000    0.000    0.000    0.000    0.000 
#
# Total GULP energy -178236.915946 kJ/mol
# GULP energy per Si atom -5569.903623 kJ/mol
# Density = 1.672427 g / cm^3
# Si number density = 16.762425 Si / 1000 Ang^3
#
#
#
# Elastic Constant Matrix: (Units=GPa)
#
#
# Indices 1 2 3 4 5 6 
#
# 1 54.4653 37.7529 18.6453 0.0000 19.7373 0.0000
# 2 37.7529 108.1366 19.1367 0.0000 6.8242 0.0000
# 3 18.6453 19.1367 56.6993 0.0000 -2.9439 0.0000
# 4 0.0000 0.0000 0.0000 22.8824 0.0000 -8.6098
# 5 19.7373 6.8242 -2.9439 0.0000 26.1207 0.0000
# 6 0.0000 0.0000 0.0000 -8.6098 0.0000 29.9837
#
#
#
# Elastic Compliance Matrix: (Units=1/GPa)
#
#
# Indices 1 2 3 4 5 6 
#
# 1 0.039343 -0.009992 -0.011038 0.000000 -0.028362 0.000000
# 2 -0.009992 0.012606 -0.000752 0.000000 0.004172 0.000000
# 3 -0.011038 -0.000752 0.022093 0.000000 0.011027 0.000000
# 4 0.000000 0.000000 0.000000 0.048995 0.000000 0.014069
# 5 -0.028362 0.004172 0.011027 0.000000 0.059867 0.000000
# 6 0.000000 0.000000 0.000000 0.014069 0.000000 0.037391
#
#
# Mechanical properties :
#
#
# Convention : Reuss Voigt Hill
#
# Bulk Modulus (GPa) = 32.81115 41.15231 36.98173
# Shear Modulus (GPa) = 18.24690 25.38178 21.81434
#
# Velocity S-wave (km/s) = 3.30291 3.89550 3.61138
# Velocity P-wave (km/s) = 5.84486 6.69604 6.28487
#
# Compressibility (1/GPa) = 0.03047745
#
# Stress axis : x y z
#
# Youngs Moduli (GPa) = 25.41752 79.32795 45.26326
#
# Poissons Ratio (x) = 0.79267 0.49961
# Poissons Ratio (y) = 0.25398 0.03404
# Poissons Ratio (z) = 0.28055 0.05966
#
# Static dielectric constant tensor:
#      x y z
#    x 1.584560 0.000000 -0.009670 
#    y 0.000000 1.602580 0.000000 
#    z -0.009670 0.000000 1.561270 
# 
# From -- ./inp_files/19207.got.cif
#   From: 2010.05.17/outbox.cif.g08.bks.cpg/sg11_10_cif.got.tgz:19207.got - 2010.06.03 12:22:45.
