data_PCOD9156550
_publ_section_title
;
Structure prediction by ZEFSAII (Michael W. Deem and Ramdas Pophale) SiO2 
 PCOD9156550
Probable space group: P 21/M
;
_chemical_formula_sum "Si O2"
_cell_formula_units_Z 32
_cell_length_a 29.295733
_cell_length_b 9.514411
_cell_length_c 14.656318
_cell_angle_alpha 90.000000
_cell_angle_beta 25.494924
_cell_angle_gamma 90.000000
_cell_volume 1758.388488
_symmetry_space_group_name_H-M "P 21/M"
_symmetry_group_IT_number 11
_symmetry_cell_setting 'monoclinic'
loop_
_space_group_symop_operation_xyz
x,y,z
-x,1/2+y,-z
-x,-y,-z
x,1/2-y,z
loop_
_atom_site_type_symbol
_atom_site_label
_atom_site_fract_x
_atom_site_fract_y
_atom_site_fract_z
Si Si1 0.835260 0.919189 0.920737
Si Si2 0.473532 0.410773 0.285280
Si Si3 0.324131 0.092038 0.061291
Si Si4 0.193661 0.090803 0.484945
Si Si5 0.409591 0.414778 0.609396
Si Si6 0.398127 0.083392 0.223392
Si Si7 0.023352 0.586604 0.698072
Si Si8 0.155553 0.586251 0.270492
O O1 0.844716 0.750000 0.891891
O O2 0.904014 0.956365 0.886252
O O3 0.881899 0.998522 0.748958
O O4 0.711470 0.956400 0.151129
O O5 0.517353 0.250000 0.201288
O O6 0.423724 0.427521 0.474762
O O7 0.399796 0.426355 0.329966
O O8 0.564442 0.526394 0.113454
O O9 0.331928 0.250000 0.009285
O O10 0.253223 0.097956 0.279882
O O11 0.266925 0.985417 0.096468
O O12 0.166919 0.250000 0.561552
O O13 0.285726 0.033360 0.385308
O O14 0.088677 0.001722 0.653979
O O15 0.500000 0.500000 0.500000
O O16 0.421531 0.250000 0.611202
O O17 0.408349 0.250000 0.180328
O O18 0.500000 0.000000 0.000000
O O19 0.024303 0.750000 0.722823
O O20 0.084535 0.575882 0.489867
O O21 0.165966 0.750000 0.229011
#
# Coordination Sequence:
#
# PCOD9156550 Si02
#       8
#     4   4   4   4   4   4   4   4
#     4  10  20  35  52  70  96 130 171 213 254 300
#     4  10  20  33  51  74 102 135 173 212 253 300
#     4  10  18  29  46  70 102 135 166 201 246 301
#     4   9  18  31  47  72 103 132 161 196 248 307
#     4  10  22  38  54  74 100 135 174 212 252 296
#     4  10  19  32  51  77 107 136 167 207 255 308
#     4   9  19  33  50  72  98 131 167 206 253 305
#     4  10  19  30  47  73 101 128 165 208 255 305
#
# _framework density 18.198481000000001
#
# number of rings (size 3 to 8) (size 9 to 14) (size 15 to 20)
#    0.000    2.250    1.250    1.875    0.000    5.000 
#    0.000    0.000    0.000    0.750    0.000    0.000 
#    0.000    0.000    0.000    0.000    0.000    0.000 
#
# Total GULP energy -178374.850530 kJ/mol
# GULP energy per Si atom -5574.214079 kJ/mol
# Density = 1.815706 g / cm^3
# Si number density = 18.198481 Si / 1000 Ang^3
#
#
#
# Elastic Constant Matrix: (Units=GPa)
#
#
# Indices 1 2 3 4 5 6 
#
# 1 112.2910 34.6761 34.7620 0.0000 -31.1061 0.0000
# 2 34.6761 44.6265 32.7796 0.0000 -17.3862 0.0000
# 3 34.7620 32.7796 57.7114 0.0000 -26.0976 0.0000
# 4 0.0000 0.0000 0.0000 13.9007 0.0000 -9.3151
# 5 -31.1061 -17.3862 -26.0976 0.0000 35.2478 0.0000
# 6 0.0000 0.0000 0.0000 -9.3151 0.0000 26.2886
#
#
#
# Elastic Compliance Matrix: (Units=1/GPa)
#
#
# Indices 1 2 3 4 5 6 
#
# 1 0.013435 -0.006919 -0.000518 0.000000 0.008060 0.000000
# 2 -0.006919 0.042432 -0.019889 0.000000 0.000098 0.000000
# 3 -0.000518 -0.019889 0.036521 0.000000 0.016773 0.000000
# 4 0.000000 0.000000 0.000000 0.094340 0.000000 0.033429
# 5 0.008060 0.000098 0.016773 0.000000 0.047951 0.000000
# 6 0.000000 0.000000 0.000000 0.033429 0.000000 0.049884
#
#
# Mechanical properties :
#
#
# Convention : Reuss Voigt Hill
#
# Bulk Modulus (GPa) = 26.49940 46.56269 36.53105
# Shear Modulus (GPa) = 14.21286 22.58149 18.39717
#
# Velocity S-wave (km/s) = 2.79765 3.52638 3.18294
# Velocity P-wave (km/s) = 5.00288 6.49785 5.79874
#
# Compressibility (1/GPa) = 0.03773670
#
# Stress axis : x y z
#
# Youngs Moduli (GPa) = 74.43167 23.56723 27.38132
#
# Poissons Ratio (x) = 0.16306 0.01417
# Poissons Ratio (y) = 0.51499 0.54459
# Poissons Ratio (z) = 0.03853 0.46873
#
# Static dielectric constant tensor:
#      x y z
#    x 1.653960 0.000000 -0.007710 
#    y 0.000000 1.623380 0.000000 
#    z -0.007710 0.000000 1.635690 
# 
# From -- ./inp_files/56168.got.cif
#   From: 2010.05.17/outbox.cif.g08.bks.cpg/sg11_29_cif.got.tgz:56168.got - 2010.06.03 12:22:45.
