data_PCOD9156490
_publ_section_title
;
Structure prediction by ZEFSAII (Michael W. Deem and Ramdas Pophale) SiO2 
 PCOD9156490
Probable space group: P 21/M
;
_chemical_formula_sum "Si O2"
_cell_formula_units_Z 32
_cell_length_a 21.719670
_cell_length_b 8.457040
_cell_length_c 32.554298
_cell_angle_alpha 90.000000
_cell_angle_beta 20.286294
_cell_angle_gamma 90.000000
_cell_volume 2073.232075
_symmetry_space_group_name_H-M "P 21/M"
_symmetry_group_IT_number 11
_symmetry_cell_setting 'monoclinic'
loop_
_space_group_symop_operation_xyz
x,y,z
-x,1/2+y,-z
-x,-y,-z
x,1/2-y,z
loop_
_atom_site_type_symbol
_atom_site_label
_atom_site_fract_x
_atom_site_fract_y
_atom_site_fract_z
Si Si1 0.700041 0.561909 0.382791
Si Si2 0.256338 0.558468 0.468854
Si Si3 0.981527 0.939433 0.577625
Si Si4 0.366512 0.560297 0.490122
Si Si5 0.729690 0.558133 0.668983
Si Si6 0.234822 0.938075 0.743112
Si Si7 0.453282 0.559179 0.778075
Si Si8 0.051641 0.940270 0.012748
O O1 0.500000 0.500000 0.500000
O O2 0.701080 0.750000 0.380602
O O3 0.739532 0.504443 0.404049
O O4 0.807010 0.494864 0.277113
O O5 0.256779 0.750000 0.468553
O O6 0.071333 0.502556 0.563646
O O7 0.289139 0.505912 0.494867
O O8 0.417534 0.503844 0.338621
O O9 0.970676 0.750000 0.587783
O O10 0.796305 0.992951 0.672596
O O11 0.129223 0.985267 0.451281
O O12 0.364160 0.750000 0.493248
O O13 0.571579 0.505882 0.365638
O O14 0.743465 0.750000 0.658654
O O15 0.540770 0.514827 0.767325
O O16 0.247336 0.750000 0.735768
O O17 0.088569 0.996643 0.866526
O O18 0.455444 0.750000 0.774081
O O19 0.251802 0.506010 0.898146
O O20 0.047674 0.750000 0.015620
O O21 0.000000 0.000000 0.000000
#
# Coordination Sequence:
#
# PCOD9156490 Si02
#       8
#     4   4   4   4   4   4   4   4
#     4  10  18  30  47  65  83 105 135 170 209 249
#     4   9  17  26  39  60  86 113 138 166 200 241
#     4   8  13  22  36  55  78 104 133 163 197 238
#     4  10  18  29  44  63  87 112 138 168 205 247
#     4   8  13  23  38  54  74 102 135 168 201 236
#     4  11  21  33  47  62  81 108 142 176 211 246
#     4   9  18  29  41  57  79 109 143 177 207 239
#     4  11  22  34  45  60  83 111 145 179 211 244
#
# _framework density 15.434837999999999
#
# number of rings (size 3 to 8) (size 9 to 14) (size 15 to 20)
#    0.000    2.500    0.000    5.250    0.000    4.000 
#    0.000    0.000    0.000    0.000    0.000    0.000 
#    0.000    1.000    0.000    1.750    0.000    3.000 
#
# Total GULP energy -178135.849268 kJ/mol
# GULP energy per Si atom -5566.745290 kJ/mol
# Density = 1.539971 g / cm^3
# Si number density = 15.434838 Si / 1000 Ang^3
#
#
#
# Elastic Constant Matrix: (Units=GPa)
#
#
# Indices 1 2 3 4 5 6 
#
# 1 166.1216 21.7279 62.2431 0.0000 -0.7684 0.0000
# 2 21.7279 42.4526 13.9593 0.0000 4.7067 0.0000
# 3 62.2431 13.9593 59.4714 0.0000 7.2786 0.0000
# 4 0.0000 0.0000 0.0000 16.2944 0.0000 4.9390
# 5 -0.7684 4.7067 7.2786 0.0000 24.9370 0.0000
# 6 0.0000 0.0000 0.0000 4.9390 0.0000 18.7624
#
#
#
# Elastic Compliance Matrix: (Units=1/GPa)
#
#
# Indices 1 2 3 4 5 6 
#
# 1 0.010380 -0.002184 -0.010828 0.000000 0.003893 0.000000
# 2 -0.002184 0.026231 -0.003378 0.000000 -0.004032 0.000000
# 3 -0.010828 -0.003378 0.029974 0.000000 -0.008445 0.000000
# 4 0.000000 0.000000 0.000000 0.066692 0.000000 -0.017556
# 5 0.003893 -0.004032 -0.008445 0.000000 0.043447 0.000000
# 6 0.000000 0.000000 0.000000 -0.017556 0.000000 0.057920
#
#
# Mechanical properties :
#
#
# Convention : Reuss Voigt Hill
#
# Bulk Modulus (GPa) = 29.58054 51.54513 40.56284
# Shear Modulus (GPa) = 17.94089 23.33975 20.64032
#
# Velocity S-wave (km/s) = 3.41304 3.89285 3.66082
# Velocity P-wave (km/s) = 5.89391 7.32622 6.64875
#
# Compressibility (1/GPa) = 0.03380601
#
# Stress axis : x y z
#
# Youngs Moduli (GPa) = 96.33518 38.12249 33.36238
#
# Poissons Ratio (x) = 0.08326 0.36125
# Poissons Ratio (y) = 0.21039 0.11269
# Poissons Ratio (z) = 1.04312 0.12877
#
# Static dielectric constant tensor:
#      x y z
#    x 1.577510 0.000000 -0.013480 
#    y 0.000000 1.534920 0.000000 
#    z -0.013480 0.000000 1.475560 
# 
# From -- ./inp_files/73617.got.cif
#   From: 2010.05.17/outbox.cif.g08.bks.cpg/sg11_37_cif.got.tgz:73617.got - 2010.06.03 12:22:45.
