data_PCOD9156712
_publ_section_title
;
Structure prediction by ZEFSAII (Michael W. Deem and Ramdas Pophale) SiO2 
 PCOD9156712
Probable space group: P 21/M
;
_chemical_formula_sum "Si O2"
_cell_formula_units_Z 32
_cell_length_a 19.634406
_cell_length_b 8.680100
_cell_length_c 11.291543
_cell_angle_alpha 90.000000
_cell_angle_beta 94.808914
_cell_angle_gamma 90.000000
_cell_volume 1917.627726
_symmetry_space_group_name_H-M "P 21/M"
_symmetry_group_IT_number 11
_symmetry_cell_setting 'monoclinic'
loop_
_space_group_symop_operation_xyz
x,y,z
-x,1/2+y,-z
-x,-y,-z
x,1/2-y,z
loop_
_atom_site_type_symbol
_atom_site_label
_atom_site_fract_x
_atom_site_fract_y
_atom_site_fract_z
Si Si1 0.877665 0.430659 0.283392
Si Si2 0.980673 0.563689 0.627180
Si Si3 0.730961 0.064116 0.218856
Si Si4 0.530606 0.567011 0.820294
Si Si5 0.840998 0.430020 0.559039
Si Si6 0.601597 0.566648 0.081186
Si Si7 0.433660 0.566913 0.424690
Si Si8 0.298438 0.433218 0.524739
O O1 0.880839 0.250000 0.253477
O O2 0.809256 0.493542 0.211958
O O3 0.860464 0.440849 0.421613
O O4 0.955267 0.490027 0.282224
O O5 0.979895 0.750000 0.623696
O O6 0.904819 0.501090 0.639301
O O7 0.000000 0.500000 0.500000
O O8 0.731012 0.250000 0.217367
O O9 0.675963 0.999393 0.119646
O O10 0.708142 0.009035 0.346241
O O11 0.530159 0.750000 0.797792
O O12 0.454163 0.511378 0.840814
O O13 0.559017 0.479091 0.711296
O O14 0.575720 0.536448 0.944090
O O15 0.833047 0.250000 0.585327
O O16 0.769227 0.516929 0.557701
O O17 0.600592 0.750000 0.100580
O O18 0.500000 0.500000 0.500000
O O19 0.431511 0.750000 0.438507
O O20 0.366107 0.493333 0.471156
O O21 0.300306 0.250000 0.538178
#
# Coordination Sequence:
#
# PCOD9156712 Si02
#       8
#     4   4   4   4   4   4   4   4
#     4   7  13  23  36  56  84 117 152 188 224 267
#     4   9  14  22  36  55  81 116 155 192 230 272
#     4  10  18  30  47  68  96 128 160 194 234 277
#     4  10  21  37  54  72  94 121 156 195 234 277
#     4   9  16  27  40  58  85 118 155 192 232 276
#     4  10  20  34  52  73  96 122 154 193 235 279
#     4  12  24  38  54  72  96 124 156 193 235 280
#     4  11  21  33  48  68  94 125 161 196 235 281
#
# _framework density 16.687284999999999
#
# number of rings (size 3 to 8) (size 9 to 14) (size 15 to 20)
#    0.000    2.250    0.000    6.375    0.000    1.500 
#    0.000    1.875    0.000    0.000    0.000    0.000 
#    0.000    1.000    0.000    3.000    0.000    6.250 
#
# Total GULP energy -178351.015288 kJ/mol
# GULP energy per Si atom -5573.469228 kJ/mol
# Density = 1.664930 g / cm^3
# Si number density = 16.687285 Si / 1000 Ang^3
#
#
#
# Elastic Constant Matrix: (Units=GPa)
#
#
# Indices 1 2 3 4 5 6 
#
# 1 142.4312 36.7381 24.1274 0.0000 30.7123 0.0000
# 2 36.7381 63.2181 10.9382 0.0000 9.4932 0.0000
# 3 24.1274 10.9382 18.7059 0.0000 7.8824 0.0000
# 4 0.0000 0.0000 0.0000 20.0580 0.0000 3.2773
# 5 30.7123 9.4932 7.8824 0.0000 23.0010 0.0000
# 6 0.0000 0.0000 0.0000 3.2773 0.0000 29.5901
#
#
#
# Elastic Compliance Matrix: (Units=1/GPa)
#
#
# Indices 1 2 3 4 5 6 
#
# 1 0.011857 -0.003738 -0.008283 0.000000 -0.011451 0.000000
# 2 -0.003738 0.019161 -0.006024 0.000000 -0.000853 0.000000
# 3 -0.008283 -0.006024 0.072414 0.000000 -0.011270 0.000000
# 4 0.000000 0.000000 0.000000 0.050774 0.000000 -0.005624
# 5 -0.011451 -0.000853 -0.011270 0.000000 0.062981 0.000000
# 6 0.000000 0.000000 0.000000 -0.005624 0.000000 0.034418
#
#
# Mechanical properties :
#
#
# Convention : Reuss Voigt Hill
#
# Bulk Modulus (GPa) = 14.84925 40.88473 27.86699
# Shear Modulus (GPa) = 16.12166 24.69993 20.41080
#
# Velocity S-wave (km/s) = 3.11159 3.85146 3.50113
# Velocity P-wave (km/s) = 4.67196 6.65823 5.75149
#
# Compressibility (1/GPa) = 0.06734345
#
# Stress axis : x y z
#
# Youngs Moduli (GPa) = 84.33527 52.18993 13.80955
#
# Poissons Ratio (x) = 0.19509 0.11438
# Poissons Ratio (y) = 0.31525 0.08318
# Poissons Ratio (z) = 0.69852 0.31437
#
# Static dielectric constant tensor:
#      x y z
#    x 1.606700 0.000000 0.028240 
#    y 0.000000 1.559090 0.000000 
#    z 0.028240 0.000000 1.545040 
# 
# From -- ./inp_files/40700.got.cif
#   From: 2010.05.17/outbox.cif.g08.bks.cpg/sg11_21_cif.got.tgz:40700.got - 2010.06.03 12:22:45.
