data_PCOD9156253
_publ_section_title
;
Structure prediction by ZEFSAII (Michael W. Deem and Ramdas Pophale) SiO2 
 PCOD9156253
Probable space group: P 21/M
;
_chemical_formula_sum "Si O2"
_cell_formula_units_Z 32
_cell_length_a 18.787643
_cell_length_b 9.216803
_cell_length_c 26.961039
_cell_angle_alpha 90.000000
_cell_angle_beta 151.265750
_cell_angle_gamma 90.000000
_cell_volume 2244.432182
_symmetry_space_group_name_H-M "P 21/M"
_symmetry_group_IT_number 11
_symmetry_cell_setting 'monoclinic'
loop_
_space_group_symop_operation_xyz
x,y,z
-x,1/2+y,-z
-x,-y,-z
x,1/2-y,z
loop_
_atom_site_type_symbol
_atom_site_label
_atom_site_fract_x
_atom_site_fract_y
_atom_site_fract_z
Si Si1 0.776590 0.583643 0.345207
Si Si2 0.702508 0.577459 0.665435
Si Si3 0.005917 0.416348 0.425589
Si Si4 0.642570 0.422213 0.528113
Si Si5 0.196683 0.922402 0.081817
Si Si6 0.091330 0.922387 0.129251
Si Si7 0.250058 0.923470 0.516514
Si Si8 0.462284 0.424930 0.725210
O O1 0.766937 0.750000 0.322020
O O2 0.887297 0.582375 0.460474
O O3 0.620973 0.537261 0.274250
O O4 0.852166 0.484709 0.350048
O O5 0.725666 0.750000 0.679406
O O6 0.708902 0.512816 0.614007
O O7 0.534053 0.549000 0.581017
O O8 0.816873 0.499954 0.771705
O O9 0.990031 0.250000 0.400162
O O10 0.094431 0.510272 0.439520
O O11 0.660793 0.250000 0.549071
O O12 0.713504 0.455779 0.518351
O O13 0.173865 0.750000 0.059671
O O14 0.170864 0.949401 0.124677
O O15 0.364562 0.959178 0.170131
O O16 0.072531 0.011852 0.976905
O O17 0.086240 0.750000 0.134045
O O18 0.250648 0.750000 0.523824
O O19 0.375471 0.995077 0.628038
O O20 0.444928 0.250000 0.708131
#
# Coordination Sequence:
#
# PCOD9156253 Si02
#       8
#     4   4   4   4   4   4   4   4
#     4   8  14  24  37  54  77 106 138 169 204 243
#     4  10  19  31  47  63  82 110 141 174 211 250
#     4   9  16  25  37  54  78 108 140 170 201 242
#     4   9  19  32  44  62  85 109 140 175 210 248
#     4   9  18  31  45  62  84 111 143 175 208 247
#     4  10  19  30  45  63  85 112 140 174 212 248
#     4  10  18  27  41  60  84 112 140 173 209 246
#     4   9  17  28  42  60  83 111 142 176 209 244
#
# _framework density 14.257504000000001
#
# number of rings (size 3 to 8) (size 9 to 14) (size 15 to 20)
#    0.000    2.750    0.000    3.000    0.000    5.500 
#    0.000    0.000    0.000    0.000    0.000    0.000 
#    0.000    1.000    0.000    3.000    0.000    4.250 
#
# Total GULP energy -178304.385424 kJ/mol
# GULP energy per Si atom -5572.012044 kJ/mol
# Density = 1.422505 g / cm^3
# Si number density = 14.257504 Si / 1000 Ang^3
#
#
#
# Elastic Constant Matrix: (Units=GPa)
#
#
# Indices 1 2 3 4 5 6 
#
# 1 118.9885 65.9493 60.5675 0.0000 14.8783 0.0000
# 2 65.9493 72.3472 58.6394 0.0000 0.4619 0.0000
# 3 60.5675 58.6394 91.8642 0.0000 4.4678 0.0000
# 4 0.0000 0.0000 0.0000 21.8873 0.0000 0.1032
# 5 14.8783 0.4619 4.4678 0.0000 22.0212 0.0000
# 6 0.0000 0.0000 0.0000 0.1032 0.0000 23.3223
#
#
#
# Elastic Compliance Matrix: (Units=1/GPa)
#
#
# Indices 1 2 3 4 5 6 
#
# 1 0.020438 -0.016864 -0.002076 0.000000 -0.013033 0.000000
# 2 -0.016864 0.042773 -0.016861 0.000000 0.013918 0.000000
# 3 -0.002076 -0.016861 0.023160 0.000000 -0.002943 0.000000
# 4 0.000000 0.000000 0.000000 0.045690 0.000000 -0.000202
# 5 -0.013033 0.013918 -0.002943 0.000000 0.054522 0.000000
# 6 0.000000 0.000000 0.000000 -0.000202 0.000000 0.042878
#
#
# Mechanical properties :
#
#
# Convention : Reuss Voigt Hill
#
# Bulk Modulus (GPa) = 67.71398 72.61249 70.16323
# Shear Modulus (GPa) = 16.34067 19.98243 18.16155
#
# Velocity S-wave (km/s) = 3.38910 3.74777 3.57294
# Velocity P-wave (km/s) = 7.93167 8.35270 8.14490
#
# Compressibility (1/GPa) = 0.01476800
#
# Stress axis : x y z
#
# Youngs Moduli (GPa) = 48.92918 23.37945 43.17762
#
# Poissons Ratio (x) = 0.39428 0.08963
# Poissons Ratio (y) = 0.82517 0.72801
# Poissons Ratio (z) = 0.10157 0.39420
#
# Static dielectric constant tensor:
#      x y z
#    x 1.472430 0.000000 0.017900 
#    y 0.000000 1.475710 0.000000 
#    z 0.017900 0.000000 1.437340 
# 
# From -- ./inp_files/61800.got.cif
#   From: 2010.05.17/outbox.cif.g08.bks.cpg/sg11_31_cif.got.tgz:61800.got - 2010.06.03 12:22:45.
