data_PCOD9156494
_publ_section_title
;
Structure prediction by ZEFSAII (Michael W. Deem and Ramdas Pophale) SiO2 
 PCOD9156494
Probable space group: P 21/M
;
_chemical_formula_sum "Si O2"
_cell_formula_units_Z 28
_cell_length_a 16.478977
_cell_length_b 8.702662
_cell_length_c 13.862298
_cell_angle_alpha 90.000000
_cell_angle_beta 114.677891
_cell_angle_gamma 90.000000
_cell_volume 1806.439729
_symmetry_space_group_name_H-M "P 21/M"
_symmetry_group_IT_number 11
_symmetry_cell_setting 'monoclinic'
loop_
_space_group_symop_operation_xyz
x,y,z
-x,1/2+y,-z
-x,-y,-z
x,1/2-y,z
loop_
_atom_site_type_symbol
_atom_site_label
_atom_site_fract_x
_atom_site_fract_y
_atom_site_fract_z
Si Si1 0.050022 0.567089 0.664938
Si Si2 0.496481 0.066437 0.607292
Si Si3 0.312070 0.567107 0.509568
Si Si4 0.860344 0.932837 0.475062
Si Si5 0.681048 0.934324 0.703397
Si Si6 0.038734 0.066870 0.867662
Si Si7 0.130895 0.065457 0.112578
O O1 0.060874 0.750000 0.661032
O O2 0.113763 0.483812 0.619899
O O3 0.064008 0.513735 0.780819
O O4 0.948000 0.529493 0.582776
O O5 0.494555 0.250000 0.604096
O O6 0.500000 0.000000 0.500000
O O7 0.403347 0.000829 0.600293
O O8 0.589172 0.006492 0.697361
O O9 0.319701 0.750000 0.505523
O O10 0.225761 0.518409 0.526927
O O11 0.303920 0.496582 0.397780
O O12 0.846050 0.750000 0.472775
O O13 0.671660 0.750000 0.694104
O O14 0.768257 0.973408 0.808929
O O15 0.040540 0.250000 0.855844
O O16 0.102910 0.025584 0.989489
O O17 0.940144 0.014694 0.852334
O O18 0.120187 0.250000 0.118126
#
# Coordination Sequence:
#
# PCOD9156494 Si02
#       7
#     4   4   4   4   4   4   4
#     4  10  20  33  48  67  92 121 152 188 228 267
#     4  10  18  29  44  64  90 119 151 185 225 270
#     4  11  20  30  45  67  94 122 152 185 225 271
#     4  10  20  33  48  67  91 120 154 188 224 267
#     4  10  18  30  46  65  92 123 154 188 226 267
#     4  10  19  31  47  67  92 122 155 190 226 265
#     4   9  19  32  46  66  92 123 156 188 225 268
#
# _framework density 15.500101000000001
#
# number of rings (size 3 to 8) (size 9 to 14) (size 15 to 20)
#    0.000    2.000    0.000    6.857    0.000    6.857 
#    0.000    0.000    0.000    0.000    0.000    1.000 
#    0.000    0.000    0.000    0.000    0.000    0.000 
#
# Total GULP energy -156230.248177 kJ/mol
# GULP energy per Si atom -5579.651721 kJ/mol
# Density = 1.546482 g / cm^3
# Si number density = 15.500101 Si / 1000 Ang^3
#
#
#
# Elastic Constant Matrix: (Units=GPa)
#
#
# Indices 1 2 3 4 5 6 
#
# 1 105.3054 43.8661 37.6794 0.0000 15.7748 0.0000
# 2 43.8661 76.2031 24.3403 0.0000 8.9179 0.0000
# 3 37.6794 24.3403 61.2692 0.0000 5.6297 0.0000
# 4 0.0000 0.0000 0.0000 20.8783 0.0000 -1.2701
# 5 15.7748 8.9179 5.6297 0.0000 25.2395 0.0000
# 6 0.0000 0.0000 0.0000 -1.2701 0.0000 30.0492
#
#
#
# Elastic Compliance Matrix: (Units=1/GPa)
#
#
# Indices 1 2 3 4 5 6 
#
# 1 0.015174 -0.005994 -0.006405 0.000000 -0.005937 0.000000
# 2 -0.005994 0.017817 -0.003224 0.000000 -0.001830 0.000000
# 3 -0.006405 -0.003224 0.021509 0.000000 0.000345 0.000000
# 4 0.000000 0.000000 0.000000 0.048020 0.000000 0.002030
# 5 -0.005937 -0.001830 0.000345 0.000000 0.043901 0.000000
# 6 0.000000 0.000000 0.000000 0.002030 0.000000 0.033365
#
#
# Mechanical properties :
#
#
# Convention : Reuss Voigt Hill
#
# Bulk Modulus (GPa) = 43.00169 50.50546 46.75357
# Shear Modulus (GPa) = 22.85352 24.35954 23.60653
#
# Velocity S-wave (km/s) = 3.84397 3.96861 3.90679
# Velocity P-wave (km/s) = 6.89236 7.32492 7.11193
#
# Compressibility (1/GPa) = 0.02325490
#
# Stress axis : x y z
#
# Youngs Moduli (GPa) = 65.90018 56.12519 46.49132
#
# Poissons Ratio (x) = 0.33644 0.29778
# Poissons Ratio (y) = 0.39503 0.14987
# Poissons Ratio (z) = 0.42209 0.18093
#
# Static dielectric constant tensor:
#      x y z
#    x 1.520140 0.000000 0.023720 
#    y 0.000000 1.517390 0.000000 
#    z 0.023720 0.000000 1.508760 
# 
# From -- ./inp_files/37643.got.cif
#   From: 2010.05.17/outbox.cif.g08.bks.cpg/sg11_19_cif.got.tgz:37643.got - 2010.06.03 12:22:45.
