data_PCOD9156659
_publ_section_title
;
Structure prediction by ZEFSAII (Michael W. Deem and Ramdas Pophale) SiO2 
 PCOD9156659
Probable space group: P 21/M
;
_chemical_formula_sum "Si O2"
_cell_formula_units_Z 28
_cell_length_a 4.957664
_cell_length_b 20.017740
_cell_length_c 11.956301
_cell_angle_alpha 90.000000
_cell_angle_beta 101.386758
_cell_angle_gamma 90.000000
_cell_volume 1163.202782
_symmetry_space_group_name_H-M "P 21/M"
_symmetry_group_IT_number 11
_symmetry_cell_setting 'monoclinic'
loop_
_space_group_symop_operation_xyz
x,y,z
-x,1/2+y,-z
-x,-y,-z
x,1/2-y,z
loop_
_atom_site_type_symbol
_atom_site_label
_atom_site_fract_x
_atom_site_fract_y
_atom_site_fract_z
Si Si1 0.040431 0.176403 0.368833
Si Si2 0.534291 0.431340 0.932668
Si Si3 0.648132 0.973855 0.750536
Si Si4 0.546634 0.174390 0.676798
Si Si5 0.188032 0.603411 0.839510
Si Si6 0.418435 0.896961 0.544559
Si Si7 0.119737 0.324592 0.832086
O O1 0.993291 0.250000 0.409127
O O2 0.358937 0.157736 0.394640
O O3 0.923902 0.167355 0.234403
O O4 0.878410 0.122358 0.430620
O O5 0.596167 0.458435 0.813689
O O6 0.268346 0.384422 0.908415
O O7 0.500000 0.500000 0.000000
O O8 0.764049 0.393442 0.024789
O O9 0.473680 0.918202 0.805228
O O10 0.533213 0.963385 0.615683
O O11 0.966500 0.954101 0.789194
O O12 0.565396 0.250000 0.628528
O O13 0.580389 0.117604 0.586627
O O14 0.261273 0.171041 0.720321
O O15 0.795566 0.171293 0.786020
O O16 0.186566 0.250000 0.881486
#
# Coordination Sequence:
#
# PCOD9156659 Si02
#       7
#     4   4   4   4   4   4   4
#     4  10  18  29  49  81 112 143 185 231 275 333
#     4  10  21  40  63  83 111 153 190 233 287 336
#     4   9  19  34  53  81 108 138 185 231 271 328
#     4  10  20  37  57  80 114 155 188 226 281 336
#     4   9  19  32  51  77 108 142 181 226 277 330
#     4  10  19  33  54  80 112 147 186 230 279 331
#     4  10  23  39  58  86 116 146 190 233 272 334
#
# _framework density 24.071466999999998
#
# number of rings (size 3 to 8) (size 9 to 14) (size 15 to 20)
#    0.000    2.286    0.000    2.571    0.000    6.286 
#    0.000    1.429    0.000    4.286    0.000    0.000 
#    0.000    0.000    0.000    0.000    0.000    0.000 
#
# Total GULP energy -156384.872285 kJ/mol
# GULP energy per Si atom -5585.174010 kJ/mol
# Density = 2.401668 g / cm^3
# Si number density = 24.071467 Si / 1000 Ang^3
#
#
#
# Elastic Constant Matrix: (Units=GPa)
#
#
# Indices 1 2 3 4 5 6 
#
# 1 62.7270 -4.8895 -0.0411 0.0000 -2.1180 0.0000
# 2 -4.8895 90.6278 31.3082 0.0000 -1.5767 0.0000
# 3 -0.0411 31.3082 117.6819 0.0000 -1.5483 0.0000
# 4 0.0000 0.0000 0.0000 37.2017 0.0000 1.5186
# 5 -2.1180 -1.5767 -1.5483 0.0000 24.1712 0.0000
# 6 0.0000 0.0000 0.0000 1.5186 0.0000 15.9623
#
#
#
# Elastic Compliance Matrix: (Units=1/GPa)
#
#
# Indices 1 2 3 4 5 6 
#
# 1 0.016067 0.000973 -0.000234 0.000000 0.001456 0.000000
# 2 0.000973 0.012218 -0.003241 0.000000 0.000675 0.000000
# 3 -0.000234 -0.003241 0.009365 0.000000 0.000368 0.000000
# 4 0.000000 0.000000 0.000000 0.026985 0.000000 -0.002567
# 5 0.001456 0.000675 0.000368 0.000000 0.041567 0.000000
# 6 0.000000 0.000000 0.000000 -0.002567 0.000000 0.062892
#
#
# Mechanical properties :
#
#
# Convention : Reuss Voigt Hill
#
# Bulk Modulus (GPa) = 30.63262 35.97688 33.30475
# Shear Modulus (GPa) = 27.02996 31.77763 29.40379
#
# Velocity S-wave (km/s) = 3.35461 3.63731 3.49882
# Velocity P-wave (km/s) = 5.26858 5.71125 5.49437
#
# Compressibility (1/GPa) = 0.03264494
#
# Stress axis : x y z
#
# Youngs Moduli (GPa) = 62.23946 81.84564 106.78556
#
# Poissons Ratio (x) = -0.07964 0.02500
# Poissons Ratio (y) = -0.06056 0.34612
# Poissons Ratio (z) = 0.01457 0.26529
#
# Static dielectric constant tensor:
#      x y z
#    x 1.863870 0.000000 -0.054660 
#    y 0.000000 1.917800 0.000000 
#    z -0.054660 0.000000 2.006560 
# 
# From -- ./inp_files/46085.got.cif
#   From: 2010.05.17/outbox.cif.g08.bks.cpg/sg11_24_cif.got.tgz:46085.got - 2010.06.03 12:22:45.
