data_PCOD9156745
_publ_section_title
;
Structure prediction by ZEFSAII (Michael W. Deem and Ramdas Pophale) SiO2 
 PCOD9156745
Probable space group: P 21/M
;
_chemical_formula_sum "Si O2"
_cell_formula_units_Z 32
_cell_length_a 16.104005
_cell_length_b 7.540542
_cell_length_c 13.386106
_cell_angle_alpha 90.000000
_cell_angle_beta 105.444369
_cell_angle_gamma 90.000000
_cell_volume 1566.815851
_symmetry_space_group_name_H-M "P 21/M"
_symmetry_group_IT_number 11
_symmetry_cell_setting 'monoclinic'
loop_
_space_group_symop_operation_xyz
x,y,z
-x,1/2+y,-z
-x,-y,-z
x,1/2-y,z
loop_
_atom_site_type_symbol
_atom_site_label
_atom_site_fract_x
_atom_site_fract_y
_atom_site_fract_z
Si Si1 0.941983 0.541395 0.632877
Si Si2 0.879986 0.033837 0.389398
Si Si3 0.238266 0.455062 0.940297
Si Si4 0.198417 0.048443 0.259347
Si Si5 0.099090 0.541190 0.031512
Si Si6 0.297606 0.551694 0.751040
Si Si7 0.517973 0.036322 0.124349
Si Si8 0.655611 0.533445 0.829574
O O1 0.949214 0.750000 0.661486
O O2 0.906323 0.521371 0.509189
O O3 0.868648 0.464936 0.683276
O O4 0.040960 0.473360 0.657376
O O5 0.878653 0.250000 0.384183
O O6 0.783556 0.969150 0.333261
O O7 0.260168 0.250000 0.928668
O O8 0.260566 0.562629 0.850847
O O9 0.140542 0.474238 0.942468
O O10 0.291283 0.516600 0.053969
O O11 0.216151 0.250000 0.299832
O O12 0.290417 0.971307 0.250352
O O13 0.145079 0.052334 0.139062
O O14 0.114340 0.750000 0.045956
O O15 0.000000 0.500000 0.000000
O O16 0.311397 0.750000 0.713396
O O17 0.391336 0.468425 0.802023
O O18 0.521690 0.250000 0.129793
O O19 0.440497 0.977057 0.172195
O O20 0.500000 0.000000 0.000000
O O21 0.656497 0.750000 0.824839
#
# Coordination Sequence:
#
# PCOD9156745 Si02
#       8
#     4   4   4   4   4   4   4   4
#     4   9  18  34  55  74  94 126 165 209 259 308
#     4   9  19  34  50  73 101 127 162 209 257 309
#     4  10  19  32  48  69  99 134 171 208 248 293
#     4   9  18  33  52  73  96 127 168 211 256 301
#     4  11  22  34  47  69 101 136 172 206 246 297
#     4  10  20  31  48  74 102 135 169 210 259 306
#     4  10  18  30  48  71 100 136 173 206 252 301
#     4   8  15  29  47  68  97 129 165 204 242 292
#
# _framework density 20.423586
#
# number of rings (size 3 to 8) (size 9 to 14) (size 15 to 20)
#    0.000    2.500    1.250    2.250    1.750    1.000 
#    0.000    0.000    0.000    0.750    0.000    0.000 
#    0.000    0.000    0.000    0.000    0.000    0.000 
#
# Total GULP energy -178220.408205 kJ/mol
# GULP energy per Si atom -5569.387756 kJ/mol
# Density = 2.037710 g / cm^3
# Si number density = 20.423586 Si / 1000 Ang^3
#
#
#
# Elastic Constant Matrix: (Units=GPa)
#
#
# Indices 1 2 3 4 5 6 
#
# 1 182.9333 -8.6516 35.6054 0.0000 0.4373 0.0000
# 2 -8.6516 65.4192 -6.9287 0.0000 0.5323 0.0000
# 3 35.6054 -6.9287 31.1278 0.0000 -1.6880 0.0000
# 4 0.0000 0.0000 0.0000 13.7227 0.0000 -3.1282
# 5 0.4373 0.5323 -1.6880 0.0000 38.8064 0.0000
# 6 0.0000 0.0000 0.0000 -3.1282 0.0000 -34.5811
#
#
#
# Elastic Compliance Matrix: (Units=1/GPa)
#
#
# Indices 1 2 3 4 5 6 
#
# 1 0.007040 0.000081 -0.008058 0.000000 -0.000431 0.000000
# 2 0.000081 0.015656 0.003388 0.000000 -0.000068 0.000000
# 3 -0.008058 0.003388 0.042198 0.000000 0.001880 0.000000
# 4 0.000000 0.000000 0.000000 0.071400 0.000000 -0.006459
# 5 -0.000431 -0.000068 0.001880 0.000000 0.025857 0.000000
# 6 0.000000 0.000000 0.000000 -0.006459 0.000000 -0.028333
#
#
# Mechanical properties :
#
#
# Convention : Reuss Voigt Hill
#
# Bulk Modulus (GPa) = 17.94746 35.50339 26.72543
# Shear Modulus (GPa) = 30.94707 20.88659 25.91683
#
# Velocity S-wave (km/s) = 3.89686 3.20139 3.56612
# Velocity P-wave (km/s) = 5.39018 5.57552 5.48364
#
# Compressibility (1/GPa) = 0.05571818
#
# Stress axis : x y z
#
# Youngs Moduli (GPa) = 142.05283 63.87248 23.69754
#
# Poissons Ratio (x) = -0.00518 0.19094
# Poissons Ratio (y) = -0.01152 -0.08030
# Poissons Ratio (z) = 1.14460 -0.21643
#
# Static dielectric constant tensor:
#      x y z
#    x 1.838890 0.000000 0.000240 
#    y 0.000000 1.779120 0.000000 
#    z 0.000240 0.000000 1.681290 
# 
# From -- ./inp_files/51405.got.cif
#   From: 2010.05.17/outbox.cif.g08.bks.cpg/sg11_26_cif.got.tgz:51405.got - 2010.06.03 12:22:45.
