data_PCOD9156113
_publ_section_title
;
Structure prediction by ZEFSAII (Michael W. Deem and Ramdas Pophale) SiO2 
 PCOD9156113
Probable space group: P 21/M
;
_chemical_formula_sum "Si O2"
_cell_formula_units_Z 32
_cell_length_a 9.018440
_cell_length_b 22.190496
_cell_length_c 12.117013
_cell_angle_alpha 90.000000
_cell_angle_beta 129.604185
_cell_angle_gamma 90.000000
_cell_volume 1868.305389
_symmetry_space_group_name_H-M "P 21/M"
_symmetry_group_IT_number 11
_symmetry_cell_setting 'monoclinic'
loop_
_space_group_symop_operation_xyz
x,y,z
-x,1/2+y,-z
-x,-y,-z
x,1/2-y,z
loop_
_atom_site_type_symbol
_atom_site_label
_atom_site_fract_x
_atom_site_fract_y
_atom_site_fract_z
Si Si1 0.286189 0.394917 0.164525
Si Si2 0.686230 0.071827 0.270832
Si Si3 0.911578 0.946237 0.141581
Si Si4 0.111316 0.389281 0.443990
Si Si5 0.676255 0.567662 0.256538
Si Si6 0.270389 0.923582 0.964362
Si Si7 0.278973 0.010573 0.358116
Si Si8 0.958725 0.680962 0.799875
O O1 0.510681 0.393222 0.241338
O O2 0.272723 0.451621 0.241733
O O3 0.207768 0.338021 0.194266
O O4 0.158609 0.406161 0.994397
O O5 0.649376 0.072436 0.122078
O O6 0.895649 0.099712 0.384934
O O7 0.693627 0.001552 0.306760
O O8 0.798800 0.929574 0.200950
O O9 0.843588 0.013966 0.075590
O O10 0.139506 0.952929 0.274378
O O11 0.245781 0.388054 0.613412
O O12 0.174771 0.446927 0.399675
O O13 0.109775 0.334698 0.356957
O O14 0.452979 0.579020 0.128751
O O15 0.130327 0.866610 0.904853
O O16 0.500000 0.000000 0.500000
O O17 0.015469 0.750000 0.837220
#
# Coordination Sequence:
#
# PCOD9156113 Si02
#       8
#     4   4   4   4   4   4   4   4
#     4  11  20  33  56  79 114 148 182 225 282 330
#     4  10  17  31  54  85 119 146 176 216 273 343
#     4  11  19  33  52  88 123 145 166 228 284 343
#     4  10  21  35  53  81 113 151 186 217 275 328
#     4  11  18  30  57  87 119 143 169 224 280 337
#     4  10  18  35  56  84 110 147 184 219 282 326
#     4  11  22  30  46  82 121 156 178 206 267 346
#     4  10  23  42  57  73 105 147 197 237 269 328
#
# _framework density 17.127821999999998
#
# number of rings (size 3 to 8) (size 9 to 14) (size 15 to 20)
#    0.000    1.500    7.500    2.250    1.750    0.000 
#    0.000    3.125    0.000    0.750    0.000    0.000 
#    0.000    0.000    0.000    0.000    0.000    0.000 
#
# Total GULP energy -178499.318471 kJ/mol
# GULP energy per Si atom -5578.103702 kJ/mol
# Density = 1.708884 g / cm^3
# Si number density = 17.127822 Si / 1000 Ang^3
#
#
#
# Elastic Constant Matrix: (Units=GPa)
#
#
# Indices 1 2 3 4 5 6 
#
# 1 84.4468 17.2090 28.5810 0.0000 15.2444 0.0000
# 2 17.2090 53.2834 5.1523 0.0000 -4.5596 0.0000
# 3 28.5810 5.1523 91.9232 0.0000 8.4692 0.0000
# 4 0.0000 0.0000 0.0000 8.2732 0.0000 0.6950
# 5 15.2444 -4.5596 8.4692 0.0000 24.0357 0.0000
# 6 0.0000 0.0000 0.0000 0.6950 0.0000 10.0050
#
#
#
# Elastic Compliance Matrix: (Units=1/GPa)
#
#
# Indices 1 2 3 4 5 6 
#
# 1 0.016066 -0.005676 -0.003761 0.000000 -0.009941 0.000000
# 2 -0.005676 0.021271 -0.000135 0.000000 0.007683 0.000000
# 3 -0.003761 -0.000135 0.012235 0.000000 -0.001951 0.000000
# 4 0.000000 0.000000 0.000000 0.121581 0.000000 -0.008446
# 5 -0.009941 0.007683 -0.001951 0.000000 0.050055 0.000000
# 6 0.000000 0.000000 0.000000 -0.008446 0.000000 0.100537
#
#
# Mechanical properties :
#
#
# Convention : Reuss Voigt Hill
#
# Bulk Modulus (GPa) = 32.86466 36.83757 34.85111
# Shear Modulus (GPa) = 14.24367 20.37686 17.31027
#
# Velocity S-wave (km/s) = 2.88689 3.45294 3.18252
# Velocity P-wave (km/s) = 5.50833 6.11973 5.82207
#
# Compressibility (1/GPa) = 0.03042783
#
# Stress axis : x y z
#
# Youngs Moduli (GPa) = 62.24330 47.01194 81.72948
#
# Poissons Ratio (x) = 0.26683 0.30740
# Poissons Ratio (y) = 0.35328 0.01106
# Poissons Ratio (z) = 0.23411 0.00636
#
# Static dielectric constant tensor:
#      x y z
#    x 1.625450 0.000000 -0.000320 
#    y 0.000000 1.541290 0.000000 
#    z -0.000320 0.000000 1.614140 
# 
# From -- ./inp_files/33012.got.cif
#   From: 2010.05.17/outbox.cif.g08.bks.cpg/sg11_17_cif.got.tgz:33012.got - 2010.06.03 12:22:45.
