data_PCOD9156361
_publ_section_title
;
Structure prediction by ZEFSAII (Michael W. Deem and Ramdas Pophale) SiO2 
 PCOD9156361
Probable space group: P 21/M
;
_chemical_formula_sum "Si O2"
_cell_formula_units_Z 32
_cell_length_a 18.238564
_cell_length_b 7.446937
_cell_length_c 12.086757
_cell_angle_alpha 90.000000
_cell_angle_beta 61.068066
_cell_angle_gamma 90.000000
_cell_volume 1436.755790
_symmetry_space_group_name_H-M "P 21/M"
_symmetry_group_IT_number 11
_symmetry_cell_setting 'monoclinic'
loop_
_space_group_symop_operation_xyz
x,y,z
-x,1/2+y,-z
-x,-y,-z
x,1/2-y,z
loop_
_atom_site_type_symbol
_atom_site_label
_atom_site_fract_x
_atom_site_fract_y
_atom_site_fract_z
Si Si1 0.920775 0.465213 0.480023
Si Si2 0.434037 0.964078 0.143566
Si Si3 0.665300 0.466547 0.467633
Si Si4 0.964935 0.465721 0.202112
Si Si5 0.872487 0.534720 0.040095
Si Si6 0.304666 0.454748 0.791656
Si Si7 0.261749 0.967857 0.343961
Si Si8 0.508365 0.530686 0.324314
O O1 0.912132 0.250000 0.477171
O O2 0.935580 0.532713 0.343472
O O3 0.833355 0.533152 0.596117
O O4 0.000000 0.500000 0.500000
O O5 0.427310 0.750000 0.156993
O O6 0.337818 0.031360 0.209377
O O7 0.474939 0.024423 0.228445
O O8 0.500000 0.000000 0.000000
O O9 0.667760 0.250000 0.457077
O O10 0.710652 0.545424 0.328857
O O11 0.707458 0.511072 0.553663
O O12 0.567729 0.526503 0.540285
O O13 0.970217 0.250000 0.206962
O O14 0.905058 0.502146 0.141198
O O15 0.056442 0.532859 0.095755
O O16 0.867926 0.750000 0.030633
O O17 0.778312 0.463135 0.094415
O O18 0.312102 0.250000 0.827075
O O19 0.397110 0.537147 0.733777
O O20 0.259222 0.750000 0.336935
O O21 0.510003 0.750000 0.329631
#
# Coordination Sequence:
#
# PCOD9156361 Si02
#       8
#     4   4   4   4   4   4   4   4
#     4  10  20  35  53  74 100 131 166 210 257 297
#     4   9  17  33  53  71  92 125 165 200 236 284
#     4   9  16  29  50  70  91 125 165 194 222 277
#     4   9  18  34  53  71  95 128 166 203 242 292
#     4   9  18  31  49  73  99 129 161 198 243 292
#     4  10  18  28  43  69 102 128 150 185 239 286
#     4   8  16  32  52  70  94 129 163 194 242 297
#     4   8  16  30  46  66  95 129 156 184 234 291
#
# _framework density 22.272399
#
# number of rings (size 3 to 8) (size 9 to 14) (size 15 to 20)
#    0.000    3.000    0.000    2.625    0.000    2.000 
#    2.250    4.375    0.000    0.000    0.000    0.000 
#    0.000    0.000    0.000    0.000    0.000    0.000 
#
# Total GULP energy -178452.653980 kJ/mol
# GULP energy per Si atom -5576.645437 kJ/mol
# Density = 2.222171 g / cm^3
# Si number density = 22.272399 Si / 1000 Ang^3
#
#
#
# Elastic Constant Matrix: (Units=GPa)
#
#
# Indices 1 2 3 4 5 6 
#
# 1 98.8757 2.4529 58.8612 0.0000 -53.6637 0.0000
# 2 2.4529 67.9528 4.3798 0.0000 -5.7112 0.0000
# 3 58.8612 4.3798 140.1402 0.0000 -44.9620 0.0000
# 4 0.0000 0.0000 0.0000 13.6532 0.0000 2.9756
# 5 -53.6637 -5.7112 -44.9620 0.0000 45.3398 0.0000
# 6 0.0000 0.0000 0.0000 2.9756 0.0000 13.0381
#
#
#
# Elastic Compliance Matrix: (Units=1/GPa)
#
#
# Indices 1 2 3 4 5 6 
#
# 1 0.028769 0.001811 -0.001675 0.000000 0.032617 0.000000
# 2 0.001811 0.014991 0.000094 0.000000 0.004125 0.000000
# 3 -0.001675 0.000094 0.010566 0.000000 0.008507 0.000000
# 4 0.000000 0.000000 0.000000 0.077077 0.000000 -0.017590
# 5 0.032617 0.004125 0.008507 0.000000 0.069617 0.000000
# 6 0.000000 0.000000 0.000000 -0.017590 0.000000 0.080713
#
#
# Mechanical properties :
#
#
# Convention : Reuss Voigt Hill
#
# Bulk Modulus (GPa) = 18.25286 48.70627 33.47957
# Shear Modulus (GPa) = 16.69265 30.49121 23.59193
#
# Velocity S-wave (km/s) = 2.74063 3.70403 3.25814
# Velocity P-wave (km/s) = 4.26940 6.34106 5.40541
#
# Compressibility (1/GPa) = 0.05478595
#
# Stress axis : x y z
#
# Youngs Moduli (GPa) = 34.76018 66.70509 94.64650
#
# Poissons Ratio (x) = -0.12079 0.15855
# Poissons Ratio (y) = -0.06295 -0.00894
# Poissons Ratio (z) = 0.05823 -0.00630
#
# Static dielectric constant tensor:
#      x y z
#    x 1.827850 0.000000 -0.044860 
#    y 0.000000 1.820950 0.000000 
#    z -0.044860 0.000000 1.868610 
# 
# From -- ./inp_files/41213.got.cif
#   From: 2010.05.17/outbox.cif.g08.bks.cpg/sg11_21_cif.got.tgz:41213.got - 2010.06.03 12:22:45.
