data_PCOD9156403
_publ_section_title
;
Structure prediction by ZEFSAII (Michael W. Deem and Ramdas Pophale) SiO2 
 PCOD9156403
Probable space group: P 21/M
;
_chemical_formula_sum "Si O2"
_cell_formula_units_Z 28
_cell_length_a 21.769557
_cell_length_b 9.216793
_cell_length_c 11.335601
_cell_angle_alpha 90.000000
_cell_angle_beta 49.916423
_cell_angle_gamma 90.000000
_cell_volume 1740.185649
_symmetry_space_group_name_H-M "P 21/M"
_symmetry_group_IT_number 11
_symmetry_cell_setting 'monoclinic'
loop_
_space_group_symop_operation_xyz
x,y,z
-x,1/2+y,-z
-x,-y,-z
x,1/2-y,z
loop_
_atom_site_type_symbol
_atom_site_label
_atom_site_fract_x
_atom_site_fract_y
_atom_site_fract_z
Si Si1 0.273547 0.577471 0.962550
Si Si2 0.035319 0.578200 0.639142
Si Si3 0.237509 0.423579 0.761276
Si Si4 0.590436 0.916633 0.513739
Si Si5 0.069598 0.076676 0.838767
Si Si6 0.434323 0.083431 0.740794
Si Si7 0.112677 0.579000 0.291372
O O1 0.283312 0.750000 0.936936
O O2 0.242731 0.509403 0.877391
O O3 0.359337 0.505869 0.883657
O O4 0.204287 0.548801 0.143825
O O5 0.030968 0.750000 0.669148
O O6 0.066868 0.491531 0.712344
O O7 0.090523 0.555030 0.455301
O O8 0.947905 0.517202 0.710972
O O9 0.243751 0.250000 0.778120
O O10 0.316951 0.462420 0.587214
O O11 0.155048 0.450422 0.795616
O O12 0.580700 0.750000 0.563733
O O13 0.577503 0.920215 0.387356
O O14 0.521193 0.013763 0.655542
O O15 0.056709 0.250000 0.850446
O O16 0.000000 0.000000 0.000000
O O17 0.431089 0.250000 0.782046
O O18 0.097183 0.750000 0.285182
#
# Coordination Sequence:
#
# PCOD9156403 Si02
#       7
#     4   4   4   4   4   4   4
#     4  10  18  28  45  68  93 121 153 188 226 270
#     4  10  20  34  51  70  93 122 156 194 235 274
#     4   9  19  32  45  64  92 124 155 188 226 271
#     4   8  14  26  41  58  84 118 152 183 220 268
#     4  11  22  35  50  70  96 125 157 191 230 275
#     4   9  16  25  39  62  91 119 147 182 225 272
#     4   9  19  34  50  69  93 122 157 194 231 274
#
# _framework density 16.090236999999998
#
# number of rings (size 3 to 8) (size 9 to 14) (size 15 to 20)
#    0.000    2.571    0.000    3.429    0.000    8.571 
#    0.000    0.000    0.000    0.000    0.000    1.000 
#    0.000    0.000    0.000    0.000    0.000    0.000 
#
# Total GULP energy -156084.040181 kJ/mol
# GULP energy per Si atom -5574.430006 kJ/mol
# Density = 1.605361 g / cm^3
# Si number density = 16.090237 Si / 1000 Ang^3
#
#
#
# Elastic Constant Matrix: (Units=GPa)
#
#
# Indices 1 2 3 4 5 6 
#
# 1 73.5292 50.9785 51.2305 0.0000 -26.2396 0.0000
# 2 50.9785 83.2233 64.0378 0.0000 -22.7385 0.0000
# 3 51.2305 64.0378 99.0126 0.0000 -36.3735 0.0000
# 4 0.0000 0.0000 0.0000 25.5779 0.0000 -4.2396
# 5 -26.2396 -22.7385 -36.3735 0.0000 28.2398 0.0000
# 6 0.0000 0.0000 0.0000 -4.2396 0.0000 24.2455
#
#
#
# Elastic Compliance Matrix: (Units=1/GPa)
#
#
# Indices 1 2 3 4 5 6 
#
# 1 0.028282 -0.012349 -0.001225 0.000000 0.014757 0.000000
# 2 -0.012349 0.029336 -0.015416 0.000000 -0.007710 0.000000
# 3 -0.001225 -0.015416 0.029850 0.000000 0.024897 0.000000
# 4 0.000000 0.000000 0.000000 0.040263 0.000000 0.007041
# 5 0.014757 -0.007710 0.024897 0.000000 0.074983 0.000000
# 6 0.000000 0.000000 0.000000 0.007041 0.000000 0.042476
#
#
# Mechanical properties :
#
#
# Convention : Reuss Voigt Hill
#
# Bulk Modulus (GPa) = 33.91309 65.36206 49.63758
# Shear Modulus (GPa) = 15.97443 21.58052 18.77747
#
# Velocity S-wave (km/s) = 3.15430 3.66624 3.41986
# Velocity P-wave (km/s) = 5.86419 7.65716 6.81985
#
# Compressibility (1/GPa) = 0.02948713
#
# Stress axis : x y z
#
# Youngs Moduli (GPa) = 35.35854 34.08740 33.50053
#
# Poissons Ratio (x) = 0.42096 0.04104
# Poissons Ratio (y) = 0.43666 0.51645
# Poissons Ratio (z) = 0.04331 0.52550
#
# Static dielectric constant tensor:
#      x y z
#    x 1.521750 0.000000 -0.021060 
#    y 0.000000 1.541240 0.000000 
#    z -0.021060 0.000000 1.541690 
# 
# From -- ./inp_files/42305.got.cif
#   From: 2010.05.17/outbox.cif.g08.bks.cpg/sg11_22_cif.got.tgz:42305.got - 2010.06.03 12:22:45.
