data_PCOD9156212
_publ_section_title
;
Structure prediction by ZEFSAII (Michael W. Deem and Ramdas Pophale) SiO2 
 PCOD9156212
Probable space group: P 21/M
;
_chemical_formula_sum "Si O2"
_cell_formula_units_Z 32
_cell_length_a 12.806197
_cell_length_b 8.021092
_cell_length_c 24.589436
_cell_angle_alpha 90.000000
_cell_angle_beta 40.447229
_cell_angle_gamma 90.000000
_cell_volume 1638.618622
_symmetry_space_group_name_H-M "P 21/M"
_symmetry_group_IT_number 11
_symmetry_cell_setting 'monoclinic'
loop_
_space_group_symop_operation_xyz
x,y,z
-x,1/2+y,-z
-x,-y,-z
x,1/2-y,z
loop_
_atom_site_type_symbol
_atom_site_label
_atom_site_fract_x
_atom_site_fract_y
_atom_site_fract_z
Si Si1 0.451088 0.438075 0.960682
Si Si2 0.473404 0.445569 0.228122
Si Si3 0.769755 0.062109 0.761054
Si Si4 0.607402 0.950261 0.406708
Si Si5 0.232214 0.559835 0.957664
Si Si6 0.978241 0.545644 0.252775
Si Si7 0.041522 0.045923 0.862327
Si Si8 0.587087 0.549045 0.294698
O O1 0.384499 0.250000 0.988755
O O2 0.615447 0.433303 0.861589
O O3 0.330603 0.555889 0.975734
O O4 0.500000 0.500000 0.000000
O O5 0.491763 0.250000 0.212937
O O6 0.309551 0.491947 0.262165
O O7 0.637392 0.521554 0.135129
O O8 0.476187 0.488512 0.290051
O O9 0.823178 0.250000 0.727337
O O10 0.907653 0.982158 0.744025
O O11 0.610650 0.750000 0.403437
O O12 0.793801 0.003352 0.336862
O O13 0.545559 0.008889 0.372065
O O14 0.500000 0.000000 0.500000
O O15 0.200738 0.750000 0.952759
O O16 0.063148 0.483736 0.044897
O O17 0.988442 0.750000 0.248671
O O18 0.019283 0.495423 0.174196
O O19 0.035787 0.250000 0.865927
O O20 0.228394 0.996381 0.790660
O O21 0.585852 0.750000 0.294928
#
# Coordination Sequence:
#
# PCOD9156212 Si02
#       8
#     4   4   4   4   4   4   4   4
#     4  10  18  26  39  60  86 120 161 203 243 278
#     4  10  20  31  44  67  99 131 163 201 241 272
#     4   9  17  30  48  66  88 125 167 198 227 275
#     4   9  18  33  55  81 102 119 144 184 235 288
#     4   9  17  29  43  61  89 125 163 202 241 275
#     4   8  14  27  49  74  95 119 156 196 233 278
#     4   8  14  27  47  68  91 123 163 203 238 275
#     4   9  18  33  52  71  93 126 164 193 224 280
#
# _framework density 19.528642999999999
#
# number of rings (size 3 to 8) (size 9 to 14) (size 15 to 20)
#    0.000    3.000    0.000    3.000    0.000    4.000 
#    0.000    1.250    0.000    3.750    0.000    0.000 
#    0.000    0.000    0.000    0.000    0.000    0.000 
#
# Total GULP energy -178210.776023 kJ/mol
# GULP energy per Si atom -5569.086751 kJ/mol
# Density = 1.948420 g / cm^3
# Si number density = 19.528643 Si / 1000 Ang^3
#
#
#
# Elastic Constant Matrix: (Units=GPa)
#
#
# Indices 1 2 3 4 5 6 
#
# 1 114.2016 9.5066 31.9355 0.0000 29.4920 0.0000
# 2 9.5066 20.5983 0.6527 0.0000 0.7075 0.0000
# 3 31.9355 0.6527 65.2757 0.0000 10.4045 0.0000
# 4 0.0000 0.0000 0.0000 13.8008 0.0000 -0.2858
# 5 29.4920 0.7075 10.4045 0.0000 21.0870 0.0000
# 6 0.0000 0.0000 0.0000 -0.2858 0.0000 9.7171
#
#
#
# Elastic Compliance Matrix: (Units=1/GPa)
#
#
# Indices 1 2 3 4 5 6 
#
# 1 0.015510 -0.006355 -0.004451 0.000000 -0.019282 0.000000
# 2 -0.006355 0.051211 0.001578 0.000000 0.006391 0.000000
# 3 -0.004451 0.001578 0.017906 0.000000 -0.002663 0.000000
# 4 0.000000 0.000000 0.000000 0.072504 0.000000 0.002132
# 5 -0.019282 0.006391 -0.002663 0.000000 0.075490 0.000000
# 6 0.000000 0.000000 0.000000 0.002132 0.000000 0.102974
#
#
# Mechanical properties :
#
#
# Convention : Reuss Voigt Hill
#
# Bulk Modulus (GPa) = 15.11216 31.58502 23.34859
# Shear Modulus (GPa) = 13.29410 19.45303 16.37357
#
# Velocity S-wave (km/s) = 2.61195 3.15957 2.89872
# Velocity P-wave (km/s) = 4.10507 5.43317 4.81513
#
# Compressibility (1/GPa) = 0.06617189
#
# Stress axis : x y z
#
# Youngs Moduli (GPa) = 64.47588 19.52703 55.84764
#
# Poissons Ratio (x) = 0.12409 0.24857
# Poissons Ratio (y) = 0.40973 -0.08814
# Poissons Ratio (z) = 0.28698 -0.03082
#
# Static dielectric constant tensor:
#      x y z
#    x 1.720070 0.000000 0.005390 
#    y 0.000000 1.732760 0.000000 
#    z 0.005390 0.000000 1.701820 
# 
# From -- ./inp_files/64359.got.cif
#   From: 2010.05.17/outbox.cif.g08.bks.cpg/sg11_33_cif.got.tgz:64359.got - 2010.06.03 12:22:45.
