data_PCOD9156449
_publ_section_title
;
Structure prediction by ZEFSAII (Michael W. Deem and Ramdas Pophale) SiO2 
 PCOD9156449
Probable space group: P 21/M
;
_chemical_formula_sum "Si O2"
_cell_formula_units_Z 28
_cell_length_a 10.184592
_cell_length_b 8.592628
_cell_length_c 29.110660
_cell_angle_alpha 90.000000
_cell_angle_beta 35.501089
_cell_angle_gamma 90.000000
_cell_volume 1479.405764
_symmetry_space_group_name_H-M "P 21/M"
_symmetry_group_IT_number 11
_symmetry_cell_setting 'monoclinic'
loop_
_space_group_symop_operation_xyz
x,y,z
-x,1/2+y,-z
-x,-y,-z
x,1/2-y,z
loop_
_atom_site_type_symbol
_atom_site_label
_atom_site_fract_x
_atom_site_fract_y
_atom_site_fract_z
Si Si1 0.898989 0.564805 0.480673
Si Si2 0.299407 0.563173 0.859097
Si Si3 0.875932 0.062798 0.924211
Si Si4 0.510044 0.437897 0.098197
Si Si5 0.667993 0.564208 0.678233
Si Si6 0.045035 0.937875 0.202647
Si Si7 0.463306 0.063318 0.641317
O O1 0.904031 0.750000 0.479934
O O2 0.642176 0.505393 0.554155
O O3 0.000000 0.500000 0.500000
O O4 0.077343 0.501137 0.392955
O O5 0.266961 0.750000 0.867856
O O6 0.350919 0.513252 0.896304
O O7 0.517228 0.528276 0.765420
O O8 0.083096 0.485791 0.897566
O O9 0.868396 0.250000 0.924485
O O10 0.918977 0.006049 0.860264
O O11 0.645592 0.008183 0.014264
O O12 0.502250 0.250000 0.100321
O O13 0.256920 0.500885 0.170635
O O14 0.677607 0.750000 0.669287
O O15 0.543534 0.492162 0.669081
O O16 0.048493 0.750000 0.201429
O O17 0.796711 0.985939 0.290450
O O18 0.477265 0.250000 0.636147
#
# Coordination Sequence:
#
# PCOD9156449 Si02
#       7
#     4   4   4   4   4   4   4
#     4  10  18  28  46  74 105 133 167 208 256 307
#     4  10  21  35  53  79 107 138 177 217 260 312
#     4  10  20  36  56  78 104 136 177 222 265 309
#     4  10  22  37  53  76 107 141 176 217 264 312
#     4  10  18  30  49  74 104 135 170 210 257 306
#     4  10  21  35  53  78 106 138 177 217 259 311
#     4  10  18  31  50  74 105 134 169 213 257 305
#
# _framework density 18.926517
#
# number of rings (size 3 to 8) (size 9 to 14) (size 15 to 20)
#    0.000    2.000    1.429    4.714    0.000    3.429 
#    0.000    0.000    0.000    0.857    0.000    0.000 
#    0.000    0.000    0.000    0.000    0.000    0.000 
#
# Total GULP energy -156274.493148 kJ/mol
# GULP energy per Si atom -5581.231898 kJ/mol
# Density = 1.888344 g / cm^3
# Si number density = 18.926517 Si / 1000 Ang^3
#
#
#
# Elastic Constant Matrix: (Units=GPa)
#
#
# Indices 1 2 3 4 5 6 
#
# 1 33.8964 -6.3773 -12.1554 0.0000 -11.7341 0.0000
# 2 -6.3773 35.1433 18.2255 0.0000 -5.2899 0.0000
# 3 -12.1554 18.2255 80.4042 0.0000 -23.7040 0.0000
# 4 0.0000 0.0000 0.0000 16.5091 0.0000 -5.8553
# 5 -11.7341 -5.2899 -23.7040 0.0000 21.1398 0.0000
# 6 0.0000 0.0000 0.0000 -5.8553 0.0000 22.2952
#
#
#
# Elastic Compliance Matrix: (Units=1/GPa)
#
#
# Indices 1 2 3 4 5 6 
#
# 1 0.066327 0.007554 0.029467 0.000000 0.071747 0.000000
# 2 0.007554 0.033106 -0.004009 0.000000 0.007982 0.000000
# 3 0.029467 -0.004009 0.033352 0.000000 0.052750 0.000000
# 4 0.000000 0.000000 0.000000 0.066794 0.000000 0.017542
# 5 0.071747 0.007982 0.052750 0.000000 0.148274 0.000000
# 6 0.000000 0.000000 0.000000 0.017542 0.000000 0.049460
#
#
# Mechanical properties :
#
#
# Convention : Reuss Voigt Hill
#
# Bulk Modulus (GPa) = 5.02997 16.53660 10.78328
# Shear Modulus (GPa) = 12.57674 21.97224 17.27449
#
# Velocity S-wave (km/s) = 2.58059 3.41093 3.02439
# Velocity P-wave (km/s) = 3.39745 4.92634 4.23152
#
# Compressibility (1/GPa) = 0.19880847
#
# Stress axis : x y z
#
# Youngs Moduli (GPa) = 15.07686 30.20561 29.98331
#
# Poissons Ratio (x) = -0.22818 -0.88351
# Poissons Ratio (y) = -0.11389 0.12021
# Poissons Ratio (z) = -0.44426 0.12110
#
# Static dielectric constant tensor:
#      x y z
#    x 1.629640 0.000000 0.002100 
#    y 0.000000 1.638580 0.000000 
#    z 0.002100 0.000000 1.702700 
# 
# From -- ./inp_files/70833.got.cif
#   From: 2010.05.17/outbox.cif.g08.bks.cpg/sg11_36_cif.got.tgz:70833.got - 2010.06.03 12:22:45.
