data_PCOD9156626
_publ_section_title
;
Structure prediction by ZEFSAII (Michael W. Deem and Ramdas Pophale) SiO2 
 PCOD9156626
Probable space group: P 21/M
;
_chemical_formula_sum "Si O2"
_cell_formula_units_Z 20
_cell_length_a 21.758261
_cell_length_b 8.649635
_cell_length_c 10.420364
_cell_angle_alpha 90.000000
_cell_angle_beta 144.481522
_cell_angle_gamma 90.000000
_cell_volume 1139.344816
_symmetry_space_group_name_H-M "P 21/M"
_symmetry_group_IT_number 11
_symmetry_cell_setting 'monoclinic'
loop_
_space_group_symop_operation_xyz
x,y,z
-x,1/2+y,-z
-x,-y,-z
x,1/2-y,z
loop_
_atom_site_type_symbol
_atom_site_label
_atom_site_fract_x
_atom_site_fract_y
_atom_site_fract_z
Si Si1 0.428335 0.934761 0.994027
Si Si2 0.224199 0.565141 0.256865
Si Si3 0.993546 0.565271 0.134566
Si Si4 0.542157 0.064964 0.438185
Si Si5 0.786420 0.565173 0.471511
O O1 0.426165 0.750000 0.982241
O O2 0.479612 0.989292 0.213841
O O3 0.500000 0.000000 0.000000
O O4 0.310846 0.001466 0.775784
O O5 0.211957 0.750000 0.248999
O O6 0.333263 0.531555 0.369982
O O7 0.231327 0.494170 0.412312
O O8 0.120017 0.495937 0.012323
O O9 0.995401 0.750000 0.135632
O O10 0.099687 0.499912 0.379065
O O11 0.000000 0.500000 0.000000
O O12 0.529035 0.250000 0.410413
O O13 0.500000 0.000000 0.500000
O O14 0.788175 0.750000 0.474965
#
# Coordination Sequence:
#
# PCOD9156626 Si02
#       5
#     4   4   4   4   4
#     4  12  23  37  58  84 115 149 189 235 286 337
#     4  10  19  33  53  78 111 147 187 231 278 333
#     4  10  18  29  48  76 110 144 182 228 280 332
#     4  11  24  40  59  83 115 153 193 234 281 338
#     4  11  20  32  53  81 113 146 184 230 283 334
#
# _framework density 17.553947999999998
#
# number of rings (size 3 to 8) (size 9 to 14) (size 15 to 20)
#    0.000    1.200    2.000    9.000    0.000    2.400 
#    0.000    0.000    0.000    1.200    0.000    0.000 
#    0.000    0.000    0.000    0.000    0.000    0.000 
#
# Total GULP energy -111723.221726 kJ/mol
# GULP energy per Si atom -5586.161086 kJ/mol
# Density = 1.751399 g / cm^3
# Si number density = 17.553948 Si / 1000 Ang^3
#
#
#
# Elastic Constant Matrix: (Units=GPa)
#
#
# Indices 1 2 3 4 5 6 
#
# 1 100.5261 71.5800 81.8453 0.0000 20.3346 0.0000
# 2 71.5800 169.3272 76.9921 0.0000 27.3777 0.0000
# 3 81.8453 76.9921 142.4854 0.0000 37.3217 0.0000
# 4 0.0000 0.0000 0.0000 33.2905 0.0000 5.6074
# 5 20.3346 27.3777 37.3217 0.0000 37.9290 0.0000
# 6 0.0000 0.0000 0.0000 5.6074 0.0000 25.5560
#
#
#
# Elastic Compliance Matrix: (Units=1/GPa)
#
#
# Indices 1 2 3 4 5 6 
#
# 1 0.021096 -0.004632 -0.010142 0.000000 0.002013 0.000000
# 2 -0.004632 0.008961 -0.001533 0.000000 -0.002477 0.000000
# 3 -0.010142 -0.001533 0.016111 0.000000 -0.009309 0.000000
# 4 0.000000 0.000000 0.000000 0.031191 0.000000 -0.006844
# 5 0.002013 -0.002477 -0.009309 0.000000 0.036233 0.000000
# 6 0.000000 0.000000 0.000000 -0.006844 0.000000 0.040631
#
#
# Mechanical properties :
#
#
# Convention : Reuss Voigt Hill
#
# Bulk Modulus (GPa) = 73.77942 97.01928 85.39935
# Shear Modulus (GPa) = 26.12925 31.48317 28.80621
#
# Velocity S-wave (km/s) = 3.86231 4.23958 4.05533
# Velocity P-wave (km/s) = 7.87472 8.90812 8.40731
#
# Compressibility (1/GPa) = 0.01355392
#
# Stress axis : x y z
#
# Youngs Moduli (GPa) = 47.40181 111.59228 62.07032
#
# Poissons Ratio (x) = 0.51688 0.62954
# Poissons Ratio (y) = 0.21956 0.09514
# Poissons Ratio (z) = 0.48077 0.17105
#
# Static dielectric constant tensor:
#      x y z
#    x 1.598860 0.000000 0.042120 
#    y 0.000000 1.584110 0.000000 
#    z 0.042120 0.000000 1.612370 
# 
# From -- ./inp_files/25486.got.cif
#   From: 2010.05.17/outbox.cif.g08.bks.cpg/sg11_13_cif.got.tgz:25486.got - 2010.06.03 12:22:45.
