data_PCOD9156641
_publ_section_title
;
Structure prediction by ZEFSAII (Michael W. Deem and Ramdas Pophale) SiO2 
 PCOD9156641
Probable space group: P 21/M
;
_chemical_formula_sum "Si O2"
_cell_formula_units_Z 28
_cell_length_a 15.258169
_cell_length_b 8.961014
_cell_length_c 19.566926
_cell_angle_alpha 90.000000
_cell_angle_beta 142.658626
_cell_angle_gamma 90.000000
_cell_volume 1622.773300
_symmetry_space_group_name_H-M "P 21/M"
_symmetry_group_IT_number 11
_symmetry_cell_setting 'monoclinic'
loop_
_space_group_symop_operation_xyz
x,y,z
-x,1/2+y,-z
-x,-y,-z
x,1/2-y,z
loop_
_atom_site_type_symbol
_atom_site_label
_atom_site_fract_x
_atom_site_fract_y
_atom_site_fract_z
Si Si1 0.193136 0.073430 0.064586
Si Si2 0.833083 0.072117 0.664143
Si Si3 0.117022 0.571485 0.879663
Si Si4 0.496173 0.571943 0.213624
Si Si5 0.438857 0.927412 0.029906
Si Si6 0.729304 0.428034 0.751769
Si Si7 0.607081 0.926276 0.424037
O O1 0.171766 0.250000 0.051108
O O2 0.357394 0.026368 0.146828
O O3 0.179283 0.007938 0.132154
O O4 0.105199 0.999105 0.948163
O O5 0.851007 0.250000 0.673154
O O6 0.771827 0.031136 0.701345
O O7 0.720435 0.019110 0.537522
O O8 0.986837 0.991401 0.754105
O O9 0.111556 0.750000 0.881726
O O10 0.273376 0.529374 0.945286
O O11 0.455076 0.750000 0.192240
O O12 0.529631 0.539925 0.155485
O O13 0.611344 0.547509 0.344882
O O14 0.439783 0.750000 0.021130
O O15 0.500000 0.000000 0.000000
O O16 0.747855 0.250000 0.772092
O O17 0.558524 0.460380 0.656633
O O18 0.630296 0.750000 0.450941
#
# Coordination Sequence:
#
# PCOD9156641 Si02
#       7
#     4   4   4   4   4   4   4
#     4  10  18  29  49  74  97 125 166 213 251 285
#     4  11  22  33  48  72 100 131 171 216 251 283
#     4  10  21  37  52  69 100 137 165 193 246 311
#     4   8  16  32  51  73 102 134 163 193 241 299
#     4   9  18  33  56  82 103 124 153 194 243 297
#     4   9  19  34  49  68  98 135 172 209 251 295
#     4   9  17  32  52  70  96 136 173 203 241 292
#
# _framework density 17.254411999999999
#
# number of rings (size 3 to 8) (size 9 to 14) (size 15 to 20)
#    0.000    2.571    0.000    4.286    0.000    6.857 
#    0.000    0.000    0.000    0.857    0.000    0.000 
#    0.000    0.000    0.000    0.000    0.000    0.000 
#
# Total GULP energy -156128.958203 kJ/mol
# GULP energy per Si atom -5576.034222 kJ/mol
# Density = 1.721514 g / cm^3
# Si number density = 17.254412 Si / 1000 Ang^3
#
#
#
# Elastic Constant Matrix: (Units=GPa)
#
#
# Indices 1 2 3 4 5 6 
#
# 1 95.9419 35.9939 55.0713 0.0000 -24.3072 0.0000
# 2 35.9939 45.7996 44.2600 0.0000 -5.2060 0.0000
# 3 55.0713 44.2600 110.9375 0.0000 -11.6959 0.0000
# 4 0.0000 0.0000 0.0000 29.9476 0.0000 -6.8111
# 5 -24.3072 -5.2060 -11.6959 0.0000 20.7505 0.0000
# 6 0.0000 0.0000 0.0000 -6.8111 0.0000 23.2456
#
#
#
# Elastic Compliance Matrix: (Units=1/GPa)
#
#
# Indices 1 2 3 4 5 6 
#
# 1 0.022434 -0.010776 -0.004627 0.000000 0.020968 0.000000
# 2 -0.010776 0.040730 -0.011858 0.000000 -0.009089 0.000000
# 3 -0.004627 -0.011858 0.016114 0.000000 0.000688 0.000000
# 4 0.000000 0.000000 0.000000 0.035776 0.000000 0.010483
# 5 0.020968 -0.009089 0.000688 0.000000 0.070861 0.000000
# 6 0.000000 0.000000 0.000000 0.010483 0.000000 0.046090
#
#
# Mechanical properties :
#
#
# Convention : Reuss Voigt Hill
#
# Bulk Modulus (GPa) = 40.39489 58.14771 49.27130
# Shear Modulus (GPa) = 16.96184 22.61231 19.78707
#
# Velocity S-wave (km/s) = 3.13875 3.62404 3.39009
# Velocity P-wave (km/s) = 6.04962 7.16135 6.62883
#
# Compressibility (1/GPa) = 0.02475561
#
# Stress axis : x y z
#
# Youngs Moduli (GPa) = 44.57575 24.55193 62.05602
#
# Poissons Ratio (x) = 0.26458 0.28711
# Poissons Ratio (y) = 0.48035 0.73589
# Poissons Ratio (z) = 0.20624 0.29115
#
# Static dielectric constant tensor:
#      x y z
#    x 1.590060 0.000000 -0.005520 
#    y 0.000000 1.576240 0.000000 
#    z -0.005520 0.000000 1.600420 
# 
# From -- ./inp_files/37111.got.cif
#   From: 2010.05.17/outbox.cif.g08.bks.cpg/sg11_19_cif.got.tgz:37111.got - 2010.06.03 12:22:45.
