data_PCOD9156311
_publ_section_title
;
Structure prediction by ZEFSAII (Michael W. Deem and Ramdas Pophale) SiO2 
 PCOD9156311
Probable space group: P 21/M
;
_chemical_formula_sum "Si O2"
_cell_formula_units_Z 26
_cell_length_a 11.716911
_cell_length_b 11.634982
_cell_length_c 12.809715
_cell_angle_alpha 90.000000
_cell_angle_beta 117.162093
_cell_angle_gamma 90.000000
_cell_volume 1553.713652
_symmetry_space_group_name_H-M "P 21/M"
_symmetry_group_IT_number 11
_symmetry_cell_setting 'monoclinic'
loop_
_space_group_symop_operation_xyz
x,y,z
-x,1/2+y,-z
-x,-y,-z
x,1/2-y,z
loop_
_atom_site_type_symbol
_atom_site_label
_atom_site_fract_x
_atom_site_fract_y
_atom_site_fract_z
Si Si1 0.797789 0.879638 0.433689
Si Si2 0.703560 0.250000 0.631715
Si Si3 0.186159 0.538399 0.991992
Si Si4 0.837697 0.616712 0.211810
Si Si5 0.891889 0.884287 0.848310
Si Si6 0.328040 0.750000 0.143349
Si Si7 0.129128 0.959456 0.357866
Si Si8 0.559006 0.750000 0.382258
O O1 0.858044 0.750000 0.464401
O O2 0.789902 0.909109 0.308713
O O3 0.655601 0.857523 0.421131
O O4 0.869028 0.972761 0.532606
O O5 0.743062 0.250000 0.772155
O O6 0.762938 0.362264 0.604377
O O7 0.549244 0.250000 0.574535
O O8 0.213495 0.469184 0.897548
O O9 0.045635 0.597219 0.922670
O O10 0.172088 0.448011 0.080509
O O11 0.285807 0.637039 0.064133
O O12 0.809611 0.750000 0.175671
O O13 0.991755 0.599198 0.279906
O O14 0.862991 0.750000 0.834073
O O15 0.850386 0.947978 0.725342
O O16 0.475748 0.750000 0.240926
#
# Coordination Sequence:
#
# PCOD9156311 Si02
#       8
#     4   2   4   4   4   2   4   2
#     4   9  20  38  53  74 105 142 177 215 256 307
#     4  10  20  33  54  77 104 138 172 210 263 311
#     4  10  19  29  50  76 107 138 170 212 256 317
#     4  10  20  34  54  79 110 139 171 206 269 317
#     4  10  18  27  46  78 110 133 162 214 267 313
#     4  10  18  38  48  76 104 140 174 207 269 298
#     4  11  19  32  55  81 107 135 169 213 268 321
#     4   8  20  37  56  71 100 146 178 217 254 309
#
# _framework density 16.734100999999999
#
# number of rings (size 3 to 8) (size 9 to 14) (size 15 to 20)
#    0.923    1.231    3.077    1.385    0.000    0.615 
#    0.000    1.538    0.000    0.000    2.000    0.000 
#    0.000    0.000    0.000    0.000    0.000    0.000 
#
# Total GULP energy -144806.998363 kJ/mol
# GULP energy per Si atom -5569.499937 kJ/mol
# Density = 1.669601 g / cm^3
# Si number density = 16.734101 Si / 1000 Ang^3
#
#
#
# Elastic Constant Matrix: (Units=GPa)
#
#
# Indices 1 2 3 4 5 6 
#
# 1 19.7583 -4.7830 -11.9448 0.0000 -5.6918 0.0000
# 2 -4.7830 92.2442 29.9742 0.0000 -11.4878 0.0000
# 3 -11.9448 29.9742 54.1290 0.0000 -15.5616 0.0000
# 4 0.0000 0.0000 0.0000 18.0501 0.0000 -8.4500
# 5 -5.6918 -11.4878 -15.5616 0.0000 23.9852 0.0000
# 6 0.0000 0.0000 0.0000 -8.4500 0.0000 11.8818
#
#
#
# Elastic Compliance Matrix: (Units=1/GPa)
#
#
# Indices 1 2 3 4 5 6 
#
# 1 0.077815 -0.000506 0.027894 0.000000 0.036321 0.000000
# 2 -0.000506 0.013297 -0.006980 0.000000 0.001720 0.000000
# 3 0.027894 -0.006980 0.036187 0.000000 0.026754 0.000000
# 4 0.000000 0.000000 0.000000 0.083051 0.000000 0.059064
# 5 0.036321 0.001720 0.026754 0.000000 0.068493 0.000000
# 6 0.000000 0.000000 0.000000 0.059064 0.000000 0.126167
#
#
# Mechanical properties :
#
#
# Convention : Reuss Voigt Hill
#
# Bulk Modulus (GPa) = 5.94835 21.40271 13.67553
# Shear Modulus (GPa) = 11.89816 20.97576 16.43696
#
# Velocity S-wave (km/s) = 2.66937 3.54428 3.13748
# Velocity P-wave (km/s) = 3.61429 5.43755 4.61682
#
# Compressibility (1/GPa) = 0.16811398
#
# Stress axis : x y z
#
# Youngs Moduli (GPa) = 12.85096 75.20488 27.63441
#
# Poissons Ratio (x) = 0.03804 -0.77083
# Poissons Ratio (y) = 0.00650 0.19290
# Poissons Ratio (z) = -0.35846 0.52497
#
# Static dielectric constant tensor:
#      x y z
#    x 1.560250 0.000000 -0.006850 
#    y 0.000000 1.542560 0.000000 
#    z -0.006850 0.000000 1.555280 
# 
# From -- ./inp_files/34453.got.cif
#   From: 2010.05.17/outbox.cif.g08.bks.cpg/sg11_18_cif.got.tgz:34453.got - 2010.06.03 12:22:45.
