data_PCOD9156620
_publ_section_title
;
Structure prediction by ZEFSAII (Michael W. Deem and Ramdas Pophale) SiO2 
 PCOD9156620
Probable space group: P 21/M
;
_chemical_formula_sum "Si O2"
_cell_formula_units_Z 28
_cell_length_a 9.684466
_cell_length_b 9.482730
_cell_length_c 28.514033
_cell_angle_alpha 90.000000
_cell_angle_beta 39.175135
_cell_angle_gamma 90.000000
_cell_volume 1654.145592
_symmetry_space_group_name_H-M "P 21/M"
_symmetry_group_IT_number 11
_symmetry_cell_setting 'monoclinic'
loop_
_space_group_symop_operation_xyz
x,y,z
-x,1/2+y,-z
-x,-y,-z
x,1/2-y,z
loop_
_atom_site_type_symbol
_atom_site_label
_atom_site_fract_x
_atom_site_fract_y
_atom_site_fract_z
Si Si1 0.910038 0.085127 0.091290
Si Si2 0.689599 0.416250 0.047388
Si Si3 0.262922 0.583775 0.176639
Si Si4 0.760207 0.581910 0.295509
Si Si5 0.554736 0.417839 0.265252
Si Si6 0.811436 0.416927 0.692735
Si Si7 0.311037 0.417874 0.576236
O O1 0.974198 0.250000 0.075199
O O2 0.774363 0.062815 0.078770
O O3 0.750860 0.056184 0.176473
O O4 0.123738 0.988518 0.033108
O O5 0.674768 0.250000 0.042529
O O6 0.456215 0.491124 0.104657
O O7 0.304817 0.750000 0.157735
O O8 0.253078 0.562121 0.235625
O O9 0.019520 0.550768 0.222491
O O10 0.732413 0.750000 0.294849
O O11 0.622234 0.491343 0.295686
O O12 0.694870 0.552360 0.366513
O O13 0.528000 0.250000 0.277086
O O14 0.340303 0.489177 0.299889
O O15 0.782409 0.250000 0.690421
O O16 0.068100 0.451625 0.621272
O O17 0.500000 0.500000 0.500000
O O18 0.341435 0.250000 0.562924
#
# Coordination Sequence:
#
# PCOD9156620 Si02
#       7
#     4   4   4   4   4   4   4
#     4   9  19  32  45  69 105 137 170 218 265 307
#     4  10  18  29  48  74 101 132 175 223 266 306
#     4   9  17  32  53  74  99 135 177 218 260 308
#     4   9  20  37  55  77 107 141 173 208 257 316
#     4  11  21  34  52  79 109 137 174 219 262 304
#     4   9  18  33  55  79 104 138 174 209 255 312
#     4   9  19  37  60  85 109 135 171 211 253 305
#
# _framework density 16.927168000000002
#
# number of rings (size 3 to 8) (size 9 to 14) (size 15 to 20)
#    0.000    2.571    1.429    2.571    0.000    3.429 
#    0.000    4.286    0.000    0.000    0.000    0.000 
#    0.000    0.000    0.000    0.000    0.000    0.000 
#
# Total GULP energy -156193.996189 kJ/mol
# GULP energy per Si atom -5578.357007 kJ/mol
# Density = 1.688864 g / cm^3
# Si number density = 16.927168 Si / 1000 Ang^3
#
#
#
# Elastic Constant Matrix: (Units=GPa)
#
#
# Indices 1 2 3 4 5 6 
#
# 1 112.5079 73.3068 54.0503 0.0000 -11.2126 0.0000
# 2 73.3068 75.8409 71.3761 0.0000 -14.7043 0.0000
# 3 54.0503 71.3761 106.3814 0.0000 -20.6654 0.0000
# 4 0.0000 0.0000 0.0000 33.8615 0.0000 -6.3223
# 5 -11.2126 -14.7043 -20.6654 0.0000 14.8584 0.0000
# 6 0.0000 0.0000 0.0000 -6.3223 0.0000 25.1143
#
#
#
# Elastic Compliance Matrix: (Units=1/GPa)
#
#
# Indices 1 2 3 4 5 6 
#
# 1 0.027822 -0.036902 0.010424 0.000000 -0.001026 0.000000
# 2 -0.036902 0.084804 -0.037346 0.000000 0.004135 0.000000
# 3 0.010424 -0.037346 0.032213 0.000000 0.015710 0.000000
# 4 0.000000 0.000000 0.000000 0.030989 0.000000 0.007801
# 5 -0.001026 0.004135 0.015710 0.000000 0.092469 0.000000
# 6 0.000000 0.000000 0.000000 0.007801 0.000000 0.041782
#
#
# Mechanical properties :
#
#
# Convention : Reuss Voigt Hill
#
# Bulk Modulus (GPa) = 58.17156 76.91075 67.54115
# Shear Modulus (GPa) = 11.27503 21.16663 16.22083
#
# Velocity S-wave (km/s) = 2.58367 3.54001 3.09896
# Velocity P-wave (km/s) = 6.58338 7.88948 7.26583
#
# Compressibility (1/GPa) = 0.01719053
#
# Stress axis : x y z
#
# Youngs Moduli (GPa) = 35.94232 11.79194 31.04314
#
# Poissons Ratio (x) = 0.43514 -0.32359
# Poissons Ratio (y) = 1.32633 1.15935
# Poissons Ratio (z) = -0.37466 0.44039
#
# Static dielectric constant tensor:
#      x y z
#    x 1.559800 0.000000 0.000390 
#    y 0.000000 1.553200 0.000000 
#    z 0.000390 0.000000 1.551300 
# 
# From -- ./inp_files/24160.got.cif
#   From: 2010.05.17/outbox.cif.g08.bks.cpg/sg11_13_cif.got.tgz:24160.got - 2010.06.03 12:22:45.
