data_PCOD9156130
_publ_section_title
;
Structure prediction by ZEFSAII (Michael W. Deem and Ramdas Pophale) SiO2 
 PCOD9156130
Probable space group: P 21/M
;
_chemical_formula_sum "Si O2"
_cell_formula_units_Z 32
_cell_length_a 11.040020
_cell_length_b 7.391675
_cell_length_c 19.742148
_cell_angle_alpha 90.000000
_cell_angle_beta 56.466952
_cell_angle_gamma 90.000000
_cell_volume 1342.912792
_symmetry_space_group_name_H-M "P 21/M"
_symmetry_group_IT_number 11
_symmetry_cell_setting 'monoclinic'
loop_
_space_group_symop_operation_xyz
x,y,z
-x,1/2+y,-z
-x,-y,-z
x,1/2-y,z
loop_
_atom_site_type_symbol
_atom_site_label
_atom_site_fract_x
_atom_site_fract_y
_atom_site_fract_z
Si Si1 0.612603 0.956856 0.662880
Si Si2 0.226802 0.470216 0.511277
Si Si3 0.573541 0.034041 0.905467
Si Si4 0.800505 0.527850 0.223048
Si Si5 0.618513 0.547915 0.158838
Si Si6 0.373643 0.036245 0.594515
Si Si7 0.093314 0.969959 0.209304
Si Si8 0.078346 0.530880 0.371389
O O1 0.564233 0.750000 0.673906
O O2 0.644632 0.033964 0.578024
O O3 0.507245 0.059078 0.745273
O O4 0.773245 0.958802 0.644594
O O5 0.233786 0.250000 0.504411
O O6 0.244367 0.518837 0.583812
O O7 0.065448 0.532101 0.544981
O O8 0.583898 0.250000 0.889216
O O9 0.466451 0.962497 0.878823
O O10 0.740860 0.968715 0.856480
O O11 0.500000 0.000000 0.000000
O O12 0.799244 0.750000 0.221761
O O13 0.750515 0.467998 0.163153
O O14 0.676897 0.467771 0.316281
O O15 0.959052 0.472166 0.202493
O O16 0.664434 0.750000 0.123471
O O17 0.373497 0.250000 0.602547
O O18 0.500000 0.000000 0.500000
O O19 0.091939 0.750000 0.205680
O O20 0.069199 0.017560 0.295190
O O21 0.083601 0.750000 0.373220
#
# Coordination Sequence:
#
# PCOD9156130 Si02
#       8
#     4   4   4   4   4   4   4   4
#     4  11  21  31  46  75 112 146 180 223 276 317
#     4   9  18  30  46  69 102 143 184 228 272 311
#     4  10  21  38  61  86 110 135 168 214 272 332
#     4   9  17  31  56  82 103 138 189 230 256 301
#     4  10  20  36  57  82 107 138 182 223 260 312
#     4  10  18  30  47  69 100 142 187 227 267 307
#     4   9  16  32  58  83 105 137 180 221 264 318
#     4  10  17  32  54  72  99 141 189 230 265 313
#
# _framework density 23.828800000000001
#
# number of rings (size 3 to 8) (size 9 to 14) (size 15 to 20)
#    0.000    2.250    2.500    1.500    0.000    0.500 
#    0.000    2.500    0.000    2.250    0.000    0.000 
#    0.000    0.000    0.000    0.000    0.000    0.000 
#
# Total GULP energy -178456.936424 kJ/mol
# GULP energy per Si atom -5576.779263 kJ/mol
# Density = 2.377456 g / cm^3
# Si number density = 23.828800 Si / 1000 Ang^3
#
#
#
# Elastic Constant Matrix: (Units=GPa)
#
#
# Indices 1 2 3 4 5 6 
#
# 1 164.6764 15.4817 55.0365 0.0000 33.0618 0.0000
# 2 15.4817 84.3260 0.4091 0.0000 0.9186 0.0000
# 3 55.0365 0.4091 100.2854 0.0000 14.6478 0.0000
# 4 0.0000 0.0000 0.0000 8.1160 0.0000 -1.8451
# 5 33.0618 0.9186 14.6478 0.0000 34.7007 0.0000
# 6 0.0000 0.0000 0.0000 -1.8451 0.0000 4.7482
#
#
#
# Elastic Compliance Matrix: (Units=1/GPa)
#
#
# Indices 1 2 3 4 5 6 
#
# 1 0.008872 -0.001536 -0.003873 0.000000 -0.006778 0.000000
# 2 -0.001536 0.012128 0.000668 0.000000 0.000861 0.000000
# 3 -0.003873 0.000668 0.012317 0.000000 -0.001527 0.000000
# 4 0.000000 0.000000 0.000000 0.135153 0.000000 0.052521
# 5 -0.006778 0.000861 -0.001527 0.000000 0.035897 0.000000
# 6 0.000000 0.000000 0.000000 0.052521 0.000000 0.231017
#
#
# Mechanical properties :
#
#
# Convention : Reuss Voigt Hill
#
# Bulk Modulus (GPa) = 41.95466 54.57136 48.26301
# Shear Modulus (GPa) = 11.04211 28.07034 19.55623
#
# Velocity S-wave (km/s) = 2.15499 3.43593 2.86789
# Velocity P-wave (km/s) = 4.88231 6.22028 5.59146
#
# Compressibility (1/GPa) = 0.02383525
#
# Stress axis : x y z
#
# Youngs Moduli (GPa) = 112.71474 82.45269 81.18716
#
# Poissons Ratio (x) = 0.12667 0.31441
# Poissons Ratio (y) = 0.17315 -0.05422
# Poissons Ratio (z) = 0.43651 -0.05507
#
# Static dielectric constant tensor:
#      x y z
#    x 2.104430 0.000000 -0.012860 
#    y 0.000000 1.899890 0.000000 
#    z -0.012860 0.000000 1.873680 
# 
# From -- ./inp_files/64385.got.cif
#   From: 2010.05.17/outbox.cif.g08.bks.cpg/sg11_33_cif.got.tgz:64385.got - 2010.06.03 12:22:45.
