data_PCOD9156310
_publ_section_title
;
Structure prediction by ZEFSAII (Michael W. Deem and Ramdas Pophale) SiO2 
 PCOD9156310
Probable space group: P 21/M
;
_chemical_formula_sum "Si O2"
_cell_formula_units_Z 28
_cell_length_a 13.152039
_cell_length_b 9.591726
_cell_length_c 13.633278
_cell_angle_alpha 90.000000
_cell_angle_beta 119.619301
_cell_angle_gamma 90.000000
_cell_volume 1495.113127
_symmetry_space_group_name_H-M "P 21/M"
_symmetry_group_IT_number 11
_symmetry_cell_setting 'monoclinic'
loop_
_space_group_symop_operation_xyz
x,y,z
-x,1/2+y,-z
-x,-y,-z
x,1/2-y,z
loop_
_atom_site_type_symbol
_atom_site_label
_atom_site_fract_x
_atom_site_fract_y
_atom_site_fract_z
Si Si1 0.436606 0.587736 0.701135
Si Si2 0.653499 0.588127 0.667157
Si Si3 0.451300 0.917096 0.069741
Si Si4 0.990949 0.091191 0.740330
Si Si5 0.166359 0.907583 0.139436
Si Si6 0.245684 0.917497 0.464150
Si Si7 0.174259 0.911157 0.924334
O O1 0.440491 0.750000 0.737164
O O2 0.524068 0.578633 0.649596
O O3 0.485213 0.483993 0.805846
O O4 0.307894 0.556176 0.597438
O O5 0.680005 0.750000 0.661288
O O6 0.738614 0.523879 0.790151
O O7 0.682002 0.497877 0.585141
O O8 0.469854 0.750000 0.073553
O O9 0.311357 0.941742 0.003526
O O10 0.500000 0.000000 0.000000
O O11 0.021826 0.250000 0.731456
O O12 0.924308 0.090235 0.814229
O O13 0.890180 0.042649 0.616640
O O14 0.105828 0.001448 0.812491
O O15 0.219420 0.750000 0.164727
O O16 0.120062 0.928735 0.007752
O O17 0.252446 0.750000 0.449255
O O18 0.162527 0.750000 0.891266
#
# Coordination Sequence:
#
# PCOD9156310 Si02
#       7
#     4   4   4   4   4   4   4
#     4  10  20  35  55  78 107 142 180 223 269 318
#     4  10  18  27  46  78 109 143 184 222 257 308
#     4  11  24  41  61  83 106 135 175 227 281 325
#     4   9  18  30  49  76 108 146 180 212 253 310
#     4   9  17  31  47  70 107 147 180 215 263 317
#     4   9  19  34  50  74 112 151 181 213 260 315
#     4  10  20  34  53  75 104 140 175 219 271 318
#
# _framework density 18.727681
#
# number of rings (size 3 to 8) (size 9 to 14) (size 15 to 20)
#    0.000    2.286    1.429    2.571    0.000    5.143 
#    0.000    0.000    0.000    0.857    0.000    0.000 
#    0.000    0.000    0.000    0.000    0.000    0.000 
#
# Total GULP energy -156076.294600 kJ/mol
# GULP energy per Si atom -5574.153379 kJ/mol
# Density = 1.868506 g / cm^3
# Si number density = 18.727681 Si / 1000 Ang^3
#
#
#
# Elastic Constant Matrix: (Units=GPa)
#
#
# Indices 1 2 3 4 5 6 
#
# 1 21.7217 28.9149 30.0655 0.0000 4.7418 0.0000
# 2 28.9149 81.0731 80.3964 0.0000 17.7286 0.0000
# 3 30.0655 80.3964 136.8635 0.0000 32.4602 0.0000
# 4 0.0000 0.0000 0.0000 25.1415 0.0000 4.9548
# 5 4.7418 17.7286 32.4602 0.0000 18.0366 0.0000
# 6 0.0000 0.0000 0.0000 4.9548 0.0000 22.4303
#
#
#
# Elastic Compliance Matrix: (Units=1/GPa)
#
#
# Indices 1 2 3 4 5 6 
#
# 1 0.090843 -0.029526 -0.006684 0.000000 0.017168 0.000000
# 2 -0.029526 0.039294 -0.016185 0.000000 -0.001733 0.000000
# 3 -0.006684 -0.016185 0.024587 0.000000 -0.026583 0.000000
# 4 0.000000 0.000000 0.000000 0.041585 0.000000 -0.009186
# 5 0.017168 -0.001733 -0.026583 0.000000 0.100474 0.000000
# 6 0.000000 0.000000 0.000000 -0.009186 0.000000 0.046612
#
#
# Mechanical properties :
#
#
# Convention : Reuss Voigt Hill
#
# Bulk Modulus (GPa) = 20.02591 57.60132 38.81362
# Shear Modulus (GPa) = 10.75668 19.80713 15.28191
#
# Velocity S-wave (km/s) = 2.39921 3.25566 2.85968
# Velocity P-wave (km/s) = 4.28852 6.70497 5.62796
#
# Compressibility (1/GPa) = 0.04993531
#
# Stress axis : x y z
#
# Youngs Moduli (GPa) = 11.00799 25.44948 40.67221
#
# Poissons Ratio (x) = 0.75141 0.27184
# Poissons Ratio (y) = 0.32502 0.65827
# Poissons Ratio (z) = 0.07357 0.41190
#
# Static dielectric constant tensor:
#      x y z
#    x 1.668720 0.000000 0.026620 
#    y 0.000000 1.634940 0.000000 
#    z 0.026620 0.000000 1.679410 
# 
# From -- ./inp_files/51116.got.cif
#   From: 2010.05.17/outbox.cif.g08.bks.cpg/sg11_26_cif.got.tgz:51116.got - 2010.06.03 12:22:45.
