data_PCOD9156911
_publ_section_title
;
Structure prediction by ZEFSAII (Michael W. Deem and Ramdas Pophale) SiO2 
 PCOD9156911
Probable space group: P 21/M
;
_chemical_formula_sum "Si O2"
_cell_formula_units_Z 32
_cell_length_a 21.891940
_cell_length_b 8.876058
_cell_length_c 12.002275
_cell_angle_alpha 90.000000
_cell_angle_beta 51.861560
_cell_angle_gamma 90.000000
_cell_volume 1834.333115
_symmetry_space_group_name_H-M "P 21/M"
_symmetry_group_IT_number 11
_symmetry_cell_setting 'monoclinic'
loop_
_space_group_symop_operation_xyz
x,y,z
-x,1/2+y,-z
-x,-y,-z
x,1/2-y,z
loop_
_atom_site_type_symbol
_atom_site_label
_atom_site_fract_x
_atom_site_fract_y
_atom_site_fract_z
Si Si1 0.631502 0.570430 0.045915
Si Si2 0.330701 0.430901 0.602039
Si Si3 0.905185 0.069930 0.005356
Si Si4 0.227634 0.929169 0.520592
Si Si5 0.527403 0.930001 0.709239
Si Si6 0.738402 0.429910 0.099551
Si Si7 0.353295 0.069058 0.228192
Si Si8 0.921491 0.928706 0.230459
O O1 0.636516 0.750000 0.047847
O O2 0.553751 0.513801 0.194092
O O3 0.704635 0.496649 0.024418
O O4 0.627844 0.528137 0.919671
O O5 0.322980 0.250000 0.613116
O O6 0.270444 0.497386 0.579609
O O7 0.416225 0.467329 0.457696
O O8 0.310773 0.500480 0.743161
O O9 0.903592 0.250000 0.031904
O O10 0.828495 0.033158 0.022091
O O11 0.904825 0.982102 0.122561
O O12 0.987374 0.038127 0.853653
O O13 0.231341 0.750000 0.525146
O O14 0.276726 0.987807 0.360434
O O15 0.139354 0.985771 0.623428
O O16 0.514323 0.750000 0.723547
O O17 0.577298 0.968114 0.764096
O O18 0.730150 0.250000 0.109766
O O19 0.342020 0.250000 0.247990
O O20 0.909210 0.750000 0.253088
#
# Coordination Sequence:
#
# PCOD9156911 Si02
#       8
#     4   4   4   4   4   4   4   4
#     4  11  23  37  55  78 104 139 181 219 264 319
#     4  10  20  35  54  78 107 141 177 215 264 315
#     4   9  19  33  50  77 108 140 177 215 258 310
#     4  11  20  31  52  82 111 138 172 216 265 317
#     4   9  19  36  57  79 104 132 171 224 273 314
#     4  11  22  36  54  76 109 145 178 217 259 314
#     4   9  20  38  57  78 104 136 177 224 267 311
#     4  10  18  30  52  79 109 140 171 214 263 311
#
# _framework density 17.445032999999999
#
# number of rings (size 3 to 8) (size 9 to 14) (size 15 to 20)
#    0.000    2.000    1.250    3.750    0.000    5.000 
#    0.000    0.000    0.000    0.750    0.000    0.000 
#    0.000    0.000    0.000    0.000    0.000    0.000 
#
# Total GULP energy -178653.835895 kJ/mol
# GULP energy per Si atom -5582.932372 kJ/mol
# Density = 1.740533 g / cm^3
# Si number density = 17.445033 Si / 1000 Ang^3
#
#
#
# Elastic Constant Matrix: (Units=GPa)
#
#
# Indices 1 2 3 4 5 6 
#
# 1 63.7445 21.0469 14.7172 0.0000 -19.3112 0.0000
# 2 21.0469 36.7020 16.1064 0.0000 -15.2614 0.0000
# 3 14.7172 16.1064 40.0682 0.0000 -23.6257 0.0000
# 4 0.0000 0.0000 0.0000 25.5519 0.0000 -2.2467
# 5 -19.3112 -15.2614 -23.6257 0.0000 23.5788 0.0000
# 6 0.0000 0.0000 0.0000 -2.2467 0.0000 24.9690
#
#
#
# Elastic Compliance Matrix: (Units=1/GPa)
#
#
# Indices 1 2 3 4 5 6 
#
# 1 0.022861 -0.007492 0.006831 0.000000 0.020719 0.000000
# 2 -0.007492 0.039792 -0.004094 0.000000 0.015517 0.000000
# 3 0.006831 -0.004094 0.063126 0.000000 0.066196 0.000000
# 4 0.000000 0.000000 0.000000 0.039448 0.000000 0.003550
# 5 0.020719 0.015517 0.066196 0.000000 0.135751 0.000000
# 6 0.000000 0.000000 0.000000 0.003550 0.000000 0.040369
#
#
# Mechanical properties :
#
#
# Convention : Reuss Voigt Hill
#
# Bulk Modulus (GPa) = 8.60076 27.13952 17.87014
# Shear Modulus (GPa) = 12.83325 20.72954 16.78140
#
# Velocity S-wave (km/s) = 2.71521 3.45088 3.10491
# Velocity P-wave (km/s) = 3.84327 5.60973 4.80831
#
# Compressibility (1/GPa) = 0.11626882
#
# Stress axis : x y z
#
# Youngs Moduli (GPa) = 43.74289 25.13081 15.84139
#
# Poissons Ratio (x) = 0.18829 -0.10822
# Poissons Ratio (y) = 0.32773 0.06485
# Poissons Ratio (z) = -0.29882 0.10288
#
# Static dielectric constant tensor:
#      x y z
#    x 1.585290 0.000000 -0.017290 
#    y 0.000000 1.580590 0.000000 
#    z -0.017290 0.000000 1.592830 
# 
# From -- ./inp_files/42771.got.cif
#   From: 2010.05.17/outbox.cif.g08.bks.cpg/sg11_22_cif.got.tgz:42771.got - 2010.06.03 12:22:45.
