data_PCOD9156682
_publ_section_title
;
Structure prediction by ZEFSAII (Michael W. Deem and Ramdas Pophale) SiO2 
 PCOD9156682
Probable space group: P 21/M
;
_chemical_formula_sum "Si O2"
_cell_formula_units_Z 28
_cell_length_a 17.833317
_cell_length_b 9.163141
_cell_length_c 14.856340
_cell_angle_alpha 90.000000
_cell_angle_beta 131.399861
_cell_angle_gamma 90.000000
_cell_volume 1821.020490
_symmetry_space_group_name_H-M "P 21/M"
_symmetry_group_IT_number 11
_symmetry_cell_setting 'monoclinic'
loop_
_space_group_symop_operation_xyz
x,y,z
-x,1/2+y,-z
-x,-y,-z
x,1/2-y,z
loop_
_atom_site_type_symbol
_atom_site_label
_atom_site_fract_x
_atom_site_fract_y
_atom_site_fract_z
Si Si1 0.914198 0.576408 0.310540
Si Si2 0.875513 0.575375 0.484317
Si Si3 0.864539 0.074476 0.093355
Si Si4 0.739390 0.919442 0.534293
Si Si5 0.605946 0.075061 0.568608
Si Si6 0.078344 0.418683 0.179530
Si Si7 0.218072 0.575225 0.155876
O O1 0.921856 0.750000 0.304835
O O2 0.866306 0.547318 0.370644
O O3 0.855911 0.504776 0.181487
O O4 0.025178 0.506816 0.403346
O O5 0.891322 0.750000 0.509625
O O6 0.779938 0.535208 0.468664
O O7 0.862963 0.250000 0.105119
O O8 0.973292 0.035155 0.138230
O O9 0.786986 0.033744 0.952936
O O10 0.706284 0.750000 0.505571
O O11 0.837839 0.925638 0.675896
O O12 0.657059 0.017601 0.517420
O O13 0.597120 0.250000 0.560656
O O14 0.683283 0.032303 0.710217
O O15 0.500000 0.000000 0.500000
O O16 0.068247 0.250000 0.143169
O O17 0.122986 0.510849 0.133317
O O18 0.210806 0.750000 0.154009
#
# Coordination Sequence:
#
# PCOD9156682 Si02
#       7
#     4   4   4   4   4   4   4
#     4  10  19  27  42  66  92 125 163 196 219 255
#     4   9  17  31  45  62  92 127 159 190 229 267
#     4  10  18  30  43  60  91 128 155 183 225 266
#     4   9  16  29  48  67  90 122 153 184 226 271
#     4  10  20  34  50  71  93 114 147 189 233 279
#     4   9  16  26  42  62  88 122 154 180 217 264
#     4   9  19  31  45  64  88 117 152 189 224 270
#
# _framework density 15.375994
#
# number of rings (size 3 to 8) (size 9 to 14) (size 15 to 20)
#    0.000    2.571    1.429    1.286    0.000    2.857 
#    0.000    0.000    0.000    0.000    0.000    1.000 
#    0.000    0.000    0.000    0.000    0.000    0.000 
#
# Total GULP energy -156041.116739 kJ/mol
# GULP energy per Si atom -5572.897026 kJ/mol
# Density = 1.534100 g / cm^3
# Si number density = 15.375994 Si / 1000 Ang^3
#
#
#
# Elastic Constant Matrix: (Units=GPa)
#
#
# Indices 1 2 3 4 5 6 
#
# 1 102.1003 43.4210 54.2564 0.0000 -12.6900 0.0000
# 2 43.4210 34.6974 36.9788 0.0000 -8.4574 0.0000
# 3 54.2564 36.9788 75.9270 0.0000 -21.5792 0.0000
# 4 0.0000 0.0000 0.0000 20.2833 0.0000 -5.7407
# 5 -12.6900 -8.4574 -21.5792 0.0000 26.7878 0.0000
# 6 0.0000 0.0000 0.0000 -5.7407 0.0000 23.8097
#
#
#
# Elastic Compliance Matrix: (Units=1/GPa)
#
#
# Indices 1 2 3 4 5 6 
#
# 1 0.021740 -0.022059 -0.004986 0.000000 -0.000682 0.000000
# 2 -0.022059 0.083048 -0.026201 0.000000 -0.005336 0.000000
# 3 -0.004986 -0.026201 0.034332 0.000000 0.017022 0.000000
# 4 0.000000 0.000000 0.000000 0.052912 0.000000 0.012758
# 5 -0.000682 -0.005336 0.017022 0.000000 0.049035 0.000000
# 6 0.000000 0.000000 0.000000 0.012758 0.000000 0.045076
#
#
# Mechanical properties :
#
#
# Convention : Reuss Voigt Hill
#
# Bulk Modulus (GPa) = 30.64688 53.55968 42.10328
# Shear Modulus (GPa) = 12.39126 19.38071 15.88598
#
# Velocity S-wave (km/s) = 2.84189 3.55414 3.21778
# Velocity P-wave (km/s) = 5.54467 7.19385 6.42241
#
# Compressibility (1/GPa) = 0.03262974
#
# Stress axis : x y z
#
# Youngs Moduli (GPa) = 45.99821 12.04120 29.12748
#
# Poissons Ratio (x) = 0.26561 0.14522
# Poissons Ratio (y) = 1.01466 0.76317
# Poissons Ratio (z) = 0.22933 0.31549
#
# Static dielectric constant tensor:
#      x y z
#    x 1.499620 0.000000 -0.024920 
#    y 0.000000 1.515940 0.000000 
#    z -0.024920 0.000000 1.532070 
# 
# From -- ./inp_files/50992.got.cif
#   From: 2010.05.17/outbox.cif.g08.bks.cpg/sg11_26_cif.got.tgz:50992.got - 2010.06.03 12:22:45.
