data_PCOD9156102
_publ_section_title
;
Structure prediction by ZEFSAII (Michael W. Deem and Ramdas Pophale) SiO2 
 PCOD9156102
Probable space group: P 21/M
;
_chemical_formula_sum "Si O2"
_cell_formula_units_Z 32
_cell_length_a 19.979432
_cell_length_b 9.427022
_cell_length_c 11.328870
_cell_angle_alpha 90.000000
_cell_angle_beta 55.456846
_cell_angle_gamma 90.000000
_cell_volume 1757.571389
_symmetry_space_group_name_H-M "P 21/M"
_symmetry_group_IT_number 11
_symmetry_cell_setting 'monoclinic'
loop_
_space_group_symop_operation_xyz
x,y,z
-x,1/2+y,-z
-x,-y,-z
x,1/2-y,z
loop_
_atom_site_type_symbol
_atom_site_label
_atom_site_fract_x
_atom_site_fract_y
_atom_site_fract_z
Si Si1 0.327839 0.085850 0.388296
Si Si2 0.816468 0.078938 0.060746
Si Si3 0.907362 0.406691 0.404330
Si Si4 0.816468 0.578937 0.306317
Si Si5 0.782086 0.500001 0.717914
Si Si6 0.907362 0.906691 0.780946
Si Si7 0.327839 0.914151 0.956027
Si Si8 0.500000 0.075377 0.126828
O O1 0.339141 0.250000 0.405772
O O2 0.269404 0.028715 0.549340
O O3 0.276674 0.075142 0.317670
O O4 0.417779 0.028587 0.275733
O O5 0.817477 0.250000 0.070499
O O6 0.829263 1.000000 0.170737
O O7 0.730596 0.028715 0.088147
O O8 0.882370 0.026015 0.899534
O O9 0.901583 0.250000 0.353899
O O10 0.882371 0.526014 0.335724
O O11 0.843578 0.410998 0.575248
O O12 0.000000 0.426351 0.352252
O O13 0.817478 0.750000 0.294547
O O14 0.843578 0.589004 0.737597
O O15 0.723325 0.424860 0.871018
O O16 0.901583 0.750000 0.842936
O O17 0.339141 0.750000 0.915948
O O18 0.417780 0.971413 0.888707
O O19 0.500000 0.250000 0.114228
O O20 0.500000 0.000000 0.000000
#
# Coordination Sequence:
#
# PCOD9156102 Si02
#       8
#     4   4   4   4   4   4   4   4
#     4   9  18  31  51  77 108 140 172 209 258 309
#     4  10  21  38  57  77 101 138 180 224 269 316
#     4  10  21  35  53  79 109 141 177 220 267 317
#     4  10  21  38  57  77 101 138 180 224 269 316
#     4  10  17  31  52  78 110 142 176 209 259 310
#     4  10  21  35  53  79 109 141 177 220 267 317
#     4   9  18  31  51  77 108 140 172 209 258 309
#     4  10  18  32  51  80 112 142 171 207 252 307
#
# _framework density 18.206942000000002
#
# number of rings (size 3 to 8) (size 9 to 14) (size 15 to 20)
#    0.000    2.250    1.250    1.875    0.000    2.000 
#    0.000    1.875    0.000    0.000    0.000    0.000 
#    0.000    0.000    0.000    0.000    0.000    0.000 
#
# Total GULP energy -178154.928389 kJ/mol
# GULP energy per Si atom -5567.341512 kJ/mol
# Density = 1.816550 g / cm^3
# Si number density = 18.206942 Si / 1000 Ang^3
#
#
#
# Elastic Constant Matrix: (Units=GPa)
#
#
# Indices 1 2 3 4 5 6 
#
# 1 76.2273 20.0371 36.9873 0.0000 -21.4617 0.0000
# 2 20.0371 63.3120 20.9725 0.0000 1.7310 0.0000
# 3 36.9873 20.9725 60.1024 0.0000 -8.3797 0.0000
# 4 0.0000 0.0000 0.0000 22.7887 0.0000 3.9008
# 5 -21.4617 1.7310 -8.3797 0.0000 38.0308 0.0000
# 6 0.0000 0.0000 0.0000 3.9008 0.0000 20.6813
#
#
#
# Elastic Compliance Matrix: (Units=1/GPa)
#
#
# Indices 1 2 3 4 5 6 
#
# 1 0.022357 -0.003708 -0.011021 0.000000 0.010357 0.000000
# 2 -0.003708 0.018664 -0.004788 0.000000 -0.003997 0.000000
# 3 -0.011021 -0.004788 0.025023 0.000000 -0.000488 0.000000
# 4 0.000000 0.000000 0.000000 0.045345 0.000000 -0.008553
# 5 0.010357 -0.003997 -0.000488 0.000000 0.032214 0.000000
# 6 0.000000 0.000000 0.000000 -0.008553 0.000000 0.049966
#
#
# Mechanical properties :
#
#
# Convention : Reuss Voigt Hill
#
# Bulk Modulus (GPa) = 37.02268 39.51505 38.26887
# Shear Modulus (GPa) = 20.69491 24.40981 22.55236
#
# Velocity S-wave (km/s) = 3.37508 3.66551 3.52329
# Velocity P-wave (km/s) = 5.96379 6.29802 6.13318
#
# Compressibility (1/GPa) = 0.02701047
#
# Stress axis : x y z
#
# Youngs Moduli (GPa) = 44.72912 53.58012 39.96307
#
# Poissons Ratio (x) = 0.19868 0.44042
# Poissons Ratio (y) = 0.16586 0.19134
# Poissons Ratio (z) = 0.49294 0.25654
#
# Static dielectric constant tensor:
#      x y z
#    x 1.640290 0.000000 -0.027950 
#    y 0.000000 1.640830 0.000000 
#    z -0.027950 0.000000 1.625180 
# 
# From -- ./inp_files/42842.got.cif
#   From: 2010.05.17/outbox.cif.g08.bks.cpg/sg11_22_cif.got.tgz:42842.got - 2010.06.03 12:22:45.
