data_PCOD9156783
_publ_section_title
;
Structure prediction by ZEFSAII (Michael W. Deem and Ramdas Pophale) SiO2 
 PCOD9156783
Probable space group: P 21/M
;
_chemical_formula_sum "Si O2"
_cell_formula_units_Z 32
_cell_length_a 23.167438
_cell_length_b 9.247568
_cell_length_c 19.559866
_cell_angle_alpha 90.000000
_cell_angle_beta 154.822829
_cell_angle_gamma 90.000000
_cell_volume 1782.740096
_symmetry_space_group_name_H-M "P 21/M"
_symmetry_group_IT_number 11
_symmetry_cell_setting 'monoclinic'
loop_
_space_group_symop_operation_xyz
x,y,z
-x,1/2+y,-z
-x,-y,-z
x,1/2-y,z
loop_
_atom_site_type_symbol
_atom_site_label
_atom_site_fract_x
_atom_site_fract_y
_atom_site_fract_z
Si Si1 0.514909 0.420036 0.796238
Si Si2 0.702049 0.083016 0.253260
Si Si3 0.817039 0.421577 0.904353
Si Si4 0.204822 0.079568 0.516449
Si Si5 0.247334 0.576950 0.313903
Si Si6 0.481639 0.921301 0.357491
Si Si7 0.389633 0.416337 0.973211
Si Si8 0.054047 0.923142 0.234582
O O1 0.549074 0.250000 0.838718
O O2 0.356320 0.435020 0.646489
O O3 0.532537 0.466717 0.736988
O O4 0.601699 0.509880 0.943605
O O5 0.744263 0.250000 0.294060
O O6 0.786281 0.995090 0.399959
O O7 0.697137 0.005743 0.174660
O O8 0.545431 0.081912 0.112236
O O9 0.848681 0.250000 0.944958
O O10 0.828738 0.465512 0.837439
O O11 0.660439 0.442204 0.757080
O O12 0.913481 0.513056 0.056432
O O13 0.175121 0.250000 0.489810
O O14 0.103276 0.998967 0.356589
O O15 0.264131 0.750000 0.329094
O O16 0.393764 0.504202 0.475386
O O17 0.162414 0.541236 0.290641
O O18 0.512847 0.750000 0.390809
O O19 0.346349 0.250000 0.930209
O O20 0.049440 0.750000 0.237430
#
# Coordination Sequence:
#
# PCOD9156783 Si02
#       8
#     4   4   4   4   4   4   4   4
#     4   9  17  29  46  70  98 131 168 208 254 303
#     4   9  16  26  41  65  99 133 166 207 252 299
#     4  10  22  38  54  75 104 136 173 216 263 313
#     4  10  18  30  49  71  99 134 171 211 256 305
#     4  10  21  36  55  78 103 133 171 217 265 314
#     4  10  20  35  55  78 103 135 174 215 261 313
#     4   9  16  25  40  65  97 133 168 204 249 299
#     4  11  22  35  52  76 104 136 175 216 261 311
#
# _framework density 17.949897
#
# number of rings (size 3 to 8) (size 9 to 14) (size 15 to 20)
#    0.000    2.250    1.250    2.250    0.000    5.500 
#    0.000    0.000    0.000    0.000    0.000    0.875 
#    0.000    0.000    0.000    0.000    0.000    0.000 
#
# Total GULP energy -178577.573247 kJ/mol
# GULP energy per Si atom -5580.549164 kJ/mol
# Density = 1.790904 g / cm^3
# Si number density = 17.949897 Si / 1000 Ang^3
#
#
#
# Elastic Constant Matrix: (Units=GPa)
#
#
# Indices 1 2 3 4 5 6 
#
# 1 26.0300 16.5965 22.8197 0.0000 -21.0966 0.0000
# 2 16.5965 58.9979 37.1341 0.0000 -11.8025 0.0000
# 3 22.8197 37.1341 80.2829 0.0000 -25.3234 0.0000
# 4 0.0000 0.0000 0.0000 24.2975 0.0000 1.7438
# 5 -21.0966 -11.8025 -25.3234 0.0000 28.8038 0.0000
# 6 0.0000 0.0000 0.0000 1.7438 0.0000 8.6531
#
#
#
# Elastic Compliance Matrix: (Units=1/GPa)
#
#
# Indices 1 2 3 4 5 6 
#
# 1 0.106290 -0.015203 -0.000815 0.000000 0.070903 0.000000
# 2 -0.015203 0.026086 -0.010911 0.000000 -0.010039 0.000000
# 3 -0.000815 -0.010911 0.022328 0.000000 0.014562 0.000000
# 4 0.000000 0.000000 0.000000 0.041760 0.000000 -0.008416
# 5 0.070903 -0.010039 0.014562 0.000000 0.095338 0.000000
# 6 0.000000 0.000000 0.000000 -0.008416 0.000000 0.117262
#
#
# Mechanical properties :
#
#
# Convention : Reuss Voigt Hill
#
# Bulk Modulus (GPa) = 9.91616 35.37904 22.64760
# Shear Modulus (GPa) = 10.06976 18.26825 14.16900
#
# Velocity S-wave (km/s) = 2.37110 3.19366 2.81261
# Velocity P-wave (km/s) = 3.61005 5.77511 4.81583
#
# Compressibility (1/GPa) = 0.10084548
#
# Stress axis : x y z
#
# Youngs Moduli (GPa) = 9.40821 38.33527 44.78758
#
# Poissons Ratio (x) = 0.58280 0.03652
# Poissons Ratio (y) = 0.14303 0.48867
# Poissons Ratio (z) = 0.00767 0.41827
#
# Static dielectric constant tensor:
#      x y z
#    x 1.608160 0.000000 -0.008660 
#    y 0.000000 1.598940 0.000000 
#    z -0.008660 0.000000 1.585780 
# 
# From -- ./inp_files/67265.got.cif
#   From: 2010.05.17/outbox.cif.g08.bks.cpg/sg11_34_cif.got.tgz:67265.got - 2010.06.03 12:22:45.
