data_PCOD9156231
_publ_section_title
;
Structure prediction by ZEFSAII (Michael W. Deem and Ramdas Pophale) SiO2 
 PCOD9156231
Probable space group: P 21/M
;
_chemical_formula_sum "Si O2"
_cell_formula_units_Z 32
_cell_length_a 17.564847
_cell_length_b 7.475782
_cell_length_c 22.435792
_cell_angle_alpha 90.000000
_cell_angle_beta 147.213236
_cell_angle_gamma 90.000000
_cell_volume 1595.335781
_symmetry_space_group_name_H-M "P 21/M"
_symmetry_group_IT_number 11
_symmetry_cell_setting 'monoclinic'
loop_
_space_group_symop_operation_xyz
x,y,z
-x,1/2+y,-z
-x,-y,-z
x,1/2-y,z
loop_
_atom_site_type_symbol
_atom_site_label
_atom_site_fract_x
_atom_site_fract_y
_atom_site_fract_z
Si Si1 0.020766 0.535078 0.251132
Si Si2 0.096312 0.532271 0.434778
Si Si3 0.589329 0.470287 0.333371
Si Si4 0.208497 0.033996 0.735783
Si Si5 0.526757 0.041043 0.164014
Si Si6 0.523297 0.544753 0.616075
Si Si7 0.704025 0.959451 0.628741
Si Si8 0.285420 0.031768 0.919642
O O1 0.021242 0.750000 0.251825
O O2 0.077239 0.476479 0.353253
O O3 0.131141 0.477915 0.274021
O O4 0.858571 0.478837 0.141594
O O5 0.096214 0.750000 0.435127
O O6 0.247104 0.473822 0.557459
O O7 0.953985 0.475022 0.374698
O O8 0.589966 0.250000 0.334613
O O9 0.519601 0.531739 0.226082
O O10 0.513281 0.532899 0.343654
O O11 0.208659 0.250000 0.735708
O O12 0.269449 0.974244 0.840405
O O13 0.314277 0.972693 0.754802
O O14 0.490466 0.250000 0.144715
O O15 0.420979 0.965974 0.044629
O O16 0.564567 0.750000 0.654559
O O17 0.381527 0.543156 0.482711
O O18 0.641346 0.466997 0.649407
O O19 0.667351 0.750000 0.602787
O O20 0.288778 0.250000 0.919329
#
# Coordination Sequence:
#
# PCOD9156231 Si02
#       8
#     4   4   4   4   4   4   4   4
#     4   9  15  28  49  65  86 120 151 178 215 267
#     4   8  14  26  45  64  82 115 155 176 204 267
#     4   9  16  28  47  65  86 120 154 180 209 259
#     4   9  17  30  47  64  86 116 149 184 225 270
#     4  10  19  30  46  68  89 111 151 196 221 248
#     4   9  17  30  46  64  91 126 151 168 211 275
#     4  10  18  26  43  73  97 110 140 189 226 253
#     4   8  16  30  48  68  86 114 154 188 217 257
#
# _framework density 20.058472999999999
#
# number of rings (size 3 to 8) (size 9 to 14) (size 15 to 20)
#    0.000    3.000    1.250    2.250    0.000    1.000 
#    0.000    3.750    0.000    0.750    0.000    0.000 
#    0.000    0.000    0.000    0.000    0.000    0.375 
#
# Total GULP energy -178433.364934 kJ/mol
# GULP energy per Si atom -5576.042654 kJ/mol
# Density = 2.001282 g / cm^3
# Si number density = 20.058473 Si / 1000 Ang^3
#
#
#
# Elastic Constant Matrix: (Units=GPa)
#
#
# Indices 1 2 3 4 5 6 
#
# 1 118.4162 -6.8224 10.7608 0.0000 1.1242 0.0000
# 2 -6.8224 55.4969 -0.7727 0.0000 -4.7937 0.0000
# 3 10.7608 -0.7727 9.4807 0.0000 -0.6828 0.0000
# 4 0.0000 0.0000 0.0000 4.0027 0.0000 7.0292
# 5 1.1242 -4.7937 -0.6828 0.0000 24.1060 0.0000
# 6 0.0000 0.0000 0.0000 7.0292 0.0000 8.5893
#
#
#
# Elastic Compliance Matrix: (Units=1/GPa)
#
#
# Indices 1 2 3 4 5 6 
#
# 1 0.009480 0.000968 -0.010721 0.000000 -0.000553 0.000000
# 2 0.000968 0.018462 0.000668 0.000000 0.003645 0.000000
# 3 -0.010721 0.000668 0.117987 0.000000 0.003975 0.000000
# 4 0.000000 0.000000 0.000000 -0.571471 0.000000 0.467677
# 5 -0.000553 0.003645 0.003975 0.000000 0.042347 0.000000
# 6 0.000000 0.000000 0.000000 0.467677 0.000000 -0.266310
#
#
# Mechanical properties :
#
#
# Convention : Reuss Voigt Hill
#
# Bulk Modulus (GPa) = 7.82715 21.08056 14.45386
# Shear Modulus (GPa) = -8.49258 19.35479 5.43110
#
# Velocity S-wave (km/s) = -2.05988 3.10968 1.64727
# Velocity P-wave (km/s) = 1.32168 4.84003 3.29234
#
# Compressibility (1/GPa) = 0.12776041
#
# Stress axis : x y z
#
# Youngs Moduli (GPa) = 105.48426 54.16467 8.47551
#
# Poissons Ratio (x) = -0.05245 0.09087
# Poissons Ratio (y) = -0.10215 -0.00566
# Poissons Ratio (z) = 1.13090 -0.03620
#
# Static dielectric constant tensor:
#      x y z
#    x 1.723180 0.000000 0.009680 
#    y 0.000000 1.768070 0.000000 
#    z 0.009680 0.000000 1.689630 
# 
# From -- ./inp_files/54350.got.cif
#   From: 2010.05.17/outbox.cif.g08.bks.cpg/sg11_28_cif.got.tgz:54350.got - 2010.06.03 12:22:45.
