data_PCOD9156119
_publ_section_title
;
Structure prediction by ZEFSAII (Michael W. Deem and Ramdas Pophale) SiO2 
 PCOD9156119
Probable space group: P 21/M
;
_chemical_formula_sum "Si O2"
_cell_formula_units_Z 32
_cell_length_a 9.744749
_cell_length_b 13.638758
_cell_length_c 26.176487
_cell_angle_alpha 90.000000
_cell_angle_beta 154.193105
_cell_angle_gamma 90.000000
_cell_volume 1514.554334
_symmetry_space_group_name_H-M "P 21/M"
_symmetry_group_IT_number 11
_symmetry_cell_setting 'monoclinic'
loop_
_space_group_symop_operation_xyz
x,y,z
-x,1/2+y,-z
-x,-y,-z
x,1/2-y,z
loop_
_atom_site_type_symbol
_atom_site_label
_atom_site_fract_x
_atom_site_fract_y
_atom_site_fract_z
Si Si1 0.731323 0.459144 0.638817
Si Si2 0.936415 0.864657 0.345796
Si Si3 0.758214 0.557923 0.990330
Si Si4 0.902099 0.365581 0.265252
Si Si5 0.235936 0.862275 0.066352
Si Si6 0.952620 0.631482 0.573784
Si Si7 0.124381 0.368114 0.562235
Si Si8 0.860824 0.367973 0.786413
O O1 0.380914 0.419476 0.527603
O O2 0.913094 0.414242 0.748339
O O3 0.870908 0.416342 0.633617
O O4 0.799071 0.574364 0.655951
O O5 0.018286 0.750000 0.372036
O O6 0.567100 0.872793 0.207431
O O7 0.985826 0.904282 0.419530
O O8 0.403059 0.595757 0.866347
O O9 0.772165 0.443137 0.980731
O O10 0.961465 0.612901 0.014593
O O11 0.912958 0.585587 0.095722
O O12 0.943825 0.250000 0.273624
O O13 0.849139 0.386920 0.308410
O O14 0.209601 0.750000 0.039900
O O15 0.901894 0.750000 0.555164
O O16 0.054147 0.603427 0.550008
O O17 0.103468 0.250000 0.558730
O O18 0.495877 0.389441 0.679175
O O19 0.895823 0.250000 0.796682
#
# Coordination Sequence:
#
# PCOD9156119 Si02
#       8
#     4   4   4   4   4   4   4   4
#     4  11  21  36  57  86 113 146 193 247 290 326
#     4  10  17  31  56  89 115 134 178 244 296 325
#     4  11  21  37  59  85 119 156 192 229 287 350
#     4  11  23  38  55  79 115 157 195 228 285 360
#     4  10  20  35  58  87 118 151 191 238 287 337
#     4   9  19  37  60  84 112 149 192 238 283 342
#     4   8  15  30  55  85 112 141 183 234 280 326
#     4  10  19  34  58  86 114 148 191 235 283 338
#
# _framework density 21.128329000000001
#
# number of rings (size 3 to 8) (size 9 to 14) (size 15 to 20)
#    0.000    2.000    2.500    3.375    0.000    0.500 
#    0.000    1.250    0.000    1.500    0.000    4.375 
#    0.000    0.000    0.000    0.000    0.000    0.000 
#
# Total GULP energy -178868.409893 kJ/mol
# GULP energy per Si atom -5589.637809 kJ/mol
# Density = 2.108024 g / cm^3
# Si number density = 21.128329 Si / 1000 Ang^3
#
#
#
# Elastic Constant Matrix: (Units=GPa)
#
#
# Indices 1 2 3 4 5 6 
#
# 1 108.7816 45.3336 22.1434 0.0000 -30.7597 0.0000
# 2 45.3336 130.2485 35.3506 0.0000 -25.0375 0.0000
# 3 22.1434 35.3506 69.4477 0.0000 -32.0540 0.0000
# 4 0.0000 0.0000 0.0000 28.6988 0.0000 -4.4359
# 5 -30.7597 -25.0375 -32.0540 0.0000 41.5881 0.0000
# 6 0.0000 0.0000 0.0000 -4.4359 0.0000 25.3944
#
#
#
# Elastic Compliance Matrix: (Units=1/GPa)
#
#
# Indices 1 2 3 4 5 6 
#
# 1 0.012638 -0.003162 0.001576 0.000000 0.008659 0.000000
# 2 -0.003162 0.009931 -0.003674 0.000000 0.000808 0.000000
# 3 0.001576 -0.003674 0.023723 0.000000 0.017239 0.000000
# 4 0.000000 0.000000 0.000000 0.035812 0.000000 0.006256
# 5 0.008659 0.000808 0.017239 0.000000 0.044223 0.000000
# 6 0.000000 0.000000 0.000000 0.006256 0.000000 0.040471
#
#
# Mechanical properties :
#
#
# Convention : Reuss Voigt Hill
#
# Bulk Modulus (GPa) = 27.95352 57.12590 42.53971
# Shear Modulus (GPa) = 26.42125 32.84628 29.63377
#
# Velocity S-wave (km/s) = 3.54010 3.94713 3.74914
# Velocity P-wave (km/s) = 5.47437 6.91877 6.23852
#
# Compressibility (1/GPa) = 0.03577367
#
# Stress axis : x y z
#
# Youngs Moduli (GPa) = 79.12641 100.69815 42.15233
#
# Poissons Ratio (x) = 0.31842 -0.06645
# Poissons Ratio (y) = 0.25021 0.15485
# Poissons Ratio (z) = -0.12474 0.36992
#
# Static dielectric constant tensor:
#      x y z
#    x 1.753470 0.000000 -0.020200 
#    y 0.000000 1.792770 0.000000 
#    z -0.020200 0.000000 1.759190 
# 
# From -- ./inp_files/68155.got.cif
#   From: 2010.05.17/outbox.cif.g08.bks.cpg/sg11_35_cif.got.tgz:68155.got - 2010.06.03 12:22:45.
