data_PCOD9156268
_publ_section_title
;
Structure prediction by ZEFSAII (Michael W. Deem and Ramdas Pophale) SiO2 
 PCOD9156268
Probable space group: P 21/M
;
_chemical_formula_sum "Si O2"
_cell_formula_units_Z 32
_cell_length_a 13.061213
_cell_length_b 7.583672
_cell_length_c 25.055094
_cell_angle_alpha 90.000000
_cell_angle_beta 45.627331
_cell_angle_gamma 90.000000
_cell_volume 1773.974982
_symmetry_space_group_name_H-M "P 21/M"
_symmetry_group_IT_number 11
_symmetry_cell_setting 'monoclinic'
loop_
_space_group_symop_operation_xyz
x,y,z
-x,1/2+y,-z
-x,-y,-z
x,1/2-y,z
loop_
_atom_site_type_symbol
_atom_site_label
_atom_site_fract_x
_atom_site_fract_y
_atom_site_fract_z
Si Si1 0.227290 0.033100 0.678871
Si Si2 0.120825 0.961248 0.000371
Si Si3 0.622731 0.038346 0.680152
Si Si4 0.829882 0.540150 0.418212
Si Si5 0.549499 0.037414 0.587554
Si Si6 0.940264 0.462044 0.580739
Si Si7 0.912689 0.542909 0.162392
Si Si8 0.675468 0.040119 0.160909
O O1 0.227239 0.250000 0.679425
O O2 0.171578 0.972810 0.641721
O O3 0.392162 0.977631 0.627317
O O4 0.134587 0.970856 0.763228
O O5 0.133365 0.750000 0.002323
O O6 0.264131 0.025428 0.918314
O O7 0.050538 0.032231 0.080538
O O8 0.000000 0.000000 0.000000
O O9 0.633448 0.250000 0.672310
O O10 0.587849 0.972393 0.633072
O O11 0.777046 0.972013 0.643162
O O12 0.488419 0.999178 0.766685
O O13 0.852358 0.750000 0.406480
O O14 0.675088 0.512500 0.501406
O O15 0.950989 0.468156 0.414064
O O16 0.544978 0.250000 0.591368
O O17 0.936848 0.250000 0.587438
O O18 0.000000 0.500000 0.500000
O O19 0.940721 0.750000 0.160265
O O20 0.776901 0.530535 0.171561
O O21 0.695267 0.250000 0.154684
#
# Coordination Sequence:
#
# PCOD9156268 Si02
#       8
#     4   4   4   4   4   4   4   4
#     4   9  17  29  45  65  88 115 146 175 207 256
#     4   8  15  25  40  62  88 116 143 171 208 256
#     4  10  19  31  46  63  85 118 151 175 213 266
#     4  10  20  32  46  65  86 110 145 187 221 246
#     4  10  18  30  46  63  87 117 147 174 208 262
#     4  10  20  33  48  64  84 111 146 186 222 257
#     4   9  15  28  46  62  88 124 147 165 209 267
#     4  10  18  27  41  67  94 112 142 185 217 248
#
# _framework density 18.038585000000001
#
# number of rings (size 3 to 8) (size 9 to 14) (size 15 to 20)
#    0.000    2.500    2.500    0.750    0.000    1.500 
#    0.000    0.625    0.000    0.000    0.000    0.875 
#    0.000    0.000    0.000    0.000    0.000    0.000 
#
# Total GULP energy -178392.506734 kJ/mol
# GULP energy per Si atom -5574.765835 kJ/mol
# Density = 1.799753 g / cm^3
# Si number density = 18.038585 Si / 1000 Ang^3
#
#
#
# Elastic Constant Matrix: (Units=GPa)
#
#
# Indices 1 2 3 4 5 6 
#
# 1 109.2776 6.2187 90.8896 0.0000 18.9158 0.0000
# 2 6.2187 39.8744 -2.4484 0.0000 3.7225 0.0000
# 3 90.8896 -2.4484 201.8254 0.0000 6.8596 0.0000
# 4 0.0000 0.0000 0.0000 9.4055 0.0000 -6.8021
# 5 18.9158 3.7225 6.8596 0.0000 16.2652 0.0000
# 6 0.0000 0.0000 0.0000 -6.8021 0.0000 1.9945
#
#
#
# Elastic Compliance Matrix: (Units=1/GPa)
#
#
# Indices 1 2 3 4 5 6 
#
# 1 0.019085 -0.001747 -0.007990 0.000000 -0.018426 0.000000
# 2 -0.001747 0.025840 0.001250 0.000000 -0.004409 0.000000
# 3 -0.007990 0.001250 0.008382 0.000000 0.005471 0.000000
# 4 0.000000 0.000000 0.000000 -0.072505 0.000000 -0.247269
# 5 -0.018426 -0.004409 0.005471 0.000000 0.081612 0.000000
# 6 0.000000 0.000000 0.000000 -0.247269 0.000000 -0.341910
#
#
# Mechanical properties :
#
#
# Convention : Reuss Voigt Hill
#
# Bulk Modulus (GPa) = 27.52264 60.03301 43.77782
# Shear Modulus (GPa) = -19.96716 22.62087 1.32685
#
# Velocity S-wave (km/s) = -3.33064 3.54507 0.85858
# Velocity P-wave (km/s) = 0.70702 7.07879 5.03036
#
# Compressibility (1/GPa) = 0.03633372
#
# Stress axis : x y z
#
# Youngs Moduli (GPa) = 52.39640 38.70030 119.30190
#
# Poissons Ratio (x) = 0.06761 0.95319
# Poissons Ratio (y) = 0.09153 -0.14913
# Poissons Ratio (z) = 0.41863 -0.04838
#
# Static dielectric constant tensor:
#      x y z
#    x 1.597340 0.000000 0.002730 
#    y 0.000000 1.658070 0.000000 
#    z 0.002730 0.000000 1.654140 
# 
# From -- ./inp_files/43748.got.cif
#   From: 2010.05.17/outbox.cif.g08.bks.cpg/sg11_22_cif.got.tgz:43748.got - 2010.06.03 12:22:45.
