data_PCOD9156651
_publ_section_title
;
Structure prediction by ZEFSAII (Michael W. Deem and Ramdas Pophale) SiO2 
 PCOD9156651
Probable space group: P 21/M
;
_chemical_formula_sum "Si O2"
_cell_formula_units_Z 32
_cell_length_a 11.470561
_cell_length_b 16.192396
_cell_length_c 15.168915
_cell_angle_alpha 90.000000
_cell_angle_beta 152.028384
_cell_angle_gamma 90.000000
_cell_volume 1321.462092
_symmetry_space_group_name_H-M "P 21/M"
_symmetry_group_IT_number 11
_symmetry_cell_setting 'monoclinic'
loop_
_space_group_symop_operation_xyz
x,y,z
-x,1/2+y,-z
-x,-y,-z
x,1/2-y,z
loop_
_atom_site_type_symbol
_atom_site_label
_atom_site_fract_x
_atom_site_fract_y
_atom_site_fract_z
Si Si1 0.172898 0.148864 0.440691
Si Si2 0.227720 0.912101 0.970563
Si Si3 0.192638 0.846782 0.659592
Si Si4 0.165247 0.157642 0.170384
Si Si5 0.463001 0.593448 0.443848
Si Si6 0.602068 0.847114 0.089152
Si Si7 0.387592 0.414213 0.152737
Si Si8 0.980574 0.657953 0.211027
O O1 0.161075 0.250000 0.422501
O O2 0.440100 0.112326 0.590180
O O3 0.980890 0.103806 0.244630
O O4 0.069097 0.131199 0.469384
O O5 0.102456 0.866071 0.969626
O O6 0.282682 0.004646 0.036299
O O7 0.482532 0.880568 0.097962
O O8 0.182985 0.750000 0.627999
O O9 0.385691 0.857030 0.870855
O O10 0.319824 0.900172 0.667494
O O11 0.158227 0.250000 0.129922
O O12 0.357731 0.152566 0.379549
O O13 0.282248 0.093561 0.179897
O O14 0.500000 0.500000 0.500000
O O15 0.188211 0.614548 0.291585
O O16 0.641927 0.750000 0.126887
O O17 0.857810 0.880895 0.217455
O O18 0.254066 0.340040 0.011041
O O19 0.069960 0.750000 0.292100
#
# Coordination Sequence:
#
# PCOD9156651 Si02
#       8
#     4   4   4   4   4   4   4   4
#     4   9  17  32  53  76 104 142 184 217 253 309
#     4  10  18  29  49  76 105 133 171 219 261 298
#     4   8  15  29  49  74 103 137 177 215 252 303
#     4  11  22  38  56  74 104 147 183 207 251 323
#     4  11  22  35  54  78 103 133 175 224 267 305
#     4   8  15  28  48  74 102 133 172 216 259 303
#     4  11  21  32  52  83 112 135 167 215 268 313
#     4  10  19  33  53  78 106 135 171 216 264 310
#
# _framework density 24.215600999999999
#
# number of rings (size 3 to 8) (size 9 to 14) (size 15 to 20)
#    0.000    2.250    0.000    7.500    0.000    5.500 
#    0.000    0.000    0.000    4.500    0.000    3.500 
#    0.000    0.000    0.000    0.000    0.000    0.000 
#
# Total GULP energy -178533.397513 kJ/mol
# GULP energy per Si atom -5579.168672 kJ/mol
# Density = 2.416049 g / cm^3
# Si number density = 24.215601 Si / 1000 Ang^3
#
#
#
# Elastic Constant Matrix: (Units=GPa)
#
#
# Indices 1 2 3 4 5 6 
#
# 1 142.6577 11.0876 42.4882 0.0000 63.3175 0.0000
# 2 11.0876 58.3491 3.2392 0.0000 12.1173 0.0000
# 3 42.4882 3.2392 69.0732 0.0000 18.8820 0.0000
# 4 0.0000 0.0000 0.0000 9.8392 0.0000 9.8933
# 5 63.3175 12.1173 18.8820 0.0000 43.9302 0.0000
# 6 0.0000 0.0000 0.0000 9.8933 0.0000 -45.9875
#
#
#
# Elastic Compliance Matrix: (Units=1/GPa)
#
#
# Indices 1 2 3 4 5 6 
#
# 1 0.021304 0.002281 -0.005264 0.000000 -0.029072 0.000000
# 2 0.002281 0.018445 0.000024 0.000000 -0.008386 0.000000
# 3 -0.005264 0.000024 0.017725 0.000000 -0.000038 0.000000
# 4 0.000000 0.000000 0.000000 0.083559 0.000000 0.017976
# 5 -0.029072 -0.008386 -0.000038 0.000000 0.066995 0.000000
# 6 0.000000 0.000000 0.000000 0.017976 0.000000 -0.017878
#
#
# Mechanical properties :
#
#
# Convention : Reuss Voigt Hill
#
# Bulk Modulus (GPa) = 19.39619 42.63446 31.01533
# Shear Modulus (GPa) = 23.44640 15.77405 19.61023
#
# Velocity S-wave (km/s) = 3.11502 2.55502 2.84882
# Velocity P-wave (km/s) = 4.57876 5.13309 4.86383
#
# Compressibility (1/GPa) = 0.05155651
#
# Stress axis : x y z
#
# Youngs Moduli (GPa) = 46.93992 54.21531 56.41869
#
# Poissons Ratio (x) = -0.12369 0.29699
# Poissons Ratio (y) = -0.10709 -0.00136
# Poissons Ratio (z) = 0.24710 -0.00131
#
# Static dielectric constant tensor:
#      x y z
#    x 2.083050 0.000000 0.011400 
#    y 0.000000 1.903220 0.000000 
#    z 0.011400 0.000000 1.998090 
# 
# From -- ./inp_files/59475.got.cif
#   From: 2010.05.17/outbox.cif.g08.bks.cpg/sg11_30_cif.got.tgz:59475.got - 2010.06.03 12:22:45.
