data_PCOD9156138
_publ_section_title
;
Structure prediction by ZEFSAII (Michael W. Deem and Ramdas Pophale) SiO2 
 PCOD9156138
Probable space group: P 21/M
;
_chemical_formula_sum "Si O2"
_cell_formula_units_Z 32
_cell_length_a 19.939658
_cell_length_b 16.753877
_cell_length_c 10.844192
_cell_angle_alpha 90.000000
_cell_angle_beta 152.803266
_cell_angle_gamma 90.000000
_cell_volume 1655.736813
_symmetry_space_group_name_H-M "P 21/M"
_symmetry_group_IT_number 11
_symmetry_cell_setting 'monoclinic'
loop_
_space_group_symop_operation_xyz
x,y,z
-x,1/2+y,-z
-x,-y,-z
x,1/2-y,z
loop_
_atom_site_type_symbol
_atom_site_label
_atom_site_fract_x
_atom_site_fract_y
_atom_site_fract_z
Si Si1 0.582418 0.157558 0.784985
Si Si2 0.896128 0.575944 0.302403
Si Si3 0.714086 0.032236 0.840397
Si Si4 0.157561 0.840968 0.603274
Si Si5 0.325655 0.435986 0.474307
Si Si6 0.966694 0.840592 0.943078
Si Si7 0.195340 0.547152 0.451184
Si Si8 0.966669 0.901071 0.682378
O O1 0.551842 0.250000 0.702847
O O2 0.463001 0.122526 0.684302
O O3 0.594216 0.094710 0.692685
O O4 0.740961 0.154025 0.110200
O O5 0.883445 0.615444 0.417112
O O6 0.000000 0.500000 0.500000
O O7 0.994308 0.628636 0.370278
O O8 0.754356 0.537336 0.005905
O O9 0.679982 0.990622 0.656135
O O10 0.863370 0.083060 0.067578
O O11 0.150384 0.750000 0.552072
O O12 0.235554 0.892993 0.625965
O O13 0.315464 0.496135 0.573851
O O14 0.179641 0.381680 0.243050
O O15 0.986443 0.750000 0.019285
O O16 0.098072 0.899951 0.197989
O O17 0.952954 0.840352 0.772361
O O18 0.094947 0.482294 0.357283
#
# Coordination Sequence:
#
# PCOD9156138 Si02
#       8
#     4   4   4   4   4   4   4   4
#     4  11  24  38  55  81 111 144 185 228 274 328
#     4  10  17  33  59  83 112 141 178 230 278 323
#     4  11  18  37  61  82 107 144 185 230 268 329
#     4  11  21  34  55  85 114 142 181 231 278 319
#     4  11  22  38  56  77 113 153 187 214 266 341
#     4  11  21  33  55  84 114 142 176 231 283 317
#     4  11  19  36  56  80 111 141 185 230 269 327
#     4  10  17  32  56  84 108 139 177 227 273 328
#
# _framework density 19.326743
#
# number of rings (size 3 to 8) (size 9 to 14) (size 15 to 20)
#    0.000    1.250    7.500    1.875    0.000    1.500 
#    0.000    0.625    0.000    0.000    0.000    0.000 
#    0.000    0.000    0.000    0.000    0.000    0.000 
#
# Total GULP energy -178436.152285 kJ/mol
# GULP energy per Si atom -5576.129759 kJ/mol
# Density = 1.928275 g / cm^3
# Si number density = 19.326743 Si / 1000 Ang^3
#
#
#
# Elastic Constant Matrix: (Units=GPa)
#
#
# Indices 1 2 3 4 5 6 
#
# 1 106.6625 32.2190 18.6648 0.0000 2.4245 0.0000
# 2 32.2190 82.1573 21.7237 0.0000 14.5871 0.0000
# 3 18.6648 21.7237 22.9269 0.0000 8.2757 0.0000
# 4 0.0000 0.0000 0.0000 17.0768 0.0000 1.8632
# 5 2.4245 14.5871 8.2757 0.0000 28.2374 0.0000
# 6 0.0000 0.0000 0.0000 1.8632 0.0000 17.2874
#
#
#
# Elastic Compliance Matrix: (Units=1/GPa)
#
#
# Indices 1 2 3 4 5 6 
#
# 1 0.011545 -0.003030 -0.007532 0.000000 0.002781 0.000000
# 2 -0.003030 0.017526 -0.012262 0.000000 -0.005200 0.000000
# 3 -0.007532 -0.012262 0.065810 0.000000 -0.012306 0.000000
# 4 0.000000 0.000000 0.000000 0.059256 0.000000 -0.006386
# 5 0.002781 -0.005200 -0.012306 0.000000 0.041468 0.000000
# 6 0.000000 0.000000 0.000000 -0.006386 0.000000 0.058534
#
#
# Mechanical properties :
#
#
# Convention : Reuss Voigt Hill
#
# Bulk Modulus (GPa) = 20.31209 39.66241 29.98725
# Shear Modulus (GPa) = 15.81287 21.79625 18.80456
#
# Velocity S-wave (km/s) = 2.86350 3.36188 3.12265
# Velocity P-wave (km/s) = 4.63309 5.96961 5.34330
#
# Compressibility (1/GPa) = 0.04923176
#
# Stress axis : x y z
#
# Youngs Moduli (GPa) = 86.61436 57.05961 15.19531
#
# Poissons Ratio (x) = 0.17288 0.11446
# Poissons Ratio (y) = 0.26243 0.18633
# Poissons Ratio (z) = 0.65240 0.69968
#
# Static dielectric constant tensor:
#      x y z
#    x 1.729440 0.000000 -0.029040 
#    y 0.000000 1.688740 0.000000 
#    z -0.029040 0.000000 1.691900 
# 
# From -- ./inp_files/41737.got.cif
#   From: 2010.05.17/outbox.cif.g08.bks.cpg/sg11_21_cif.got.tgz:41737.got - 2010.06.03 12:22:45.
