data_PCOD9156235
_publ_section_title
;
Structure prediction by ZEFSAII (Michael W. Deem and Ramdas Pophale) SiO2 
 PCOD9156235
Probable space group: P 21/M
;
_chemical_formula_sum "Si O2"
_cell_formula_units_Z 30
_cell_length_a 16.915970
_cell_length_b 7.292015
_cell_length_c 15.814294
_cell_angle_alpha 90.000000
_cell_angle_beta 34.643783
_cell_angle_gamma 90.000000
_cell_volume 1108.929134
_symmetry_space_group_name_H-M "P 21/M"
_symmetry_group_IT_number 11
_symmetry_cell_setting 'monoclinic'
loop_
_space_group_symop_operation_xyz
x,y,z
-x,1/2+y,-z
-x,-y,-z
x,1/2-y,z
loop_
_atom_site_type_symbol
_atom_site_label
_atom_site_fract_x
_atom_site_fract_y
_atom_site_fract_z
Si Si1 0.643379 0.250000 0.073630
Si Si2 0.852178 0.468883 0.082260
Si Si3 0.693117 0.532795 0.876281
Si Si4 0.004504 0.953998 0.603074
Si Si5 0.705056 0.028593 0.371182
Si Si6 0.495888 0.970588 0.305001
Si Si7 0.692366 0.030418 0.690568
Si Si8 0.995475 0.537777 0.207561
O O1 0.625986 0.409793 0.163377
O O2 0.647729 0.410322 0.994907
O O3 0.841443 0.250000 0.086182
O O4 0.731970 0.537393 0.251437
O O5 0.000000 0.500000 0.000000
O O6 0.893419 0.543972 0.954607
O O7 0.689828 0.750000 0.900996
O O8 0.629263 0.513825 0.837964
O O9 0.853198 0.467714 0.719126
O O10 0.004162 0.750000 0.565914
O O11 0.150502 0.044254 0.451738
O O12 0.009572 0.942289 0.699323
O O13 0.704418 0.250000 0.370290
O O14 0.574558 0.974818 0.543732
O O15 0.843331 0.969305 0.300280
O O16 0.513786 0.750000 0.287080
O O17 0.390022 0.027962 0.320956
O O18 0.698128 0.250000 0.679103
O O19 0.037515 0.750000 0.187145
#
# Coordination Sequence:
#
# PCOD9156235 Si02
#       8
#     2   4   4   4   4   4   4   4
#     4  12  26  44  60  80 116 148 198 246 288 322
#     4   8  15  26  42  73 114 155 179 212 268 335
#     4  11  25  43  60  83 111 150 194 239 290 342
#     4  10  21  37  60  82 115 149 186 229 285 348
#     4   9  16  31  51  74 117 154 183 223 274 335
#     4  10  22  38  60  87 113 152 192 234 282 339
#     4  10  20  39  60  87 114 147 187 234 291 346
#     4  10  18  26  48  83 119 149 183 220 274 345
#
# _framework density 27.053127
#
# number of rings (size 3 to 8) (size 9 to 14) (size 15 to 20)
#    0.000    2.133    2.000    1.200    2.800    1.600 
#    0.000    0.000    0.000    0.000    0.000    0.933 
#    0.000    0.000    0.000    0.000    0.000    0.000 
#
# Total GULP energy -167363.874755 kJ/mol
# GULP energy per Si atom -5578.795825 kJ/mol
# Density = 2.699155 g / cm^3
# Si number density = 27.053127 Si / 1000 Ang^3
#
#
#
# Elastic Constant Matrix: (Units=GPa)
#
#
# Indices 1 2 3 4 5 6 
#
# 1 47.2208 1.8057 67.1136 0.0000 8.2181 0.0000
# 2 1.8057 165.3278 28.5196 0.0000 10.5247 0.0000
# 3 67.1136 28.5196 186.0638 0.0000 43.8402 0.0000
# 4 0.0000 0.0000 0.0000 79.0694 0.0000 36.7804
# 5 8.2181 10.5247 43.8402 0.0000 55.0798 0.0000
# 6 0.0000 0.0000 0.0000 36.7804 0.0000 20.1443
#
#
#
# Elastic Compliance Matrix: (Units=1/GPa)
#
#
# Indices 1 2 3 4 5 6 
#
# 1 0.046857 0.002286 -0.019080 0.000000 0.007758 0.000000
# 2 0.002286 0.006337 -0.001760 0.000000 -0.000151 0.000000
# 3 -0.019080 -0.001760 0.014495 0.000000 -0.008354 0.000000
# 4 0.000000 0.000000 0.000000 0.083936 0.000000 -0.153254
# 5 0.007758 -0.000151 -0.008354 0.000000 0.023676 0.000000
# 6 0.000000 0.000000 0.000000 -0.153254 0.000000 0.329461
#
#
# Mechanical properties :
#
#
# Convention : Reuss Voigt Hill
#
# Bulk Modulus (GPa) = 32.70114 65.94337 49.32225
# Shear Modulus (GPa) = 9.05693 50.93694 29.99694
#
# Velocity S-wave (km/s) = 1.83169 4.34389 3.33350
# Velocity P-wave (km/s) = 4.07277 7.04184 5.75217
#
# Compressibility (1/GPa) = 0.03057997
#
# Stress axis : x y z
#
# Youngs Moduli (GPa) = 21.34150 157.80664 68.99048
#
# Poissons Ratio (x) = -0.36069 1.31633
# Poissons Ratio (y) = -0.04878 0.12144
# Poissons Ratio (z) = 0.40719 0.27777
#
# Static dielectric constant tensor:
#      x y z
#    x 2.209800 0.000000 -0.100460 
#    y 0.000000 2.053580 0.000000 
#    z -0.100460 0.000000 2.180550 
# 
# From -- ./inp_files/61358.got.cif
#   From: 2010.05.17/outbox.cif.g08.bks.cpg/sg11_31_cif.got.tgz:61358.got - 2010.06.03 12:22:45.
