data_PCOD9156669
_publ_section_title
;
Structure prediction by ZEFSAII (Michael W. Deem and Ramdas Pophale) SiO2 
 PCOD9156669
Probable space group: P 21/M
;
_chemical_formula_sum "Si O2"
_cell_formula_units_Z 32
_cell_length_a 16.691866
_cell_length_b 17.001862
_cell_length_c 5.216501
_cell_angle_alpha 90.000000
_cell_angle_beta 95.976942
_cell_angle_gamma 90.000000
_cell_volume 1472.357777
_symmetry_space_group_name_H-M "P 21/M"
_symmetry_group_IT_number 11
_symmetry_cell_setting 'monoclinic'
loop_
_space_group_symop_operation_xyz
x,y,z
-x,1/2+y,-z
-x,-y,-z
x,1/2-y,z
loop_
_atom_site_type_symbol
_atom_site_label
_atom_site_fract_x
_atom_site_fract_y
_atom_site_fract_z
Si Si1 0.489554 0.154616 0.211998
Si Si2 0.840217 0.158675 0.436121
Si Si3 0.763174 0.087028 0.909883
Si Si4 0.988063 0.071573 0.302219
Si Si5 0.687604 0.841715 0.741667
Si Si6 0.411172 0.845524 0.251255
Si Si7 0.207872 0.340345 0.703859
Si Si8 0.125090 0.044531 0.009880
O O1 0.483346 0.250000 0.201871
O O2 0.400787 0.122541 0.247396
O O3 0.551535 0.136018 0.459735
O O4 0.524916 0.132541 0.948249
O O5 0.825877 0.250000 0.395087
O O6 0.813444 0.133326 0.709566
O O7 0.933616 0.137446 0.415482
O O8 0.787408 0.113348 0.204963
O O9 0.671154 0.108652 0.827767
O O10 0.790596 0.996464 0.890581
O O11 0.929341 0.031951 0.070147
O O12 0.000000 0.000000 0.500000
O O13 0.072843 0.091854 0.199765
O O14 0.673995 0.750000 0.661976
O O15 0.742495 0.869824 0.524413
O O16 0.734135 0.839930 0.026869
O O17 0.396822 0.750000 0.233450
O O18 0.180509 0.250000 0.652011
O O19 0.138791 0.399992 0.770981
#
# Coordination Sequence:
#
# PCOD9156669 Si02
#       8
#     4   4   4   4   4   4   4   4
#     4   9  17  30  51  78 110 147 183 227 280 329
#     4  11  22  37  59  85 114 149 189 236 283 328
#     4  11  22  37  56  82 118 154 187 230 282 343
#     4  10  21  41  60  81 112 151 190 226 277 351
#     4   9  18  34  55  82 114 146 184 233 288 337
#     4  10  18  29  50  79 108 141 187 232 271 324
#     4  10  21  36  59  88 113 143 191 243 283 327
#     4  10  23  39  61  82 113 153 190 228 286 347
#
# _framework density 21.733847000000001
#
# number of rings (size 3 to 8) (size 9 to 14) (size 15 to 20)
#    0.000    2.000    1.250    2.625    1.750    4.500 
#    0.000    0.625    0.000    4.500    0.000    0.000 
#    0.000    0.000    0.000    0.000    0.000    0.000 
#
# Total GULP energy -178659.104499 kJ/mol
# GULP energy per Si atom -5583.097016 kJ/mol
# Density = 2.168438 g / cm^3
# Si number density = 21.733847 Si / 1000 Ang^3
#
#
#
# Elastic Constant Matrix: (Units=GPa)
#
#
# Indices 1 2 3 4 5 6 
#
# 1 65.4410 19.3025 10.0634 0.0000 -22.4578 0.0000
# 2 19.3025 41.4514 -7.0056 0.0000 -9.1796 0.0000
# 3 10.0634 -7.0056 69.3216 0.0000 -16.5843 0.0000
# 4 0.0000 0.0000 0.0000 25.6280 0.0000 1.6615
# 5 -22.4578 -9.1796 -16.5843 0.0000 31.4280 0.0000
# 6 0.0000 0.0000 0.0000 1.6615 0.0000 16.5610
#
#
#
# Elastic Compliance Matrix: (Units=1/GPa)
#
#
# Indices 1 2 3 4 5 6 
#
# 1 0.022160 -0.007534 -0.000820 0.000000 0.013202 0.000000
# 2 -0.007534 0.029995 0.005646 0.000000 0.006357 0.000000
# 3 -0.000820 0.005646 0.017590 0.000000 0.010345 0.000000
# 4 0.000000 0.000000 0.000000 0.039275 0.000000 -0.003940
# 5 0.013202 0.006357 0.010345 0.000000 0.048568 0.000000
# 6 0.000000 0.000000 0.000000 -0.003940 0.000000 0.060778
#
#
# Mechanical properties :
#
#
# Convention : Reuss Voigt Hill
#
# Bulk Modulus (GPa) = 15.54535 24.54832 20.04683
# Shear Modulus (GPa) = 20.38937 24.98030 22.68483
#
# Velocity S-wave (km/s) = 3.06623 3.39392 3.23423
# Velocity P-wave (km/s) = 4.43890 5.16505 4.81568
#
# Compressibility (1/GPa) = 0.06432794
#
# Stress axis : x y z
#
# Youngs Moduli (GPa) = 45.12676 33.33906 56.85028
#
# Poissons Ratio (x) = 0.25118 0.04662
# Poissons Ratio (y) = 0.33999 -0.32096
# Poissons Ratio (z) = 0.03700 -0.18822
#
# Static dielectric constant tensor:
#      x y z
#    x 1.858030 0.000000 0.019600 
#    y 0.000000 1.802800 0.000000 
#    z 0.019600 0.000000 1.796010 
# 
# From -- ./inp_files/6846.got.cif
#   From: 2010.05.17/outbox.cif.g08.bks.cpg/sg11_4_cif.got.tgz:6846.got - 2010.06.03 12:22:45.
