data_PCOD9156445
_publ_section_title
;
Structure prediction by ZEFSAII (Michael W. Deem and Ramdas Pophale) SiO2 
 PCOD9156445
Probable space group: P 21/M
;
_chemical_formula_sum "Si O2"
_cell_formula_units_Z 32
_cell_length_a 20.518422
_cell_length_b 9.056543
_cell_length_c 22.249129
_cell_angle_alpha 90.000000
_cell_angle_beta 25.951974
_cell_angle_gamma 90.000000
_cell_volume 1809.315144
_symmetry_space_group_name_H-M "P 21/M"
_symmetry_group_IT_number 11
_symmetry_cell_setting 'monoclinic'
loop_
_space_group_symop_operation_xyz
x,y,z
-x,1/2+y,-z
-x,-y,-z
x,1/2-y,z
loop_
_atom_site_type_symbol
_atom_site_label
_atom_site_fract_x
_atom_site_fract_y
_atom_site_fract_z
Si Si1 0.022940 0.924940 0.544947
Si Si2 0.636576 0.425775 0.070043
Si Si3 0.205855 0.073701 0.572944
Si Si4 0.836164 0.424600 0.266731
Si Si5 0.161620 0.073680 0.856380
Si Si6 0.336601 0.925260 0.349843
Si Si7 0.106612 0.573962 0.234224
Si Si8 0.195947 0.422777 0.961382
O O1 0.002710 0.750000 0.556737
O O2 0.188993 0.953565 0.432826
O O3 0.000000 0.000000 0.500000
O O4 0.914846 0.990503 0.685559
O O5 0.615117 0.250000 0.087195
O O6 0.480593 0.508954 0.198529
O O7 0.746166 0.466597 0.924537
O O8 0.720257 0.474580 0.061474
O O9 0.224272 0.250000 0.561121
O O10 0.037882 0.042633 0.687728
O O11 0.222175 0.999842 0.624340
O O12 0.312350 0.004318 0.434123
O O13 0.806432 0.250000 0.290784
O O14 0.776274 0.500959 0.255622
O O15 0.017050 0.443391 0.115748
O O16 0.145456 0.250000 0.862192
O O17 0.240615 0.048471 0.854983
O O18 0.000000 0.000000 0.000000
O O19 0.350532 0.750000 0.347266
O O20 0.107010 0.750000 0.244651
O O21 0.226712 0.250000 0.949138
#
# Coordination Sequence:
#
# PCOD9156445 Si02
#       8
#     4   4   4   4   4   4   4   4
#     4  10  21  38  62  86 110 142 177 214 258 308
#     4  11  21  34  54  81 110 143 179 220 268 315
#     4  10  18  32  53  77 105 139 178 226 272 315
#     4  10  18  28  46  73 103 137 178 225 273 321
#     4   9  17  28  42  66  99 136 177 223 274 322
#     4  10  22  38  55  80 111 143 177 216 263 317
#     4   9  19  34  54  82 111 139 177 220 261 308
#     4   9  18  30  46  70 103 141 177 219 270 320
#
# _framework density 17.686249
#
# number of rings (size 3 to 8) (size 9 to 14) (size 15 to 20)
#    0.000    2.250    1.250    3.000    0.000    5.500 
#    0.000    0.625    0.000    0.750    0.000    0.000 
#    0.000    0.000    0.000    0.000    0.000    0.000 
#
# Total GULP energy -178549.578317 kJ/mol
# GULP energy per Si atom -5579.674322 kJ/mol
# Density = 1.764599 g / cm^3
# Si number density = 17.686249 Si / 1000 Ang^3
#
#
#
# Elastic Constant Matrix: (Units=GPa)
#
#
# Indices 1 2 3 4 5 6 
#
# 1 80.9687 56.2558 51.4356 0.0000 39.2512 0.0000
# 2 56.2558 74.1569 56.8079 0.0000 19.9297 0.0000
# 3 51.4356 56.8079 111.4384 0.0000 21.6906 0.0000
# 4 0.0000 0.0000 0.0000 30.4237 0.0000 6.5095
# 5 39.2512 19.9297 21.6906 0.0000 28.4216 0.0000
# 6 0.0000 0.0000 0.0000 6.5095 0.0000 31.7123
#
#
#
# Elastic Compliance Matrix: (Units=1/GPa)
#
#
# Indices 1 2 3 4 5 6 
#
# 1 0.076898 -0.035411 -0.001884 0.000000 -0.079930 0.000000
# 2 -0.035411 0.040147 -0.009584 0.000000 0.028066 0.000000
# 3 -0.001884 -0.009584 0.015167 0.000000 -0.002253 0.000000
# 4 0.000000 0.000000 0.000000 0.034379 0.000000 -0.007057
# 5 -0.079930 0.028066 -0.002253 0.000000 0.127610 0.000000
# 6 0.000000 0.000000 0.000000 -0.007057 0.000000 0.032982
#
#
# Mechanical properties :
#
#
# Convention : Reuss Voigt Hill
#
# Bulk Modulus (GPa) = 26.00495 66.17363 46.08929
# Shear Modulus (GPa) = 11.52715 24.91583 18.22149
#
# Velocity S-wave (km/s) = 2.55572 3.75743 3.21325
# Velocity P-wave (km/s) = 4.84194 7.50472 6.31527
#
# Compressibility (1/GPa) = 0.03845421
#
# Stress axis : x y z
#
# Youngs Moduli (GPa) = 13.00430 24.90850 65.93068
#
# Poissons Ratio (x) = 0.88202 0.12421
# Poissons Ratio (y) = 0.46049 0.63191
# Poissons Ratio (z) = 0.02450 0.23873
#
# Static dielectric constant tensor:
#      x y z
#    x 1.596300 0.000000 -0.000790 
#    y 0.000000 1.583630 0.000000 
#    z -0.000790 0.000000 1.600660 
# 
# From -- ./inp_files/66415.got.cif
#   From: 2010.05.17/outbox.cif.g08.bks.cpg/sg11_34_cif.got.tgz:66415.got - 2010.06.03 12:22:45.
