data_PCOD9156258
_publ_section_title
;
Structure prediction by ZEFSAII (Michael W. Deem and Ramdas Pophale) SiO2 
 PCOD9156258
Probable space group: P 21/M
;
_chemical_formula_sum "Si O2"
_cell_formula_units_Z 32
_cell_length_a 19.319299
_cell_length_b 8.685938
_cell_length_c 27.661478
_cell_angle_alpha 90.000000
_cell_angle_beta 151.857242
_cell_angle_gamma 90.000000
_cell_volume 2189.383162
_symmetry_space_group_name_H-M "P 21/M"
_symmetry_group_IT_number 11
_symmetry_cell_setting 'monoclinic'
loop_
_space_group_symop_operation_xyz
x,y,z
-x,1/2+y,-z
-x,-y,-z
x,1/2-y,z
loop_
_atom_site_type_symbol
_atom_site_label
_atom_site_fract_x
_atom_site_fract_y
_atom_site_fract_z
Si Si1 0.772617 0.435691 0.852379
Si Si2 0.090651 0.934332 0.626762
Si Si3 0.472407 0.935169 0.229403
Si Si4 0.363769 0.934346 0.978805
Si Si5 0.698976 0.565668 0.162860
Si Si6 0.791141 0.434347 0.406167
Si Si7 0.743450 0.564824 0.986436
Si Si8 0.011805 0.064322 0.932046
O O1 0.776434 0.250000 0.856122
O O2 0.612145 0.480811 0.772906
O O3 0.848026 0.483898 0.848043
O O4 0.881010 0.500124 0.960349
O O5 0.084834 0.750000 0.625683
O O6 0.175153 0.977582 0.629016
O O7 0.178647 0.000035 0.726215
O O8 0.927136 0.000427 0.520525
O O9 0.474676 0.750000 0.227389
O O10 0.635618 0.999183 0.326368
O O11 0.375079 0.999999 0.125017
O O12 0.354520 0.750000 0.973208
O O13 0.536737 0.977585 0.082874
O O14 0.292110 0.000879 0.982862
O O15 0.292685 0.999506 0.886076
O O16 0.707336 0.750000 0.166472
O O17 0.789511 0.250000 0.408164
O O18 0.732932 0.750000 0.980159
O O19 0.905622 0.519071 0.066377
O O20 0.015280 0.250000 0.935568
#
# Coordination Sequence:
#
# PCOD9156258 Si02
#       8
#     4   4   4   4   4   4   4   4
#     4   8  14  24  37  54  78 109 142 173 206 245
#     4  10  20  33  48  64  84 111 142 176 214 253
#     4  10  18  27  41  61  86 115 146 179 213 250
#     4  10  20  32  46  64  86 112 143 177 211 250
#     4  10  20  33  48  64  84 111 142 176 214 253
#     4  10  20  32  46  64  86 112 143 177 211 250
#     4  10  18  27  41  61  86 115 146 179 213 250
#     4   8  14  24  37  54  78 109 142 173 206 245
#
# _framework density 14.615988
#
# number of rings (size 3 to 8) (size 9 to 14) (size 15 to 20)
#    0.000    2.500    0.000    3.000    0.000    6.000 
#    0.000    0.000    0.000    0.000    0.000    0.000 
#    0.000    1.000    0.000    2.750    0.000    4.500 
#
# Total GULP energy -178221.770379 kJ/mol
# GULP energy per Si atom -5569.430324 kJ/mol
# Density = 1.458272 g / cm^3
# Si number density = 14.615988 Si / 1000 Ang^3
#
#
#
# Elastic Constant Matrix: (Units=GPa)
#
#
# Indices 1 2 3 4 5 6 
#
# 1 152.1076 38.7718 72.9510 0.0000 21.5740 0.0000
# 2 38.7718 35.6843 30.1374 0.0000 2.5861 0.0000
# 3 72.9510 30.1374 88.2306 0.0000 -0.9916 0.0000
# 4 0.0000 0.0000 0.0000 21.6551 0.0000 -1.9990
# 5 21.5740 2.5861 -0.9916 0.0000 13.6195 0.0000
# 6 0.0000 0.0000 0.0000 -1.9990 0.0000 15.5601
#
#
#
# Elastic Compliance Matrix: (Units=1/GPa)
#
#
# Indices 1 2 3 4 5 6 
#
# 1 0.019366 -0.007070 -0.013938 0.000000 -0.030348 0.000000
# 2 -0.007070 0.042967 -0.008803 0.000000 0.002400 0.000000
# 3 -0.013938 -0.008803 0.026153 0.000000 0.025654 0.000000
# 4 0.000000 0.000000 0.000000 0.046733 0.000000 0.006004
# 5 -0.030348 0.002400 0.025654 0.000000 0.122909 0.000000
# 6 0.000000 0.000000 0.000000 0.006004 0.000000 0.065038
#
#
# Mechanical properties :
#
#
# Convention : Reuss Voigt Hill
#
# Bulk Modulus (GPa) = 34.64728 62.19366 48.42047
# Shear Modulus (GPa) = 12.74178 19.11109 15.92643
#
# Velocity S-wave (km/s) = 2.95578 3.61992 3.30458
# Velocity P-wave (km/s) = 5.95024 7.75345 6.91091
#
# Compressibility (1/GPa) = 0.02886229
#
# Stress axis : x y z
#
# Youngs Moduli (GPa) = 51.63815 23.27382 38.23595
#
# Poissons Ratio (x) = 0.16456 0.53293
# Poissons Ratio (y) = 0.36510 0.33661
# Poissons Ratio (z) = 0.71972 0.20489
#
# Static dielectric constant tensor:
#      x y z
#    x 1.521910 0.000000 0.024170 
#    y 0.000000 1.470670 0.000000 
#    z 0.024170 0.000000 1.448320 
# 
# From -- ./inp_files/61744.got.cif
#   From: 2010.05.17/outbox.cif.g08.bks.cpg/sg11_31_cif.got.tgz:61744.got - 2010.06.03 12:22:45.
