data_PCOD9156285
_publ_section_title
;
Structure prediction by ZEFSAII (Michael W. Deem and Ramdas Pophale) SiO2 
 PCOD9156285
Probable space group: P 21/M
;
_chemical_formula_sum "Si O2"
_cell_formula_units_Z 32
_cell_length_a 14.330108
_cell_length_b 9.001149
_cell_length_c 16.633427
_cell_angle_alpha 90.000000
_cell_angle_beta 86.556916
_cell_angle_gamma 90.000000
_cell_volume 2141.630381
_symmetry_space_group_name_H-M "P 21/M"
_symmetry_group_IT_number 11
_symmetry_cell_setting 'monoclinic'
loop_
_space_group_symop_operation_xyz
x,y,z
-x,1/2+y,-z
-x,-y,-z
x,1/2-y,z
loop_
_atom_site_type_symbol
_atom_site_label
_atom_site_fract_x
_atom_site_fract_y
_atom_site_fract_z
Si Si1 0.930622 0.928312 0.068321
Si Si2 0.471171 0.072057 0.917097
Si Si3 0.983824 0.426893 0.234224
Si Si4 0.195552 0.426936 0.282386
Si Si5 0.666128 0.428524 0.851082
Si Si6 0.078312 0.421077 0.604065
Si Si7 0.276420 0.428587 0.981745
Si Si8 0.862120 0.078863 0.554623
O O1 0.940572 0.750000 0.067534
O O2 0.824449 0.965352 0.048465
O O3 0.954798 0.992539 0.154258
O O4 0.000000 0.000000 0.000000
O O5 0.476119 0.250000 0.923799
O O6 0.555389 0.030330 0.853020
O O7 0.361567 0.034270 0.915953
O O8 0.500000 0.000000 0.000000
O O9 0.972311 0.250000 0.227667
O O10 0.925534 0.489090 0.312822
O O11 0.093376 0.456218 0.248096
O O12 0.207342 0.250000 0.285612
O O13 0.273786 0.500188 0.222756
O O14 0.192404 0.495338 0.371768
O O15 0.675118 0.250000 0.849097
O O16 0.704254 0.490015 0.934660
O O17 0.105202 0.250000 0.615473
O O18 0.138701 0.496971 0.530921
O O19 0.970994 0.421706 0.577326
O O20 0.278759 0.250000 0.996331
O O21 0.832965 0.250000 0.549199
#
# Coordination Sequence:
#
# PCOD9156285 Si02
#       8
#     4   4   4   4   4   4   4   4
#     4  11  22  33  45  61  83 113 147 181 215 249
#     4   8  15  28  44  61  80 103 134 171 211 255
#     4  10  20  32  44  59  82 114 149 181 211 244
#     4  10  19  29  41  59  86 117 144 171 208 253
#     4  10  18  27  43  65  85 107 137 174 214 254
#     4   9  16  27  43  61  82 109 141 175 210 249
#     4   9  18  32  46  59  80 111 143 175 213 255
#     4   9  16  26  41  61  84 110 140 173 208 247
#
# _framework density 14.941886999999999
#
# number of rings (size 3 to 8) (size 9 to 14) (size 15 to 20)
#    0.000    2.500    0.000    3.000    0.000    9.000 
#    0.000    0.000    0.000    0.000    0.000    0.000 
#    0.000    1.000    0.000    2.750    0.000    4.000 
#
# Total GULP energy -178272.367363 kJ/mol
# GULP energy per Si atom -5571.011480 kJ/mol
# Density = 1.490788 g / cm^3
# Si number density = 14.941887 Si / 1000 Ang^3
#
#
#
# Elastic Constant Matrix: (Units=GPa)
#
#
# Indices 1 2 3 4 5 6 
#
# 1 92.0703 49.7784 61.7541 0.0000 -23.2150 0.0000
# 2 49.7784 65.3808 54.7347 0.0000 -16.0921 0.0000
# 3 61.7541 54.7347 126.7388 0.0000 -27.7380 0.0000
# 4 0.0000 0.0000 0.0000 30.2431 0.0000 -3.7929
# 5 -23.2150 -16.0921 -27.7380 0.0000 23.2662 0.0000
# 6 0.0000 0.0000 0.0000 -3.7929 0.0000 16.1002
#
#
#
# Elastic Compliance Matrix: (Units=1/GPa)
#
#
# Indices 1 2 3 4 5 6 
#
# 1 0.021784 -0.011111 -0.003708 0.000000 0.009630 0.000000
# 2 -0.011111 0.030201 -0.007420 0.000000 0.000957 0.000000
# 3 -0.003708 -0.007420 0.014841 0.000000 0.008861 0.000000
# 4 0.000000 0.000000 0.000000 0.034072 0.000000 0.008027
# 5 0.009630 0.000957 0.008861 0.000000 0.063816 0.000000
# 6 0.000000 0.000000 0.000000 0.008027 0.000000 0.064002
#
#
# Mechanical properties :
#
#
# Convention : Reuss Voigt Hill
#
# Bulk Modulus (GPa) = 44.74604 68.52492 56.63548
# Shear Modulus (GPa) = 17.81622 21.78340 19.79981
#
# Velocity S-wave (km/s) = 3.45681 3.82235 3.64417
# Velocity P-wave (km/s) = 6.77823 8.08956 7.46276
#
# Compressibility (1/GPa) = 0.02234835
#
# Stress axis : x y z
#
# Youngs Moduli (GPa) = 45.90609 33.11101 67.38100
#
# Poissons Ratio (x) = 0.36788 0.24986
# Poissons Ratio (y) = 0.51004 0.49997
# Poissons Ratio (z) = 0.17023 0.24569
#
# Static dielectric constant tensor:
#      x y z
#    x 1.502180 0.000000 -0.022120 
#    y 0.000000 1.495410 0.000000 
#    z -0.022120 0.000000 1.473930 
# 
# From -- ./inp_files/51212.got.cif
#   From: 2010.05.17/outbox.cif.g08.bks.cpg/sg11_26_cif.got.tgz:51212.got - 2010.06.03 12:22:45.
