data_PCOD9156443
_publ_section_title
;
Structure prediction by ZEFSAII (Michael W. Deem and Ramdas Pophale) SiO2 
 PCOD9156443
Probable space group: P 21/M
;
_chemical_formula_sum "Si O2"
_cell_formula_units_Z 32
_cell_length_a 11.661650
_cell_length_b 9.468498
_cell_length_c 21.027083
_cell_angle_alpha 90.000000
_cell_angle_beta 41.731613
_cell_angle_gamma 90.000000
_cell_volume 1545.471421
_symmetry_space_group_name_H-M "P 21/M"
_symmetry_group_IT_number 11
_symmetry_cell_setting 'monoclinic'
loop_
_space_group_symop_operation_xyz
x,y,z
-x,1/2+y,-z
-x,-y,-z
x,1/2-y,z
loop_
_atom_site_type_symbol
_atom_site_label
_atom_site_fract_x
_atom_site_fract_y
_atom_site_fract_z
Si Si1 0.163631 0.415423 0.456556
Si Si2 0.863799 0.580543 0.388095
Si Si3 0.534934 0.915534 0.770405
Si Si4 0.248932 0.912175 0.684144
Si Si5 0.667007 0.907037 0.236735
Si Si6 0.779686 0.919166 0.783634
Si Si7 0.155393 0.090458 0.103698
Si Si8 0.053338 0.906137 0.037511
O O1 0.120126 0.250000 0.472903
O O2 0.203994 0.449553 0.513028
O O3 0.317757 0.438362 0.343872
O O4 0.000000 0.500000 0.500000
O O5 0.870292 0.750000 0.375089
O O6 0.754998 0.503718 0.378289
O O7 0.055471 0.512110 0.304765
O O8 0.487105 0.750000 0.788132
O O9 0.621224 0.947101 0.802352
O O10 0.387929 0.018232 0.806049
O O11 0.303172 0.750000 0.652041
O O12 0.047486 0.907416 0.790769
O O13 0.359715 0.988374 0.692913
O O14 0.590205 0.750000 0.275279
O O15 0.872203 0.890339 0.148935
O O16 0.821617 0.750000 0.760436
O O17 0.746677 0.946643 0.871754
O O18 0.198367 0.250000 0.066065
O O19 0.175801 0.984536 0.036836
O O20 0.113960 0.750000 0.994003
O O21 0.000000 0.000000 0.000000
#
# Coordination Sequence:
#
# PCOD9156443 Si02
#       8
#     4   4   4   4   4   4   4   4
#     4  10  20  32  48  71 101 135 175 220 261 302
#     4  10  18  28  46  73 100 128 168 221 267 298
#     4  10  20  34  51  72 102 140 177 211 252 307
#     4   9  17  31  51  71  95 132 170 208 255 307
#     4  10  21  36  53  77 105 131 165 209 254 302
#     4   9  17  30  49  72 100 136 175 211 249 297
#     4   8  15  28  48  75 102 128 162 203 245 290
#     4  10  20  34  55  81 106 130 158 199 247 298
#
# _framework density 20.705656999999999
#
# number of rings (size 3 to 8) (size 9 to 14) (size 15 to 20)
#    0.000    2.500    1.250    2.250    0.000    6.000 
#    0.000    0.625    0.000    0.750    0.000    0.000 
#    0.000    0.000    0.000    0.000    0.000    0.000 
#
# Total GULP energy -178544.860462 kJ/mol
# GULP energy per Si atom -5579.526889 kJ/mol
# Density = 2.065853 g / cm^3
# Si number density = 20.705657 Si / 1000 Ang^3
#
#
#
# Elastic Constant Matrix: (Units=GPa)
#
#
# Indices 1 2 3 4 5 6 
#
# 1 133.2807 66.4524 24.1718 0.0000 36.4404 0.0000
# 2 66.4524 98.4170 23.9556 0.0000 26.9382 0.0000
# 3 24.1718 23.9556 38.0169 0.0000 13.1430 0.0000
# 4 0.0000 0.0000 0.0000 17.0211 0.0000 9.5662
# 5 36.4404 26.9382 13.1430 0.0000 35.5830 0.0000
# 6 0.0000 0.0000 0.0000 9.5662 0.0000 32.5640
#
#
#
# Elastic Compliance Matrix: (Units=1/GPa)
#
#
# Indices 1 2 3 4 5 6 
#
# 1 0.013132 -0.006254 -0.001601 0.000000 -0.008123 0.000000
# 2 -0.006254 0.016847 -0.005095 0.000000 -0.004467 0.000000
# 3 -0.001601 -0.005095 0.032823 0.000000 -0.006628 0.000000
# 4 0.000000 0.000000 0.000000 0.070369 0.000000 -0.020672
# 5 -0.008123 -0.004467 -0.006628 0.000000 0.042252 0.000000
# 6 0.000000 0.000000 0.000000 -0.020672 0.000000 0.036782
#
#
# Mechanical properties :
#
#
# Convention : Reuss Voigt Hill
#
# Bulk Modulus (GPa) = 27.09789 55.43046 41.26418
# Shear Modulus (GPa) = 19.96772 27.37594 23.67183
#
# Velocity S-wave (km/s) = 3.10878 3.64008 3.38487
# Velocity P-wave (km/s) = 5.09918 6.67051 5.93706
#
# Compressibility (1/GPa) = 0.03690324
#
# Stress axis : x y z
#
# Youngs Moduli (GPa) = 76.14731 59.35938 30.46611
#
# Poissons Ratio (x) = 0.37125 0.04877
# Poissons Ratio (y) = 0.47624 0.15521
# Poissons Ratio (z) = 0.12189 0.30242
#
# Static dielectric constant tensor:
#      x y z
#    x 1.774830 0.000000 -0.044270 
#    y 0.000000 1.747390 0.000000 
#    z -0.044270 0.000000 1.795780 
# 
# From -- ./inp_files/42738.got.cif
#   From: 2010.05.17/outbox.cif.g08.bks.cpg/sg11_22_cif.got.tgz:42738.got - 2010.06.03 12:22:45.
