data_PCOD9156917
_publ_section_title
;
Structure prediction by ZEFSAII (Michael W. Deem and Ramdas Pophale) SiO2 
 PCOD9156917
Probable space group: P 21/M
;
_chemical_formula_sum "Si O2"
_cell_formula_units_Z 28
_cell_length_a 15.580453
_cell_length_b 8.018790
_cell_length_c 22.063113
_cell_angle_alpha 90.000000
_cell_angle_beta 156.290432
_cell_angle_gamma 90.000000
_cell_volume 1108.384689
_symmetry_space_group_name_H-M "P 21/M"
_symmetry_group_IT_number 11
_symmetry_cell_setting 'monoclinic'
loop_
_space_group_symop_operation_xyz
x,y,z
-x,1/2+y,-z
-x,-y,-z
x,1/2-y,z
loop_
_atom_site_type_symbol
_atom_site_label
_atom_site_fract_x
_atom_site_fract_y
_atom_site_fract_z
Si Si1 0.616602 0.556340 0.945974
Si Si2 0.945583 0.547320 0.831548
Si Si3 0.593114 0.565148 0.305592
Si Si4 0.973360 0.563516 0.415203
Si Si5 0.708545 0.947588 0.560388
Si Si6 0.684328 0.557369 0.772510
Si Si7 0.161018 0.045726 0.794153
O O1 0.554727 0.750000 0.907332
O O2 0.660267 0.491016 0.042009
O O3 0.845554 0.538532 0.060243
O O4 0.461730 0.462033 0.800084
O O5 0.975173 0.750000 0.849696
O O6 0.756084 0.508814 0.661149
O O7 0.876735 0.495612 0.854407
O O8 0.677841 0.750000 0.370434
O O9 0.779594 0.442509 0.446869
O O10 0.385154 0.539588 0.212355
O O11 0.897244 0.750000 0.370301
O O12 0.000000 0.500000 0.500000
O O13 0.834709 0.481708 0.272272
O O14 0.663169 0.750000 0.526469
O O15 0.521535 0.042939 0.405108
O O16 0.935602 0.984565 0.675305
O O17 0.719793 0.750000 0.811021
O O18 0.160714 0.250000 0.794524
#
# Coordination Sequence:
#
# PCOD9156917 Si02
#       7
#     4   4   4   4   4   4   4
#     4  10  21  39  62  87 118 160 203 245 296 351
#     4   9  20  35  52  80 117 159 204 250 294 345
#     4  12  25  41  61  88 120 158 200 246 299 355
#     4  11  23  42  68  97 125 151 188 239 294 358
#     4  10  18  30  52  82 116 153 199 248 295 348
#     4  11  21  34  53  79 117 160 203 250 299 347
#     4   9  19  37  62  88 118 156 196 239 292 352
#
# _framework density 25.261986
#
# number of rings (size 3 to 8) (size 9 to 14) (size 15 to 20)
#    0.000    1.714    1.429    3.429    0.000    3.429 
#    0.000    0.714    0.000    0.000    0.000    0.000 
#    0.000    0.000    0.000    0.000    0.000    0.000 
#
# Total GULP energy -156658.978817 kJ/mol
# GULP energy per Si atom -5594.963529 kJ/mol
# Density = 2.520449 g / cm^3
# Si number density = 25.261986 Si / 1000 Ang^3
#
#
#
# Elastic Constant Matrix: (Units=GPa)
#
#
# Indices 1 2 3 4 5 6 
#
# 1 142.9197 11.9883 39.3688 0.0000 -40.6615 0.0000
# 2 11.9883 56.2075 0.9200 0.0000 -8.7286 0.0000
# 3 39.3688 0.9200 102.7145 0.0000 -16.2510 0.0000
# 4 0.0000 0.0000 0.0000 24.1820 0.0000 -0.5408
# 5 -40.6615 -8.7286 -16.2510 0.0000 52.1236 0.0000
# 6 0.0000 0.0000 0.0000 -0.5408 0.0000 29.1436
#
#
#
# Elastic Compliance Matrix: (Units=1/GPa)
#
#
# Indices 1 2 3 4 5 6 
#
# 1 0.009679 -0.001003 -0.002664 0.000000 0.006552 0.000000
# 2 -0.001003 0.018381 0.000613 0.000000 0.002487 0.000000
# 3 -0.002664 0.000613 0.010980 0.000000 0.001448 0.000000
# 4 0.000000 0.000000 0.000000 0.041370 0.000000 0.000768
# 5 0.006552 0.002487 0.001448 0.000000 0.025164 0.000000
# 6 0.000000 0.000000 0.000000 0.000768 0.000000 0.034327
#
#
# Mechanical properties :
#
#
# Convention : Reuss Voigt Hill
#
# Bulk Modulus (GPa) = 30.36524 45.15512 37.76018
# Shear Modulus (GPa) = 31.84953 37.72749 34.78851
#
# Velocity S-wave (km/s) = 3.55458 3.86871 3.71497
# Velocity P-wave (km/s) = 5.37522 6.15381 5.77765
#
# Compressibility (1/GPa) = 0.03293240
#
# Stress axis : x y z
#
# Youngs Moduli (GPa) = 103.31598 54.40301 91.07096
#
# Poissons Ratio (x) = 0.05458 0.24263
# Poissons Ratio (y) = 0.10366 -0.05586
# Poissons Ratio (z) = 0.27526 -0.03337
#
# Static dielectric constant tensor:
#      x y z
#    x 2.073740 0.000000 0.000770 
#    y 0.000000 1.878830 0.000000 
#    z 0.000770 0.000000 2.016130 
# 
# From -- ./inp_files/65453.got.cif
#   From: 2010.05.17/outbox.cif.g08.bks.cpg/sg11_33_cif.got.tgz:65453.got - 2010.06.03 12:22:45.
