data_PCOD9156422
_publ_section_title
;
Structure prediction by ZEFSAII (Michael W. Deem and Ramdas Pophale) SiO2 
 PCOD9156422
Probable space group: P 21/M
;
_chemical_formula_sum "Si O2"
_cell_formula_units_Z 28
_cell_length_a 15.622515
_cell_length_b 7.369399
_cell_length_c 22.396686
_cell_angle_alpha 90.000000
_cell_angle_beta 23.789370
_cell_angle_gamma 90.000000
_cell_volume 1040.102980
_symmetry_space_group_name_H-M "P 21/M"
_symmetry_group_IT_number 11
_symmetry_cell_setting 'monoclinic'
loop_
_space_group_symop_operation_xyz
x,y,z
-x,1/2+y,-z
-x,-y,-z
x,1/2-y,z
loop_
_atom_site_type_symbol
_atom_site_label
_atom_site_fract_x
_atom_site_fract_y
_atom_site_fract_z
Si Si1 0.772764 0.532863 0.062521
Si Si2 0.304262 0.036768 0.307751
Si Si3 0.884600 0.959718 0.454361
Si Si4 0.036971 0.973481 0.235508
Si Si5 0.797025 0.543328 0.279869
Si Si6 0.572365 0.970402 0.310039
Si Si7 0.496590 0.965906 0.932088
O O1 0.792416 0.750000 0.047381
O O2 0.545907 0.481954 0.177993
O O3 0.744568 0.476900 0.149769
O O4 0.976680 0.453351 0.899476
O O5 0.256159 0.250000 0.336421
O O6 0.152345 0.957793 0.456335
O O7 0.324864 0.962686 0.227239
O O8 0.941986 0.750000 0.424516
O O9 0.024424 0.039632 0.311708
O O10 0.652545 0.965131 0.570954
O O11 0.032705 0.750000 0.239288
O O12 0.851658 0.036827 0.309640
O O13 0.261340 0.031026 0.064992
O O14 0.728438 0.750000 0.334014
O O15 0.636194 0.461576 0.334669
O O16 0.567049 0.750000 0.314488
O O17 0.500614 0.750000 0.921711
O O18 0.500000 0.000000 0.000000
#
# Coordination Sequence:
#
# PCOD9156422 Si02
#       7
#     4   4   4   4   4   4   4
#     4  10  18  28  45  73 104 131 170 218 254 286
#     4   9  17  33  55  75  98 134 169 199 245 307
#     4   9  18  33  54  75  99 135 176 208 238 292
#     4   9  18  34  54  75 100 133 170 207 249 299
#     4  10  18  31  49  68 100 142 177 206 250 300
#     4   9  19  31  45  70 104 140 172 211 254 290
#     4  10  20  36  57  79 102 127 161 204 253 305
#
# _framework density 26.920411000000001
#
# number of rings (size 3 to 8) (size 9 to 14) (size 15 to 20)
#    0.000    2.571    1.429    0.857    0.000    2.286 
#    0.000    2.143    0.000    0.000    0.000    0.000 
#    0.000    0.000    0.000    0.000    0.000    0.000 
#
# Total GULP energy -156602.462755 kJ/mol
# GULP energy per Si atom -5592.945098 kJ/mol
# Density = 2.685914 g / cm^3
# Si number density = 26.920411 Si / 1000 Ang^3
#
#
#
# Elastic Constant Matrix: (Units=GPa)
#
#
# Indices 1 2 3 4 5 6 
#
# 1 169.5908 18.0396 43.4209 0.0000 37.9363 0.0000
# 2 18.0396 119.2843 10.5079 0.0000 5.2918 0.0000
# 3 43.4209 10.5079 156.6034 0.0000 37.9907 0.0000
# 4 0.0000 0.0000 0.0000 11.1875 0.0000 -3.4541
# 5 37.9363 5.2918 37.9907 0.0000 58.8627 0.0000
# 6 0.0000 0.0000 0.0000 -3.4541 0.0000 10.5409
#
#
#
# Elastic Compliance Matrix: (Units=1/GPa)
#
#
# Indices 1 2 3 4 5 6 
#
# 1 0.007099 -0.000816 -0.000974 0.000000 -0.003873 0.000000
# 2 -0.000816 0.008538 -0.000341 0.000000 -0.000021 0.000000
# 3 -0.000974 -0.000341 0.007729 0.000000 -0.004330 0.000000
# 4 0.000000 0.000000 0.000000 0.099447 0.000000 0.032588
# 5 -0.003873 -0.000021 -0.004330 0.000000 0.022282 0.000000
# 6 0.000000 0.000000 0.000000 0.032588 0.000000 0.105547
#
#
# Mechanical properties :
#
#
# Convention : Reuss Voigt Hill
#
# Bulk Modulus (GPa) = 52.34780 65.49060 58.91920
# Shear Modulus (GPa) = 19.13714 41.01889 30.07802
#
# Velocity S-wave (km/s) = 2.66912 3.90771 3.34622
# Velocity P-wave (km/s) = 5.38392 6.68884 6.07154
#
# Compressibility (1/GPa) = 0.01910300
#
# Stress axis : x y z
#
# Youngs Moduli (GPa) = 140.86195 117.12678 129.38405
#
# Poissons Ratio (x) = 0.09557 0.12602
# Poissons Ratio (y) = 0.11494 0.04418
# Poissons Ratio (z) = 0.13719 0.04000
#
# Static dielectric constant tensor:
#      x y z
#    x 2.178430 0.000000 0.034600 
#    y 0.000000 1.976380 0.000000 
#    z 0.034600 0.000000 2.127960 
# 
# From -- ./inp_files/52099.got.cif
#   From: 2010.05.17/outbox.cif.g08.bks.cpg/sg11_27_cif.got.tgz:52099.got - 2010.06.03 12:22:45.
