data_PCOD9156580
_publ_section_title
;
Structure prediction by ZEFSAII (Michael W. Deem and Ramdas Pophale) SiO2 
 PCOD9156580
Probable space group: P 21/M
;
_chemical_formula_sum "Si O2"
_cell_formula_units_Z 28
_cell_length_a 16.811252
_cell_length_b 8.936213
_cell_length_c 18.828505
_cell_angle_alpha 90.000000
_cell_angle_beta 36.949380
_cell_angle_gamma 90.000000
_cell_volume 1700.289164
_symmetry_space_group_name_H-M "P 21/M"
_symmetry_group_IT_number 11
_symmetry_cell_setting 'monoclinic'
loop_
_space_group_symop_operation_xyz
x,y,z
-x,1/2+y,-z
-x,-y,-z
x,1/2-y,z
loop_
_atom_site_type_symbol
_atom_site_label
_atom_site_fract_x
_atom_site_fract_y
_atom_site_fract_z
Si Si1 0.103081 0.078842 0.827802
Si Si2 0.787024 0.573410 0.667786
Si Si3 0.483274 0.928813 0.089695
Si Si4 0.717199 0.069298 0.014853
Si Si5 0.803380 0.077760 0.104925
Si Si6 0.004596 0.428338 0.228913
Si Si7 0.050122 0.927402 0.570514
O O1 0.133569 0.250000 0.788472
O O2 0.196271 0.017547 0.823757
O O3 0.092902 0.980658 0.764258
O O4 0.954112 0.075150 0.967039
O O5 0.755992 0.750000 0.689574
O O6 0.658576 0.479472 0.779298
O O7 0.848666 0.521582 0.549010
O O8 0.903783 0.547564 0.642073
O O9 0.493624 0.750000 0.078378
O O10 0.500000 0.000000 0.000000
O O11 0.597453 0.995652 0.058292
O O12 0.713652 0.250000 0.012917
O O13 0.717755 0.027785 0.098311
O O14 0.855666 0.010717 0.883855
O O15 0.771999 0.250000 0.144024
O O16 0.026017 0.250000 0.209320
O O17 0.951838 0.464067 0.344999
O O18 0.078402 0.750000 0.541748
#
# Coordination Sequence:
#
# PCOD9156580 Si02
#       7
#     4   4   4   4   4   4   4
#     4   9  16  25  40  64  94 126 161 200 241 287
#     4  10  20  35  54  74  97 126 162 202 244 286
#     4  12  24  37  53  73 100 131 164 200 239 285
#     4  10  20  33  49  71  99 130 166 203 242 290
#     4   8  15  27  42  62  91 126 160 196 239 288
#     4  10  18  29  47  71 101 133 165 201 243 290
#     4   9  19  34  51  72  97 127 162 200 242 287
#
# _framework density 16.467787000000001
#
# number of rings (size 3 to 8) (size 9 to 14) (size 15 to 20)
#    0.000    2.286    0.000    4.714    0.000    6.857 
#    0.000    0.000    0.000    0.000    0.000    1.000 
#    0.000    0.000    0.000    0.000    0.000    0.000 
#
# Total GULP energy -156167.732497 kJ/mol
# GULP energy per Si atom -5577.419018 kJ/mol
# Density = 1.643031 g / cm^3
# Si number density = 16.467787 Si / 1000 Ang^3
#
#
#
# Elastic Constant Matrix: (Units=GPa)
#
#
# Indices 1 2 3 4 5 6 
#
# 1 134.7818 67.1081 51.3640 0.0000 18.8072 0.0000
# 2 67.1081 94.0392 42.5619 0.0000 11.1719 0.0000
# 3 51.3640 42.5619 56.4719 0.0000 12.0585 0.0000
# 4 0.0000 0.0000 0.0000 24.9374 0.0000 2.3529
# 5 18.8072 11.1719 12.0585 0.0000 21.7896 0.0000
# 6 0.0000 0.0000 0.0000 2.3529 0.0000 29.4696
#
#
#
# Elastic Compliance Matrix: (Units=1/GPa)
#
#
# Indices 1 2 3 4 5 6 
#
# 1 0.013779 -0.006148 -0.006841 0.000000 -0.004955 0.000000
# 2 -0.006148 0.018941 -0.008781 0.000000 0.000454 0.000000
# 3 -0.006841 -0.008781 0.032122 0.000000 -0.007370 0.000000
# 4 0.000000 0.000000 0.000000 0.040405 0.000000 -0.003226
# 5 -0.004955 0.000454 -0.007370 0.000000 0.054016 0.000000
# 6 0.000000 0.000000 0.000000 -0.003226 0.000000 0.034191
#
#
# Mechanical properties :
#
#
# Convention : Reuss Voigt Hill
#
# Bulk Modulus (GPa) = 46.94313 67.48455 57.21384
# Shear Modulus (GPa) = 20.48394 23.52326 22.00360
#
# Velocity S-wave (km/s) = 3.53069 3.78357 3.65932
# Velocity P-wave (km/s) = 6.72227 7.75602 7.25758
#
# Compressibility (1/GPa) = 0.02130237
#
# Stress axis : x y z
#
# Youngs Moduli (GPa) = 72.57458 52.79423 31.13162
#
# Poissons Ratio (x) = 0.32458 0.21297
# Poissons Ratio (y) = 0.44619 0.27336
# Poissons Ratio (z) = 0.49648 0.46358
#
# Static dielectric constant tensor:
#      x y z
#    x 1.565380 0.000000 0.008180 
#    y 0.000000 1.553450 0.000000 
#    z 0.008180 0.000000 1.522570 
# 
# From -- ./inp_files/60095.got.cif
#   From: 2010.05.17/outbox.cif.g08.bks.cpg/sg11_31_cif.got.tgz:60095.got - 2010.06.03 12:22:45.
