data_PCOD9156699
_publ_section_title
;
Structure prediction by ZEFSAII (Michael W. Deem and Ramdas Pophale) SiO2 
 PCOD9156699
Probable space group: P 21/M
;
_chemical_formula_sum "Si O2"
_cell_formula_units_Z 32
_cell_length_a 29.931397
_cell_length_b 8.641459
_cell_length_c 23.906502
_cell_angle_alpha 90.000000
_cell_angle_beta 163.105772
_cell_angle_gamma 90.000000
_cell_volume 1796.943314
_symmetry_space_group_name_H-M "P 21/M"
_symmetry_group_IT_number 11
_symmetry_cell_setting 'monoclinic'
loop_
_space_group_symop_operation_xyz
x,y,z
-x,1/2+y,-z
-x,-y,-z
x,1/2-y,z
loop_
_atom_site_type_symbol
_atom_site_label
_atom_site_fract_x
_atom_site_fract_y
_atom_site_fract_z
Si Si1 0.256599 0.935364 0.963903
Si Si2 0.603064 0.935382 0.173181
Si Si3 0.384133 0.064397 0.231975
Si Si4 0.134737 0.437592 0.029100
Si Si5 0.075282 0.565246 0.412363
Si Si6 0.478203 0.063692 0.799038
Si Si7 0.159392 0.936316 0.385229
Si Si8 0.384966 0.063510 0.410074
O O1 0.246043 0.750000 0.951217
O O2 0.086654 0.004913 0.759667
O O3 0.364849 0.986166 0.042366
O O4 0.339258 0.990698 0.119626
O O5 0.080994 0.750000 0.423162
O O6 0.778380 0.993623 0.381164
O O7 0.540147 0.988172 0.158707
O O8 0.500000 0.000000 0.000000
O O9 0.384779 0.250000 0.228551
O O10 0.251549 0.020802 0.118440
O O11 0.546290 0.006014 0.450931
O O12 0.129728 0.250000 0.023384
O O13 0.216948 0.483821 0.185542
O O14 0.964747 0.492018 0.809100
O O15 0.399205 0.250000 0.830850
O O16 0.093043 0.524578 0.367598
O O17 0.473901 0.250000 0.793654
O O18 0.329506 0.004738 0.587112
O O19 0.169973 0.750000 0.394759
O O20 0.393297 0.250000 0.421748
O O21 0.500000 0.000000 0.500000
#
# Coordination Sequence:
#
# PCOD9156699 Si02
#       8
#     4   4   4   4   4   4   4   4
#     4  11  21  34  52  76 107 140 173 212 262 312
#     4  10  20  38  61  84 110 140 174 210 253 302
#     4  10  18  30  46  68 101 135 172 218 266 312
#     4   8  14  26  44  68  98 128 164 215 263 305
#     4  10  19  33  55  82 109 137 173 214 256 303
#     4   9  21  37  52  76 109 138 168 212 258 306
#     4   9  16  30  51  74 100 133 171 213 260 309
#     4   9  16  26  41  65  98 134 171 214 267 318
#
# _framework density 17.808019000000002
#
# number of rings (size 3 to 8) (size 9 to 14) (size 15 to 20)
#    0.000    2.500    1.250    2.625    0.000    2.000 
#    0.000    1.875    0.000    0.750    0.000    0.000 
#    0.000    0.000    0.000    0.000    0.000    0.000 
#
# Total GULP energy -178392.601636 kJ/mol
# GULP energy per Si atom -5574.768801 kJ/mol
# Density = 1.776749 g / cm^3
# Si number density = 17.808019 Si / 1000 Ang^3
#
#
#
# Elastic Constant Matrix: (Units=GPa)
#
#
# Indices 1 2 3 4 5 6 
#
# 1 54.8774 16.5906 61.6654 0.0000 6.5825 0.0000
# 2 16.5906 31.6026 32.3742 0.0000 1.8445 0.0000
# 3 61.6654 32.3742 164.2134 0.0000 -10.0830 0.0000
# 4 0.0000 0.0000 0.0000 32.3610 0.0000 -1.7813
# 5 6.5825 1.8445 -10.0830 0.0000 28.8909 0.0000
# 6 0.0000 0.0000 0.0000 -1.7813 0.0000 16.4476
#
#
#
# Elastic Compliance Matrix: (Units=1/GPa)
#
#
# Indices 1 2 3 4 5 6 
#
# 1 0.036302 -0.004450 -0.013535 0.000000 -0.012711 0.000000
# 2 -0.004450 0.041030 -0.006659 0.000000 -0.003930 0.000000
# 3 -0.013535 -0.006659 0.012979 0.000000 0.008039 0.000000
# 4 0.000000 0.000000 0.000000 0.031087 0.000000 0.003367
# 5 -0.012711 -0.003930 0.008039 0.000000 0.040565 0.000000
# 6 0.000000 0.000000 0.000000 0.003367 0.000000 0.061164
#
#
# Mechanical properties :
#
#
# Convention : Reuss Voigt Hill
#
# Bulk Modulus (GPa) = 24.37715 52.43932 38.40823
# Shear Modulus (GPa) = 17.47703 24.87745 21.17724
#
# Velocity S-wave (km/s) = 3.13615 3.74167 3.45221
# Velocity P-wave (km/s) = 5.18001 6.94102 6.12414
#
# Compressibility (1/GPa) = 0.04102202
#
# Stress axis : x y z
#
# Youngs Moduli (GPa) = 27.54679 24.37217 77.04867
#
# Poissons Ratio (x) = 0.10846 1.04287
# Poissons Ratio (y) = 0.12259 0.51308
# Poissons Ratio (z) = 0.37285 0.16230
#
# Static dielectric constant tensor:
#      x y z
#    x 1.619890 0.000000 -0.008100 
#    y 0.000000 1.598380 0.000000 
#    z -0.008100 0.000000 1.619650 
# 
# From -- ./inp_files/67193.got.cif
#   From: 2010.05.17/outbox.cif.g08.bks.cpg/sg11_34_cif.got.tgz:67193.got - 2010.06.03 12:22:45.
