data_PCOD9156567
_publ_section_title
;
Structure prediction by ZEFSAII (Michael W. Deem and Ramdas Pophale) SiO2 
 PCOD9156567
Probable space group: P 21/M
;
_chemical_formula_sum "Si O2"
_cell_formula_units_Z 32
_cell_length_a 29.494798
_cell_length_b 9.147838
_cell_length_c 20.006499
_cell_angle_alpha 90.000000
_cell_angle_beta 156.416914
_cell_angle_gamma 90.000000
_cell_volume 2159.634226
_symmetry_space_group_name_H-M "P 21/M"
_symmetry_group_IT_number 11
_symmetry_cell_setting 'monoclinic'
loop_
_space_group_symop_operation_xyz
x,y,z
-x,1/2+y,-z
-x,-y,-z
x,1/2-y,z
loop_
_atom_site_type_symbol
_atom_site_label
_atom_site_fract_x
_atom_site_fract_y
_atom_site_fract_z
Si Si1 0.812486 0.421378 0.216334
Si Si2 0.574400 0.074619 0.043545
Si Si3 0.743505 0.924269 0.911637
Si Si4 0.507698 0.574916 0.667668
Si Si5 0.424089 0.423926 0.093879
Si Si6 0.159048 0.922399 0.593490
Si Si7 0.601654 0.924582 0.596260
Si Si8 0.945489 0.421478 0.258950
O O1 0.775137 0.250000 0.166409
O O2 0.865099 0.449221 0.360279
O O3 0.893919 0.442070 0.263832
O O4 0.704058 0.524986 0.063694
O O5 0.562209 0.250000 0.027187
O O6 0.542482 0.009606 0.927868
O O7 0.708177 0.041026 0.235804
O O8 0.500000 0.000000 0.000000
O O9 0.757166 0.750000 0.938241
O O10 0.632162 0.966241 0.805517
O O11 0.710684 0.954106 0.790017
O O12 0.855029 0.003940 0.087799
O O13 0.497293 0.750000 0.644006
O O14 0.506799 0.542908 0.745183
O O15 0.412497 0.492734 0.496025
O O16 0.427611 0.250000 0.087085
O O17 0.145080 0.750000 0.562350
O O18 0.069968 0.009307 0.428743
O O19 0.585759 0.750000 0.572808
O O20 0.500000 0.000000 0.500000
O O21 0.951349 0.250000 0.253287
#
# Coordination Sequence:
#
# PCOD9156567 Si02
#       8
#     4   4   4   4   4   4   4   4
#     4   9  18  30  41  60  88 118 153 188 222 260
#     4  10  21  37  54  71  90 115 146 184 231 276
#     4   9  17  29  40  56  85 122 157 186 224 265
#     4   9  17  28  42  62  87 117 154 189 224 264
#     4  10  18  29  47  69  91 119 152 187 226 269
#     4   9  19  33  46  61  86 116 146 182 224 269
#     4   9  17  27  40  57  81 116 155 191 226 263
#     4  11  20  27  41  64  88 117 155 191 221 258
#
# _framework density 14.817323999999999
#
# number of rings (size 3 to 8) (size 9 to 14) (size 15 to 20)
#    0.000    2.500    1.250    3.375    0.000    6.500 
#    0.000    0.000    0.000    0.000    0.000    0.000 
#    0.000    1.000    0.000    3.250    0.000    4.000 
#
# Total GULP energy -178273.184977 kJ/mol
# GULP energy per Si atom -5571.037031 kJ/mol
# Density = 1.478360 g / cm^3
# Si number density = 14.817324 Si / 1000 Ang^3
#
#
#
# Elastic Constant Matrix: (Units=GPa)
#
#
# Indices 1 2 3 4 5 6 
#
# 1 73.5095 48.4098 53.0983 0.0000 -17.2088 0.0000
# 2 48.4098 58.3553 61.7044 0.0000 -16.6215 0.0000
# 3 53.0983 61.7044 102.7253 0.0000 -29.1286 0.0000
# 4 0.0000 0.0000 0.0000 26.3769 0.0000 -5.3388
# 5 -17.2088 -16.6215 -29.1286 0.0000 17.9156 0.0000
# 6 0.0000 0.0000 0.0000 -5.3388 0.0000 21.8002
#
#
#
# Elastic Compliance Matrix: (Units=1/GPa)
#
#
# Indices 1 2 3 4 5 6 
#
# 1 0.030846 -0.024299 0.001226 0.000000 0.009078 0.000000
# 2 -0.024299 0.066286 -0.030496 0.000000 -0.011426 0.000000
# 3 0.001226 -0.030496 0.036607 0.000000 0.032404 0.000000
# 4 0.000000 0.000000 0.000000 0.039889 0.000000 0.009769
# 5 0.009078 -0.011426 0.032404 0.000000 0.106623 0.000000
# 6 0.000000 0.000000 0.000000 0.009769 0.000000 0.048263
#
#
# Mechanical properties :
#
#
# Convention : Reuss Voigt Hill
#
# Bulk Modulus (GPa) = 37.59235 62.33501 49.96368
# Shear Modulus (GPa) = 11.24810 17.97705 14.61257
#
# Velocity S-wave (km/s) = 2.75820 3.48695 3.14376
# Velocity P-wave (km/s) = 5.96399 7.64016 6.85351
#
# Compressibility (1/GPa) = 0.02660116
#
# Stress axis : x y z
#
# Youngs Moduli (GPa) = 32.41960 15.08612 27.31689
#
# Poissons Ratio (x) = 0.36658 -0.03350
# Poissons Ratio (y) = 0.78778 0.83305
# Poissons Ratio (z) = -0.03976 0.46006
#
# Static dielectric constant tensor:
#      x y z
#    x 1.492300 0.000000 -0.027720 
#    y 0.000000 1.494620 0.000000 
#    z -0.027720 0.000000 1.489420 
# 
# From -- ./inp_files/51357.got.cif
#   From: 2010.05.17/outbox.cif.g08.bks.cpg/sg11_26_cif.got.tgz:51357.got - 2010.06.03 12:22:45.
