data_PCOD9156902
_publ_section_title
;
Structure prediction by ZEFSAII (Michael W. Deem and Ramdas Pophale) SiO2 
 PCOD9156902
Probable space group: P 21/M
;
_chemical_formula_sum "Si O2"
_cell_formula_units_Z 32
_cell_length_a 9.140120
_cell_length_b 20.329831
_cell_length_c 8.604301
_cell_angle_alpha 90.000000
_cell_angle_beta 96.444052
_cell_angle_gamma 90.000000
_cell_volume 1588.724707
_symmetry_space_group_name_H-M "P 21/M"
_symmetry_group_IT_number 11
_symmetry_cell_setting 'monoclinic'
loop_
_space_group_symop_operation_xyz
x,y,z
-x,1/2+y,-z
-x,-y,-z
x,1/2-y,z
loop_
_atom_site_type_symbol
_atom_site_label
_atom_site_fract_x
_atom_site_fract_y
_atom_site_fract_z
Si Si1 0.578673 0.942756 0.219577
Si Si2 0.850944 0.179096 0.795065
Si Si3 0.529700 0.172902 0.596419
Si Si4 0.099069 0.067784 0.313051
Si Si5 0.671033 0.422249 0.377131
Si Si6 0.280648 0.010143 0.070241
Si Si7 0.158847 0.888864 0.900826
Si Si8 0.020237 0.925750 0.393959
O O1 0.568606 0.872383 0.301167
O O2 0.417702 0.964750 0.138218
O O3 0.621278 0.002585 0.341718
O O4 0.678396 0.947267 0.076465
O O5 0.914505 0.250000 0.769978
O O6 0.692207 0.174942 0.693929
O O7 0.961738 0.125836 0.739511
O O8 0.823481 0.167390 0.972421
O O9 0.486489 0.250000 0.566238
O O10 0.557169 0.126676 0.447981
O O11 0.993083 0.116718 0.209287
O O12 0.106137 0.088573 0.494162
O O13 0.232714 0.050493 0.216420
O O14 0.010810 0.998482 0.323434
O O15 0.713986 0.394927 0.212396
O O16 0.821629 0.423388 0.496477
O O17 0.161111 0.957129 0.998373
#
# Coordination Sequence:
#
# PCOD9156902 Si02
#       8
#     4   4   4   4   4   4   4   4
#     4  10  19  32  53  77 107 135 172 220 257 299
#     4  10  19  32  51  74 107 134 162 209 259 314
#     4  10  19  33  51  73 104 139 172 212 260 313
#     4  10  18  30  52  77 105 128 160 216 244 306
#     4   9  19  32  52  78 106 132 167 219 263 305
#     4  10  18  30  51  81 105 128 165 214 263 294
#     4  10  18  31  51  81 103 125 167 204 262 309
#     4   9  18  32  50  81 104 128 167 203 263 308
#
# _framework density 20.141940999999999
#
# number of rings (size 3 to 8) (size 9 to 14) (size 15 to 20)
#    0.000    2.250    2.500    1.500    0.000    0.500 
#    0.000    1.875    0.000    1.500    0.000    2.625 
#    0.000    0.000    0.000    0.000    0.000    0.000 
#
# Total GULP energy -178381.050112 kJ/mol
# GULP energy per Si atom -5574.407816 kJ/mol
# Density = 2.009610 g / cm^3
# Si number density = 20.141941 Si / 1000 Ang^3
#
#
#
# Elastic Constant Matrix: (Units=GPa)
#
#
# Indices 1 2 3 4 5 6 
#
# 1 25.1534 16.4865 19.1495 0.0000 -15.5734 0.0000
# 2 16.4865 100.0421 40.4101 0.0000 -21.6024 0.0000
# 3 19.1495 40.4101 91.8011 0.0000 -24.9670 0.0000
# 4 0.0000 0.0000 0.0000 15.7805 0.0000 -2.3711
# 5 -15.5734 -21.6024 -24.9670 0.0000 35.9321 0.0000
# 6 0.0000 0.0000 0.0000 -2.3711 0.0000 19.2013
#
#
#
# Elastic Compliance Matrix: (Units=1/GPa)
#
#
# Indices 1 2 3 4 5 6 
#
# 1 0.058011 -0.003169 -0.005408 0.000000 0.019480 0.000000
# 2 -0.003169 0.012930 -0.004057 0.000000 0.003581 0.000000
# 3 -0.005408 -0.004057 0.015420 0.000000 0.005932 0.000000
# 4 0.000000 0.000000 0.000000 0.064567 0.000000 0.007973
# 5 0.019480 0.003581 0.005932 0.000000 0.042548 0.000000
# 6 0.000000 0.000000 0.000000 0.007973 0.000000 0.053064
#
#
# Mechanical properties :
#
#
# Convention : Reuss Voigt Hill
#
# Bulk Modulus (GPa) = 16.36836 41.00988 28.68912
# Shear Modulus (GPa) = 17.11315 23.57948 20.34632
#
# Velocity S-wave (km/s) = 2.91800 3.42521 3.18173
# Velocity P-wave (km/s) = 4.41555 6.00395 5.26994
#
# Compressibility (1/GPa) = 0.06109349
#
# Stress axis : x y z
#
# Youngs Moduli (GPa) = 17.23807 77.33980 64.85014
#
# Poissons Ratio (x) = 0.24510 0.35072
# Poissons Ratio (y) = 0.05463 0.26307
# Poissons Ratio (z) = 0.09323 0.31374
#
# Static dielectric constant tensor:
#      x y z
#    x 1.749580 0.000000 -0.000680 
#    y 0.000000 1.709630 0.000000 
#    z -0.000680 0.000000 1.762820 
# 
# From -- ./inp_files/14818.got.cif
#   From: 2010.05.17/outbox.cif.g08.bks.cpg/sg11_8_cif.got.tgz:14818.got - 2010.06.03 12:22:45.
