data_PCOD9156789
_publ_section_title
;
Structure prediction by ZEFSAII (Michael W. Deem and Ramdas Pophale) SiO2 
 PCOD9156789
Probable space group: P 21/M
;
_chemical_formula_sum "Si O2"
_cell_formula_units_Z 14
_cell_length_a 10.422220
_cell_length_b 5.434805
_cell_length_c 14.409667
_cell_angle_alpha 90.000000
_cell_angle_beta 55.756215
_cell_angle_gamma 90.000000
_cell_volume 674.714796
_symmetry_space_group_name_H-M "P 21/M"
_symmetry_group_IT_number 11
_symmetry_cell_setting 'monoclinic'
loop_
_space_group_symop_operation_xyz
x,y,z
-x,1/2+y,-z
-x,-y,-z
x,1/2-y,z
loop_
_atom_site_type_symbol
_atom_site_label
_atom_site_fract_x
_atom_site_fract_y
_atom_site_fract_z
Si Si1 0.588608 0.750000 0.353428
Si Si2 0.098791 0.250000 0.444260
Si Si3 0.076807 0.250000 0.244172
Si Si4 0.851335 0.250000 0.037290
Si Si5 0.579153 0.750000 0.582210
Si Si6 0.942733 0.750000 0.232530
Si Si7 0.820269 0.750000 0.998695
O O1 0.578925 0.750000 0.470231
O O2 0.507140 0.500352 0.353258
O O3 0.771338 0.750000 0.262295
O O4 0.247031 0.250000 0.450295
O O5 0.000000 0.500000 0.500000
O O6 0.150675 0.250000 0.315222
O O7 0.975548 0.499041 0.274850
O O8 0.190504 0.250000 0.108156
O O9 0.939695 0.250000 0.901939
O O10 0.760080 0.503215 0.070839
O O11 0.991020 0.250000 0.055406
#
# Coordination Sequence:
#
# PCOD9156789 Si02
#       7
#     2   2   2   2   2   2   2
#     4  10  19  33  48  64  88 117 153 191 223 265
#     4  12  23  35  50  69  94 122 155 191 226 272
#     4  10  19  30  47  70  96 123 150 185 232 275
#     4   8  14  24  41  65  92 116 143 180 223 270
#     4  10  21  33  47  65  87 119 153 187 228 263
#     4  10  18  30  49  72  94 120 152 188 229 270
#     4   8  14  25  40  63  93 119 142 176 225 275
#
# _framework density 20.749507999999999
#
# number of rings (size 3 to 8) (size 9 to 14) (size 15 to 20)
#    0.000    2.286    0.000    4.286    0.000    2.286 
#    0.000    0.000    0.000    0.000    0.000    2.000 
#    0.000    0.000    0.000    0.000    0.000    0.000 
#
# Total GULP energy -78150.522625 kJ/mol
# GULP energy per Si atom -5582.180187 kJ/mol
# Density = 2.070228 g / cm^3
# Si number density = 20.749508 Si / 1000 Ang^3
#
#
#
# Elastic Constant Matrix: (Units=GPa)
#
#
# Indices 1 2 3 4 5 6 
#
# 1 72.0336 47.5818 -7.4183 0.0000 -1.2679 0.0000
# 2 47.5818 219.1149 12.1264 0.0000 0.0875 0.0000
# 3 -7.4183 12.1264 55.1899 0.0000 14.8324 0.0000
# 4 0.0000 0.0000 0.0000 2.9437 0.0000 2.6473
# 5 -1.2679 0.0875 14.8324 0.0000 25.8004 0.0000
# 6 0.0000 0.0000 0.0000 2.6473 0.0000 25.2562
#
#
#
# Elastic Compliance Matrix: (Units=1/GPa)
#
#
# Indices 1 2 3 4 5 6 
#
# 1 0.016736 -0.003821 0.003388 0.000000 -0.001112 0.000000
# 2 -0.003821 0.005502 -0.001972 0.000000 0.000927 0.000000
# 3 0.003388 -0.001972 0.022426 0.000000 -0.012719 0.000000
# 4 0.000000 0.000000 0.000000 0.375071 0.000000 -0.039314
# 5 -0.001112 0.000927 -0.012719 0.000000 0.046014 0.000000
# 6 0.000000 0.000000 0.000000 -0.039314 0.000000 0.043715
#
#
# Mechanical properties :
#
#
# Convention : Reuss Voigt Hill
#
# Bulk Modulus (GPa) = 25.09120 50.10203 37.59662
# Shear Modulus (GPa) = 9.47761 30.40327 19.94044
#
# Velocity S-wave (km/s) = 2.13952 3.83201 3.10338
# Velocity P-wave (km/s) = 4.26873 6.61647 5.56775
#
# Compressibility (1/GPa) = 0.03985461
#
# Stress axis : x y z
#
# Youngs Moduli (GPa) = 59.75159 181.73902 44.59051
#
# Poissons Ratio (x) = 0.69449 -0.15108
# Poissons Ratio (y) = 0.22833 0.08792
# Poissons Ratio (z) = -0.20245 0.35835
#
# Static dielectric constant tensor:
#      x y z
#    x 1.667080 0.000000 0.014670 
#    y 0.000000 1.861090 0.000000 
#    z 0.014670 0.000000 1.790310 
# 
# From -- ./inp_files/9194.got.cif
#   From: 2010.05.17/outbox.cif.g08.bks.cpg/sg11_5_cif.got.tgz:9194.got - 2010.06.03 12:22:45.
