data_PCOD9156677
_publ_section_title
;
Structure prediction by ZEFSAII (Michael W. Deem and Ramdas Pophale) SiO2 
 PCOD9156677
Probable space group: P 21/M
;
_chemical_formula_sum "Si O2"
_cell_formula_units_Z 32
_cell_length_a 21.360951
_cell_length_b 8.633472
_cell_length_c 11.147453
_cell_angle_alpha 90.000000
_cell_angle_beta 53.700356
_cell_angle_gamma 90.000000
_cell_volume 1656.838194
_symmetry_space_group_name_H-M "P 21/M"
_symmetry_group_IT_number 11
_symmetry_cell_setting 'monoclinic'
loop_
_space_group_symop_operation_xyz
x,y,z
-x,1/2+y,-z
-x,-y,-z
x,1/2-y,z
loop_
_atom_site_type_symbol
_atom_site_label
_atom_site_fract_x
_atom_site_fract_y
_atom_site_fract_z
Si Si1 0.621445 0.569536 0.040961
Si Si2 0.333997 0.433664 0.633610
Si Si3 0.910435 0.063191 0.976573
Si Si4 0.240286 0.930574 0.520134
Si Si5 0.519476 0.932753 0.680056
Si Si6 0.750983 0.432857 0.041996
Si Si7 0.387660 0.930004 0.205041
Si Si8 0.914093 0.934340 0.240920
O O1 0.616511 0.750000 0.022916
O O2 0.560573 0.523450 0.214181
O O3 0.706810 0.521736 0.987185
O O4 0.599206 0.479413 0.945528
O O5 0.333191 0.250000 0.661602
O O6 0.279319 0.468124 0.580963
O O7 0.420788 0.479539 0.492840
O O8 0.297937 0.529247 0.782713
O O9 0.907369 0.250000 0.997227
O O10 0.839248 0.019912 0.971572
O O11 0.900871 0.985583 0.117616
O O12 0.996562 0.023609 0.832458
O O13 0.242767 0.750000 0.554159
O O14 0.296725 0.946967 0.342329
O O15 0.152001 0.983358 0.606574
O O16 0.504509 0.750000 0.687206
O O17 0.565753 0.969385 0.751054
O O18 0.748724 0.250000 0.020173
O O19 0.409276 0.750000 0.198524
O O20 0.905799 0.750000 0.259590
#
# Coordination Sequence:
#
# PCOD9156677 Si02
#       8
#     4   4   4   4   4   4   4   4
#     4  12  25  39  56  78 105 140 184 225 268 321
#     4  10  20  34  54  81 109 140 178 219 265 316
#     4   9  19  33  50  77 110 145 178 214 263 317
#     4  10  19  32  53  81 111 142 175 217 268 320
#     4  10  21  38  59  82 109 138 175 224 273 318
#     4  11  22  37  56  76 109 148 181 218 265 322
#     4  10  21  38  59  81 107 139 179 225 272 316
#     4  10  18  29  51  81 112 141 175 218 262 313
#
# _framework density 19.313896
#
# number of rings (size 3 to 8) (size 9 to 14) (size 15 to 20)
#    0.000    1.750    1.250    3.750    0.000    4.500 
#    0.000    0.000    0.000    0.750    0.000    0.000 
#    0.000    0.000    0.000    0.000    0.000    0.000 
#
# Total GULP energy -178769.319785 kJ/mol
# GULP energy per Si atom -5586.541243 kJ/mol
# Density = 1.926994 g / cm^3
# Si number density = 19.313896 Si / 1000 Ang^3
#
#
#
# Elastic Constant Matrix: (Units=GPa)
#
#
# Indices 1 2 3 4 5 6 
#
# 1 61.4854 -2.8017 11.4399 0.0000 -27.1074 0.0000
# 2 -2.8017 32.8558 6.8131 0.0000 -14.0480 0.0000
# 3 11.4399 6.8131 51.9558 0.0000 -23.4552 0.0000
# 4 0.0000 0.0000 0.0000 25.8085 0.0000 -4.9402
# 5 -27.1074 -14.0480 -23.4552 0.0000 32.4200 0.0000
# 6 0.0000 0.0000 0.0000 -4.9402 0.0000 25.3245
#
#
#
# Elastic Compliance Matrix: (Units=1/GPa)
#
#
# Indices 1 2 3 4 5 6 
#
# 1 0.035682 0.020683 0.010315 0.000000 0.046260 0.000000
# 2 0.020683 0.049799 0.009600 0.000000 0.045817 0.000000
# 3 0.010315 0.009600 0.031911 0.000000 0.035871 0.000000
# 4 0.000000 0.000000 0.000000 0.040250 0.000000 0.007852
# 5 0.046260 0.045817 0.035871 0.000000 0.115329 0.000000
# 6 0.000000 0.000000 0.000000 0.007852 0.000000 0.041019
#
#
# Mechanical properties :
#
#
# Convention : Reuss Voigt Hill
#
# Bulk Modulus (GPa) = 5.03559 19.68883 12.36221
# Shear Modulus (GPa) = 16.72289 25.43364 21.07827
#
# Velocity S-wave (km/s) = 2.94572 3.63279 3.30715
# Velocity P-wave (km/s) = 3.76598 5.27375 4.58231
#
# Compressibility (1/GPa) = 0.19858637
#
# Stress axis : x y z
#
# Youngs Moduli (GPa) = 28.02535 20.08076 31.33715
#
# Poissons Ratio (x) = -0.41533 -0.32324
# Poissons Ratio (y) = -0.57964 -0.30083
# Poissons Ratio (z) = -0.28908 -0.19277
#
# Static dielectric constant tensor:
#      x y z
#    x 1.689700 0.000000 -0.035110 
#    y 0.000000 1.644820 0.000000 
#    z -0.035110 0.000000 1.678200 
# 
# From -- ./inp_files/42770.got.cif
#   From: 2010.05.17/outbox.cif.g08.bks.cpg/sg11_22_cif.got.tgz:42770.got - 2010.06.03 12:22:45.
