data_PCOD9156534
_publ_section_title
;
Structure prediction by ZEFSAII (Michael W. Deem and Ramdas Pophale) SiO2 
 PCOD9156534
Probable space group: P 21/M
;
_chemical_formula_sum "Si O2"
_cell_formula_units_Z 32
_cell_length_a 20.625517
_cell_length_b 7.297400
_cell_length_c 27.468422
_cell_angle_alpha 90.000000
_cell_angle_beta 19.090884
_cell_angle_gamma 90.000000
_cell_volume 1352.210063
_symmetry_space_group_name_H-M "P 21/M"
_symmetry_group_IT_number 11
_symmetry_cell_setting 'monoclinic'
loop_
_space_group_symop_operation_xyz
x,y,z
-x,1/2+y,-z
-x,-y,-z
x,1/2-y,z
loop_
_atom_site_type_symbol
_atom_site_label
_atom_site_fract_x
_atom_site_fract_y
_atom_site_fract_z
Si Si1 0.317469 0.526333 0.838113
Si Si2 0.764113 0.974296 0.535107
Si Si3 0.560044 0.527450 0.883276
Si Si4 0.997630 0.041395 0.867769
Si Si5 0.356533 0.032188 0.555445
Si Si6 0.724415 0.472691 0.237930
Si Si7 0.822312 0.462867 0.791667
Si Si8 0.216479 0.467527 0.368110
O O1 0.309446 0.750000 0.845382
O O2 0.546065 0.473573 0.673307
O O3 0.222484 0.469162 0.854215
O O4 0.203441 0.460477 0.967267
O O5 0.772445 0.750000 0.528397
O O6 0.779371 0.036979 0.580142
O O7 0.956372 0.038869 0.369085
O O8 0.558242 0.750000 0.885049
O O9 0.721658 0.472997 0.809450
O O10 0.627397 0.463634 0.782509
O O11 0.345554 0.460594 0.053415
O O12 0.952788 0.250000 0.884409
O O13 0.140648 0.959314 0.724636
O O14 0.135379 0.044429 0.818745
O O15 0.330183 0.250000 0.568155
O O16 0.496829 0.970785 0.411908
O O17 0.500000 0.000000 0.500000
O O18 0.731667 0.250000 0.235556
O O19 0.842938 0.250000 0.790392
O O20 0.250108 0.250000 0.347832
O O21 0.000000 0.500000 0.500000
#
# Coordination Sequence:
#
# PCOD9156534 Si02
#       8
#     4   4   4   4   4   4   4   4
#     4   9  17  28  42  62  87 116 145 176 214 256
#     4   9  17  29  44  62  88 118 145 173 216 266
#     4   9  17  27  43  68  90 106 137 182 217 249
#     4   9  16  27  44  64  86 111 142 178 215 253
#     4   8  14  24  39  61  84 105 133 172 213 249
#     4   9  16  27  44  64  85 110 144 180 213 251
#     4   9  16  28  45  64  86 113 141 172 214 261
#     4  10  18  29  46  67  88 112 143 179 216 257
#
# _framework density 23.664961999999999
#
# number of rings (size 3 to 8) (size 9 to 14) (size 15 to 20)
#    0.000    3.000    1.250    0.375    0.000    0.000 
#    0.000    1.250    0.000   10.500    0.000    0.000 
#    0.000   10.000    0.000    0.000    0.000    0.000 
#
# Total GULP energy -178514.103601 kJ/mol
# GULP energy per Si atom -5578.565738 kJ/mol
# Density = 2.361110 g / cm^3
# Si number density = 23.664962 Si / 1000 Ang^3
#
#
#
# Elastic Constant Matrix: (Units=GPa)
#
#
# Indices 1 2 3 4 5 6 
#
# 1 23.0888 -10.4732 9.9155 0.0000 -0.6779 0.0000
# 2 -10.4732 102.3764 -0.5781 0.0000 3.2037 0.0000
# 3 9.9155 -0.5781 190.6937 0.0000 3.9961 0.0000
# 4 0.0000 0.0000 0.0000 -2.2768 0.0000 -2.7475
# 5 -0.6779 3.2037 3.9961 0.0000 32.1467 0.0000
# 6 0.0000 0.0000 0.0000 -2.7475 0.0000 4.7603
#
#
#
# Elastic Compliance Matrix: (Units=1/GPa)
#
#
# Indices 1 2 3 4 5 6 
#
# 1 0.046516 0.004720 -0.002421 0.000000 0.000812 0.000000
# 2 0.004720 0.010278 -0.000195 0.000000 -0.000900 0.000000
# 3 -0.002421 -0.000195 0.005384 0.000000 -0.000701 0.000000
# 4 0.000000 0.000000 0.000000 -0.258891 0.000000 -0.149425
# 5 0.000812 -0.000900 -0.000701 0.000000 0.031301 0.000000
# 6 0.000000 0.000000 0.000000 -0.149425 0.000000 0.123825
#
#
# Mechanical properties :
#
#
# Convention : Reuss Voigt Hill
#
# Bulk Modulus (GPa) = 15.06411 34.87636 24.97023
# Shear Modulus (GPa) = -211.28771 28.07901 -91.60435
#
# Velocity S-wave (km/s) = -9.45922 3.44833 -6.22839
# Velocity P-wave (km/s) = 10.62652 5.53391 6.41478
#
# Compressibility (1/GPa) = 0.06638294
#
# Stress axis : x y z
#
# Youngs Moduli (GPa) = 21.49817 97.29740 185.73516
#
# Poissons Ratio (x) = -0.45920 0.44973
# Poissons Ratio (y) = -0.10146 0.03629
# Poissons Ratio (z) = 0.05206 0.01901
#
# Static dielectric constant tensor:
#      x y z
#    x 1.829070 0.000000 0.014040 
#    y 0.000000 1.893440 0.000000 
#    z 0.014040 0.000000 1.946270 
# 
# From -- ./inp_files/72073.got.cif
#   From: 2010.05.17/outbox.cif.g08.bks.cpg/sg11_37_cif.got.tgz:72073.got - 2010.06.03 12:22:45.
