data_PCOD9156191
_publ_section_title
;
Structure prediction by ZEFSAII (Michael W. Deem and Ramdas Pophale) SiO2 
 PCOD9156191
Probable space group: P 21/M
;
_chemical_formula_sum "Si O2"
_cell_formula_units_Z 22
_cell_length_a 6.865779
_cell_length_b 21.731158
_cell_length_c 5.451935
_cell_angle_alpha 90.000000
_cell_angle_beta 76.610463
_cell_angle_gamma 90.000000
_cell_volume 791.325276
_symmetry_space_group_name_H-M "P 21/M"
_symmetry_group_IT_number 11
_symmetry_cell_setting 'monoclinic'
loop_
_space_group_symop_operation_xyz
x,y,z
-x,1/2+y,-z
-x,-y,-z
x,1/2-y,z
loop_
_atom_site_type_symbol
_atom_site_label
_atom_site_fract_x
_atom_site_fract_y
_atom_site_fract_z
Si Si1 0.884093 0.438779 0.592350
Si Si2 0.519838 0.750000 0.248022
Si Si3 0.556379 0.602363 0.302796
Si Si4 0.370139 0.376120 0.230129
Si Si5 0.080295 0.750000 0.163635
Si Si6 0.139414 0.250000 0.221136
Si Si7 0.144566 0.626809 0.894665
O O1 0.640609 0.439340 0.650270
O O2 0.920626 0.412370 0.852047
O O3 0.000000 0.500000 0.500000
O O4 0.925624 0.393836 0.350419
O O5 0.502801 0.676716 0.341224
O O6 0.323599 0.750000 0.134388
O O7 0.752478 0.750000 0.105332
O O8 0.680349 0.588525 0.508473
O O9 0.673259 0.593451 0.017239
O O10 0.273971 0.309688 0.260301
O O11 0.613902 0.373009 0.164250
O O12 0.008815 0.750000 0.472578
O O13 0.060700 0.694817 0.965465
#
# Coordination Sequence:
#
# PCOD9156191 Si02
#       7
#     4   2   4   4   2   2   4
#     4  10  19  33  55  84 110 147 200 233 279 340
#     4  10  17  36  52  80 120 140 194 226 282 354
#     4   9  17  29  56  72 104 150 169 236 278 316
#     4   9  16  32  49  72 104 139 188 207 269 334
#     4  12  20  35  58  88 124 150 182 236 300 346
#     4  10  19  31  54  82 114 158 180 224 290 350
#     4  10  20  35  54  82 116 150 180 243 286 332
#
# _framework density 27.801462000000001
#
# number of rings (size 3 to 8) (size 9 to 14) (size 15 to 20)
#    0.000    2.182    5.455    1.091    0.000    2.909 
#    0.000    7.273    0.000    0.000    0.000   48.364 
#    0.000    0.000    0.000    0.000    0.000    0.000 
#
# Total GULP energy -122797.921320 kJ/mol
# GULP energy per Si atom -5581.723696 kJ/mol
# Density = 2.773818 g / cm^3
# Si number density = 27.801462 Si / 1000 Ang^3
#
#
#
# Elastic Constant Matrix: (Units=GPa)
#
#
# Indices 1 2 3 4 5 6 
#
# 1 262.0601 -5.6901 7.8313 0.0000 57.3164 0.0000
# 2 -5.6901 57.5339 -18.9670 0.0000 -15.9892 0.0000
# 3 7.8313 -18.9670 177.3677 0.0000 0.4792 0.0000
# 4 0.0000 0.0000 0.0000 44.2327 0.0000 12.6368
# 5 57.3164 -15.9892 0.4792 0.0000 82.1750 0.0000
# 6 0.0000 0.0000 0.0000 12.6368 0.0000 52.7942
#
#
#
# Elastic Compliance Matrix: (Units=1/GPa)
#
#
# Indices 1 2 3 4 5 6 
#
# 1 0.004525 -0.000540 -0.000249 0.000000 -0.003260 0.000000
# 2 -0.000540 0.019143 0.002060 0.000000 0.004090 0.000000
# 3 -0.000249 0.002060 0.005868 0.000000 0.000540 0.000000
# 4 0.000000 0.000000 0.000000 0.024267 0.000000 -0.005809
# 5 -0.003260 0.004090 0.000540 0.000000 0.015235 0.000000
# 6 0.000000 0.000000 0.000000 -0.005809 0.000000 0.020332
#
#
# Mechanical properties :
#
#
# Convention : Reuss Voigt Hill
#
# Bulk Modulus (GPa) = 31.17483 51.47890 41.32686
# Shear Modulus (GPa) = 51.27121 70.09289 60.68205
#
# Velocity S-wave (km/s) = 4.29906 5.02660 4.67700
# Velocity P-wave (km/s) = 5.99002 7.22812 6.63800
#
# Compressibility (1/GPa) = 0.03207716
#
# Stress axis : x y z
#
# Youngs Moduli (GPa) = 221.01778 52.23771 170.42136
#
# Poissons Ratio (x) = 0.02823 0.04239
# Poissons Ratio (y) = 0.11943 -0.35105
# Poissons Ratio (z) = 0.05498 -0.10761
#
# Static dielectric constant tensor:
#      x y z
#    x 1.933590 0.000000 0.056900 
#    y 0.000000 2.083880 0.000000 
#    z 0.056900 0.000000 2.438410 
# 
# From -- ./inp_files/2345.got.cif
#   From: 2010.05.17/outbox.cif.g08.bks.cpg/sg11_2_cif.got.tgz:2345.got - 2010.06.03 12:22:45.
