data_PCOD9156588
_publ_section_title
;
Structure prediction by ZEFSAII (Michael W. Deem and Ramdas Pophale) SiO2 
 PCOD9156588
Probable space group: P 21/M
;
_chemical_formula_sum "Si O2"
_cell_formula_units_Z 32
_cell_length_a 15.569755
_cell_length_b 8.211137
_cell_length_c 15.641685
_cell_angle_alpha 90.000000
_cell_angle_beta 79.169646
_cell_angle_gamma 90.000000
_cell_volume 1964.098060
_symmetry_space_group_name_H-M "P 21/M"
_symmetry_group_IT_number 11
_symmetry_cell_setting 'monoclinic'
loop_
_space_group_symop_operation_xyz
x,y,z
-x,1/2+y,-z
-x,-y,-z
x,1/2-y,z
loop_
_atom_site_type_symbol
_atom_site_label
_atom_site_fract_x
_atom_site_fract_y
_atom_site_fract_z
Si Si1 0.201852 0.556440 0.923705
Si Si2 0.063898 0.053049 0.609574
Si Si3 0.873601 0.553048 0.582118
Si Si4 0.752665 0.553447 0.753197
Si Si5 0.924139 0.946036 0.201446
Si Si6 0.390282 0.444105 0.934910
Si Si7 0.119650 0.552529 0.117927
Si Si8 0.580189 0.946819 0.875113
O O1 0.194489 0.750000 0.926456
O O2 0.149631 0.494318 0.851652
O O3 0.303509 0.510226 0.907192
O O4 0.157164 0.493855 0.019991
O O5 0.065664 0.250000 0.609508
O O6 0.120748 0.996811 0.517410
O O7 0.090792 0.995300 0.698597
O O8 0.964442 0.000240 0.609030
O O9 0.871754 0.750000 0.581746
O O10 0.794283 0.494577 0.656360
O O11 0.749640 0.750000 0.750581
O O12 0.818289 0.505744 0.817220
O O13 0.655816 0.496058 0.796844
O O14 0.927568 0.750000 0.203527
O O15 0.020087 0.002565 0.152258
O O16 0.384895 0.250000 0.937657
O O17 0.482122 0.494915 0.876169
O O18 0.394611 0.502676 0.033231
O O19 0.120479 0.750000 0.118123
O O20 0.579625 0.750000 0.875920
#
# Coordination Sequence:
#
# PCOD9156588 Si02
#       8
#     4   4   4   4   4   4   4   4
#     4  11  22  33  47  67  92 124 162 200 232 270
#     4   9  17  30  46  66  93 124 156 192 231 271
#     4   9  17  28  46  70  94 121 154 190 231 275
#     4  10  18  29  47  71  97 125 154 188 229 276
#     4  10  20  33  47  64  92 129 164 195 228 269
#     4  10  19  32  49  68  91 121 155 192 232 277
#     4  10  20  32  45  65  94 127 162 194 225 267
#     4   9  18  31  47  68  94 122 152 188 231 277
#
# _framework density 16.292463999999999
#
# number of rings (size 3 to 8) (size 9 to 14) (size 15 to 20)
#    0.000    2.250    2.500    1.125    0.000    2.500 
#    0.000    0.000    0.000    0.000    0.000    0.875 
#    0.000    0.000    0.000    0.000    0.000    0.000 
#
# Total GULP energy -178457.017179 kJ/mol
# GULP energy per Si atom -5576.781787 kJ/mol
# Density = 1.625538 g / cm^3
# Si number density = 16.292464 Si / 1000 Ang^3
#
#
#
# Elastic Constant Matrix: (Units=GPa)
#
#
# Indices 1 2 3 4 5 6 
#
# 1 108.7766 5.0288 86.8632 0.0000 -6.8388 0.0000
# 2 5.0288 3.2926 13.3959 0.0000 -1.3467 0.0000
# 3 86.8632 13.3959 136.3777 0.0000 -16.1789 0.0000
# 4 0.0000 0.0000 0.0000 11.0183 0.0000 4.8328
# 5 -6.8388 -1.3467 -16.1789 0.0000 22.3559 0.0000
# 6 0.0000 0.0000 0.0000 4.8328 0.0000 21.5301
#
#
#
# Elastic Compliance Matrix: (Units=1/GPa)
#
#
# Indices 1 2 3 4 5 6 
#
# 1 0.021506 0.038621 -0.017979 0.000000 -0.004106 0.000000
# 2 0.038621 0.575978 -0.082763 0.000000 -0.013384 0.000000
# 3 -0.017979 -0.082763 0.028080 0.000000 0.009836 0.000000
# 4 0.000000 0.000000 0.000000 0.100670 0.000000 -0.022597
# 5 -0.004106 -0.013384 0.009836 0.000000 0.049787 0.000000
# 6 0.000000 0.000000 0.000000 -0.022597 0.000000 0.051519
#
#
# Mechanical properties :
#
#
# Convention : Reuss Voigt Hill
#
# Bulk Modulus (GPa) = 1.99472 51.00252 26.49862
# Shear Modulus (GPa) = 4.46872 20.52478 12.49675
#
# Velocity S-wave (km/s) = 1.65794 3.55318 2.77253
# Velocity P-wave (km/s) = 2.21179 6.94303 5.15256
#
# Compressibility (1/GPa) = 0.50132278
#
# Stress axis : x y z
#
# Youngs Moduli (GPa) = 46.49765 1.73618 35.61225
#
# Poissons Ratio (x) = -0.06705 0.64027
# Poissons Ratio (y) = -1.79578 2.94737
# Poissons Ratio (z) = 0.83597 0.14369
#
# Static dielectric constant tensor:
#      x y z
#    x 1.520660 0.000000 -0.027970 
#    y 0.000000 1.559770 0.000000 
#    z -0.027970 0.000000 1.573330 
# 
# From -- ./inp_files/51188.got.cif
#   From: 2010.05.17/outbox.cif.g08.bks.cpg/sg11_26_cif.got.tgz:51188.got - 2010.06.03 12:22:45.
