data_PCOD9156949
_publ_section_title
;
Structure prediction by ZEFSAII (Michael W. Deem and Ramdas Pophale) SiO2 
 PCOD9156949
Probable space group: P 21/M
;
_chemical_formula_sum "Si O2"
_cell_formula_units_Z 32
_cell_length_a 18.754456
_cell_length_b 7.486188
_cell_length_c 24.882525
_cell_angle_alpha 90.000000
_cell_angle_beta 29.027839
_cell_angle_gamma 90.000000
_cell_volume 1695.162528
_symmetry_space_group_name_H-M "P 21/M"
_symmetry_group_IT_number 11
_symmetry_cell_setting 'monoclinic'
loop_
_space_group_symop_operation_xyz
x,y,z
-x,1/2+y,-z
-x,-y,-z
x,1/2-y,z
loop_
_atom_site_type_symbol
_atom_site_label
_atom_site_fract_x
_atom_site_fract_y
_atom_site_fract_z
Si Si1 0.963445 0.537592 0.961941
Si Si2 0.868293 0.036360 0.628746
Si Si3 0.080103 0.034315 0.576979
Si Si4 0.343012 0.963721 0.319670
Si Si5 0.776720 0.543065 0.288992
Si Si6 0.531911 0.532723 0.370473
Si Si7 0.365017 0.468342 0.816146
Si Si8 0.194164 0.457348 0.612807
O O1 0.966378 0.750000 0.952435
O O2 0.087204 0.461414 0.841457
O O3 0.797739 0.472750 0.060478
O O4 0.000000 0.500000 0.000000
O O5 0.851041 0.250000 0.645403
O O6 0.725305 0.966799 0.691400
O O7 0.934984 0.968877 0.640973
O O8 0.000000 0.000000 0.500000
O O9 0.071832 0.250000 0.584706
O O10 0.107502 0.964759 0.618907
O O11 0.222429 0.994528 0.446049
O O12 0.355900 0.750000 0.305798
O O13 0.500832 0.030865 0.235079
O O14 0.738738 0.750000 0.324800
O O15 0.635968 0.467611 0.350226
O O16 0.817328 0.462500 0.319960
O O17 0.528966 0.750000 0.373278
O O18 0.600484 0.479370 0.268051
O O19 0.366382 0.467059 0.484720
O O20 0.364746 0.250000 0.816887
O O21 0.147709 0.250000 0.646852
#
# Coordination Sequence:
#
# PCOD9156949 Si02
#       8
#     4   4   4   4   4   4   4   4
#     4  11  21  35  52  68  88 115 150 191 231 267
#     4   8  14  23  38  59  85 114 143 171 206 258
#     4   9  16  26  39  62  92 117 141 175 215 255
#     4   9  15  26  43  62  85 116 146 173 213 263
#     4  10  21  36  48  63  89 121 155 190 224 258
#     4  10  18  31  48  64  90 120 149 185 220 260
#     4   9  17  29  46  67  89 114 144 184 224 257
#     4  10  20  31  45  66  94 122 150 184 221 264
#
# _framework density 18.877244999999998
#
# number of rings (size 3 to 8) (size 9 to 14) (size 15 to 20)
#    0.000    2.500    2.500    0.750    0.000    1.000 
#    0.000    1.250    0.000    0.000    0.000    0.875 
#    0.000    0.000    0.000    0.000    0.000    0.000 
#
# Total GULP energy -178415.169149 kJ/mol
# GULP energy per Si atom -5575.474036 kJ/mol
# Density = 1.883428 g / cm^3
# Si number density = 18.877245 Si / 1000 Ang^3
#
#
#
# Elastic Constant Matrix: (Units=GPa)
#
#
# Indices 1 2 3 4 5 6 
#
# 1 208.0478 4.4379 33.5879 0.0000 -14.0590 0.0000
# 2 4.4379 55.9519 -8.9259 0.0000 -2.5137 0.0000
# 3 33.5879 -8.9259 23.8318 0.0000 -0.5441 0.0000
# 4 0.0000 0.0000 0.0000 13.4306 0.0000 0.2525
# 5 -14.0590 -2.5137 -0.5441 0.0000 26.2942 0.0000
# 6 0.0000 0.0000 0.0000 0.2525 0.0000 1.6307
#
#
#
# Elastic Compliance Matrix: (Units=1/GPa)
#
#
# Indices 1 2 3 4 5 6 
#
# 1 0.006697 -0.002002 -0.010116 0.000000 0.003180 0.000000
# 2 -0.002002 0.019709 0.010227 0.000000 0.001025 0.000000
# 3 -0.010116 0.010227 0.059976 0.000000 -0.003190 0.000000
# 4 0.000000 0.000000 0.000000 0.074674 0.000000 -0.011560
# 5 0.003180 0.001025 -0.003190 0.000000 0.039764 0.000000
# 6 0.000000 0.000000 0.000000 -0.011560 0.000000 0.615012
#
#
# Mechanical properties :
#
#
# Convention : Reuss Voigt Hill
#
# Bulk Modulus (GPa) = 12.10670 38.44792 25.27731
# Shear Modulus (GPa) = 5.90215 25.51988 15.71101
#
# Velocity S-wave (km/s) = 1.77014 3.68079 2.88804
# Velocity P-wave (km/s) = 3.25655 6.20289 4.95384
#
# Compressibility (1/GPa) = 0.08259892
#
# Stress axis : x y z
#
# Youngs Moduli (GPa) = 149.31073 50.73863 16.67331
#
# Poissons Ratio (x) = 0.10159 0.16868
# Poissons Ratio (y) = 0.29895 -0.17052
# Poissons Ratio (z) = 1.51050 -0.51890
#
# Static dielectric constant tensor:
#      x y z
#    x 1.711660 0.000000 -0.043090 
#    y 0.000000 1.738470 0.000000 
#    z -0.043090 0.000000 1.533950 
# 
# From -- ./inp_files/42456.got.cif
#   From: 2010.05.17/outbox.cif.g08.bks.cpg/sg11_22_cif.got.tgz:42456.got - 2010.06.03 12:22:45.
