data_PCOD9156110
_publ_section_title
;
Structure prediction by ZEFSAII (Michael W. Deem and Ramdas Pophale) SiO2 
 PCOD9156110
Probable space group: P 21/M
;
_chemical_formula_sum "Si O2"
_cell_formula_units_Z 26
_cell_length_a 8.014843
_cell_length_b 22.342435
_cell_length_c 7.712759
_cell_angle_alpha 90.000000
_cell_angle_beta 129.639431
_cell_angle_gamma 90.000000
_cell_volume 1063.574610
_symmetry_space_group_name_H-M "P 21/M"
_symmetry_group_IT_number 11
_symmetry_cell_setting 'monoclinic'
loop_
_space_group_symop_operation_xyz
x,y,z
-x,1/2+y,-z
-x,-y,-z
x,1/2-y,z
loop_
_atom_site_type_symbol
_atom_site_label
_atom_site_fract_x
_atom_site_fract_y
_atom_site_fract_z
Si Si1 0.656827 0.458684 0.222987
Si Si2 0.391851 0.750000 0.580133
Si Si3 0.638660 0.953408 0.481793
Si Si4 0.666120 0.629240 0.785446
Si Si5 0.851019 0.250000 0.938981
Si Si6 0.966198 0.250000 0.384528
Si Si7 0.645019 0.371490 0.942030
Si Si8 0.212263 0.182047 0.815825
O O1 0.765612 0.506858 0.424035
O O2 0.508304 0.415527 0.243442
O O3 0.500000 0.500000 0.000000
O O4 0.769559 0.413036 0.164112
O O5 0.535465 0.690035 0.653577
O O6 0.199609 0.750000 0.304111
O O7 0.276333 0.750000 0.694450
O O8 0.760803 0.907311 0.687740
O O9 0.453898 0.913963 0.268131
O O10 0.500000 0.000000 0.500000
O O11 0.846508 0.646019 0.049815
O O12 0.746677 0.312774 0.927995
O O13 0.024191 0.250000 0.219310
O O14 0.066103 0.192249 0.550306
O O15 0.432750 0.346938 0.899702
O O16 0.251955 0.250000 0.902194
#
# Coordination Sequence:
#
# PCOD9156110 Si02
#       8
#     4   2   4   4   2   2   4   4
#     4   8  16  27  47  76 107 132 161 212 277 306
#     4  12  21  33  53  83 107 144 174 216 284 316
#     4   9  17  29  47  82 109 125 167 226 271 310
#     4  10  17  31  53  78 107 131 171 226 269 312
#     4  12  21  33  55  85 107 144 178 216 276 328
#     4  10  22  38  46  72 124 144 180 212 256 340
#     4  10  17  32  54  81 106 131 176 221 266 323
#     4   9  18  33  50  73 106 144 168 212 271 312
#
# _framework density 24.445865000000001
#
# number of rings (size 3 to 8) (size 9 to 14) (size 15 to 20)
#    0.462    1.846    3.077    1.846    0.000    0.000 
#    2.769    0.000    0.000    0.000    0.000  135.692 
#    0.000    0.000    0.000    0.000    0.000    0.000 
#
# Total GULP energy -144757.932706 kJ/mol
# GULP energy per Si atom -5567.612796 kJ/mol
# Density = 2.439023 g / cm^3
# Si number density = 24.445865 Si / 1000 Ang^3
#
#
#
# Elastic Constant Matrix: (Units=GPa)
#
#
# Indices 1 2 3 4 5 6 
#
# 1 65.2130 30.8417 23.8939 0.0000 -5.6722 0.0000
# 2 30.8417 162.5057 45.6354 0.0000 -14.8125 0.0000
# 3 23.8939 45.6354 93.5207 0.0000 -25.5378 0.0000
# 4 0.0000 0.0000 0.0000 48.4938 0.0000 -30.1205
# 5 -5.6722 -14.8125 -25.5378 0.0000 26.3001 0.0000
# 6 0.0000 0.0000 0.0000 -30.1205 0.0000 16.6259
#
#
#
# Elastic Compliance Matrix: (Units=1/GPa)
#
#
# Indices 1 2 3 4 5 6 
#
# 1 0.017726 -0.002443 -0.003632 0.000000 -0.001079 0.000000
# 2 -0.002443 0.007482 -0.002749 0.000000 0.001018 0.000000
# 3 -0.003632 -0.002749 0.016773 0.000000 0.013955 0.000000
# 4 0.000000 0.000000 0.000000 -0.164622 0.000000 -0.298239
# 5 -0.001079 0.001018 0.013955 0.000000 0.051914 0.000000
# 6 0.000000 0.000000 0.000000 -0.298239 0.000000 -0.480163
#
#
# Mechanical properties :
#
#
# Convention : Reuss Voigt Hill
#
# Bulk Modulus (GPa) = 41.09384 57.99792 49.54588
# Shear Modulus (GPa) = -9.52143 33.00851 11.74354
#
# Velocity S-wave (km/s) = -1.97569 3.67859 2.19416
# Velocity P-wave (km/s) = 3.41206 6.46678 5.17017
#
# Compressibility (1/GPa) = 0.02433455
#
# Stress axis : x y z
#
# Youngs Moduli (GPa) = 56.41303 133.65446 59.62017
#
# Poissons Ratio (x) = 0.32649 0.21652
# Poissons Ratio (y) = 0.13780 0.16389
# Poissons Ratio (z) = 0.20487 0.36741
#
# Static dielectric constant tensor:
#      x y z
#    x 1.895250 0.000000 0.014180 
#    y 0.000000 2.028900 0.000000 
#    z 0.014180 0.000000 2.034010 
# 
# From -- ./inp_files/14660.got.cif
#   From: 2010.05.17/outbox.cif.g08.bks.cpg/sg11_8_cif.got.tgz:14660.got - 2010.06.03 12:22:45.
