data_PCOD9156420
_publ_section_title
;
Structure prediction by ZEFSAII (Michael W. Deem and Ramdas Pophale) SiO2 
 PCOD9156420
Probable space group: P 21/M
;
_chemical_formula_sum "Si O2"
_cell_formula_units_Z 32
_cell_length_a 20.573785
_cell_length_b 7.716022
_cell_length_c 14.932464
_cell_angle_alpha 90.000000
_cell_angle_beta 45.495516
_cell_angle_gamma 90.000000
_cell_volume 1690.626927
_symmetry_space_group_name_H-M "P 21/M"
_symmetry_group_IT_number 11
_symmetry_cell_setting 'monoclinic'
loop_
_space_group_symop_operation_xyz
x,y,z
-x,1/2+y,-z
-x,-y,-z
x,1/2-y,z
loop_
_atom_site_type_symbol
_atom_site_label
_atom_site_fract_x
_atom_site_fract_y
_atom_site_fract_z
Si Si1 0.161152 0.457732 0.032035
Si Si2 0.026212 0.044727 0.872796
Si Si3 0.709252 0.549235 0.946700
Si Si4 0.363171 0.038308 0.355754
Si Si5 0.771451 0.537336 0.364850
Si Si6 0.441081 0.545415 0.764991
Si Si7 0.604970 0.959257 0.876611
Si Si8 0.690686 0.540819 0.256562
O O1 0.171956 0.250000 0.023531
O O2 0.056933 0.493733 0.110890
O O3 0.204760 0.526899 0.082211
O O4 0.225495 0.519507 0.888007
O O5 0.033941 0.250000 0.862012
O O6 0.125366 0.974833 0.749748
O O7 0.000000 0.000000 0.000000
O O8 0.730776 0.750000 0.906509
O O9 0.669939 0.472000 0.893139
O O10 0.627482 0.542842 0.098399
O O11 0.361921 0.250000 0.355435
O O12 0.276904 0.981513 0.497160
O O13 0.456332 0.986850 0.316239
O O14 0.368871 0.978737 0.247726
O O15 0.772613 0.750000 0.363521
O O16 0.710840 0.483837 0.337722
O O17 0.436938 0.750000 0.788265
O O18 0.401024 0.515814 0.704876
O O19 0.611613 0.750000 0.870023
O O20 0.500000 0.000000 0.000000
O O21 0.691114 0.750000 0.256199
#
# Coordination Sequence:
#
# PCOD9156420 Si02
#       8
#     4   4   4   4   4   4   4   4
#     4   9  17  31  48  71  97 125 161 200 240 286
#     4  11  20  32  52  74  95 125 162 203 246 287
#     4   9  18  31  49  71  99 131 160 192 241 296
#     4   9  18  31  48  71  99 129 164 202 239 284
#     4   9  18  33  49  67  96 133 165 196 241 294
#     4  10  18  28  45  72 100 126 161 204 238 271
#     4  10  18  31  52  76  98 127 164 202 241 284
#     4   9  17  31  48  66  95 135 166 191 234 292
#
# _framework density 18.927890999999999
#
# number of rings (size 3 to 8) (size 9 to 14) (size 15 to 20)
#    0.000    2.500    2.500    1.500    0.000    2.500 
#    0.000    0.000    0.000    6.750    0.000    0.000 
#    0.000    0.000    0.000    0.000    0.000    0.375 
#
# Total GULP energy -178463.382587 kJ/mol
# GULP energy per Si atom -5576.980706 kJ/mol
# Density = 1.888481 g / cm^3
# Si number density = 18.927891 Si / 1000 Ang^3
#
#
#
# Elastic Constant Matrix: (Units=GPa)
#
#
# Indices 1 2 3 4 5 6 
#
# 1 173.5041 5.7022 90.7949 0.0000 6.7195 0.0000
# 2 5.7022 29.4977 -0.9513 0.0000 2.8973 0.0000
# 3 90.7949 -0.9513 122.0663 0.0000 9.1018 0.0000
# 4 0.0000 0.0000 0.0000 11.3754 0.0000 -4.1849
# 5 6.7195 2.8973 9.1018 0.0000 24.5369 0.0000
# 6 0.0000 0.0000 0.0000 -4.1849 0.0000 18.0921
#
#
#
# Elastic Compliance Matrix: (Units=1/GPa)
#
#
# Indices 1 2 3 4 5 6 
#
# 1 0.009564 -0.002107 -0.007152 0.000000 0.000282 0.000000
# 2 -0.002107 0.034804 0.002162 0.000000 -0.004335 0.000000
# 3 -0.007152 0.002162 0.013783 0.000000 -0.003409 0.000000
# 4 0.000000 0.000000 0.000000 0.096086 0.000000 0.022226
# 5 0.000282 -0.004335 -0.003409 0.000000 0.042454 0.000000
# 6 0.000000 0.000000 0.000000 0.022226 0.000000 0.060414
#
#
# Mechanical properties :
#
#
# Convention : Reuss Voigt Hill
#
# Bulk Modulus (GPa) = 22.74953 57.35108 40.05031
# Shear Modulus (GPa) = 17.48550 26.10235 21.79393
#
# Velocity S-wave (km/s) = 3.04270 3.71757 3.39694
# Velocity P-wave (km/s) = 4.93854 6.98518 6.04904
#
# Compressibility (1/GPa) = 0.04395695
#
# Stress axis : x y z
#
# Youngs Moduli (GPa) = 104.55563 28.73248 72.55437
#
# Poissons Ratio (x) = 0.06055 0.51888
# Poissons Ratio (y) = 0.22033 -0.15685
# Poissons Ratio (z) = 0.74773 -0.06212
#
# Static dielectric constant tensor:
#      x y z
#    x 1.677560 0.000000 0.003680 
#    y 0.000000 1.709630 0.000000 
#    z 0.003680 0.000000 1.636020 
# 
# From -- ./inp_files/54228.got.cif
#   From: 2010.05.17/outbox.cif.g08.bks.cpg/sg11_28_cif.got.tgz:54228.got - 2010.06.03 12:22:45.
