data_PCOD9156601
_publ_section_title
;
Structure prediction by ZEFSAII (Michael W. Deem and Ramdas Pophale) SiO2 
 PCOD9156601
Probable space group: P 21/M
;
_chemical_formula_sum "Si O2"
_cell_formula_units_Z 32
_cell_length_a 18.240207
_cell_length_b 8.649379
_cell_length_c 24.513921
_cell_angle_alpha 90.000000
_cell_angle_beta 30.667986
_cell_angle_gamma 90.000000
_cell_volume 1972.653371
_symmetry_space_group_name_H-M "P 21/M"
_symmetry_group_IT_number 11
_symmetry_cell_setting 'monoclinic'
loop_
_space_group_symop_operation_xyz
x,y,z
-x,1/2+y,-z
-x,-y,-z
x,1/2-y,z
loop_
_atom_site_type_symbol
_atom_site_label
_atom_site_fract_x
_atom_site_fract_y
_atom_site_fract_z
Si Si1 0.813745 0.564367 0.263230
Si Si2 0.944808 0.063390 0.977703
Si Si3 0.113913 0.564110 0.383513
Si Si4 0.766858 0.066011 0.411147
Si Si5 0.895970 0.935877 0.436654
Si Si6 0.449865 0.564499 0.637137
Si Si7 0.381599 0.936114 0.806783
Si Si8 0.667196 0.435372 0.670946
O O1 0.811996 0.750000 0.268120
O O2 0.822624 0.493301 0.317440
O O3 0.667754 0.508006 0.327639
O O4 0.946233 0.516081 0.139721
O O5 0.946398 0.250000 0.979598
O O6 0.779738 0.014997 0.074832
O O7 0.000000 0.000000 0.000000
O O8 0.108240 0.750000 0.387718
O O9 0.266552 0.519733 0.312273
O O10 0.000000 0.500000 0.500000
O O11 0.047601 0.516863 0.367779
O O12 0.756189 0.250000 0.418166
O O13 0.865341 0.009764 0.398033
O O14 0.608405 0.995344 0.522210
O O15 0.889488 0.750000 0.436404
O O16 0.769762 0.990001 0.558891
O O17 0.446195 0.750000 0.634469
O O18 0.410668 0.523442 0.724725
O O19 0.391312 0.750000 0.804720
O O20 0.506459 0.009547 0.763025
O O21 0.675955 0.250000 0.659750
#
# Coordination Sequence:
#
# PCOD9156601 Si02
#       8
#     4   4   4   4   4   4   4   4
#     4  11  23  38  55  74  98 131 172 212 254 298
#     4  10  21  37  56  75  97 127 167 211 253 298
#     4   8  16  28  44  68  99 132 164 199 241 293
#     4  12  24  36  51  73 103 135 172 210 248 297
#     4  10  18  31  49  70 100 136 168 202 248 296
#     4  11  21  35  54  74 103 135 168 206 249 299
#     4  10  20  33  51  75 103 135 167 203 250 297
#     4  10  18  29  47  74 104 133 167 203 243 295
#
# _framework density 16.221805
#
# number of rings (size 3 to 8) (size 9 to 14) (size 15 to 20)
#    0.000    1.750    2.500    3.000    0.000    2.500 
#    0.000    0.000    0.000    0.000    0.000    0.875 
#    0.000    0.000    0.000    0.000    0.000    0.000 
#
# Total GULP energy -178546.188394 kJ/mol
# GULP energy per Si atom -5579.568387 kJ/mol
# Density = 1.618488 g / cm^3
# Si number density = 16.221805 Si / 1000 Ang^3
#
#
#
# Elastic Constant Matrix: (Units=GPa)
#
#
# Indices 1 2 3 4 5 6 
#
# 1 146.9331 19.2820 62.4761 0.0000 -12.8113 0.0000
# 2 19.2820 23.7997 14.6258 0.0000 1.7375 0.0000
# 3 62.4761 14.6258 64.0002 0.0000 7.0492 0.0000
# 4 0.0000 0.0000 0.0000 14.4968 0.0000 -3.9954
# 5 -12.8113 1.7375 7.0492 0.0000 21.9696 0.0000
# 6 0.0000 0.0000 0.0000 -3.9954 0.0000 25.5220
#
#
#
# Elastic Compliance Matrix: (Units=1/GPa)
#
#
# Indices 1 2 3 4 5 6 
#
# 1 0.015068 -0.003773 -0.015392 0.000000 0.014024 0.000000
# 2 -0.003773 0.049829 -0.007285 0.000000 -0.003803 0.000000
# 3 -0.015392 -0.007285 0.034458 0.000000 -0.019456 0.000000
# 4 0.000000 0.000000 0.000000 0.072091 0.000000 0.011286
# 5 0.014024 -0.003803 -0.019456 0.000000 0.060239 0.000000
# 6 0.000000 0.000000 0.000000 0.011286 0.000000 0.040949
#
#
# Mechanical properties :
#
#
# Convention : Reuss Voigt Hill
#
# Bulk Modulus (GPa) = 21.52615 47.50006 34.51311
# Shear Modulus (GPa) = 14.66194 21.62096 18.14145
#
# Velocity S-wave (km/s) = 3.00966 3.65476 3.34778
# Velocity P-wave (km/s) = 5.03747 6.86694 6.02208
#
# Compressibility (1/GPa) = 0.04645513
#
# Stress axis : x y z
#
# Youngs Moduli (GPa) = 66.36403 20.06870 29.02069
#
# Poissons Ratio (x) = 0.07572 0.44669
# Poissons Ratio (y) = 0.25039 0.21142
# Poissons Ratio (z) = 1.02147 0.14620
#
# Static dielectric constant tensor:
#      x y z
#    x 1.562550 0.000000 -0.014660 
#    y 0.000000 1.548980 0.000000 
#    z -0.014660 0.000000 1.519520 
# 
# From -- ./inp_files/69415.got.cif
#   From: 2010.05.17/outbox.cif.g08.bks.cpg/sg11_35_cif.got.tgz:69415.got - 2010.06.03 12:22:45.
