data_PCOD9156579
_publ_section_title
;
Structure prediction by ZEFSAII (Michael W. Deem and Ramdas Pophale) SiO2 
 PCOD9156579
Probable space group: P 21/M
;
_chemical_formula_sum "Si O2"
_cell_formula_units_Z 32
_cell_length_a 22.023545
_cell_length_b 8.578999
_cell_length_c 12.831413
_cell_angle_alpha 90.000000
_cell_angle_beta 52.997364
_cell_angle_gamma 90.000000
_cell_volume 1936.118284
_symmetry_space_group_name_H-M "P 21/M"
_symmetry_group_IT_number 11
_symmetry_cell_setting 'monoclinic'
loop_
_space_group_symop_operation_xyz
x,y,z
-x,1/2+y,-z
-x,-y,-z
x,1/2-y,z
loop_
_atom_site_type_symbol
_atom_site_label
_atom_site_fract_x
_atom_site_fract_y
_atom_site_fract_z
Si Si1 0.076551 0.065062 0.785713
Si Si2 0.663131 0.061278 0.949759
Si Si3 0.181533 0.563551 0.100957
Si Si4 0.828038 0.432872 0.501254
Si Si5 0.084097 0.434833 0.392149
Si Si6 0.089378 0.064585 0.012399
Si Si7 0.668906 0.936751 0.707507
Si Si8 0.497190 0.437501 0.120797
O O1 0.085203 0.250000 0.760279
O O2 0.124182 0.975010 0.650211
O O3 0.101457 0.026192 0.878255
O O4 0.987875 0.019814 0.871401
O O5 0.665398 0.250000 0.933910
O O6 0.734516 0.016764 0.946725
O O7 0.671474 0.985399 0.826960
O O8 0.579679 0.018239 0.080886
O O9 0.179233 0.750000 0.093898
O O10 0.122369 0.511155 0.251307
O O11 0.156368 0.487384 0.018936
O O12 0.832785 0.250000 0.519368
O O13 0.864014 0.524009 0.561920
O O14 0.740638 0.483462 0.579921
O O15 0.080412 0.250000 0.381228
O O16 0.000000 0.500000 0.500000
O O17 0.077367 0.250000 0.031894
O O18 0.675861 0.750000 0.692443
O O19 0.585410 0.986829 0.751695
O O20 0.495058 0.250000 0.120201
O O21 0.500000 0.500000 0.000000
#
# Coordination Sequence:
#
# PCOD9156579 Si02
#       8
#     4   4   4   4   4   4   4   4
#     4  10  21  38  57  75  96 126 168 213 255 297
#     4   9  17  30  47  69 101 135 167 203 242 292
#     4  11  21  33  51  75 104 135 167 202 246 295
#     4  12  23  35  51  73 102 133 167 206 253 300
#     4  12  24  37  51  69  99 134 170 204 245 298
#     4  10  21  37  56  76  99 128 165 210 255 297
#     4  10  18  29  47  71 100 133 168 205 245 294
#     4   8  15  27  44  67  95 130 167 201 241 287
#
# _framework density 16.527915
#
# number of rings (size 3 to 8) (size 9 to 14) (size 15 to 20)
#    0.000    1.750    1.250    4.500    0.000    2.500 
#    0.000    0.000    0.000    0.000    0.000    0.875 
#    0.000    0.000    0.000    0.000    0.000    0.000 
#
# Total GULP energy -178567.477470 kJ/mol
# GULP energy per Si atom -5580.233671 kJ/mol
# Density = 1.649030 g / cm^3
# Si number density = 16.527915 Si / 1000 Ang^3
#
#
#
# Elastic Constant Matrix: (Units=GPa)
#
#
# Indices 1 2 3 4 5 6 
#
# 1 78.3597 2.7650 4.4365 0.0000 -5.7066 0.0000
# 2 2.7650 17.0785 -2.0452 0.0000 -0.0884 0.0000
# 3 4.4365 -2.0452 14.3554 0.0000 0.9902 0.0000
# 4 0.0000 0.0000 0.0000 23.0779 0.0000 -1.8287
# 5 -5.7066 -0.0884 0.9902 0.0000 19.4682 0.0000
# 6 0.0000 0.0000 0.0000 -1.8287 0.0000 20.3188
#
#
#
# Elastic Compliance Matrix: (Units=1/GPa)
#
#
# Indices 1 2 3 4 5 6 
#
# 1 0.013435 -0.002732 -0.004829 0.000000 0.004171 0.000000
# 2 -0.002732 0.060126 0.009480 0.000000 -0.001010 0.000000
# 3 -0.004829 0.009480 0.072853 0.000000 -0.005078 0.000000
# 4 0.000000 0.000000 0.000000 0.043643 0.000000 0.003928
# 5 0.004171 -0.001010 -0.005078 0.000000 0.052842 0.000000
# 6 0.000000 0.000000 0.000000 0.003928 0.000000 0.049569
#
#
# Mechanical properties :
#
#
# Convention : Reuss Voigt Hill
#
# Bulk Modulus (GPa) = 6.65549 13.34514 10.00031
# Shear Modulus (GPa) = 14.76170 19.54877 17.15524
#
# Velocity S-wave (km/s) = 2.99178 3.44288 3.22523
# Velocity P-wave (km/s) = 3.99624 4.88839 4.46465
#
# Compressibility (1/GPa) = 0.15025199
#
# Stress axis : x y z
#
# Youngs Moduli (GPa) = 74.43097 16.63187 13.72622
#
# Poissons Ratio (x) = 0.04544 0.06628
# Poissons Ratio (y) = 0.20334 -0.13012
# Poissons Ratio (z) = 0.35943 -0.15767
#
# Static dielectric constant tensor:
#      x y z
#    x 1.577670 0.000000 -0.030440 
#    y 0.000000 1.558920 0.000000 
#    z -0.030440 0.000000 1.538280 
# 
# From -- ./inp_files/42790.got.cif
#   From: 2010.05.17/outbox.cif.g08.bks.cpg/sg11_22_cif.got.tgz:42790.got - 2010.06.03 12:22:45.
