data_PCOD9156103
_publ_section_title
;
Structure prediction by ZEFSAII (Michael W. Deem and Ramdas Pophale) SiO2 
 PCOD9156103
Probable space group: P 21/M
;
_chemical_formula_sum "Si O2"
_cell_formula_units_Z 28
_cell_length_a 20.071012
_cell_length_b 15.978451
_cell_length_c 8.686326
_cell_angle_alpha 90.000000
_cell_angle_beta 145.526609
_cell_angle_gamma 90.000000
_cell_volume 1576.792285
_symmetry_space_group_name_H-M "P 21/M"
_symmetry_group_IT_number 11
_symmetry_cell_setting 'monoclinic'
loop_
_space_group_symop_operation_xyz
x,y,z
-x,1/2+y,-z
-x,-y,-z
x,1/2-y,z
loop_
_atom_site_type_symbol
_atom_site_label
_atom_site_fract_x
_atom_site_fract_y
_atom_site_fract_z
Si Si1 0.035326 0.590859 0.503839
Si Si2 0.782976 0.502163 0.357601
Si Si3 0.769905 0.158947 0.922793
Si Si4 0.100012 0.152917 0.250728
Si Si5 0.818006 0.591771 0.903610
Si Si6 0.638787 0.505833 0.783044
Si Si7 0.156467 0.921056 0.225012
O O1 0.131482 0.565133 0.560539
O O2 0.100710 0.644911 0.756678
O O3 0.000000 0.500000 0.500000
O O4 0.919125 0.628008 0.206637
O O5 0.847340 0.589542 0.521871
O O6 0.763835 0.457969 0.486216
O O7 0.681143 0.519985 0.039832
O O8 0.725637 0.250000 0.880951
O O9 0.691104 0.084324 0.835908
O O10 0.781540 0.147451 0.762389
O O11 0.091212 0.250000 0.278918
O O12 0.181501 0.144344 0.252780
O O13 0.970179 0.114989 0.966037
O O14 0.703653 0.570987 0.789339
O O15 0.861843 0.500550 0.924093
O O16 0.500000 0.500000 0.500000
#
# Coordination Sequence:
#
# PCOD9156103 Si02
#       7
#     4   4   4   4   4   4   4
#     4  11  15  30  54  79 108 147 172 214 283 342
#     4  10  18  33  56  77 108 142 183 221 270 331
#     4  10  21  34  54  83 115 141 180 236 279 319
#     4  11  20  30  49  85 120 143 169 212 280 343
#     4  10  18  33  53  75 113 141 179 220 269 332
#     4  10  22  40  62  76  98 152 204 230 263 315
#     4  10  17  31  52  79 113 146 167 209 276 353
#
# _framework density 17.757570999999999
#
# number of rings (size 3 to 8) (size 9 to 14) (size 15 to 20)
#    0.000    1.714    7.143    1.286    0.000    0.571 
#    0.000    9.286    0.000    0.000    0.000    0.000 
#    0.000    0.000    0.000    0.000    0.000    0.000 
#
# Total GULP energy -155891.710810 kJ/mol
# GULP energy per Si atom -5567.561100 kJ/mol
# Density = 1.771715 g / cm^3
# Si number density = 17.757571 Si / 1000 Ang^3
#
#
#
# Elastic Constant Matrix: (Units=GPa)
#
#
# Indices 1 2 3 4 5 6 
#
# 1 66.4187 9.8687 49.5996 0.0000 -8.6669 0.0000
# 2 9.8687 66.1026 12.1605 0.0000 -3.3109 0.0000
# 3 49.5996 12.1605 107.6374 0.0000 -0.8304 0.0000
# 4 0.0000 0.0000 0.0000 6.3601 0.0000 -0.5215
# 5 -8.6669 -3.3109 -0.8304 0.0000 26.7502 0.0000
# 6 0.0000 0.0000 0.0000 -0.5215 0.0000 10.0547
#
#
#
# Elastic Compliance Matrix: (Units=1/GPa)
#
#
# Indices 1 2 3 4 5 6 
#
# 1 0.024491 -0.001244 -0.011088 0.000000 0.007437 0.000000
# 2 -0.001244 0.015605 -0.001178 0.000000 0.001492 0.000000
# 3 -0.011088 -0.001178 0.014507 0.000000 -0.003288 0.000000
# 4 0.000000 0.000000 0.000000 0.157903 0.000000 0.008189
# 5 0.007437 0.001492 -0.003288 0.000000 0.039875 0.000000
# 6 0.000000 0.000000 0.000000 0.008189 0.000000 0.099881
#
#
# Mechanical properties :
#
#
# Convention : Reuss Voigt Hill
#
# Bulk Modulus (GPa) = 36.25318 42.60180 39.42749
# Shear Modulus (GPa) = 12.87077 19.86831 16.36954
#
# Velocity S-wave (km/s) = 2.69514 3.34857 3.03947
# Velocity P-wave (km/s) = 5.49044 6.24447 5.87956
#
# Compressibility (1/GPa) = 0.02758378
#
# Stress axis : x y z
#
# Youngs Moduli (GPa) = 40.83084 64.08118 68.93014
#
# Poissons Ratio (x) = 0.07973 0.76428
# Poissons Ratio (y) = 0.05080 0.08121
# Poissons Ratio (z) = 0.45272 0.07550
#
# Static dielectric constant tensor:
#      x y z
#    x 1.715700 0.000000 -0.042610 
#    y 0.000000 1.633750 0.000000 
#    z -0.042610 0.000000 1.622580 
# 
# From -- ./inp_files/27043.got.cif
#   From: 2010.05.17/outbox.cif.g08.bks.cpg/sg11_14_cif.got.tgz:27043.got - 2010.06.03 12:22:45.
