data_PCOD9156670
_publ_section_title
;
Structure prediction by ZEFSAII (Michael W. Deem and Ramdas Pophale) SiO2 
 PCOD9156670
Probable space group: P 21/M
;
_chemical_formula_sum "Si O2"
_cell_formula_units_Z 20
_cell_length_a 22.091799
_cell_length_b 8.585170
_cell_length_c 10.490532
_cell_angle_alpha 90.000000
_cell_angle_beta 144.427563
_cell_angle_gamma 90.000000
_cell_volume 1157.444730
_symmetry_space_group_name_H-M "P 21/M"
_symmetry_group_IT_number 11
_symmetry_cell_setting 'monoclinic'
loop_
_space_group_symop_operation_xyz
x,y,z
-x,1/2+y,-z
-x,-y,-z
x,1/2-y,z
loop_
_atom_site_type_symbol
_atom_site_label
_atom_site_fract_x
_atom_site_fract_y
_atom_site_fract_z
Si Si1 0.046639 0.436656 0.449395
Si Si2 0.495634 0.437454 0.136708
Si Si3 0.277179 0.562952 0.455106
Si Si4 0.065821 0.064668 0.993294
Si Si5 0.269211 0.061370 0.731010
O O1 0.043017 0.250000 0.444091
O O2 0.166979 0.484582 0.633523
O O3 0.000000 0.500000 0.500000
O O4 0.982083 0.497819 0.218107
O O5 0.498080 0.250000 0.138136
O O6 0.605673 0.486261 0.385880
O O7 0.500000 0.500000 0.000000
O O8 0.380125 0.483410 0.984384
O O9 0.268563 0.750000 0.433592
O O10 0.264192 0.511081 0.580686
O O11 0.184718 0.486986 0.217472
O O12 0.058174 0.250000 0.980045
O O13 0.000000 0.000000 0.000000
O O14 0.267927 0.250000 0.714166
#
# Coordination Sequence:
#
# PCOD9156670 Si02
#       5
#     4   4   4   4   4
#     4  11  23  38  56  79 109 145 182 221 268 321
#     4   8  15  27  45  73 104 135 170 213 262 313
#     4  10  18  29  50  79 109 137 172 217 267 317
#     4  12  23  36  55  79 109 142 180 224 270 318
#     4   9  17  31  51  74 105 141 177 217 263 314
#
# _framework density 17.279443000000001
#
# number of rings (size 3 to 8) (size 9 to 14) (size 15 to 20)
#    0.000    2.000    2.000    3.000    0.000    1.600 
#    0.000    0.000    0.000    1.200    0.000    0.000 
#    0.000    0.000    0.000    0.000    0.000    0.000 
#
# Total GULP energy -111494.267691 kJ/mol
# GULP energy per Si atom -5574.713385 kJ/mol
# Density = 1.724011 g / cm^3
# Si number density = 17.279443 Si / 1000 Ang^3
#
#
#
# Elastic Constant Matrix: (Units=GPa)
#
#
# Indices 1 2 3 4 5 6 
#
# 1 123.3528 39.1002 93.9291 0.0000 24.5014 0.0000
# 2 39.1002 51.2956 35.9657 0.0000 8.8915 0.0000
# 3 93.9291 35.9657 138.0625 0.0000 35.6975 0.0000
# 4 0.0000 0.0000 0.0000 26.7790 0.0000 -1.3536
# 5 24.5014 8.8915 35.6975 0.0000 37.5958 0.0000
# 6 0.0000 0.0000 0.0000 -1.3536 0.0000 20.5290
#
#
#
# Elastic Compliance Matrix: (Units=1/GPa)
#
#
# Indices 1 2 3 4 5 6 
#
# 1 0.018403 -0.006424 -0.010787 0.000000 -0.000232 0.000000
# 2 -0.006424 0.026097 -0.002537 0.000000 0.000424 0.000000
# 3 -0.010787 -0.002537 0.017588 0.000000 -0.009070 0.000000
# 4 0.000000 0.000000 0.000000 0.037468 0.000000 0.002470
# 5 -0.000232 0.000424 -0.009070 0.000000 0.035262 0.000000
# 6 0.000000 0.000000 0.000000 0.002470 0.000000 0.048874
#
#
# Mechanical properties :
#
#
# Convention : Reuss Voigt Hill
#
# Bulk Modulus (GPa) = 44.26477 72.30011 58.28244
# Shear Modulus (GPa) = 21.67137 26.56182 24.11660
#
# Velocity S-wave (km/s) = 3.54527 3.92496 3.73993
# Velocity P-wave (km/s) = 6.51392 7.90398 7.24238
#
# Compressibility (1/GPa) = 0.02259133
#
# Stress axis : x y z
#
# Youngs Moduli (GPa) = 54.33887 38.31797 56.85764
#
# Poissons Ratio (x) = 0.24617 0.61331
# Poissons Ratio (y) = 0.34910 0.14426
# Poissons Ratio (z) = 0.58614 0.09722
#
# Static dielectric constant tensor:
#      x y z
#    x 1.584050 0.000000 0.065760 
#    y 0.000000 1.579370 0.000000 
#    z 0.065760 0.000000 1.600010 
# 
# From -- ./inp_files/20235.got.cif
#   From: 2010.05.17/outbox.cif.g08.bks.cpg/sg11_11_cif.got.tgz:20235.got - 2010.06.03 12:22:45.
