data_PCOD9156845
_publ_section_title
;
Structure prediction by ZEFSAII (Michael W. Deem and Ramdas Pophale) SiO2 
 PCOD9156845
Probable space group: P 21/M
;
_chemical_formula_sum "Si O2"
_cell_formula_units_Z 32
_cell_length_a 11.422043
_cell_length_b 9.324957
_cell_length_c 21.103485
_cell_angle_alpha 90.000000
_cell_angle_beta 41.499476
_cell_angle_gamma 90.000000
_cell_volume 1489.377851
_symmetry_space_group_name_H-M "P 21/M"
_symmetry_group_IT_number 11
_symmetry_cell_setting 'monoclinic'
loop_
_space_group_symop_operation_xyz
x,y,z
-x,1/2+y,-z
-x,-y,-z
x,1/2-y,z
loop_
_atom_site_type_symbol
_atom_site_label
_atom_site_fract_x
_atom_site_fract_y
_atom_site_fract_z
Si Si1 0.262616 0.413124 0.681360
Si Si2 0.551737 0.081065 0.771691
Si Si3 0.829323 0.418294 0.545048
Si Si4 0.177047 0.918109 0.594064
Si Si5 0.842177 0.085056 0.888076
Si Si6 0.333748 0.590517 0.769362
Si Si7 0.240129 0.080906 0.203399
Si Si8 0.063164 0.089095 0.034786
O O1 0.326062 0.250000 0.653359
O O2 0.268440 0.490076 0.611540
O O3 0.367377 0.499577 0.692614
O O4 0.053114 0.409096 0.785565
O O5 0.527187 0.250000 0.793586
O O6 0.683457 0.066311 0.658214
O O7 0.383118 0.998816 0.812051
O O8 0.636334 0.000996 0.796925
O O9 0.871748 0.250000 0.521451
O O10 0.779743 0.466913 0.494508
O O11 0.000000 0.500000 0.500000
O O12 0.220603 0.750000 0.584536
O O13 0.964026 0.931444 0.689927
O O14 0.781433 0.250000 0.916223
O O15 0.753778 0.996087 0.867218
O O16 0.820279 0.002561 0.963564
O O17 0.415069 0.750000 0.737532
O O18 0.123440 0.608432 0.853829
O O19 0.281397 0.250000 0.182575
O O20 0.129874 0.250000 0.993286
O O21 0.000000 0.000000 0.000000
#
# Coordination Sequence:
#
# PCOD9156845 Si02
#       8
#     4   4   4   4   4   4   4   4
#     4   9  17  30  50  74  99 130 170 217 263 306
#     4  11  22  34  51  75 105 140 179 221 264 311
#     4  10  20  33  49  72 102 136 177 224 269 312
#     4   9  17  30  48  71  99 132 172 220 268 311
#     4   9  17  30  50  78 109 136 169 214 257 301
#     4  10  21  37  55  76 105 139 174 209 254 314
#     4  10  18  30  50  74 103 139 178 218 262 309
#     4  10  20  35  58  86 111 137 169 208 255 307
#
# _framework density 21.485479999999999
#
# number of rings (size 3 to 8) (size 9 to 14) (size 15 to 20)
#    0.000    2.250    1.250    2.250    0.000    6.000 
#    0.000    0.625    0.000    0.750    0.000    0.000 
#    0.000    0.000    0.000    0.000    0.000    0.000 
#
# Total GULP energy -178726.694838 kJ/mol
# GULP energy per Si atom -5585.209214 kJ/mol
# Density = 2.143658 g / cm^3
# Si number density = 21.485480 Si / 1000 Ang^3
#
#
#
# Elastic Constant Matrix: (Units=GPa)
#
#
# Indices 1 2 3 4 5 6 
#
# 1 135.1808 93.6340 36.1263 0.0000 51.1825 0.0000
# 2 93.6340 178.2106 35.8018 0.0000 43.3054 0.0000
# 3 36.1263 35.8018 50.7888 0.0000 23.9482 0.0000
# 4 0.0000 0.0000 0.0000 18.1521 0.0000 13.9185
# 5 51.1825 43.3054 23.9482 0.0000 51.7891 0.0000
# 6 0.0000 0.0000 0.0000 13.9185 0.0000 34.5770
#
#
#
# Elastic Compliance Matrix: (Units=1/GPa)
#
#
# Indices 1 2 3 4 5 6 
#
# 1 0.015343 -0.005187 -0.002753 0.000000 -0.009553 0.000000
# 2 -0.005187 0.009121 -0.001996 0.000000 -0.001578 0.000000
# 3 -0.002753 -0.001996 0.026836 0.000000 -0.008020 0.000000
# 4 0.000000 0.000000 0.000000 0.079685 0.000000 -0.032076
# 5 -0.009553 -0.001578 -0.008020 0.000000 0.033778 0.000000
# 6 0.000000 0.000000 0.000000 -0.032076 0.000000 0.041833
#
#
# Mechanical properties :
#
#
# Convention : Reuss Voigt Hill
#
# Bulk Modulus (GPa) = 31.81823 77.25606 54.53715
# Shear Modulus (GPa) = 21.10209 34.14486 27.62348
#
# Velocity S-wave (km/s) = 3.13734 3.99081 3.58953
# Velocity P-wave (km/s) = 5.28821 7.56775 6.52825
#
# Compressibility (1/GPa) = 0.03142852
#
# Stress axis : x y z
#
# Youngs Moduli (GPa) = 65.17667 109.63698 37.26334
#
# Poissons Ratio (x) = 0.56868 0.10257
# Poissons Ratio (y) = 0.33807 0.07438
# Poissons Ratio (z) = 0.17941 0.21885
#
# Static dielectric constant tensor:
#      x y z
#    x 1.748160 0.000000 -0.052800 
#    y 0.000000 1.765280 0.000000 
#    z -0.052800 0.000000 1.841670 
# 
# From -- ./inp_files/42452.got.cif
#   From: 2010.05.17/outbox.cif.g08.bks.cpg/sg11_22_cif.got.tgz:42452.got - 2010.06.03 12:22:45.
