data_PCOD9156644
_publ_section_title
;
Structure prediction by ZEFSAII (Michael W. Deem and Ramdas Pophale) SiO2 
 PCOD9156644
Probable space group: P 21/M
;
_chemical_formula_sum "Si O2"
_cell_formula_units_Z 28
_cell_length_a 14.916183
_cell_length_b 7.760830
_cell_length_c 19.622211
_cell_angle_alpha 90.000000
_cell_angle_beta 140.972009
_cell_angle_gamma 90.000000
_cell_volume 1430.367038
_symmetry_space_group_name_H-M "P 21/M"
_symmetry_group_IT_number 11
_symmetry_cell_setting 'monoclinic'
loop_
_space_group_symop_operation_xyz
x,y,z
-x,1/2+y,-z
-x,-y,-z
x,1/2-y,z
loop_
_atom_site_type_symbol
_atom_site_label
_atom_site_fract_x
_atom_site_fract_y
_atom_site_fract_z
Si Si1 0.662081 0.953917 0.339123
Si Si2 0.306585 0.554687 0.920383
Si Si3 0.122721 0.042048 0.422946
Si Si4 0.808038 0.459479 0.284858
Si Si5 0.997951 0.946483 0.215608
Si Si6 0.625624 0.462126 0.894905
Si Si7 0.940592 0.454714 0.038540
O O1 0.644056 0.750000 0.340349
O O2 0.748583 0.024454 0.454689
O O3 0.506804 0.023240 0.227930
O O4 0.756606 0.977906 0.327293
O O5 0.359551 0.750000 0.943615
O O6 0.292686 0.476586 0.836896
O O7 0.140725 0.558831 0.847004
O O8 0.383696 0.476519 0.031767
O O9 0.123907 0.250000 0.425846
O O10 0.970226 0.986672 0.364512
O O11 0.118615 0.987476 0.341788
O O12 0.804383 0.250000 0.281621
O O13 0.952715 0.750000 0.198573
O O14 0.030157 0.974941 0.155505
O O15 0.623886 0.250000 0.896275
O O16 0.777862 0.515633 0.954348
O O17 0.939467 0.250000 0.044172
O O18 0.000000 0.500000 0.000000
#
# Coordination Sequence:
#
# PCOD9156644 Si02
#       7
#     4   4   4   4   4   4   4
#     4  10  19  30  46  67  92 128 168 199 233 280
#     4   8  15  30  47  63  92 129 159 195 244 286
#     4   9  18  32  47  64  93 131 167 201 236 273
#     4   9  17  28  42  63  92 128 167 207 245 270
#     4  10  18  29  49  75  97 120 156 196 234 277
#     4   8  16  31  49  69  95 125 154 189 237 287
#     4  10  19  34  56  79 102 122 145 184 233 285
#
# _framework density 19.575396000000001
#
# number of rings (size 3 to 8) (size 9 to 14) (size 15 to 20)
#    0.000    2.857    0.000    3.857    0.000    3.429 
#    0.000    3.571    0.000    0.857    0.000    0.000 
#    0.000    0.000    0.000    0.000    0.000    0.000 
#
# Total GULP energy -156107.073387 kJ/mol
# GULP energy per Si atom -5575.252621 kJ/mol
# Density = 1.953084 g / cm^3
# Si number density = 19.575396 Si / 1000 Ang^3
#
#
#
# Elastic Constant Matrix: (Units=GPa)
#
#
# Indices 1 2 3 4 5 6 
#
# 1 -22.4679 2.1642 90.9225 0.0000 -29.8097 0.0000
# 2 2.1642 41.1464 11.3470 0.0000 3.5786 0.0000
# 3 90.9225 11.3470 198.9120 0.0000 -22.0799 0.0000
# 4 0.0000 0.0000 0.0000 5.1993 0.0000 -8.5143
# 5 -29.8097 3.5786 -22.0799 0.0000 25.3940 0.0000
# 6 0.0000 0.0000 0.0000 -8.5143 0.0000 17.7681
#
#
#
# Elastic Compliance Matrix: (Units=1/GPa)
#
#
# Indices 1 2 3 4 5 6 
#
# 1 -0.012345 0.000355 0.004437 0.000000 -0.010684 0.000000
# 2 0.000355 0.025320 -0.002165 0.000000 -0.005034 0.000000
# 3 0.004437 -0.002165 0.004134 0.000000 0.009108 0.000000
# 4 0.000000 0.000000 0.000000 0.893441 0.000000 0.428130
# 5 -0.010684 -0.005034 0.009108 0.000000 0.035466 0.000000
# 6 0.000000 0.000000 0.000000 0.428130 0.000000 0.261437
#
#
# Mechanical properties :
#
#
# Convention : Reuss Voigt Hill
#
# Bulk Modulus (GPa) = 44.72035 47.38422 46.05228
# Shear Modulus (GPa) = 4.13341 17.21606 10.67473
#
# Velocity S-wave (km/s) = 1.45469 2.96881 2.33773
# Velocity P-wave (km/s) = 5.07112 6.00086 5.55547
#
# Compressibility (1/GPa) = 0.02236119
#
# Stress axis : x y z
#
# Youngs Moduli (GPa) = -81.00558 39.49476 241.90278
#
# Poissons Ratio (x) = -0.01402 -1.07323
# Poissons Ratio (y) = 0.02876 0.52384
# Poissons Ratio (z) = 0.35939 0.08553
#
# Static dielectric constant tensor:
#      x y z
#    x 1.663020 0.000000 -0.010460 
#    y 0.000000 1.708860 0.000000 
#    z -0.010460 0.000000 1.743250 
# 
# From -- ./inp_files/42312.got.cif
#   From: 2010.05.17/outbox.cif.g08.bks.cpg/sg11_22_cif.got.tgz:42312.got - 2010.06.03 12:22:45.
