data_PCOD9156634
_publ_section_title
;
Structure prediction by ZEFSAII (Michael W. Deem and Ramdas Pophale) SiO2 
 PCOD9156634
Probable space group: P 21/M
;
_chemical_formula_sum "Si O2"
_cell_formula_units_Z 32
_cell_length_a 17.361336
_cell_length_b 8.791116
_cell_length_c 17.138691
_cell_angle_alpha 90.000000
_cell_angle_beta 129.203450
_cell_angle_gamma 90.000000
_cell_volume 2027.001483
_symmetry_space_group_name_H-M "P 21/M"
_symmetry_group_IT_number 11
_symmetry_cell_setting 'monoclinic'
loop_
_space_group_symop_operation_xyz
x,y,z
-x,1/2+y,-z
-x,-y,-z
x,1/2-y,z
loop_
_atom_site_type_symbol
_atom_site_label
_atom_site_fract_x
_atom_site_fract_y
_atom_site_fract_z
Si Si1 0.514908 0.434973 0.596735
Si Si2 0.183010 0.423153 0.315421
Si Si3 0.908946 0.569644 0.992484
Si Si4 0.052549 0.572842 0.815929
Si Si5 0.853414 0.565923 0.450519
Si Si6 0.319435 0.070431 0.555208
Si Si7 0.947324 0.568260 0.347751
Si Si8 0.262760 0.928268 0.216456
O O1 0.500000 0.500000 0.500000
O O2 0.510149 0.250000 0.587924
O O3 0.426092 0.490393 0.596397
O O4 0.622532 0.475743 0.700167
O O5 0.200262 0.250000 0.296731
O O6 0.067534 0.436675 0.260894
O O7 0.248976 0.442471 0.434298
O O8 0.214033 0.541027 0.269599
O O9 0.919605 0.750000 0.997044
O O10 0.805530 0.518877 0.887413
O O11 0.000000 0.500000 0.000000
O O12 0.913711 0.510122 0.083922
O O13 0.080177 0.750000 0.837251
O O14 0.085913 0.500080 0.755842
O O15 0.857781 0.750000 0.462540
O O16 0.747989 0.510495 0.417058
O O17 0.875024 0.530322 0.374058
O O18 0.944997 0.497419 0.558283
O O19 0.334875 0.250000 0.580839
O O20 0.954669 0.750000 0.346424
O O21 0.259117 0.750000 0.194901
#
# Coordination Sequence:
#
# PCOD9156634 Si02
#       8
#     4   4   4   4   4   4   4   4
#     4  10  20  32  49  72  98 131 170 209 246 290
#     4  10  18  29  49  69  95 134 171 200 238 288
#     4  12  24  37  53  73  98 130 168 206 247 293
#     4  11  21  34  51  72  99 133 168 202 245 296
#     4   9  17  31  48  68  97 134 170 204 246 296
#     4   9  16  30  49  69  95 132 172 202 237 288
#     4  10  19  29  46  72 101 130 164 206 250 296
#     4  11  22  34  48  71 102 132 167 209 250 290
#
# _framework density 15.786867000000001
#
# number of rings (size 3 to 8) (size 9 to 14) (size 15 to 20)
#    0.000    1.750    3.750    2.250    0.000    1.500 
#    0.000    0.625    0.000    0.000    0.000    0.875 
#    0.000    0.000    0.000    0.000    0.000    0.000 
#
# Total GULP energy -178487.628148 kJ/mol
# GULP energy per Si atom -5577.738380 kJ/mol
# Density = 1.575094 g / cm^3
# Si number density = 15.786867 Si / 1000 Ang^3
#
#
#
# Elastic Constant Matrix: (Units=GPa)
#
#
# Indices 1 2 3 4 5 6 
#
# 1 118.2106 38.9866 60.2676 0.0000 -12.8810 0.0000
# 2 38.9866 58.3368 46.5681 0.0000 -5.7652 0.0000
# 3 60.2676 46.5681 93.5043 0.0000 -3.8048 0.0000
# 4 0.0000 0.0000 0.0000 24.4814 0.0000 -3.6523
# 5 -12.8810 -5.7652 -3.8048 0.0000 23.6264 0.0000
# 6 0.0000 0.0000 0.0000 -3.6523 0.0000 14.4187
#
#
#
# Elastic Compliance Matrix: (Units=1/GPa)
#
#
# Indices 1 2 3 4 5 6 
#
# 1 0.013660 -0.002871 -0.007147 0.000000 0.005596 0.000000
# 2 -0.002871 0.029584 -0.012737 0.000000 0.003603 0.000000
# 3 -0.007147 -0.012737 0.021500 0.000000 -0.003542 0.000000
# 4 0.000000 0.000000 0.000000 0.042452 0.000000 0.010753
# 5 0.005596 0.003603 -0.003542 0.000000 0.045685 0.000000
# 6 0.000000 0.000000 0.000000 0.010753 0.000000 0.072078
#
#
# Mechanical properties :
#
#
# Convention : Reuss Voigt Hill
#
# Bulk Modulus (GPa) = 51.98834 62.41071 57.19952
# Shear Modulus (GPa) = 18.05843 20.78724 19.42284
#
# Velocity S-wave (km/s) = 3.38581 3.63263 3.51139
# Velocity P-wave (km/s) = 6.94895 7.56398 7.26298
#
# Compressibility (1/GPa) = 0.01923508
#
# Stress axis : x y z
#
# Youngs Moduli (GPa) = 73.20790 33.80252 46.51097
#
# Poissons Ratio (x) = 0.09704 0.33241
# Poissons Ratio (y) = 0.21016 0.59239
# Poissons Ratio (z) = 0.52321 0.43053
#
# Static dielectric constant tensor:
#      x y z
#    x 1.545590 0.000000 0.000240 
#    y 0.000000 1.542870 0.000000 
#    z 0.000240 0.000000 1.509820 
# 
# From -- ./inp_files/60699.got.cif
#   From: 2010.05.17/outbox.cif.g08.bks.cpg/sg11_31_cif.got.tgz:60699.got - 2010.06.03 12:22:45.
