data_PCOD9156834
_publ_section_title
;
Structure prediction by ZEFSAII (Michael W. Deem and Ramdas Pophale) SiO2 
 PCOD9156834
Probable space group: P 21/M
;
_chemical_formula_sum "Si O2"
_cell_formula_units_Z 24
_cell_length_a 8.859416
_cell_length_b 13.295470
_cell_length_c 15.798555
_cell_angle_alpha 90.000000
_cell_angle_beta 32.309327
_cell_angle_gamma 90.000000
_cell_volume 994.639474
_symmetry_space_group_name_H-M "P 21/M"
_symmetry_group_IT_number 11
_symmetry_cell_setting 'monoclinic'
loop_
_space_group_symop_operation_xyz
x,y,z
-x,1/2+y,-z
-x,-y,-z
x,1/2-y,z
loop_
_atom_site_type_symbol
_atom_site_label
_atom_site_fract_x
_atom_site_fract_y
_atom_site_fract_z
Si Si1 0.965200 0.861796 0.005179
Si Si2 0.167495 0.861269 0.329903
Si Si3 0.528712 0.637721 0.562745
Si Si4 0.642895 0.365702 0.947159
Si Si5 0.258537 0.075141 0.712371
Si Si6 0.448166 0.523432 0.854087
O O1 0.938753 0.750000 0.984751
O O2 0.778752 0.871845 0.179771
O O3 0.818202 0.945819 0.017284
O O4 0.288305 0.887690 0.878462
O O5 0.202308 0.750000 0.353459
O O6 0.360530 0.861329 0.152457
O O7 0.295927 0.962011 0.310165
O O8 0.843205 0.869062 0.454372
O O9 0.420827 0.750000 0.632976
O O10 0.551156 0.627078 0.449807
O O11 0.357583 0.539847 0.671867
O O12 0.632734 0.250000 0.980348
O O13 0.948050 0.412273 0.821028
O O14 0.455275 0.430248 0.101207
#
# Coordination Sequence:
#
# PCOD9156834 Si02
#       6
#     4   4   4   4   4   4
#     4  10  20  33  49  69  96 130 161 194 238 283
#     4   9  17  30  49  72  98 126 156 192 236 283
#     4   9  17  30  50  72  94 122 157 201 242 277
#     4   9  17  31  51  72  97 128 156 192 242 284
#     4   9  16  30  50  69  91 126 161 190 235 288
#     4  10  18  30  50  72  93 124 164 196 227 283
#
# _framework density 24.129346000000002
#
# number of rings (size 3 to 8) (size 9 to 14) (size 15 to 20)
#    0.000    2.667    0.000    5.000    0.000    0.000 
#    0.000   12.500    0.000   26.000    0.000    0.000 
#    0.000    0.000    0.000    0.000    0.000    0.000 
#
# Total GULP energy -133792.259303 kJ/mol
# GULP energy per Si atom -5574.677471 kJ/mol
# Density = 2.407443 g / cm^3
# Si number density = 24.129346 Si / 1000 Ang^3
#
#
#
# Elastic Constant Matrix: (Units=GPa)
#
#
# Indices 1 2 3 4 5 6 
#
# 1 42.3519 -7.4421 7.4142 0.0000 7.5741 0.0000
# 2 -7.4421 161.3195 28.4086 0.0000 -9.3973 0.0000
# 3 7.4142 28.4086 68.0078 0.0000 10.9654 0.0000
# 4 0.0000 0.0000 0.0000 29.5968 0.0000 -5.2632
# 5 7.5741 -9.3973 10.9654 0.0000 25.3115 0.0000
# 6 0.0000 0.0000 0.0000 -5.2632 0.0000 29.9554
#
#
#
# Elastic Compliance Matrix: (Units=1/GPa)
#
#
# Indices 1 2 3 4 5 6 
#
# 1 0.025321 0.001211 -0.002276 0.000000 -0.006141 0.000000
# 2 0.001211 0.007142 -0.003746 0.000000 0.003912 0.000000
# 3 -0.002276 -0.003746 0.017881 0.000000 -0.008456 0.000000
# 4 0.000000 0.000000 0.000000 0.034877 0.000000 0.006128
# 5 -0.006141 0.003912 -0.008456 0.000000 0.046461 0.000000
# 6 0.000000 0.000000 0.000000 0.006128 0.000000 0.034460
#
#
# Mechanical properties :
#
#
# Convention : Reuss Voigt Hill
#
# Bulk Modulus (GPa) = 24.55707 36.49343 30.52525
# Shear Modulus (GPa) = 26.40762 33.19263 29.80013
#
# Velocity S-wave (km/s) = 3.31179 3.71295 3.51809
# Velocity P-wave (km/s) = 4.98230 5.79122 5.40192
#
# Compressibility (1/GPa) = 0.04072147
#
# Stress axis : x y z
#
# Youngs Moduli (GPa) = 39.49249 140.00871 55.92595
#
# Poissons Ratio (x) = -0.16959 0.12731
# Poissons Ratio (y) = -0.04784 0.20952
# Poissons Ratio (z) = 0.08990 0.52453
#
# Static dielectric constant tensor:
#      x y z
#    x 2.043910 0.000000 0.067620 
#    y 0.000000 2.006800 0.000000 
#    z 0.067620 0.000000 1.963370 
# 
# From -- ./inp_files/43006.got.cif
#   From: 2010.05.17/outbox.cif.g08.bks.cpg/sg11_22_cif.got.tgz:43006.got - 2010.06.03 12:22:45.
