data_PCOD9156077
_publ_section_title
;
Structure prediction by ZEFSAII (Michael W. Deem and Ramdas Pophale) SiO2 
 PCOD9156077
Probable space group: P 21/M
;
_chemical_formula_sum "Si O2"
_cell_formula_units_Z 32
_cell_length_a 9.590529
_cell_length_b 18.508222
_cell_length_c 9.850516
_cell_angle_alpha 90.000000
_cell_angle_beta 97.282393
_cell_angle_gamma 90.000000
_cell_volume 1734.398049
_symmetry_space_group_name_H-M "P 21/M"
_symmetry_group_IT_number 11
_symmetry_cell_setting 'monoclinic'
loop_
_space_group_symop_operation_xyz
x,y,z
-x,1/2+y,-z
-x,-y,-z
x,1/2-y,z
loop_
_atom_site_type_symbol
_atom_site_label
_atom_site_fract_x
_atom_site_fract_y
_atom_site_fract_z
Si Si1 0.901874 0.834459 0.791787
Si Si2 0.641457 0.466544 0.716371
Si Si3 0.408571 0.051461 0.889980
Si Si4 0.791052 0.162703 0.263398
Si Si5 0.845098 0.532514 0.970492
Si Si6 0.651997 0.334116 0.533094
Si Si7 0.488714 0.663826 0.904157
Si Si8 0.628189 0.621546 0.634908
O O1 0.907908 0.750000 0.830923
O O2 0.861384 0.887044 0.910233
O O3 0.782107 0.844223 0.662458
O O4 0.052814 0.859883 0.754817
O O5 0.483099 0.458942 0.755907
O O6 0.750001 0.488339 0.849684
O O7 0.684284 0.391840 0.652764
O O8 0.640643 0.535648 0.617026
O O9 0.246368 0.035476 0.902412
O O10 0.445010 0.130337 0.953818
O O11 0.500000 0.000000 0.000000
O O12 0.791408 0.250000 0.262436
O O13 0.735361 0.143632 0.406063
O O14 0.673459 0.140828 0.138834
O O15 0.000000 0.500000 0.000000
O O16 0.681555 0.250000 0.567347
O O17 0.486746 0.342886 0.475763
O O18 0.498298 0.750000 0.903109
O O19 0.566954 0.634067 0.780140
#
# Coordination Sequence:
#
# PCOD9156077 Si02
#       8
#     4   4   4   4   4   4   4   4
#     4  10  18  32  53  79 103 131 175 224 269 308
#     4  10  21  36  54  76 108 144 178 212 275 320
#     4  10  19  34  51  74 107 140 173 216 267 309
#     4   8  18  31  51  78 105 135 171 219 268 307
#     4  10  22  35  52  77 109 141 176 215 265 318
#     4  10  20  36  55  78 107 139 178 221 261 320
#     4  10  17  30  53  79 101 133 180 223 261 307
#     4  10  18  33  55  79 103 134 176 225 268 307
#
# _framework density 18.450205
#
# number of rings (size 3 to 8) (size 9 to 14) (size 15 to 20)
#    0.000    2.250    3.750    2.250    3.500    0.500 
#    0.000    4.375    0.000    0.000    0.000    0.000 
#    0.000    0.000    0.000    0.000    0.000    0.000 
#
# Total GULP energy -178350.490326 kJ/mol
# GULP energy per Si atom -5573.452823 kJ/mol
# Density = 1.840821 g / cm^3
# Si number density = 18.450205 Si / 1000 Ang^3
#
#
#
# Elastic Constant Matrix: (Units=GPa)
#
#
# Indices 1 2 3 4 5 6 
#
# 1 137.7255 18.8452 13.9204 0.0000 -4.9350 0.0000
# 2 18.8452 103.5448 21.1299 0.0000 -3.2854 0.0000
# 3 13.9204 21.1299 21.5239 0.0000 -2.9134 0.0000
# 4 0.0000 0.0000 0.0000 21.7407 0.0000 0.9320
# 5 -4.9350 -3.2854 -2.9134 0.0000 17.0134 0.0000
# 6 0.0000 0.0000 0.0000 0.9320 0.0000 25.2845
#
#
#
# Elastic Compliance Matrix: (Units=1/GPa)
#
#
# Indices 1 2 3 4 5 6 
#
# 1 0.007822 -0.000482 -0.004393 0.000000 0.001424 0.000000
# 2 -0.000482 0.012108 -0.011545 0.000000 0.000221 0.000000
# 3 -0.004393 -0.011545 0.061588 0.000000 0.007043 0.000000
# 4 0.000000 0.000000 0.000000 0.046069 0.000000 -0.001698
# 5 0.001424 0.000221 0.007043 0.000000 0.060439 0.000000
# 6 0.000000 0.000000 0.000000 -0.001698 0.000000 0.039612
#
#
# Mechanical properties :
#
#
# Convention : Reuss Voigt Hill
#
# Bulk Modulus (GPa) = 20.54301 41.17613 30.85957
# Shear Modulus (GPa) = 18.06983 26.73433 22.40208
#
# Velocity S-wave (km/s) = 3.13291 3.81070 3.48831
# Velocity P-wave (km/s) = 4.92395 6.45971 5.74339
#
# Compressibility (1/GPa) = 0.04867836
#
# Stress axis : x y z
#
# Youngs Moduli (GPa) = 127.84830 82.58775 16.23698
#
# Poissons Ratio (x) = 0.03981 0.07133
# Poissons Ratio (y) = 0.06162 0.18746
# Poissons Ratio (z) = 0.56161 0.95348
#
# Static dielectric constant tensor:
#      x y z
#    x 1.671220 0.000000 -0.004350 
#    y 0.000000 1.681590 0.000000 
#    z -0.004350 0.000000 1.646130 
# 
# From -- ./inp_files/18658.got.cif
#   From: 2010.05.17/outbox.cif.g08.bks.cpg/sg11_10_cif.got.tgz:18658.got - 2010.06.03 12:22:45.
