data_PCOD9156473
_publ_section_title
;
Structure prediction by ZEFSAII (Michael W. Deem and Ramdas Pophale) SiO2 
 PCOD9156473
Probable space group: P 21/M
;
_chemical_formula_sum "Si O2"
_cell_formula_units_Z 20
_cell_length_a 12.466351
_cell_length_b 9.180106
_cell_length_c 12.512122
_cell_angle_alpha 90.000000
_cell_angle_beta 61.672007
_cell_angle_gamma 90.000000
_cell_volume 1260.439170
_symmetry_space_group_name_H-M "P 21/M"
_symmetry_group_IT_number 11
_symmetry_cell_setting 'monoclinic'
loop_
_space_group_symop_operation_xyz
x,y,z
-x,1/2+y,-z
-x,-y,-z
x,1/2-y,z
loop_
_atom_site_type_symbol
_atom_site_label
_atom_site_fract_x
_atom_site_fract_y
_atom_site_fract_z
Si Si1 0.999893 0.576535 0.836951
Si Si2 0.656046 0.423566 0.518888
Si Si3 0.414586 0.922813 0.694338
Si Si4 0.195073 0.077239 0.897303
Si Si5 0.065385 0.575205 0.567772
O O1 0.028652 0.750000 0.832227
O O2 0.102064 0.488606 0.853631
O O3 0.004025 0.537655 0.710692
O O4 0.872202 0.551854 0.957689
O O5 0.640192 0.250000 0.542056
O O6 0.639181 0.450704 0.399811
O O7 0.549202 0.509469 0.628993
O O8 0.791805 0.464702 0.490060
O O9 0.418110 0.750000 0.708736
O O10 0.323352 0.998801 0.819866
O O11 0.207906 0.250000 0.875608
O O12 0.059079 0.750000 0.559005
O O13 0.000000 0.500000 0.500000
#
# Coordination Sequence:
#
# PCOD9156473 Si02
#       5
#     4   4   4   4   4
#     4   9  18  33  48  69 101 132 162 201 247 289
#     4   9  18  32  48  69  99 131 163 199 244 292
#     4  10  18  30  49  72 102 130 157 201 251 296
#     4  10  18  28  49  75 100 129 161 199 246 299
#     4  10  20  35  52  71 100 133 165 203 242 286
#
# _framework density 15.867486
#
# number of rings (size 3 to 8) (size 9 to 14) (size 15 to 20)
#    0.000    2.400    2.000    1.200    0.000    3.200 
#    0.000    0.000    0.000    1.200    0.000    0.000 
#    0.000    0.000    0.000    0.000    0.000    0.000 
#
# Total GULP energy -111520.927136 kJ/mol
# GULP energy per Si atom -5576.046357 kJ/mol
# Density = 1.583137 g / cm^3
# Si number density = 15.867486 Si / 1000 Ang^3
#
#
#
# Elastic Constant Matrix: (Units=GPa)
#
#
# Indices 1 2 3 4 5 6 
#
# 1 96.6971 45.7241 75.4272 0.0000 -7.6636 0.0000
# 2 45.7241 48.8859 65.3931 0.0000 -14.8160 0.0000
# 3 75.4272 65.3931 141.8851 0.0000 -19.4109 0.0000
# 4 0.0000 0.0000 0.0000 25.3650 0.0000 -3.0354
# 5 -7.6636 -14.8160 -19.4109 0.0000 27.1492 0.0000
# 6 0.0000 0.0000 0.0000 -3.0354 0.0000 27.6644
#
#
#
# Elastic Compliance Matrix: (Units=1/GPa)
#
#
# Indices 1 2 3 4 5 6 
#
# 1 0.020595 -0.013773 -0.005357 0.000000 -0.005533 0.000000
# 2 -0.013773 0.066880 -0.021105 0.000000 0.017521 0.000000
# 3 -0.005357 -0.021105 0.019775 0.000000 0.001108 0.000000
# 4 0.000000 0.000000 0.000000 0.039949 0.000000 0.004383
# 5 -0.005533 0.017521 0.001108 0.000000 0.045626 0.000000
# 6 0.000000 0.000000 0.000000 0.004383 0.000000 0.036628
#
#
# Mechanical properties :
#
#
# Convention : Reuss Voigt Hill
#
# Bulk Modulus (GPa) = 37.34448 73.39521 55.36985
# Shear Modulus (GPa) = 15.68130 22.76396 19.22263
#
# Velocity S-wave (km/s) = 3.14708 3.79176 3.48436
# Velocity P-wave (km/s) = 6.06563 8.09478 7.15253
#
# Compressibility (1/GPa) = 0.02677772
#
# Stress axis : x y z
#
# Youngs Moduli (GPa) = 48.55569 14.95210 50.56953
#
# Poissons Ratio (x) = 0.20594 0.27092
# Poissons Ratio (y) = 0.66878 1.06728
# Poissons Ratio (z) = 0.26013 0.31557
#
# Static dielectric constant tensor:
#      x y z
#    x 1.498930 0.000000 -0.020270 
#    y 0.000000 1.527460 0.000000 
#    z -0.020270 0.000000 1.539450 
# 
# From -- ./inp_files/33404.got.cif
#   From: 2010.05.17/outbox.cif.g08.bks.cpg/sg11_17_cif.got.tgz:33404.got - 2010.06.03 12:22:45.
