data_PCOD9156753
_publ_section_title
;
Structure prediction by ZEFSAII (Michael W. Deem and Ramdas Pophale) SiO2 
 PCOD9156753
Probable space group: P 21/M
;
_chemical_formula_sum "Si O2"
_cell_formula_units_Z 24
_cell_length_a 11.540720
_cell_length_b 8.636346
_cell_length_c 20.421861
_cell_angle_alpha 90.000000
_cell_angle_beta 43.619965
_cell_angle_gamma 90.000000
_cell_volume 1404.192578
_symmetry_space_group_name_H-M "P 21/M"
_symmetry_group_IT_number 11
_symmetry_cell_setting 'monoclinic'
loop_
_space_group_symop_operation_xyz
x,y,z
-x,1/2+y,-z
-x,-y,-z
x,1/2-y,z
loop_
_atom_site_type_symbol
_atom_site_label
_atom_site_fract_x
_atom_site_fract_y
_atom_site_fract_z
Si Si1 0.605815 0.565995 0.676549
Si Si2 0.684150 0.063291 0.909608
Si Si3 0.816315 0.436373 0.713283
Si Si4 0.749336 0.934664 0.146246
Si Si5 0.893568 0.065122 0.481910
Si Si6 0.119780 0.936609 0.041340
O O1 0.625009 0.750000 0.668466
O O2 0.693572 0.499830 0.706667
O O3 0.412551 0.516994 0.757862
O O4 0.707499 0.495334 0.573496
O O5 0.677001 0.250000 0.911942
O O6 0.750057 0.014351 0.811415
O O7 0.807569 0.017061 0.918214
O O8 0.500000 0.000000 0.000000
O O9 0.817893 0.250000 0.708510
O O10 0.002913 0.499565 0.621723
O O11 0.726296 0.750000 0.158615
O O12 0.924120 0.975899 0.110696
O O13 0.776314 0.986054 0.059981
O O14 0.897362 0.250000 0.480596
O O15 0.000000 0.000000 0.500000
O O16 0.134740 0.750000 0.028467
#
# Coordination Sequence:
#
# PCOD9156753 Si02
#       6
#     4   4   4   4   4   4
#     4  11  20  31  49  73 100 128 161 200 242 287
#     4  10  21  34  50  72  99 131 162 195 235 284
#     4  10  19  32  49  72 101 130 161 197 241 288
#     4  10  19  32  51  73  97 126 162 204 243 283
#     4  10  18  30  48  71  98 127 160 198 242 287
#     4   9  19  35  51  70  98 130 163 198 241 287
#
# _framework density 17.091671999999999
#
# number of rings (size 3 to 8) (size 9 to 14) (size 15 to 20)
#    0.000    2.000    0.000    7.000    0.000    5.333 
#    0.000    0.000    0.000    1.000    0.000    0.000 
#    0.000    0.000    0.000    0.000    0.000    0.000 
#
# Total GULP energy -133931.452033 kJ/mol
# GULP energy per Si atom -5580.477168 kJ/mol
# Density = 1.705277 g / cm^3
# Si number density = 17.091672 Si / 1000 Ang^3
#
#
#
# Elastic Constant Matrix: (Units=GPa)
#
#
# Indices 1 2 3 4 5 6 
#
# 1 59.4704 19.9696 52.1872 0.0000 5.3271 0.0000
# 2 19.9696 82.3913 51.3379 0.0000 -3.8532 0.0000
# 3 52.1872 51.3379 172.4468 0.0000 -5.0874 0.0000
# 4 0.0000 0.0000 0.0000 33.5932 0.0000 -4.3922
# 5 5.3271 -3.8532 -5.0874 0.0000 23.7491 0.0000
# 6 0.0000 0.0000 0.0000 -4.3922 0.0000 18.7078
#
#
#
# Elastic Compliance Matrix: (Units=1/GPa)
#
#
# Indices 1 2 3 4 5 6 
#
# 1 0.024220 -0.001852 -0.006992 0.000000 -0.007231 0.000000
# 2 -0.001852 0.015095 -0.003873 0.000000 0.002035 0.000000
# 3 -0.006992 -0.003873 0.009153 0.000000 0.002901 0.000000
# 4 0.000000 0.000000 0.000000 0.030711 0.000000 0.007210
# 5 -0.007231 0.002035 0.002901 0.000000 0.044680 0.000000
# 6 0.000000 0.000000 0.000000 0.007210 0.000000 0.055147
#
#
# Mechanical properties :
#
#
# Convention : Reuss Voigt Hill
#
# Bulk Modulus (GPa) = 43.41339 62.36643 52.88991
# Shear Modulus (GPa) = 23.57183 27.93092 25.75137
#
# Velocity S-wave (km/s) = 3.71771 4.04689 3.88579
# Velocity P-wave (km/s) = 6.62449 7.64232 7.15154
#
# Compressibility (1/GPa) = 0.02303437
#
# Stress axis : x y z
#
# Youngs Moduli (GPa) = 41.28801 66.24870 109.24908
#
# Poissons Ratio (x) = 0.12269 0.76383
# Poissons Ratio (y) = 0.07647 0.42314
# Poissons Ratio (z) = 0.28867 0.25660
#
# Static dielectric constant tensor:
#      x y z
#    x 1.574680 0.000000 -0.007470 
#    y 0.000000 1.578840 0.000000 
#    z -0.007470 0.000000 1.597380 
# 
# From -- ./inp_files/40813.got.cif
#   From: 2010.05.17/outbox.cif.g08.bks.cpg/sg11_21_cif.got.tgz:40813.got - 2010.06.03 12:22:45.
