data_PCOD9156140
_publ_section_title
;
Structure prediction by ZEFSAII (Michael W. Deem and Ramdas Pophale) SiO2 
 PCOD9156140
Probable space group: P 21/M
;
_chemical_formula_sum "Si O2"
_cell_formula_units_Z 32
_cell_length_a 11.027577
_cell_length_b 23.835206
_cell_length_c 9.297066
_cell_angle_alpha 90.000000
_cell_angle_beta 133.915278
_cell_angle_gamma 90.000000
_cell_volume 1760.346834
_symmetry_space_group_name_H-M "P 21/M"
_symmetry_group_IT_number 11
_symmetry_cell_setting 'monoclinic'
loop_
_space_group_symop_operation_xyz
x,y,z
-x,1/2+y,-z
-x,-y,-z
x,1/2-y,z
loop_
_atom_site_type_symbol
_atom_site_label
_atom_site_fract_x
_atom_site_fract_y
_atom_site_fract_z
Si Si1 0.070190 0.404448 0.090336
Si Si2 0.966807 0.316967 0.218664
Si Si3 0.614785 0.427107 0.337946
Si Si4 0.635135 0.377185 0.039657
Si Si5 0.558389 0.877905 0.550856
Si Si6 0.392700 0.531669 0.223634
Si Si7 0.124950 0.981105 0.261651
Si Si8 0.655907 0.815277 0.365674
O O1 0.259222 0.383188 0.230034
O O2 0.063214 0.455068 0.202975
O O3 0.968052 0.352325 0.070787
O O4 0.009267 0.434323 0.895411
O O5 0.967726 0.250000 0.197745
O O6 0.796401 0.336365 0.157357
O O7 0.146494 0.331626 0.445687
O O8 0.620925 0.399387 0.189123
O O9 0.578870 0.382761 0.437205
O O10 0.468380 0.473719 0.231079
O O11 0.781362 0.461535 0.519120
O O12 0.663127 0.429335 0.953468
O O13 0.460033 0.348638 0.842890
O O14 0.531447 0.932055 0.425237
O O15 0.564581 0.826859 0.444560
O O16 0.253423 0.522063 0.230993
O O17 0.653421 0.750000 0.327755
#
# Coordination Sequence:
#
# PCOD9156140 Si02
#       8
#     4   4   4   4   4   4   4   4
#     4  10  17  32  57  84 109 147 187 235 285 327
#     4  10  21  39  61  82 105 144 201 242 269 330
#     4  11  20  34  50  86 116 150 177 227 284 348
#     4  11  22  36  56  82 119 150 187 222 286 343
#     4   9  17  32  58  78 108 138 184 234 276 324
#     4  10  17  34  52  77 113 154 181 218 270 350
#     4  10  18  31  56  82 119 144 183 227 289 338
#     4   9  20  39  62  80 100 142 195 240 279 330
#
# _framework density 18.178236999999999
#
# number of rings (size 3 to 8) (size 9 to 14) (size 15 to 20)
#    0.000    2.000    3.750    1.500    0.000    0.000 
#    2.250    1.875    0.000    1.500    0.000    0.000 
#    0.000    0.000    0.000    0.000    0.000    0.000 
#
# Total GULP energy -178279.280230 kJ/mol
# GULP energy per Si atom -5571.227507 kJ/mol
# Density = 1.813686 g / cm^3
# Si number density = 18.178237 Si / 1000 Ang^3
#
#
#
# Elastic Constant Matrix: (Units=GPa)
#
#
# Indices 1 2 3 4 5 6 
#
# 1 35.5117 16.5608 19.9634 0.0000 -6.0339 0.0000
# 2 16.5608 64.4162 33.5091 0.0000 -8.2803 0.0000
# 3 19.9634 33.5091 84.1389 0.0000 -8.7924 0.0000
# 4 0.0000 0.0000 0.0000 23.1129 0.0000 2.7308
# 5 -6.0339 -8.2803 -8.7924 0.0000 24.6083 0.0000
# 6 0.0000 0.0000 0.0000 2.7308 0.0000 21.8484
#
#
#
# Elastic Compliance Matrix: (Units=1/GPa)
#
#
# Indices 1 2 3 4 5 6 
#
# 1 0.034604 -0.005396 -0.005572 0.000000 0.004678 0.000000
# 2 -0.005396 0.020799 -0.006659 0.000000 0.003296 0.000000
# 3 -0.005572 -0.006659 0.016083 0.000000 0.002139 0.000000
# 4 0.000000 0.000000 0.000000 0.043914 0.000000 -0.005489
# 5 0.004678 0.003296 0.002139 0.000000 0.043657 0.000000
# 6 0.000000 0.000000 0.000000 -0.005489 0.000000 0.046456
#
#
# Mechanical properties :
#
#
# Convention : Reuss Voigt Hill
#
# Bulk Modulus (GPa) = 27.60073 36.01481 31.80777
# Shear Modulus (GPa) = 19.77501 21.51613 20.64557
#
# Velocity S-wave (km/s) = 3.30182 3.44411 3.37372
# Velocity P-wave (km/s) = 5.45457 5.97251 5.71941
#
# Compressibility (1/GPa) = 0.03623093
#
# Stress axis : x y z
#
# Youngs Moduli (GPa) = 28.89863 48.07958 62.17883
#
# Poissons Ratio (x) = 0.25945 0.34648
# Poissons Ratio (y) = 0.15594 0.41402
# Poissons Ratio (z) = 0.16103 0.32014
#
# Static dielectric constant tensor:
#      x y z
#    x 1.638440 0.000000 0.055070 
#    y 0.000000 1.641050 0.000000 
#    z 0.055070 0.000000 1.670170 
# 
# From -- ./inp_files/19651.got.cif
#   From: 2010.05.17/outbox.cif.g08.bks.cpg/sg11_10_cif.got.tgz:19651.got - 2010.06.03 12:22:45.
