data_PCOD9156034
_publ_section_title
;
Structure prediction by ZEFSAII (Michael W. Deem and Ramdas Pophale) SiO2 
 PCOD9156034
Probable space group: P 21/M
;
_chemical_formula_sum "Si O2"
_cell_formula_units_Z 28
_cell_length_a 18.383246
_cell_length_b 17.257101
_cell_length_c 9.771245
_cell_angle_alpha 90.000000
_cell_angle_beta 22.199530
_cell_angle_gamma 90.000000
_cell_volume 1171.224233
_symmetry_space_group_name_H-M "P 21/M"
_symmetry_group_IT_number 11
_symmetry_cell_setting 'monoclinic'
loop_
_space_group_symop_operation_xyz
x,y,z
-x,1/2+y,-z
-x,-y,-z
x,1/2-y,z
loop_
_atom_site_type_symbol
_atom_site_label
_atom_site_fract_x
_atom_site_fract_y
_atom_site_fract_z
Si Si1 0.657699 0.838610 0.371801
Si Si2 0.064736 0.342348 0.560574
Si Si3 0.667626 0.160550 0.566876
Si Si4 0.813035 0.056263 0.822532
Si Si5 0.706825 0.840608 0.585395
Si Si6 0.571490 0.592591 0.242646
Si Si7 0.110704 0.660913 0.562125
O O1 0.590239 0.750000 0.502275
O O2 0.548488 0.874873 0.434819
O O3 0.882500 0.839560 0.938797
O O4 0.660534 0.875504 0.518192
O O5 0.042189 0.250000 0.603234
O O6 0.127578 0.371594 0.602032
O O7 0.249100 0.361428 0.142190
O O8 0.877842 0.382926 0.825101
O O9 0.691857 0.250000 0.478079
O O10 0.485612 0.158411 0.988180
O O11 0.607891 0.107584 0.544564
O O12 0.841672 0.139096 0.364281
O O13 0.800435 0.103929 0.703618
O O14 0.640694 0.995527 0.131284
O O15 0.000000 0.000000 0.500000
O O16 0.758618 0.750000 0.469127
O O17 0.178858 0.750000 0.425315
#
# Coordination Sequence:
#
# PCOD9156034 Si02
#       7
#     4   4   4   4   4   4   4
#     4  10  17  29  52  77  98 124 163 208 245 284
#     4   9  15  28  48  70  94 127 169 206 237 283
#     4   9  18  33  52  73  98 130 165 201 244 293
#     4  10  18  28  47  75 101 125 166 206 242 283
#     4   8  16  29  49  73  98 127 162 202 247 293
#     4  10  18  29  50  72  98 131 168 196 241 299
#     4  10  19  31  52  78  99 123 165 212 244 278
#
# _framework density 23.906610000000001
#
# number of rings (size 3 to 8) (size 9 to 14) (size 15 to 20)
#    0.000    2.571    2.857    2.571    0.000    0.571 
#    0.000    0.714    3.143    0.857    0.000    0.000 
#    0.000    0.000    0.000    0.000    0.000    0.000 
#
# Total GULP energy -156537.994116 kJ/mol
# GULP energy per Si atom -5590.642647 kJ/mol
# Density = 2.385220 g / cm^3
# Si number density = 23.906610 Si / 1000 Ang^3
#
#
#
# Elastic Constant Matrix: (Units=GPa)
#
#
# Indices 1 2 3 4 5 6 
#
# 1 211.6759 62.7262 37.0743 0.0000 3.2947 0.0000
# 2 62.7262 75.7766 22.7271 0.0000 1.5568 0.0000
# 3 37.0743 22.7271 48.4836 0.0000 5.0593 0.0000
# 4 0.0000 0.0000 0.0000 16.1743 0.0000 -1.4478
# 5 3.2947 1.5568 5.0593 0.0000 40.5937 0.0000
# 6 0.0000 0.0000 0.0000 -1.4478 0.0000 4.9913
#
#
#
# Elastic Compliance Matrix: (Units=1/GPa)
#
#
# Indices 1 2 3 4 5 6 
#
# 1 0.006590 -0.004589 -0.002888 0.000000 0.000001 0.000000
# 2 -0.004589 0.018555 -0.005221 0.000000 0.000312 0.000000
# 3 -0.002888 -0.005221 0.025569 0.000000 -0.002752 0.000000
# 4 0.000000 0.000000 0.000000 0.063475 0.000000 0.018412
# 5 0.000001 0.000312 -0.002752 0.000000 0.024965 0.000000
# 6 0.000000 0.000000 0.000000 0.018412 0.000000 0.205691
#
#
# Mechanical properties :
#
#
# Convention : Reuss Voigt Hill
#
# Bulk Modulus (GPa) = 39.49935 64.55459 52.02697
# Shear Modulus (GPa) = 13.20376 26.57908 19.89142
#
# Velocity S-wave (km/s) = 2.35267 3.33797 2.88765
# Velocity P-wave (km/s) = 4.89268 6.47437 5.73828
#
# Compressibility (1/GPa) = 0.02531687
#
# Stress axis : x y z
#
# Youngs Moduli (GPa) = 151.74931 53.89470 39.11012
#
# Poissons Ratio (x) = 0.24731 0.11296
# Poissons Ratio (y) = 0.69633 0.20421
# Poissons Ratio (z) = 0.43828 0.28140
#
# Static dielectric constant tensor:
#      x y z
#    x 1.925550 0.000000 -0.014800 
#    y 0.000000 1.854120 0.000000 
#    z -0.014800 0.000000 1.983460 
# 
# From -- ./inp_files/22736.got.cif
#   From: 2010.05.17/outbox.cif.g08.bks.cpg/sg11_12_cif.got.tgz:22736.got - 2010.06.03 12:22:45.
