data_PCOD9156928
_publ_section_title
;
Structure prediction by ZEFSAII (Michael W. Deem and Ramdas Pophale) SiO2 
 PCOD9156928
Probable space group: P 21/M
;
_chemical_formula_sum "Si O2"
_cell_formula_units_Z 32
_cell_length_a 14.501670
_cell_length_b 7.885672
_cell_length_c 24.562988
_cell_angle_alpha 90.000000
_cell_angle_beta 149.989016
_cell_angle_gamma 90.000000
_cell_volume 1404.921638
_symmetry_space_group_name_H-M "P 21/M"
_symmetry_group_IT_number 11
_symmetry_cell_setting 'monoclinic'
loop_
_space_group_symop_operation_xyz
x,y,z
-x,1/2+y,-z
-x,-y,-z
x,1/2-y,z
loop_
_atom_site_type_symbol
_atom_site_label
_atom_site_fract_x
_atom_site_fract_y
_atom_site_fract_z
Si Si1 0.303411 0.041819 0.503114
Si Si2 0.306425 0.952396 0.010113
Si Si3 0.240509 0.054576 0.354427
Si Si4 0.410379 0.947939 0.261506
Si Si5 0.893607 0.549091 0.824292
Si Si6 0.593072 0.444690 0.244642
Si Si7 0.828779 0.949510 0.170269
Si Si8 0.886775 0.044713 0.316751
O O1 0.304726 0.250000 0.502459
O O2 0.335709 0.981128 0.457369
O O3 0.448181 0.979700 0.621381
O O4 0.098479 0.990937 0.417707
O O5 0.323519 0.750000 0.027151
O O6 0.102728 0.011973 0.926059
O O7 0.308888 0.990492 0.947067
O O8 0.456634 0.042887 0.123530
O O9 0.298999 0.250000 0.380368
O O10 0.230945 0.975069 0.289299
O O11 0.022071 0.047387 0.258810
O O12 0.392206 0.750000 0.262686
O O13 0.210228 0.022444 0.172318
O O14 0.495436 0.970309 0.245743
O O15 0.904148 0.750000 0.819504
O O16 0.622163 0.250000 0.275155
O O17 0.784645 0.516657 0.318925
O O18 0.862337 0.750000 0.180484
O O19 0.781237 0.984460 0.208467
O O20 0.882054 0.250000 0.314934
#
# Coordination Sequence:
#
# PCOD9156928 Si02
#       8
#     4   4   4   4   4   4   4   4
#     4   8  16  34  58  82 110 146 183 218 267 328
#     4  10  21  39  61  82 110 147 181 221 275 329
#     4   8  15  32  56  80 111 148 182 219 268 325
#     4  11  23  37  55  80 111 147 186 229 274 323
#     4   9  19  36  58  82 109 144 182 222 272 326
#     4  11  24  40  58  80 106 141 189 237 274 318
#     4  10  18  30  54  88 118 141 174 221 270 326
#     4   9  19  38  60  80 109 148 183 221 272 325
#
# _framework density 22.777070999999999
#
# number of rings (size 3 to 8) (size 9 to 14) (size 15 to 20)
#    0.000    2.500    0.000    3.750    0.000    5.500 
#    0.000    5.000    0.000    0.000    0.000    0.000 
#    0.000    0.000    0.000    0.000    0.000    0.000 
#
# Total GULP energy -178662.208583 kJ/mol
# GULP energy per Si atom -5583.194018 kJ/mol
# Density = 2.272523 g / cm^3
# Si number density = 22.777071 Si / 1000 Ang^3
#
#
#
# Elastic Constant Matrix: (Units=GPa)
#
#
# Indices 1 2 3 4 5 6 
#
# 1 115.7327 1.2995 -3.6630 0.0000 12.3565 0.0000
# 2 1.2995 44.5598 -5.6405 0.0000 6.1393 0.0000
# 3 -3.6630 -5.6405 33.4354 0.0000 5.3819 0.0000
# 4 0.0000 0.0000 0.0000 12.5927 0.0000 3.0380
# 5 12.3565 6.1393 5.3819 0.0000 20.7107 0.0000
# 6 0.0000 0.0000 0.0000 3.0380 0.0000 -10.4297
#
#
#
# Elastic Compliance Matrix: (Units=1/GPa)
#
#
# Indices 1 2 3 4 5 6 
#
# 1 0.009389 0.000894 0.002216 0.000000 -0.006443 0.000000
# 2 0.000894 0.024413 0.005706 0.000000 -0.009253 0.000000
# 3 0.002216 0.005706 0.032978 0.000000 -0.011583 0.000000
# 4 0.000000 0.000000 0.000000 0.074197 0.000000 0.021613
# 5 -0.006443 -0.009253 -0.011583 0.000000 0.057881 0.000000
# 6 0.000000 0.000000 0.000000 0.021613 0.000000 -0.089585
#
#
# Mechanical properties :
#
#
# Convention : Reuss Voigt Hill
#
# Bulk Modulus (GPa) = 11.84652 19.74664 15.79658
# Shear Modulus (GPa) = 41.74411 18.02354 29.88383
#
# Velocity S-wave (km/s) = 4.28568 2.81606 3.62610
# Velocity P-wave (km/s) = 5.44993 4.38884 4.94791
#
# Compressibility (1/GPa) = 0.08441297
#
# Stress axis : x y z
#
# Youngs Moduli (GPa) = 106.51261 40.96217 30.32295
#
# Poissons Ratio (x) = -0.03664 -0.06721
# Poissons Ratio (y) = -0.09526 -0.17302
# Poissons Ratio (z) = -0.23608 -0.23372
#
# Static dielectric constant tensor:
#      x y z
#    x 1.875140 0.000000 0.013290 
#    y 0.000000 1.809820 0.000000 
#    z 0.013290 0.000000 1.873930 
# 
# From -- ./inp_files/69129.got.cif
#   From: 2010.05.17/outbox.cif.g08.bks.cpg/sg11_35_cif.got.tgz:69129.got - 2010.06.03 12:22:45.
