data_PCOD9156179
_publ_section_title
;
Structure prediction by ZEFSAII (Michael W. Deem and Ramdas Pophale) SiO2 
 PCOD9156179
Probable space group: P 21/M
;
_chemical_formula_sum "Si O2"
_cell_formula_units_Z 32
_cell_length_a 7.999963
_cell_length_b 19.894788
_cell_length_c 14.862828
_cell_angle_alpha 90.000000
_cell_angle_beta 40.617984
_cell_angle_gamma 90.000000
_cell_volume 1539.990625
_symmetry_space_group_name_H-M "P 21/M"
_symmetry_group_IT_number 11
_symmetry_cell_setting 'monoclinic'
loop_
_space_group_symop_operation_xyz
x,y,z
-x,1/2+y,-z
-x,-y,-z
x,1/2-y,z
loop_
_atom_site_type_symbol
_atom_site_label
_atom_site_fract_x
_atom_site_fract_y
_atom_site_fract_z
Si Si1 0.262470 0.170419 0.325450
Si Si2 0.265011 0.590065 0.479808
Si Si3 0.198264 0.125828 0.733687
Si Si4 0.279145 0.548451 0.290235
Si Si5 0.660868 0.169801 0.010676
Si Si6 0.920912 0.021258 0.288708
Si Si7 0.620774 0.566064 0.998593
Si Si8 0.915745 0.673775 0.416078
O O1 0.227272 0.250000 0.323809
O O2 0.496506 0.149060 0.165899
O O3 0.293886 0.160950 0.419892
O O4 0.998858 0.131799 0.410857
O O5 0.511829 0.634284 0.352558
O O6 0.271025 0.533005 0.399102
O O7 0.295193 0.560490 0.567796
O O8 0.176768 0.163120 0.646937
O O9 0.158057 0.046538 0.729227
O O10 0.960010 0.149902 0.890883
O O11 0.109576 0.501227 0.294722
O O12 0.139198 0.620293 0.340666
O O13 0.554649 0.555865 0.130120
O O14 0.641295 0.250000 0.006439
O O15 0.532968 0.128990 0.980196
O O16 0.086404 0.066273 0.152925
O O17 0.500000 0.500000 0.000000
O O18 0.006081 0.750000 0.390594
#
# Coordination Sequence:
#
# PCOD9156179 Si02
#       8
#     4   4   4   4   4   4   4   4
#     4   9  20  35  56  80 103 139 188 229 269 326
#     4  11  21  35  54  83 115 138 178 238 280 326
#     4  11  22  34  53  84 112 146 177 224 288 337
#     4   9  19  32  55  84 104 139 190 227 271 318
#     4  11  20  35  59  83 106 147 193 226 272 341
#     4  10  19  36  56  75 111 148 186 223 276 334
#     4  10  17  34  58  81 107 141 192 232 267 318
#     4   9  17  34  54  76 106 142 180 220 270 337
#
# _framework density 20.779347000000001
#
# number of rings (size 3 to 8) (size 9 to 14) (size 15 to 20)
#    0.000    2.000    5.000    1.125    0.000    1.000 
#    0.000    1.875    0.000    0.000    0.000    0.000 
#    0.000    0.000    0.000    0.000    0.000    0.000 
#
# Total GULP energy -178398.688280 kJ/mol
# GULP energy per Si atom -5574.959009 kJ/mol
# Density = 2.073205 g / cm^3
# Si number density = 20.779347 Si / 1000 Ang^3
#
#
#
# Elastic Constant Matrix: (Units=GPa)
#
#
# Indices 1 2 3 4 5 6 
#
# 1 25.6428 0.1614 28.6613 0.0000 -9.7586 0.0000
# 2 0.1614 50.3181 27.9433 0.0000 -8.3094 0.0000
# 3 28.6613 27.9433 194.5303 0.0000 -4.9221 0.0000
# 4 0.0000 0.0000 0.0000 31.1673 0.0000 2.0418
# 5 -9.7586 -8.3094 -4.9221 0.0000 26.6120 0.0000
# 6 0.0000 0.0000 0.0000 2.0418 0.0000 8.8698
#
#
#
# Elastic Compliance Matrix: (Units=1/GPa)
#
#
# Indices 1 2 3 4 5 6 
#
# 1 0.057579 0.008546 -0.009152 0.000000 0.022090 0.000000
# 2 0.008546 0.023933 -0.004449 0.000000 0.009784 0.000000
# 3 -0.009152 -0.004449 0.007041 0.000000 -0.003443 0.000000
# 4 0.000000 0.000000 0.000000 0.032576 0.000000 -0.007499
# 5 0.022090 0.009784 -0.003443 0.000000 0.048095 0.000000
# 6 0.000000 0.000000 0.000000 -0.007499 0.000000 0.114468
#
#
# Mechanical properties :
#
#
# Convention : Reuss Voigt Hill
#
# Bulk Modulus (GPa) = 12.74838 42.66925 27.70881
# Shear Modulus (GPa) = 15.62739 27.57818 21.60279
#
# Velocity S-wave (km/s) = 2.74535 3.64702 3.22782
# Velocity P-wave (km/s) = 4.02464 6.18978 5.22068
#
# Compressibility (1/GPa) = 0.07844134
#
# Stress axis : x y z
#
# Youngs Moduli (GPa) = 17.36735 41.78396 142.02480
#
# Poissons Ratio (x) = -0.35707 1.29982
# Poissons Ratio (y) = -0.14841 0.63191
# Poissons Ratio (z) = 0.15895 0.18591
#
# Static dielectric constant tensor:
#      x y z
#    x 1.777260 0.000000 0.011440 
#    y 0.000000 1.762080 0.000000 
#    z 0.011440 0.000000 1.834580 
# 
# From -- ./inp_files/23084.got.cif
#   From: 2010.05.17/outbox.cif.g08.bks.cpg/sg11_12_cif.got.tgz:23084.got - 2010.06.03 12:22:45.
