data_PCOD9156795
_publ_section_title
;
Structure prediction by ZEFSAII (Michael W. Deem and Ramdas Pophale) SiO2 
 PCOD9156795
Probable space group: P 21/M
;
_chemical_formula_sum "Si O2"
_cell_formula_units_Z 32
_cell_length_a 9.331000
_cell_length_b 18.866452
_cell_length_c 15.644152
_cell_angle_alpha 90.000000
_cell_angle_beta 145.633514
_cell_angle_gamma 90.000000
_cell_volume 1554.613012
_symmetry_space_group_name_H-M "P 21/M"
_symmetry_group_IT_number 11
_symmetry_cell_setting 'monoclinic'
loop_
_space_group_symop_operation_xyz
x,y,z
-x,1/2+y,-z
-x,-y,-z
x,1/2-y,z
loop_
_atom_site_type_symbol
_atom_site_label
_atom_site_fract_x
_atom_site_fract_y
_atom_site_fract_z
Si Si1 0.055278 0.055414 0.657954
Si Si2 0.811743 0.951854 0.657547
Si Si3 0.093795 0.594668 0.583073
Si Si4 0.477275 0.081204 0.649442
Si Si5 0.098113 0.832894 0.053261
Si Si6 0.487129 0.170422 0.891918
Si Si7 0.806874 0.328809 0.213300
Si Si8 0.778258 0.544694 0.844657
O O1 0.864381 0.093429 0.497350
O O2 0.287905 0.107718 0.784104
O O3 0.935128 0.025491 0.685283
O O4 0.122685 0.982438 0.641293
O O5 0.576654 0.938206 0.476468
O O6 0.793200 0.949644 0.749555
O O7 0.999701 0.887566 0.725635
O O8 0.790751 0.611163 0.447485
O O9 0.249597 0.648709 0.717476
O O10 0.713172 0.133094 0.782682
O O11 0.542431 0.009583 0.734623
O O12 0.053622 0.750000 0.046059
O O13 0.270220 0.840395 0.051180
O O14 0.840288 0.878098 0.913718
O O15 0.388197 0.250000 0.823031
O O16 0.577068 0.169936 0.034163
O O17 0.918200 0.250000 0.266064
O O18 0.000000 0.500000 0.000000
#
# Coordination Sequence:
#
# PCOD9156795 Si02
#       8
#     4   4   4   4   4   4   4   4
#     4   9  18  32  48  72 107 131 169 205 248 307
#     4  10  20  33  52  79 102 138 171 213 260 303
#     4   9  18  31  49  76 102 136 165 206 253 301
#     4   9  18  32  53  74 103 132 173 210 259 302
#     4  10  19  32  51  78 105 128 169 213 260 307
#     4  10  18  30  49  73 104 136 165 208 255 302
#     4   9  18  30  46  75 109 130 161 210 258 303
#     4  10  20  35  53  76 105 137 172 217 260 300
#
# _framework density 20.5839
#
# number of rings (size 3 to 8) (size 9 to 14) (size 15 to 20)
#    0.000    2.750    2.500    0.375    0.000    4.500 
#    0.000    0.000    0.000    6.000    0.000    0.000 
#    0.000    0.000    0.000    0.000    0.000    0.000 
#
# Total GULP energy -178159.978660 kJ/mol
# GULP energy per Si atom -5567.499333 kJ/mol
# Density = 2.053705 g / cm^3
# Si number density = 20.583900 Si / 1000 Ang^3
#
#
#
# Elastic Constant Matrix: (Units=GPa)
#
#
# Indices 1 2 3 4 5 6 
#
# 1 30.1362 5.9286 12.6309 0.0000 -7.2657 0.0000
# 2 5.9286 93.9840 34.6532 0.0000 -3.3101 0.0000
# 3 12.6309 34.6532 97.3407 0.0000 -24.2752 0.0000
# 4 0.0000 0.0000 0.0000 31.6879 0.0000 0.7742
# 5 -7.2657 -3.3101 -24.2752 0.0000 20.7939 0.0000
# 6 0.0000 0.0000 0.0000 0.7742 0.0000 15.3805
#
#
#
# Elastic Compliance Matrix: (Units=1/GPa)
#
#
# Indices 1 2 3 4 5 6 
#
# 1 0.036709 -0.001345 -0.001607 0.000000 0.010737 0.000000
# 2 -0.001345 0.012593 -0.005538 0.000000 -0.004931 0.000000
# 3 -0.001607 -0.005538 0.017060 0.000000 0.018474 0.000000
# 4 0.000000 0.000000 0.000000 0.031597 0.000000 -0.001590
# 5 0.010737 -0.004931 0.018474 0.000000 0.072624 0.000000
# 6 0.000000 0.000000 0.000000 -0.001590 0.000000 0.065097
#
#
# Mechanical properties :
#
#
# Convention : Reuss Voigt Hill
#
# Bulk Modulus (GPa) = 20.25012 36.43182 28.34097
# Shear Modulus (GPa) = 18.57886 24.78900 21.68393
#
# Velocity S-wave (km/s) = 3.00758 3.47405 3.24920
# Velocity P-wave (km/s) = 4.68187 5.81633 5.27966
#
# Compressibility (1/GPa) = 0.04938242
#
# Stress axis : x y z
#
# Youngs Moduli (GPa) = 27.24091 79.40680 58.61530
#
# Poissons Ratio (x) = 0.10680 0.09420
# Poissons Ratio (y) = 0.03664 0.32464
# Poissons Ratio (z) = 0.04378 0.43979
#
# Static dielectric constant tensor:
#      x y z
#    x 1.814390 0.000000 0.008470 
#    y 0.000000 1.755180 0.000000 
#    z 0.008470 0.000000 1.776340 
# 
# From -- ./inp_files/59635.got.cif
#   From: 2010.05.17/outbox.cif.g08.bks.cpg/sg11_30_cif.got.tgz:59635.got - 2010.06.03 12:22:45.
