data_PCOD9156386
_publ_section_title
;
Structure prediction by ZEFSAII (Michael W. Deem and Ramdas Pophale) SiO2 
 PCOD9156386
Probable space group: P 21/M
;
_chemical_formula_sum "Si O2"
_cell_formula_units_Z 32
_cell_length_a 19.712879
_cell_length_b 9.653974
_cell_length_c 27.620051
_cell_angle_alpha 90.000000
_cell_angle_beta 21.505518
_cell_angle_gamma 90.000000
_cell_volume 1926.913660
_symmetry_space_group_name_H-M "P 21/M"
_symmetry_group_IT_number 11
_symmetry_cell_setting 'monoclinic'
loop_
_space_group_symop_operation_xyz
x,y,z
-x,1/2+y,-z
-x,-y,-z
x,1/2-y,z
loop_
_atom_site_type_symbol
_atom_site_label
_atom_site_fract_x
_atom_site_fract_y
_atom_site_fract_z
Si Si1 0.672814 0.915751 0.904929
Si Si2 0.452773 0.588543 0.626305
Si Si3 0.819467 0.918508 0.913081
Si Si4 0.329888 0.088348 0.886764
Si Si5 0.077241 0.592818 0.604007
Si Si6 0.216084 0.590897 0.624040
Si Si7 0.404112 0.088564 0.357535
Si Si8 0.950752 0.411481 0.079930
O O1 0.637991 0.750000 0.927980
O O2 0.726591 0.958178 0.924052
O O3 0.859873 0.939161 0.749787
O O4 0.500000 0.000000 0.000000
O O5 0.463858 0.750000 0.604909
O O6 0.598701 0.499261 0.498934
O O7 0.512578 0.577650 0.643268
O O8 0.238943 0.542462 0.768131
O O9 0.830627 0.750000 0.905775
O O10 0.034629 0.964249 0.772511
O O11 0.698420 0.959327 0.039369
O O12 0.389223 0.250000 0.846219
O O13 0.465686 0.994827 0.765336
O O14 0.126308 0.082830 0.998267
O O15 0.105689 0.750000 0.567142
O O16 0.144861 0.593339 0.615327
O O17 0.204252 0.483775 0.492337
O O18 0.253710 0.750000 0.613546
O O19 0.393813 0.250000 0.352171
O O20 0.920585 0.250000 0.085885
O O21 0.000000 0.500000 0.000000
#
# Coordination Sequence:
#
# PCOD9156386 Si02
#       8
#     4   4   4   4   4   4   4   4
#     4   9  17  31  53  78 102 123 149 189 231 275
#     4   9  17  28  41  62  92 119 149 197 247 276
#     4   8  16  32  50  70  95 123 157 192 226 275
#     4  10  19  31  49  67  89 128 166 192 230 284
#     4   8  15  28  46  69  94 121 155 189 223 273
#     4   8  14  27  47  65  84 116 157 193 225 270
#     4  10  18  28  44  67  96 124 154 199 242 271
#     4  10  19  30  44  64  91 123 160 201 239 278
#
# _framework density 16.606867000000001
#
# number of rings (size 3 to 8) (size 9 to 14) (size 15 to 20)
#    0.000    3.000    1.250    1.875    0.000    1.500 
#    0.000    3.750    0.000    0.750    0.000    0.000 
#    0.000    0.000    0.000    0.000    0.000    0.000 
#
# Total GULP energy -178267.326673 kJ/mol
# GULP energy per Si atom -5570.853959 kJ/mol
# Density = 1.656907 g / cm^3
# Si number density = 16.606867 Si / 1000 Ang^3
#
#
#
# Elastic Constant Matrix: (Units=GPa)
#
#
# Indices 1 2 3 4 5 6 
#
# 1 29.0992 19.9772 21.7499 0.0000 2.1228 0.0000
# 2 19.9772 66.6469 59.8895 0.0000 -0.0345 0.0000
# 3 21.7499 59.8895 97.3653 0.0000 -7.5473 0.0000
# 4 0.0000 0.0000 0.0000 32.3150 0.0000 -4.9632
# 5 2.1228 -0.0345 -7.5473 0.0000 18.5973 0.0000
# 6 0.0000 0.0000 0.0000 -4.9632 0.0000 9.3954
#
#
#
# Elastic Compliance Matrix: (Units=1/GPa)
#
#
# Indices 1 2 3 4 5 6 
#
# 1 0.044782 -0.008798 -0.005152 0.000000 -0.007219 0.000000
# 2 -0.008798 0.036657 -0.021165 0.000000 -0.007517 0.000000
# 3 -0.005152 -0.021165 0.025278 0.000000 0.010807 0.000000
# 4 0.000000 0.000000 0.000000 0.033678 0.000000 0.017790
# 5 -0.007219 -0.007517 0.010807 0.000000 0.058967 0.000000
# 6 0.000000 0.000000 0.000000 0.017790 0.000000 0.115833
#
#
# Mechanical properties :
#
#
# Convention : Reuss Voigt Hill
#
# Bulk Modulus (GPa) = 27.40637 44.03829 35.72233
# Shear Modulus (GPa) = 12.57591 18.16119 15.36855
#
# Velocity S-wave (km/s) = 2.75484 3.31054 3.04539
# Velocity P-wave (km/s) = 5.16311 6.41784 5.82436
#
# Compressibility (1/GPa) = 0.03648786
#
# Stress axis : x y z
#
# Youngs Moduli (GPa) = 22.33029 27.28016 39.56046
#
# Poissons Ratio (x) = 0.24000 0.20381
# Poissons Ratio (y) = 0.19645 0.83730
# Poissons Ratio (z) = 0.11504 0.57738
#
# Static dielectric constant tensor:
#      x y z
#    x 1.562070 0.000000 0.007920 
#    y 0.000000 1.552780 0.000000 
#    z 0.007920 0.000000 1.563800 
# 
# From -- ./inp_files/40693.got.cif
#   From: 2010.05.17/outbox.cif.g08.bks.cpg/sg11_21_cif.got.tgz:40693.got - 2010.06.03 12:22:45.
