data_PCOD9156425
_publ_section_title
;
Structure prediction by ZEFSAII (Michael W. Deem and Ramdas Pophale) SiO2 
 PCOD9156425
Probable space group: P 21/M
;
_chemical_formula_sum "Si O2"
_cell_formula_units_Z 32
_cell_length_a 22.044067
_cell_length_b 7.419413
_cell_length_c 15.203624
_cell_angle_alpha 90.000000
_cell_angle_beta 35.084158
_cell_angle_gamma 90.000000
_cell_volume 1429.253597
_symmetry_space_group_name_H-M "P 21/M"
_symmetry_group_IT_number 11
_symmetry_cell_setting 'monoclinic'
loop_
_space_group_symop_operation_xyz
x,y,z
-x,1/2+y,-z
-x,-y,-z
x,1/2-y,z
loop_
_atom_site_type_symbol
_atom_site_label
_atom_site_fract_x
_atom_site_fract_y
_atom_site_fract_z
Si Si1 0.765495 0.965670 0.668994
Si Si2 0.785969 0.032767 0.939706
Si Si3 0.727797 0.956741 0.383570
Si Si4 0.386422 0.535022 0.987652
Si Si5 0.946223 0.031716 0.218437
Si Si6 0.987604 0.957637 0.373271
Si Si7 0.378008 0.471502 0.319281
Si Si8 0.824431 0.964283 0.096957
O O1 0.776702 0.750000 0.647389
O O2 0.884312 0.037249 0.543091
O O3 0.711284 0.032007 0.643452
O O4 0.683236 0.000571 0.843851
O O5 0.789468 0.250000 0.928137
O O6 0.683072 0.966358 0.011380
O O7 0.787204 0.992137 0.041513
O O8 0.894685 0.962433 0.766179
O O9 0.693328 0.750000 0.411617
O O10 0.649530 0.034028 0.549685
O O11 0.749242 0.039071 0.262361
O O12 0.842372 0.961226 0.294499
O O13 0.395257 0.750000 0.967366
O O14 0.506168 0.468441 0.848324
O O15 0.942861 0.250000 0.223784
O O16 0.955670 0.965676 0.307701
O O17 0.054458 0.970548 0.042906
O O18 0.998038 0.750000 0.389271
O O19 0.374715 0.250000 0.322769
O O20 0.829974 0.750000 0.105245
#
# Coordination Sequence:
#
# PCOD9156425 Si02
#       8
#     4   4   4   4   4   4   4   4
#     4  10  19  33  54  77  98 128 169 208 251 301
#     4   9  19  35  53  72 101 137 169 204 247 295
#     4  10  18  32  52  73 100 137 171 200 243 302
#     4  10  21  36  53  74  99 132 171 210 253 295
#     4  10  18  28  45  76 109 131 159 204 254 294
#     4   9  17  32  52  73 100 135 169 198 243 306
#     4   9  18  34  54  74 100 133 169 204 245 301
#     4   9  19  32  50  75 102 133 169 205 245 294
#
# _framework density 22.389309000000001
#
# number of rings (size 3 to 8) (size 9 to 14) (size 15 to 20)
#    0.000    2.500    1.250    1.125    0.000    2.500 
#    0.000    1.250    0.000    0.000    0.000    0.000 
#    0.000    0.000    0.000    0.000    0.000    0.000 
#
# Total GULP energy -178658.293588 kJ/mol
# GULP energy per Si atom -5583.071675 kJ/mol
# Density = 2.233835 g / cm^3
# Si number density = 22.389309 Si / 1000 Ang^3
#
#
#
# Elastic Constant Matrix: (Units=GPa)
#
#
# Indices 1 2 3 4 5 6 
#
# 1 8.2052 -11.6585 -53.6842 0.0000 17.5010 0.0000
# 2 -11.6585 77.9672 -10.4176 0.0000 -3.2699 0.0000
# 3 -53.6842 -10.4176 -64.2920 0.0000 67.6529 0.0000
# 4 0.0000 0.0000 0.0000 2.3772 0.0000 2.9751
# 5 17.5010 -3.2699 67.6529 0.0000 10.9563 0.0000
# 6 0.0000 0.0000 0.0000 2.9751 0.0000 4.2878
#
#
#
# Elastic Compliance Matrix: (Units=1/GPa)
#
#
# Indices 1 2 3 4 5 6 
#
# 1 0.030027 0.003779 -0.009999 0.000000 0.014907 0.000000
# 2 0.003779 0.013431 -0.000996 0.000000 0.004121 0.000000
# 3 -0.009999 -0.000996 0.001261 0.000000 0.007891 0.000000
# 4 0.000000 0.000000 0.000000 3.196938 0.000000 -2.218256
# 5 0.014907 0.004121 0.007891 0.000000 0.019963 0.000000
# 6 0.000000 0.000000 0.000000 -2.218256 0.000000 1.772402
#
#
# Mechanical properties :
#
#
# Convention : Reuss Voigt Hill
#
# Bulk Modulus (GPa) = 33.01778 -14.40448 9.30665
# Shear Modulus (GPa) = 0.98843 10.03362 5.51102
#
# Velocity S-wave (km/s) = 0.66515 2.11924 1.57060
# Velocity P-wave (km/s) = 3.92034 0.67778 2.73035
#
# Compressibility (1/GPa) = 0.03028671
#
# Stress axis : x y z
#
# Youngs Moduli (GPa) = 33.30329 74.45591 793.31349
#
# Poissons Ratio (x) = -0.28138 7.93245
# Poissons Ratio (y) = -0.12586 0.78998
# Poissons Ratio (z) = 0.33300 0.07414
#
# Static dielectric constant tensor:
#      x y z
#    x 1.796820 0.000000 0.006130 
#    y 0.000000 1.854590 0.000000 
#    z 0.006130 0.000000 1.863520 
# 
# From -- ./inp_files/51735.got.cif
#   From: 2010.05.17/outbox.cif.g08.bks.cpg/sg11_26_cif.got.tgz:51735.got - 2010.06.03 12:22:45.
