data_PCOD9156555
_publ_section_title
;
Structure prediction by ZEFSAII (Michael W. Deem and Ramdas Pophale) SiO2 
 PCOD9156555
Probable space group: P 21/M
;
_chemical_formula_sum "Si O2"
_cell_formula_units_Z 24
_cell_length_a 27.771618
_cell_length_b 11.181317
_cell_length_c 25.621875
_cell_angle_alpha 90.000000
_cell_angle_beta 169.445654
_cell_angle_gamma 90.000000
_cell_volume 1457.319705
_symmetry_space_group_name_H-M "P 21/M"
_symmetry_group_IT_number 11
_symmetry_cell_setting 'monoclinic'
loop_
_space_group_symop_operation_xyz
x,y,z
-x,1/2+y,-z
-x,-y,-z
x,1/2-y,z
loop_
_atom_site_type_symbol
_atom_site_label
_atom_site_fract_x
_atom_site_fract_y
_atom_site_fract_z
Si Si1 0.640078 0.027439 0.566782
Si Si2 0.136872 0.896975 0.394926
Si Si3 0.070293 0.396935 0.617268
Si Si4 0.546247 0.608097 0.743879
Si Si5 0.325715 0.892750 0.709396
Si Si6 0.821024 0.384753 0.868383
O O1 0.398059 0.950360 0.330786
O O2 0.551116 0.087365 0.418507
O O3 0.721040 0.110867 0.701717
O O4 0.900159 0.950359 0.832879
O O5 0.136134 0.750000 0.393712
O O6 0.337703 0.937841 0.564070
O O7 0.231820 0.938999 0.553046
O O8 0.840940 0.937844 0.067360
O O9 0.048639 0.250000 0.581140
O O10 0.875158 0.420525 0.457961
O O11 0.000000 0.500000 0.500000
O O12 0.372800 0.420526 0.955671
O O13 0.560091 0.750000 0.766976
O O14 0.317245 0.750000 0.695289
O O15 0.850094 0.250000 0.916844
#
# Coordination Sequence:
#
# PCOD9156555 Si02
#       6
#     4   4   4   4   4   4
#     4  10  20  32  49  71  93 119 152 189 235 286
#     4   9  17  28  45  69  97 127 153 186 238 287
#     4  10  19  31  49  74 102 131 164 200 239 283
#     4  10  18  29  46  71  99 121 150 194 240 282
#     4   9  17  30  47  70 100 128 157 193 236 288
#     4  10  20  34  49  67  92 122 154 188 232 284
#
# _framework density 16.468589000000001
#
# number of rings (size 3 to 8) (size 9 to 14) (size 15 to 20)
#    0.000    2.333    0.000    3.500    0.000    4.000 
#    0.000    5.000    0.000    0.000    0.000   23.333 
#    0.000    0.000    0.000    0.000    0.000    0.000 
#
# Total GULP energy -133634.204043 kJ/mol
# GULP energy per Si atom -5568.091835 kJ/mol
# Density = 1.643111 g / cm^3
# Si number density = 16.468589 Si / 1000 Ang^3
#
#
#
# Elastic Constant Matrix: (Units=GPa)
#
#
# Indices 1 2 3 4 5 6 
#
# 1 114.2139 5.2757 76.3793 0.0000 11.2751 0.0000
# 2 5.2757 23.7543 13.6557 0.0000 10.8105 0.0000
# 3 76.3793 13.6557 139.6533 0.0000 21.2983 0.0000
# 4 0.0000 0.0000 0.0000 8.8094 0.0000 -4.3085
# 5 11.2751 10.8105 21.2983 0.0000 36.2566 0.0000
# 6 0.0000 0.0000 0.0000 -4.3085 0.0000 12.1473
#
#
#
# Elastic Compliance Matrix: (Units=1/GPa)
#
#
# Indices 1 2 3 4 5 6 
#
# 1 0.013847 0.001442 -0.007680 0.000000 -0.000225 0.000000
# 2 0.001442 0.049874 -0.003657 0.000000 -0.013171 0.000000
# 3 -0.007680 -0.003657 0.012289 0.000000 -0.003740 0.000000
# 4 0.000000 0.000000 0.000000 0.137340 0.000000 0.048713
# 5 -0.000225 -0.013171 -0.003740 0.000000 0.033775 0.000000
# 6 0.000000 0.000000 0.000000 0.048713 0.000000 0.099601
#
#
# Mechanical properties :
#
#
# Convention : Reuss Voigt Hill
#
# Bulk Modulus (GPa) = 17.78728 52.02699 34.90714
# Shear Modulus (GPa) = 12.97840 23.59672 18.28756
#
# Velocity S-wave (km/s) = 2.81030 3.78938 3.33596
# Velocity P-wave (km/s) = 4.62110 7.12784 6.00669
#
# Compressibility (1/GPa) = 0.05621994
#
# Stress axis : x y z
#
# Youngs Moduli (GPa) = 72.21825 20.05070 81.37453
#
# Poissons Ratio (x) = -0.02891 0.62495
# Poissons Ratio (y) = -0.10413 0.29756
# Poissons Ratio (z) = 0.55463 0.07332
#
# Static dielectric constant tensor:
#      x y z
#    x 1.554140 0.000000 0.000800 
#    y 0.000000 1.554710 0.000000 
#    z 0.000800 0.000000 1.554750 
# 
# From -- ./inp_files/7701.got.cif
#   From: 2010.05.17/outbox.cif.g08.bks.cpg/sg11_4_cif.got.tgz:7701.got - 2010.06.03 12:22:45.
