data_PCOD9156448
_publ_section_title
;
Structure prediction by ZEFSAII (Michael W. Deem and Ramdas Pophale) SiO2 
 PCOD9156448
Probable space group: P 21/M
;
_chemical_formula_sum "Si O2"
_cell_formula_units_Z 32
_cell_length_a 12.086715
_cell_length_b 8.690924
_cell_length_c 20.185856
_cell_angle_alpha 90.000000
_cell_angle_beta 120.145579
_cell_angle_gamma 90.000000
_cell_volume 1833.635789
_symmetry_space_group_name_H-M "P 21/M"
_symmetry_group_IT_number 11
_symmetry_cell_setting 'monoclinic'
loop_
_space_group_symop_operation_xyz
x,y,z
-x,1/2+y,-z
-x,-y,-z
x,1/2-y,z
loop_
_atom_site_type_symbol
_atom_site_label
_atom_site_fract_x
_atom_site_fract_y
_atom_site_fract_z
Si Si1 0.582278 0.564591 0.463798
Si Si2 0.110612 0.072151 0.836287
Si Si3 0.608350 0.068163 0.225600
Si Si4 0.389006 0.435497 0.920628
Si Si5 0.875839 0.573081 0.320801
Si Si6 0.836088 0.437113 0.738804
Si Si7 0.436635 0.564505 0.286241
Si Si8 0.854229 0.934385 0.595959
O O1 0.500000 0.500000 0.500000
O O2 0.576703 0.750000 0.465783
O O3 0.518261 0.518210 0.375557
O O4 0.730689 0.519016 0.515972
O O5 0.109707 0.250000 0.857704
O O6 0.246838 0.005695 0.899164
O O7 0.114829 0.070448 0.757025
O O8 0.970782 0.007143 0.810446
O O9 0.608748 0.250000 0.216319
O O10 0.593076 0.987564 0.149768
O O11 0.745432 0.015848 0.296968
O O12 0.496981 0.014947 0.240952
O O13 0.387743 0.250000 0.922376
O O14 0.500000 0.500000 0.000000
O O15 0.863818 0.750000 0.338126
O O16 0.009436 0.502589 0.385188
O O17 0.841891 0.250000 0.733717
O O18 0.710606 0.474780 0.742793
O O19 0.826755 0.506061 0.662300
O O20 0.445935 0.750000 0.281906
O O21 0.863698 0.750000 0.599776
#
# Coordination Sequence:
#
# PCOD9156448 Si02
#       8
#     4   4   4   4   4   4   4   4
#     4  10  20  32  48  72 103 137 177 224 268 312
#     4   7  13  26  47  75 100 125 162 207 247 292
#     4  11  22  36  54  78 106 135 171 215 263 314
#     4  10  19  34  57  84 112 138 168 206 253 308
#     4   9  17  32  52  71  96 133 173 213 260 314
#     4   9  16  29  50  72  98 137 179 213 256 310
#     4  10  20  34  51  72 102 142 180 215 261 319
#     4  10  18  28  46  74 103 129 169 225 272 308
#
# _framework density 17.451665999999999
#
# number of rings (size 3 to 8) (size 9 to 14) (size 15 to 20)
#    0.000    2.500    1.250    3.750    0.000    1.500 
#    0.000    1.250    0.000    0.750    0.000    0.000 
#    0.000    0.000    0.000    0.000    0.000    0.000 
#
# Total GULP energy -178348.184918 kJ/mol
# GULP energy per Si atom -5573.380779 kJ/mol
# Density = 1.741195 g / cm^3
# Si number density = 17.451666 Si / 1000 Ang^3
#
#
#
# Elastic Constant Matrix: (Units=GPa)
#
#
# Indices 1 2 3 4 5 6 
#
# 1 119.9256 33.2985 60.6230 0.0000 31.9461 0.0000
# 2 33.2985 48.0971 23.7947 0.0000 10.0373 0.0000
# 3 60.6230 23.7947 86.1418 0.0000 33.9096 0.0000
# 4 0.0000 0.0000 0.0000 21.2544 0.0000 2.7092
# 5 31.9461 10.0373 33.9096 0.0000 32.6692 0.0000
# 6 0.0000 0.0000 0.0000 2.7092 0.0000 25.3085
#
#
#
# Elastic Compliance Matrix: (Units=1/GPa)
#
#
# Indices 1 2 3 4 5 6 
#
# 1 0.014815 -0.005809 -0.006461 0.000000 -0.005995 0.000000
# 2 -0.005809 0.026373 -0.003793 0.000000 0.001514 0.000000
# 3 -0.006461 -0.003793 0.024108 0.000000 -0.017540 0.000000
# 4 0.000000 0.000000 0.000000 0.047700 0.000000 -0.005106
# 5 -0.005995 0.001514 -0.017540 0.000000 0.054213 0.000000
# 6 0.000000 0.000000 0.000000 -0.005106 0.000000 0.040059
#
#
# Mechanical properties :
#
#
# Convention : Reuss Voigt Hill
#
# Bulk Modulus (GPa) = 30.14801 54.39965 42.27383
# Shear Modulus (GPa) = 19.96395 24.94298 22.45347
#
# Velocity S-wave (km/s) = 3.38591 3.78466 3.59082
# Velocity P-wave (km/s) = 5.70951 7.09489 6.43956
#
# Compressibility (1/GPa) = 0.03316969
#
# Stress axis : x y z
#
# Youngs Moduli (GPa) = 67.50075 37.91709 41.47946
#
# Poissons Ratio (x) = 0.22025 0.26801
# Poissons Ratio (y) = 0.39209 0.15734
# Poissons Ratio (z) = 0.43614 0.14383
#
# Static dielectric constant tensor:
#      x y z
#    x 1.611660 0.000000 0.038890 
#    y 0.000000 1.590390 0.000000 
#    z 0.038890 0.000000 1.585850 
# 
# From -- ./inp_files/64228.got.cif
#   From: 2010.05.17/outbox.cif.g08.bks.cpg/sg11_33_cif.got.tgz:64228.got - 2010.06.03 12:22:45.
