data_PCOD9156564
_publ_section_title
;
Structure prediction by ZEFSAII (Michael W. Deem and Ramdas Pophale) SiO2 
 PCOD9156564
Probable space group: P 21/M
;
_chemical_formula_sum "Si O2"
_cell_formula_units_Z 32
_cell_length_a 11.720157
_cell_length_b 14.185168
_cell_length_c 11.720135
_cell_angle_alpha 90.000000
_cell_angle_beta 100.124845
_cell_angle_gamma 90.000000
_cell_volume 1918.156612
_symmetry_space_group_name_H-M "P 21/M"
_symmetry_group_IT_number 11
_symmetry_cell_setting 'monoclinic'
loop_
_space_group_symop_operation_xyz
x,y,z
-x,1/2+y,-z
-x,-y,-z
x,1/2-y,z
loop_
_atom_site_type_symbol
_atom_site_label
_atom_site_fract_x
_atom_site_fract_y
_atom_site_fract_z
Si Si1 0.861279 0.861847 0.934127
Si Si2 0.894985 0.861333 0.677045
Si Si3 0.771891 0.860885 0.429741
Si Si4 0.920942 0.986261 0.286080
Si Si5 0.429740 0.139115 0.771891
Si Si6 0.677045 0.138667 0.894984
Si Si7 0.713922 0.986261 0.079059
Si Si8 0.934126 0.361847 0.861276
O O1 0.839755 0.750000 0.941556
O O2 0.861971 0.886098 0.801062
O O3 0.769190 0.918424 0.992627
O O4 0.987365 0.880764 0.012637
O O5 0.923458 0.750000 0.681097
O O6 0.793776 0.877271 0.567068
O O7 0.004753 0.924505 0.662022
O O8 0.798353 0.750000 0.412224
O O9 0.859159 0.926526 0.373952
O O10 0.643868 0.877861 0.356132
O O11 0.819682 0.015639 0.180319
O O12 0.007374 0.918424 0.230813
O O13 0.412223 0.250000 0.798353
O O14 0.567067 0.122729 0.793777
O O15 0.373950 0.073474 0.859159
O O16 0.681097 0.250000 0.923458
O O17 0.801060 0.113902 0.861968
O O18 0.662024 0.075495 0.004753
O O19 0.941555 0.250000 0.839752
#
# Coordination Sequence:
#
# PCOD9156564 Si02
#       8
#     4   4   4   4   4   4   4   4
#     4   9  17  29  46  69  93 115 142 177 219 265
#     4  10  19  29  43  66  94 119 143 176 219 264
#     4   9  18  32  48  65  85 114 153 188 215 248
#     4  10  18  29  47  68  91 117 143 177 220 264
#     4   9  18  32  48  65  85 114 153 188 215 248
#     4  10  19  29  43  66  94 119 143 176 219 264
#     4  10  18  29  47  68  91 117 143 177 220 264
#     4   9  17  29  46  69  93 115 142 177 219 265
#
# _framework density 16.682683000000001
#
# number of rings (size 3 to 8) (size 9 to 14) (size 15 to 20)
#    0.000    2.500    0.000    3.000    0.000    6.500 
#    0.000    0.000    0.000    3.000    0.000    0.000 
#    0.000   20.000    0.000    0.000    0.000    0.000 
#
# Total GULP energy -178401.643606 kJ/mol
# GULP energy per Si atom -5575.051363 kJ/mol
# Density = 1.664471 g / cm^3
# Si number density = 16.682683 Si / 1000 Ang^3
#
#
#
# Elastic Constant Matrix: (Units=GPa)
#
#
# Indices 1 2 3 4 5 6 
#
# 1 61.4098 21.0516 52.3279 0.0000 13.0711 0.0000
# 2 21.0516 44.4424 28.5107 0.0000 10.2500 0.0000
# 3 52.3279 28.5107 82.4330 0.0000 15.8163 0.0000
# 4 0.0000 0.0000 0.0000 19.3776 0.0000 1.5806
# 5 13.0711 10.2500 15.8163 0.0000 13.0687 0.0000
# 6 0.0000 0.0000 0.0000 1.5806 0.0000 18.2271
#
#
#
# Elastic Compliance Matrix: (Units=1/GPa)
#
#
# Indices 1 2 3 4 5 6 
#
# 1 0.036756 -0.001717 -0.020765 0.000000 -0.010285 0.000000
# 2 -0.001717 0.031035 -0.006907 0.000000 -0.014265 0.000000
# 3 -0.020765 -0.006907 0.029536 0.000000 -0.009559 0.000000
# 4 0.000000 0.000000 0.000000 0.051974 0.000000 -0.004507
# 5 -0.010285 -0.014265 -0.009559 0.000000 0.109562 0.000000
# 6 0.000000 0.000000 0.000000 -0.004507 0.000000 0.055254
#
#
# Mechanical properties :
#
#
# Convention : Reuss Voigt Hill
#
# Bulk Modulus (GPa) = 25.94158 43.56282 34.75220
# Shear Modulus (GPa) = 12.96192 15.89436 14.42814
#
# Velocity S-wave (km/s) = 2.79044 3.09001 2.94404
# Velocity P-wave (km/s) = 5.09567 6.23700 5.69500
#
# Compressibility (1/GPa) = 0.03854815
#
# Stress axis : x y z
#
# Youngs Moduli (GPa) = 27.20631 32.22128 33.85743
#
# Poissons Ratio (x) = 0.05534 0.70306
# Poissons Ratio (y) = 0.04672 0.23385
# Poissons Ratio (z) = 0.56495 0.22255
#
# Static dielectric constant tensor:
#      x y z
#    x 1.547520 0.000000 0.020880 
#    y 0.000000 1.575950 0.000000 
#    z 0.020880 0.000000 1.562720 
# 
# From -- ./inp_files/35514.got.cif
#   From: 2010.05.17/outbox.cif.g08.bks.cpg/sg11_18_cif.got.tgz:35514.got - 2010.06.03 12:22:45.
