data_PCOD9156914
_publ_section_title
;
Structure prediction by ZEFSAII (Michael W. Deem and Ramdas Pophale) SiO2 
 PCOD9156914
Probable space group: P 21/M
;
_chemical_formula_sum "Si O2"
_cell_formula_units_Z 28
_cell_length_a 19.565896
_cell_length_b 7.430185
_cell_length_c 15.034146
_cell_angle_alpha 90.000000
_cell_angle_beta 33.365727
_cell_angle_gamma 90.000000
_cell_volume 1202.059650
_symmetry_space_group_name_H-M "P 21/M"
_symmetry_group_IT_number 11
_symmetry_cell_setting 'monoclinic'
loop_
_space_group_symop_operation_xyz
x,y,z
-x,1/2+y,-z
-x,-y,-z
x,1/2-y,z
loop_
_atom_site_type_symbol
_atom_site_label
_atom_site_fract_x
_atom_site_fract_y
_atom_site_fract_z
Si Si1 0.258523 0.040044 0.047890
Si Si2 0.909878 0.041707 0.214618
Si Si3 0.145720 0.465202 0.352279
Si Si4 0.537194 0.968016 0.693123
Si Si5 0.338071 0.047332 0.614860
Si Si6 0.783159 0.532088 0.530004
Si Si7 0.816890 0.528290 0.061048
O O1 0.222693 0.250000 0.088402
O O2 0.214934 0.962912 0.189341
O O3 0.198328 0.965062 0.023248
O O4 0.405525 0.026895 0.873043
O O5 0.902127 0.250000 0.196917
O O6 0.794547 0.945077 0.293286
O O7 0.884533 0.030087 0.348026
O O8 0.048797 0.973519 0.047353
O O9 0.166080 0.250000 0.332901
O O10 0.191903 0.533570 0.397643
O O11 0.000000 0.500000 0.500000
O O12 0.538711 0.750000 0.687510
O O13 0.569584 0.035364 0.558131
O O14 0.649877 0.023658 0.635085
O O15 0.382225 0.250000 0.584730
O O16 0.296541 0.965277 0.753543
O O17 0.786534 0.750000 0.526067
O O18 0.815210 0.750000 0.064263
#
# Coordination Sequence:
#
# PCOD9156914 Si02
#       7
#     4   4   4   4   4   4   4
#     4  10  21  36  53  75 104 135 171 215 257 298
#     4  10  18  30  52  81 106 129 169 218 257 300
#     4  10  21  37  57  81 107 136 168 206 255 308
#     4   9  19  35  52  72  99 134 177 215 250 300
#     4   9  18  34  53  72 102 141 172 204 255 312
#     4   9  19  36  55  74 104 142 171 203 256 312
#     4   9  18  32  50  73 104 140 170 206 260 309
#
# _framework density 23.293353
#
# number of rings (size 3 to 8) (size 9 to 14) (size 15 to 20)
#    0.000    2.571    0.000    2.571    0.000    5.714 
#    0.000    2.857    0.000    0.000    0.000    0.000 
#    0.000    0.000    0.000    0.000    0.000    0.000 
#
# Total GULP energy -156469.069343 kJ/mol
# GULP energy per Si atom -5588.181048 kJ/mol
# Density = 2.324034 g / cm^3
# Si number density = 23.293353 Si / 1000 Ang^3
#
#
#
# Elastic Constant Matrix: (Units=GPa)
#
#
# Indices 1 2 3 4 5 6 
#
# 1 83.0660 1.5628 36.6110 0.0000 12.2101 0.0000
# 2 1.5628 83.2988 -6.9597 0.0000 7.9096 0.0000
# 3 36.6110 -6.9597 145.1695 0.0000 16.9404 0.0000
# 4 0.0000 0.0000 0.0000 15.8422 0.0000 -5.9565
# 5 12.2101 7.9096 16.9404 0.0000 42.0799 0.0000
# 6 0.0000 0.0000 0.0000 -5.9565 0.0000 6.6593
#
#
#
# Elastic Compliance Matrix: (Units=1/GPa)
#
#
# Indices 1 2 3 4 5 6 
#
# 1 0.013845 -0.000272 -0.003192 0.000000 -0.002681 0.000000
# 2 -0.000272 0.012341 0.000967 0.000000 -0.002630 0.000000
# 3 -0.003192 0.000967 0.008030 0.000000 -0.002488 0.000000
# 4 0.000000 0.000000 0.000000 0.095108 0.000000 0.085070
# 5 -0.002681 -0.002630 -0.002488 0.000000 0.026038 0.000000
# 6 0.000000 0.000000 0.000000 0.085070 0.000000 0.226258
#
#
# Mechanical properties :
#
#
# Convention : Reuss Voigt Hill
#
# Bulk Modulus (GPa) = 34.22013 41.55140 37.88576
# Shear Modulus (GPa) = 12.61502 31.60428 22.10965
#
# Velocity S-wave (km/s) = 2.32969 3.68746 3.08422
# Velocity P-wave (km/s) = 4.68609 6.00057 5.38360
#
# Compressibility (1/GPa) = 0.02922257
#
# Stress axis : x y z
#
# Youngs Moduli (GPa) = 72.23041 81.03322 124.53035
#
# Poissons Ratio (x) = 0.02203 0.39746
# Poissons Ratio (y) = 0.01963 -0.12043
# Poissons Ratio (z) = 0.23054 -0.07837
#
# Static dielectric constant tensor:
#      x y z
#    x 1.877000 0.000000 0.035740 
#    y 0.000000 1.891660 0.000000 
#    z 0.035740 0.000000 1.853060 
# 
# From -- ./inp_files/37798.got.cif
#   From: 2010.05.17/outbox.cif.g08.bks.cpg/sg11_19_cif.got.tgz:37798.got - 2010.06.03 12:22:45.
