data_PCOD9156766
_publ_section_title
;
Structure prediction by ZEFSAII (Michael W. Deem and Ramdas Pophale) SiO2 
 PCOD9156766
Probable space group: P 21/M
;
_chemical_formula_sum "Si O2"
_cell_formula_units_Z 32
_cell_length_a 29.455561
_cell_length_b 7.903595
_cell_length_c 23.141431
_cell_angle_alpha 90.000000
_cell_angle_beta 18.271845
_cell_angle_gamma 90.000000
_cell_volume 1689.100821
_symmetry_space_group_name_H-M "P 21/M"
_symmetry_group_IT_number 11
_symmetry_cell_setting 'monoclinic'
loop_
_space_group_symop_operation_xyz
x,y,z
-x,1/2+y,-z
-x,-y,-z
x,1/2-y,z
loop_
_atom_site_type_symbol
_atom_site_label
_atom_site_fract_x
_atom_site_fract_y
_atom_site_fract_z
Si Si1 0.761507 0.950930 0.798326
Si Si2 0.695339 0.954298 0.214837
Si Si3 0.985530 0.044195 0.426925
Si Si4 0.850322 0.051246 0.472777
Si Si5 0.538739 0.945464 0.887935
Si Si6 0.119590 0.954392 0.807566
Si Si7 0.614564 0.453450 0.442594
Si Si8 0.017322 0.542356 0.805507
O O1 0.742184 0.750000 0.826664
O O2 0.860296 0.010838 0.732758
O O3 0.860845 0.987979 0.622219
O O4 0.604221 0.028186 0.977907
O O5 0.693856 0.750000 0.214727
O O6 0.550549 0.017220 0.357874
O O7 0.678919 0.004864 0.301699
O O8 0.849417 0.010295 0.004519
O O9 0.984951 0.250000 0.427940
O O10 0.942262 0.981522 0.415799
O O11 0.885977 0.250000 0.427698
O O12 0.893955 0.982364 0.357445
O O13 0.681021 0.036463 0.692149
O O14 0.576992 0.750000 0.843616
O O15 0.500000 0.000000 0.000000
O O16 0.124481 0.750000 0.799320
O O17 0.274432 0.017538 0.643583
O O18 0.077914 0.015573 0.794205
O O19 0.000000 0.000000 0.000000
O O20 0.608945 0.250000 0.454339
O O21 0.020892 0.750000 0.802611
#
# Coordination Sequence:
#
# PCOD9156766 Si02
#       8
#     4   4   4   4   4   4   4   4
#     4  10  19  32  53  81 108 135 172 220 267 311
#     4   9  16  29  47  69  97 129 164 206 255 306
#     4   9  18  32  52  78 106 137 175 218 265 316
#     4  10  20  36  55  77 107 141 177 220 266 321
#     4  12  23  36  55  81 108 140 178 221 267 320
#     4  10  18  30  48  74 103 134 172 215 259 305
#     4   9  17  27  45  73 100 125 164 213 254 295
#     4   9  18  32  51  73 102 138 173 210 261 316
#
# _framework density 18.944990000000001
#
# number of rings (size 3 to 8) (size 9 to 14) (size 15 to 20)
#    0.000    2.250    2.500    1.500    0.000    0.500 
#    0.000    2.500    0.000    6.000    0.000    3.500 
#    0.000    0.000    0.000    0.000    0.000    0.000 
#
# Total GULP energy -178477.733745 kJ/mol
# GULP energy per Si atom -5577.429180 kJ/mol
# Density = 1.890187 g / cm^3
# Si number density = 18.944990 Si / 1000 Ang^3
#
#
#
# Elastic Constant Matrix: (Units=GPa)
#
#
# Indices 1 2 3 4 5 6 
#
# 1 153.6213 0.5296 88.2413 0.0000 -8.8641 0.0000
# 2 0.5296 17.4438 -10.9320 0.0000 -0.0989 0.0000
# 3 88.2413 -10.9320 117.1018 0.0000 -7.6217 0.0000
# 4 0.0000 0.0000 0.0000 18.1964 0.0000 -0.3857
# 5 -8.8641 -0.0989 -7.6217 0.0000 29.9580 0.0000
# 6 0.0000 0.0000 0.0000 -0.3857 0.0000 14.2166
#
#
#
# Elastic Compliance Matrix: (Units=1/GPa)
#
#
# Indices 1 2 3 4 5 6 
#
# 1 0.012165 -0.006439 -0.009696 0.000000 0.001112 0.000000
# 2 -0.006439 0.064380 0.010933 0.000000 0.001089 0.000000
# 3 -0.009696 0.010933 0.016963 0.000000 0.001483 0.000000
# 4 0.000000 0.000000 0.000000 0.054988 0.000000 0.001492
# 5 0.001112 0.001089 0.001483 0.000000 0.034090 0.000000
# 6 0.000000 0.000000 0.000000 0.001492 0.000000 0.070381
#
#
# Mechanical properties :
#
#
# Convention : Reuss Voigt Hill
#
# Bulk Modulus (GPa) = 12.03297 49.31608 30.67452
# Shear Modulus (GPa) = 17.17787 26.49605 21.83696
#
# Velocity S-wave (km/s) = 3.01445 3.74381 3.39875
# Velocity P-wave (km/s) = 4.29898 6.69148 5.62393
#
# Compressibility (1/GPa) = 0.08310503
#
# Stress axis : x y z
#
# Youngs Moduli (GPa) = 82.20183 15.53269 58.95198
#
# Poissons Ratio (x) = 0.10002 0.57159
# Poissons Ratio (y) = 0.52932 -0.64454
# Poissons Ratio (z) = 0.79701 -0.16982
#
# Static dielectric constant tensor:
#      x y z
#    x 1.672070 0.000000 -0.039790 
#    y 0.000000 1.683520 0.000000 
#    z -0.039790 0.000000 1.621610 
# 
# From -- ./inp_files/67019.got.cif
#   From: 2010.05.17/outbox.cif.g08.bks.cpg/sg11_34_cif.got.tgz:67019.got - 2010.06.03 12:22:45.
