data_PCOD9156124
_publ_section_title
;
Structure prediction by ZEFSAII (Michael W. Deem and Ramdas Pophale) SiO2 
 PCOD9156124
Probable space group: P 21/M
;
_chemical_formula_sum "Si O2"
_cell_formula_units_Z 32
_cell_length_a 15.352208
_cell_length_b 15.314601
_cell_length_c 10.302524
_cell_angle_alpha 90.000000
_cell_angle_beta 33.395503
_cell_angle_gamma 90.000000
_cell_volume 1333.246942
_symmetry_space_group_name_H-M "P 21/M"
_symmetry_group_IT_number 11
_symmetry_cell_setting 'monoclinic'
loop_
_space_group_symop_operation_xyz
x,y,z
-x,1/2+y,-z
-x,-y,-z
x,1/2-y,z
loop_
_atom_site_type_symbol
_atom_site_label
_atom_site_fract_x
_atom_site_fract_y
_atom_site_fract_z
Si Si1 0.847865 0.100520 0.411129
Si Si2 0.838289 0.849134 0.354419
Si Si3 0.324203 0.533032 0.981354
Si Si4 0.948269 0.348649 0.559205
Si Si5 0.665177 0.348855 0.404796
Si Si6 0.569107 0.852995 0.514593
Si Si7 0.259361 0.065742 0.291687
Si Si8 0.114632 0.985339 0.009174
O O1 0.712963 0.147032 0.495449
O O2 0.926795 0.152466 0.430657
O O3 0.772533 0.017806 0.578120
O O4 0.988165 0.062921 0.143598
O O5 0.885606 0.750000 0.281241
O O6 0.745529 0.876867 0.339300
O O7 0.718013 0.860797 0.626628
O O8 0.991660 0.906120 0.191388
O O9 0.373508 0.466636 0.034541
O O10 0.213204 0.487440 0.013030
O O11 0.208225 0.605322 0.189588
O O12 0.459422 0.584169 0.736806
O O13 0.965335 0.250000 0.587241
O O14 0.099901 0.404784 0.414309
O O15 0.713890 0.250000 0.299710
O O16 0.490340 0.359767 0.560120
O O17 0.757181 0.433329 0.235345
O O18 0.551263 0.750000 0.572174
#
# Coordination Sequence:
#
# PCOD9156124 Si02
#       8
#     4   4   4   4   4   4   4   4
#     4  10  18  32  47  75 102 130 158 207 248 295
#     4  10  19  32  50  75 100 130 167 205 251 293
#     4  10  17  32  50  73 102 130 165 199 248 294
#     4  11  18  28  50  78 104 129 160 203 248 296
#     4  10  20  33  51  74  96 128 170 209 247 289
#     4   9  20  34  49  72 100 129 168 211 246 288
#     4  10  19  31  50  74 106 130 161 201 250 299
#     4  10  18  32  52  72 100 130 161 207 245 295
#
# _framework density 24.001556000000001
#
# number of rings (size 3 to 8) (size 9 to 14) (size 15 to 20)
#    0.000    2.000    3.750    2.625    0.000    1.500 
#    0.000    2.500    0.000    0.000    3.250    0.000 
#    0.000    0.000    0.000    0.000    0.000    0.000 
#
# Total GULP energy -178443.950209 kJ/mol
# GULP energy per Si atom -5576.373444 kJ/mol
# Density = 2.394693 g / cm^3
# Si number density = 24.001556 Si / 1000 Ang^3
#
#
#
# Elastic Constant Matrix: (Units=GPa)
#
#
# Indices 1 2 3 4 5 6 
#
# 1 152.4724 -3.5037 23.2377 0.0000 -7.1879 0.0000
# 2 -3.5037 51.0018 21.5280 0.0000 -4.0183 0.0000
# 3 23.2377 21.5280 45.7171 0.0000 -9.8447 0.0000
# 4 0.0000 0.0000 0.0000 13.5044 0.0000 -0.9072
# 5 -7.1879 -4.0183 -9.8447 0.0000 17.3554 0.0000
# 6 0.0000 0.0000 0.0000 -0.9072 0.0000 35.0796
#
#
#
# Elastic Compliance Matrix: (Units=1/GPa)
#
#
# Indices 1 2 3 4 5 6 
#
# 1 0.007391 0.002598 -0.004775 0.000000 0.000954 0.000000
# 2 0.002598 0.025400 -0.013423 0.000000 -0.000657 0.000000
# 3 -0.004775 -0.013423 0.033635 0.000000 0.013994 0.000000
# 4 0.000000 0.000000 0.000000 0.074179 0.000000 0.001918
# 5 0.000954 -0.000657 0.013994 0.000000 0.065800 0.000000
# 6 0.000000 0.000000 0.000000 0.001918 0.000000 0.028556
#
#
# Mechanical properties :
#
#
# Convention : Reuss Voigt Hill
#
# Bulk Modulus (GPa) = 28.38742 36.85726 32.62234
# Shear Modulus (GPa) = 17.99197 27.04983 22.52090
#
# Velocity S-wave (km/s) = 2.74088 3.36073 3.06651
# Velocity P-wave (km/s) = 4.67649 5.51805 5.11461
#
# Compressibility (1/GPa) = 0.03522687
#
# Stress axis : x y z
#
# Youngs Moduli (GPa) = 135.30008 39.37055 29.73095
#
# Poissons Ratio (x) = -0.10230 0.14196
# Poissons Ratio (y) = -0.35157 0.39908
# Poissons Ratio (z) = 0.64605 0.52847
#
# Static dielectric constant tensor:
#      x y z
#    x 1.992380 0.000000 0.057890 
#    y 0.000000 1.912960 0.000000 
#    z 0.057890 0.000000 1.954510 
# 
# From -- ./inp_files/39650.got.cif
#   From: 2010.05.17/outbox.cif.g08.bks.cpg/sg11_20_cif.got.tgz:39650.got - 2010.06.03 12:22:45.
