data_PCOD9156673
_publ_section_title
;
Structure prediction by ZEFSAII (Michael W. Deem and Ramdas Pophale) SiO2 
 PCOD9156673
Probable space group: P 21/M
;
_chemical_formula_sum "Si O2"
_cell_formula_units_Z 32
_cell_length_a 12.384292
_cell_length_b 8.640278
_cell_length_c 20.526353
_cell_angle_alpha 90.000000
_cell_angle_beta 56.707209
_cell_angle_gamma 90.000000
_cell_volume 1835.915860
_symmetry_space_group_name_H-M "P 21/M"
_symmetry_group_IT_number 11
_symmetry_cell_setting 'monoclinic'
loop_
_space_group_symop_operation_xyz
x,y,z
-x,1/2+y,-z
-x,-y,-z
x,1/2-y,z
loop_
_atom_site_type_symbol
_atom_site_label
_atom_site_fract_x
_atom_site_fract_y
_atom_site_fract_z
Si Si1 0.412372 0.933569 0.431854
Si Si2 0.199411 0.064370 0.128754
Si Si3 0.405082 0.934164 0.161378
Si Si4 0.689500 0.434974 0.042084
Si Si5 0.900924 0.436058 0.225571
Si Si6 0.679101 0.063998 0.399022
Si Si7 0.267015 0.065513 0.833431
Si Si8 0.551478 0.933656 0.715671
O O1 0.407409 0.750000 0.422316
O O2 0.322759 0.973121 0.523550
O O3 0.556523 0.980455 0.407262
O O4 0.385261 0.020124 0.373632
O O5 0.212185 0.250000 0.128019
O O6 0.049385 0.022665 0.187916
O O7 0.291174 0.988584 0.152234
O O8 0.244875 0.006556 0.043046
O O9 0.420688 0.750000 0.153784
O O10 0.539817 0.012054 0.094450
O O11 0.384466 0.988508 0.242506
O O12 0.304089 0.750000 0.961648
O O13 0.752536 0.498028 0.087836
O O14 0.893693 0.250000 0.218815
O O15 0.807815 0.475812 0.316982
O O16 0.842334 0.515352 0.180932
O O17 0.658205 0.250000 0.400259
O O18 0.278374 0.250000 0.832888
O O19 0.403723 0.995603 0.763831
O O20 0.548727 0.750000 0.724939
#
# Coordination Sequence:
#
# PCOD9156673 Si02
#       8
#     4   4   4   4   4   4   4   4
#     4  10  18  29  50  82 112 141 177 220 266 314
#     4  11  23  39  57  79 107 142 184 222 267 320
#     4  11  22  38  59  82 107 136 178 228 275 317
#     4  11  22  38  59  81 107 139 178 225 274 319
#     4  10  21  37  56  77 109 150 182 217 262 322
#     4   9  18  32  51  77 111 146 179 216 263 317
#     4  11  21  34  54  81 110 141 178 222 271 319
#     4  11  20  33  54  80 111 143 177 220 272 322
#
# _framework density 17.429993
#
# number of rings (size 3 to 8) (size 9 to 14) (size 15 to 20)
#    0.000    1.500    1.250    7.125    0.000    2.000 
#    0.000    0.000    0.000    0.750    0.000    0.000 
#    0.000    0.000    0.000    0.000    0.000    0.000 
#
# Total GULP energy -178782.415963 kJ/mol
# GULP energy per Si atom -5586.950499 kJ/mol
# Density = 1.739032 g / cm^3
# Si number density = 17.429993 Si / 1000 Ang^3
#
#
#
# Elastic Constant Matrix: (Units=GPa)
#
#
# Indices 1 2 3 4 5 6 
#
# 1 17.5521 -3.0906 50.5330 0.0000 -18.1743 0.0000
# 2 -3.0906 54.3179 19.9194 0.0000 -8.3937 0.0000
# 3 50.5330 19.9194 102.8357 0.0000 9.7439 0.0000
# 4 0.0000 0.0000 0.0000 24.3774 0.0000 5.8955
# 5 -18.1743 -8.3937 9.7439 0.0000 9.5972 0.0000
# 6 0.0000 0.0000 0.0000 5.8955 0.0000 16.3805
#
#
#
# Elastic Compliance Matrix: (Units=1/GPa)
#
#
# Indices 1 2 3 4 5 6 
#
# 1 -0.009085 -0.009518 0.009656 0.000000 -0.035331 0.000000
# 2 -0.009518 0.016157 0.002120 0.000000 -0.006045 0.000000
# 3 0.009656 0.002120 0.002944 0.000000 0.017150 0.000000
# 4 0.000000 0.000000 0.000000 0.044933 0.000000 -0.016172
# 5 -0.035331 -0.006045 0.017150 0.000000 0.014591 0.000000
# 6 0.000000 0.000000 0.000000 -0.016172 0.000000 0.066868
#
#
# Mechanical properties :
#
#
# Convention : Reuss Voigt Hill
#
# Bulk Modulus (GPa) = 68.81310 34.38104 51.59707
# Shear Modulus (GPa) = 36.56670 17.22728 26.89699
#
# Velocity S-wave (km/s) = 4.58527 3.14725 3.93255
# Velocity P-wave (km/s) = 8.22182 5.74238 7.09131
#
# Compressibility (1/GPa) = 0.01453212
#
# Stress axis : x y z
#
# Youngs Moduli (GPa) = -110.07293 61.89231 339.68185
#
# Poissons Ratio (x) = 0.58906 -3.27981
# Poissons Ratio (y) = -1.04762 -0.72011
# Poissons Ratio (z) = 1.06281 -0.13121
#
# Static dielectric constant tensor:
#      x y z
#    x 1.561970 0.000000 0.011750 
#    y 0.000000 1.581780 0.000000 
#    z 0.011750 0.000000 1.604530 
# 
# From -- ./inp_files/64208.got.cif
#   From: 2010.05.17/outbox.cif.g08.bks.cpg/sg11_33_cif.got.tgz:64208.got - 2010.06.03 12:22:45.
