data_PCOD9156374
_publ_section_title
;
Structure prediction by ZEFSAII (Michael W. Deem and Ramdas Pophale) SiO2 
 PCOD9156374
Probable space group: P 21/M
;
_chemical_formula_sum "Si O2"
_cell_formula_units_Z 32
_cell_length_a 15.228935
_cell_length_b 8.707435
_cell_length_c 20.976374
_cell_angle_alpha 90.000000
_cell_angle_beta 43.617100
_cell_angle_gamma 90.000000
_cell_volume 1918.827005
_symmetry_space_group_name_H-M "P 21/M"
_symmetry_group_IT_number 11
_symmetry_cell_setting 'monoclinic'
loop_
_space_group_symop_operation_xyz
x,y,z
-x,1/2+y,-z
-x,-y,-z
x,1/2-y,z
loop_
_atom_site_type_symbol
_atom_site_label
_atom_site_fract_x
_atom_site_fract_y
_atom_site_fract_z
Si Si1 0.091432 0.425940 0.028131
Si Si2 0.881046 0.573664 0.831498
Si Si3 0.174706 0.565239 0.804161
Si Si4 0.391753 0.567406 0.011534
Si Si5 0.627320 0.935698 0.118225
Si Si6 0.853716 0.932786 0.322344
Si Si7 0.562494 0.934009 0.287278
Si Si8 0.406423 0.565793 0.493995
O O1 0.091605 0.250000 0.004771
O O2 0.097182 0.424510 0.103058
O O3 0.949990 0.491430 0.091098
O O4 0.229202 0.494040 0.939622
O O5 0.870358 0.750000 0.816597
O O6 0.747856 0.488025 0.892203
O O7 0.005841 0.496632 0.735672
O O8 0.164316 0.750000 0.803035
O O9 0.171453 0.487313 0.736814
O O10 0.307723 0.519321 0.763740
O O11 0.396381 0.750000 0.009301
O O12 0.500000 0.500000 0.000000
O O13 0.409310 0.506695 0.929971
O O14 0.636021 0.750000 0.105348
O O15 0.537515 0.967741 0.225933
O O16 0.853118 0.750000 0.326127
O O17 0.735305 0.001079 0.423290
O O18 0.584473 0.750000 0.279953
O O19 0.461853 0.973318 0.395013
O O20 0.500000 0.500000 0.500000
O O21 0.404697 0.750000 0.501852
#
# Coordination Sequence:
#
# PCOD9156374 Si02
#       8
#     4   4   4   4   4   4   4   4
#     4   7  13  26  44  64  89 124 162 198 244 293
#     4   9  17  32  52  76 104 133 165 207 255 304
#     4  10  18  28  44  65  92 130 173 214 256 303
#     4  11  21  35  57  85 111 137 166 200 244 304
#     4   9  18  35  52  69  99 135 168 210 256 305
#     4  11  20  31  48  71  99 133 175 222 266 308
#     4  10  21  33  47  67  95 132 177 221 264 306
#     4  11  21  33  48  69  96 135 183 230 269 306
#
# _framework density 16.676855
#
# number of rings (size 3 to 8) (size 9 to 14) (size 15 to 20)
#    0.000    2.250    1.250    4.875    0.000    1.500 
#    0.000    0.625    0.000    0.000    0.000    0.875 
#    0.000    0.000    0.000    0.000    0.000    0.000 
#
# Total GULP energy -178390.751528 kJ/mol
# GULP energy per Si atom -5574.710985 kJ/mol
# Density = 1.663890 g / cm^3
# Si number density = 16.676855 Si / 1000 Ang^3
#
#
#
# Elastic Constant Matrix: (Units=GPa)
#
#
# Indices 1 2 3 4 5 6 
#
# 1 79.7240 46.6397 61.1024 0.0000 -9.3956 0.0000
# 2 46.6397 74.3702 64.9417 0.0000 -2.7203 0.0000
# 3 61.1024 64.9417 157.4834 0.0000 -2.0573 0.0000
# 4 0.0000 0.0000 0.0000 22.0293 0.0000 -6.0770
# 5 -9.3956 -2.7203 -2.0573 0.0000 17.8976 0.0000
# 6 0.0000 0.0000 0.0000 -6.0770 0.0000 22.1999
#
#
#
# Elastic Compliance Matrix: (Units=1/GPa)
#
#
# Indices 1 2 3 4 5 6 
#
# 1 0.023268 -0.010085 -0.004737 0.000000 0.010138 0.000000
# 2 -0.010085 0.025471 -0.006619 0.000000 -0.002184 0.000000
# 3 -0.004737 -0.006619 0.010888 0.000000 -0.002241 0.000000
# 4 0.000000 0.000000 0.000000 0.049102 0.000000 0.013441
# 5 0.010138 -0.002184 -0.002241 0.000000 0.060606 0.000000
# 6 0.000000 0.000000 0.000000 0.013441 0.000000 0.048724
#
#
# Mechanical properties :
#
#
# Convention : Reuss Voigt Hill
#
# Bulk Modulus (GPa) = 59.71818 72.99391 66.35605
# Shear Modulus (GPa) = 18.76011 21.68495 20.22253
#
# Velocity S-wave (km/s) = 3.35762 3.60988 3.48603
# Velocity P-wave (km/s) = 7.13570 7.82557 7.48859
#
# Compressibility (1/GPa) = 0.01674532
#
# Stress axis : x y z
#
# Youngs Moduli (GPa) = 42.97696 39.26030 91.84528
#
# Poissons Ratio (x) = 0.39595 0.43504
# Poissons Ratio (y) = 0.43343 0.60793
# Poissons Ratio (z) = 0.20357 0.25987
#
# Static dielectric constant tensor:
#      x y z
#    x 1.556990 0.000000 0.003350 
#    y 0.000000 1.574190 0.000000 
#    z 0.003350 0.000000 1.604490 
# 
# From -- ./inp_files/65203.got.cif
#   From: 2010.05.17/outbox.cif.g08.bks.cpg/sg11_33_cif.got.tgz:65203.got - 2010.06.03 12:22:45.
