data_PCOD9156888
_publ_section_title
;
Structure prediction by ZEFSAII (Michael W. Deem and Ramdas Pophale) SiO2 
 PCOD9156888
Probable space group: P 21/M
;
_chemical_formula_sum "Si O2"
_cell_formula_units_Z 20
_cell_length_a 22.026569
_cell_length_b 8.617288
_cell_length_c 10.466036
_cell_angle_alpha 90.000000
_cell_angle_beta 35.715621
_cell_angle_gamma 90.000000
_cell_volume 1159.674077
_symmetry_space_group_name_H-M "P 21/M"
_symmetry_group_IT_number 11
_symmetry_cell_setting 'monoclinic'
loop_
_space_group_symop_operation_xyz
x,y,z
-x,1/2+y,-z
-x,-y,-z
x,1/2-y,z
loop_
_atom_site_type_symbol
_atom_site_label
_atom_site_fract_x
_atom_site_fract_y
_atom_site_fract_z
Si Si1 0.780493 0.562488 0.028583
Si Si2 0.436349 0.436385 0.487608
Si Si3 0.007007 0.563178 0.632130
Si Si4 0.549327 0.565389 0.044717
Si Si5 0.234595 0.936340 0.234734
O O1 0.778698 0.750000 0.015874
O O2 0.684232 0.520574 0.283024
O O3 0.763421 0.489509 0.917318
O O4 0.895697 0.517203 0.881572
O O5 0.500000 0.500000 0.500000
O O6 0.444815 0.250000 0.470448
O O7 0.484768 0.504126 0.276572
O O8 0.009015 0.750000 0.625453
O O9 0.121341 0.514636 0.483927
O O10 0.000000 0.500000 0.500000
O O11 0.546741 0.750000 0.047793
O O12 0.500000 0.500000 0.000000
O O13 0.667691 0.509154 0.861277
O O14 0.242811 0.750000 0.224685
#
# Coordination Sequence:
#
# PCOD9156888 Si02
#       5
#     4   4   4   4   4
#     4   9  17  30  50  77 109 141 174 214 262 313
#     4  11  21  34  55  82 112 144 179 220 267 316
#     4   8  15  27  45  73 105 137 171 212 260 310
#     4  12  25  40  56  76 106 143 183 226 272 325
#     4  10  18  30  51  77 107 139 176 219 264 316
#
# _framework density 17.246226
#
# number of rings (size 3 to 8) (size 9 to 14) (size 15 to 20)
#    0.000    2.000    2.000    3.000    0.000    1.600 
#    0.000    0.000    0.000    1.200    0.000    0.000 
#    0.000    0.000    0.000    0.000    0.000    0.000 
#
# Total GULP energy -111488.825994 kJ/mol
# GULP energy per Si atom -5574.441300 kJ/mol
# Density = 1.720697 g / cm^3
# Si number density = 17.246226 Si / 1000 Ang^3
#
#
#
# Elastic Constant Matrix: (Units=GPa)
#
#
# Indices 1 2 3 4 5 6 
#
# 1 130.4756 44.2135 96.1930 0.0000 -27.4630 0.0000
# 2 44.2135 60.7464 46.3575 0.0000 -13.0339 0.0000
# 3 96.1930 46.3575 138.2977 0.0000 -39.2632 0.0000
# 4 0.0000 0.0000 0.0000 21.0007 0.0000 0.0917
# 5 -27.4630 -13.0339 -39.2632 0.0000 39.1204 0.0000
# 6 0.0000 0.0000 0.0000 0.0917 0.0000 26.1749
#
#
#
# Elastic Compliance Matrix: (Units=1/GPa)
#
#
# Indices 1 2 3 4 5 6 
#
# 1 0.016557 -0.004384 -0.010015 0.000000 0.000111 0.000000
# 2 -0.004384 0.023281 -0.004792 0.000000 -0.000130 0.000000
# 3 -0.010015 -0.004792 0.018675 0.000000 0.010116 0.000000
# 4 0.000000 0.000000 0.000000 0.047618 0.000000 -0.000167
# 5 0.000111 -0.000130 0.010116 0.000000 0.035749 0.000000
# 6 0.000000 0.000000 0.000000 -0.000167 0.000000 0.038205
#
#
# Mechanical properties :
#
#
# Convention : Reuss Voigt Hill
#
# Bulk Modulus (GPa) = 49.67277 78.11642 63.89459
# Shear Modulus (GPa) = 22.20469 26.77624 24.49047
#
# Velocity S-wave (km/s) = 3.59208 3.94456 3.77244
# Velocity P-wave (km/s) = 6.78739 8.13260 7.49026
#
# Compressibility (1/GPa) = 0.02013176
#
# Stress axis : x y z
#
# Youngs Moduli (GPa) = 60.39817 42.95269 53.54803
#
# Poissons Ratio (x) = 0.18831 0.53629
# Poissons Ratio (y) = 0.26479 0.25658
# Poissons Ratio (z) = 0.60489 0.20581
#
# Static dielectric constant tensor:
#      x y z
#    x 1.568470 0.000000 -0.064220 
#    y 0.000000 1.575230 0.000000 
#    z -0.064220 0.000000 1.611460 
# 
# From -- ./inp_files/15897.got.cif
#   From: 2010.05.17/outbox.cif.g08.bks.cpg/sg11_8_cif.got.tgz:15897.got - 2010.06.03 12:22:45.
