data_PCOD9156513
_publ_section_title
;
Structure prediction by ZEFSAII (Michael W. Deem and Ramdas Pophale) SiO2 
 PCOD9156513
Probable space group: P 21/M
;
_chemical_formula_sum "Si O2"
_cell_formula_units_Z 28
_cell_length_a 16.603028
_cell_length_b 8.702544
_cell_length_c 14.002744
_cell_angle_alpha 90.000000
_cell_angle_beta 65.544979
_cell_angle_gamma 90.000000
_cell_volume 1841.725058
_symmetry_space_group_name_H-M "P 21/M"
_symmetry_group_IT_number 11
_symmetry_cell_setting 'monoclinic'
loop_
_space_group_symop_operation_xyz
x,y,z
-x,1/2+y,-z
-x,-y,-z
x,1/2-y,z
loop_
_atom_site_type_symbol
_atom_site_label
_atom_site_fract_x
_atom_site_fract_y
_atom_site_fract_z
Si Si1 0.504348 0.065443 0.105400
Si Si2 0.957624 0.566183 0.164163
Si Si3 0.861888 0.066145 0.031176
Si Si4 0.688691 0.565792 0.018672
Si Si5 0.310033 0.436517 0.204684
Si Si6 0.864464 0.564413 0.600826
Si Si7 0.956937 0.433594 0.374282
O O1 0.509969 0.250000 0.100269
O O2 0.408011 0.021344 0.194089
O O3 0.500000 0.000000 0.000000
O O4 0.594780 0.997768 0.102417
O O5 0.950765 0.750000 0.163843
O O6 0.943851 0.507134 0.277563
O O7 0.056157 0.522617 0.078707
O O8 0.889910 0.493919 0.121514
O O9 0.855096 0.250000 0.035607
O O10 0.771668 0.994529 0.036989
O O11 0.686285 0.750000 0.020883
O O12 0.698673 0.515377 0.902223
O O13 0.306723 0.250000 0.205227
O O14 0.227730 0.489400 0.308249
O O15 0.862868 0.750000 0.592738
O O16 0.888087 0.493013 0.487189
O O17 0.945788 0.525137 0.631752
O O18 0.952390 0.250000 0.369225
#
# Coordination Sequence:
#
# PCOD9156513 Si02
#       7
#     4   4   4   4   4   4   4
#     4   9  16  27  42  63  90 119 152 187 226 269
#     4  10  20  33  48  66  90 120 151 184 223 266
#     4  10  20  32  47  68  91 117 151 187 222 262
#     4  10  18  29  45  66  93 123 152 183 224 270
#     4   8  15  27  44  64  88 120 153 185 221 262
#     4   9  17  30  46  64  88 120 155 186 221 264
#     4  10  19  30  45  66  92 120 150 187 225 261
#
# _framework density 15.203137
#
# number of rings (size 3 to 8) (size 9 to 14) (size 15 to 20)
#    0.000    2.571    0.000    3.857    0.000    3.429 
#    0.000    4.286    0.000    0.000    0.000    1.000 
#    0.000    0.000    0.000    0.000    0.000    0.000 
#
# Total GULP energy -156052.340398 kJ/mol
# GULP energy per Si atom -5573.297871 kJ/mol
# Density = 1.516853 g / cm^3
# Si number density = 15.203137 Si / 1000 Ang^3
#
#
#
# Elastic Constant Matrix: (Units=GPa)
#
#
# Indices 1 2 3 4 5 6 
#
# 1 144.2658 42.0785 67.4728 0.0000 -13.2766 0.0000
# 2 42.0785 41.2765 29.1098 0.0000 -1.5729 0.0000
# 3 67.4728 29.1098 100.9782 0.0000 -7.9647 0.0000
# 4 0.0000 0.0000 0.0000 20.2120 0.0000 1.0151
# 5 -13.2766 -1.5729 -7.9647 0.0000 26.2054 0.0000
# 6 0.0000 0.0000 0.0000 1.0151 0.0000 23.8973
#
#
#
# Elastic Compliance Matrix: (Units=1/GPa)
#
#
# Indices 1 2 3 4 5 6 
#
# 1 0.012374 -0.008604 -0.005465 0.000000 0.004092 0.000000
# 2 -0.008604 0.036411 -0.005040 0.000000 -0.003705 0.000000
# 3 -0.005465 -0.005040 0.015128 0.000000 0.001527 0.000000
# 4 0.000000 0.000000 0.000000 0.049581 0.000000 -0.002106
# 5 0.004092 -0.003705 0.001527 0.000000 0.040475 0.000000
# 6 0.000000 0.000000 0.000000 -0.002106 0.000000 0.041935
#
#
# Mechanical properties :
#
#
# Convention : Reuss Voigt Hill
#
# Bulk Modulus (GPa) = 38.91729 62.64920 50.78324
# Shear Modulus (GPa) = 20.60273 23.92024 22.26148
#
# Velocity S-wave (km/s) = 3.68525 3.97088 3.83073
# Velocity P-wave (km/s) = 6.61527 7.89439 7.28297
#
# Compressibility (1/GPa) = 0.02569552
#
# Stress axis : x y z
#
# Youngs Moduli (GPa) = 80.81641 27.46412 66.10282
#
# Poissons Ratio (x) = 0.23631 0.36125
# Poissons Ratio (y) = 0.69536 0.33313
# Poissons Ratio (z) = 0.44165 0.13841
#
# Static dielectric constant tensor:
#      x y z
#    x 1.517230 0.000000 -0.018880 
#    y 0.000000 1.506130 0.000000 
#    z -0.018880 0.000000 1.487570 
# 
# From -- ./inp_files/37469.got.cif
#   From: 2010.05.17/outbox.cif.g08.bks.cpg/sg11_19_cif.got.tgz:37469.got - 2010.06.03 12:22:45.
