data_PCOD9156780
_publ_section_title
;
Structure prediction by ZEFSAII (Michael W. Deem and Ramdas Pophale) SiO2 
 PCOD9156780
Probable space group: P 21/M
;
_chemical_formula_sum "Si O2"
_cell_formula_units_Z 32
_cell_length_a 12.191474
_cell_length_b 13.764302
_cell_length_c 11.077041
_cell_angle_alpha 90.000000
_cell_angle_beta 58.362071
_cell_angle_gamma 90.000000
_cell_volume 1582.550413
_symmetry_space_group_name_H-M "P 21/M"
_symmetry_group_IT_number 11
_symmetry_cell_setting 'monoclinic'
loop_
_space_group_symop_operation_xyz
x,y,z
-x,1/2+y,-z
-x,-y,-z
x,1/2-y,z
loop_
_atom_site_type_symbol
_atom_site_label
_atom_site_fract_x
_atom_site_fract_y
_atom_site_fract_z
Si Si1 0.417643 0.563494 0.905680
Si Si2 0.483347 0.144284 0.912949
Si Si3 0.250094 0.642161 0.332145
Si Si4 0.106525 0.464122 0.343482
Si Si5 0.673485 0.061374 0.291757
Si Si6 0.327448 0.139298 0.350382
Si Si7 0.894107 0.135412 0.328086
Si Si8 0.584725 0.861243 0.435331
O O1 0.396816 0.451487 0.955896
O O2 0.328307 0.593220 0.846658
O O3 0.560967 0.570626 0.764554
O O4 0.432964 0.630781 0.012918
O O5 0.419730 0.250000 0.949103
O O6 0.595288 0.141207 0.747967
O O7 0.211961 0.750000 0.312779
O O8 0.195790 0.558670 0.276181
O O9 0.188806 0.627604 0.499580
O O10 0.196167 0.386360 0.359698
O O11 0.000000 0.500000 0.500000
O O12 0.029243 0.417533 0.277830
O O13 0.807822 0.084182 0.277066
O O14 0.559659 0.116622 0.431791
O O15 0.631283 0.947877 0.322456
O O16 0.365724 0.250000 0.302623
O O17 0.326565 0.128955 0.495177
O O18 0.911169 0.250000 0.293600
O O19 0.592349 0.750000 0.386847
#
# Coordination Sequence:
#
# PCOD9156780 Si02
#       8
#     4   4   4   4   4   4   4   4
#     4  10  21  35  53  78 104 132 168 212 258 307
#     4  10  20  35  55  78 101 131 171 214 261 306
#     4   9  18  32  52  76 102 132 171 214 256 301
#     4  10  18  30  49  71 104 133 172 212 253 296
#     4  10  20  32  48  71 106 136 167 205 252 310
#     4  10  18  31  49  74 105 135 168 211 257 301
#     4  10  20  32  49  76 105 139 173 205 249 306
#     4   9  18  29  46  71 100 136 169 202 255 310
#
# _framework density 20.220524000000001
#
# number of rings (size 3 to 8) (size 9 to 14) (size 15 to 20)
#    0.000    2.250    1.250    2.625    3.500    2.500 
#    0.000    0.625    0.000    0.750    0.000    0.000 
#    0.000    0.000    0.000    0.000    0.000    0.000 
#
# Total GULP energy -178495.904244 kJ/mol
# GULP energy per Si atom -5577.997008 kJ/mol
# Density = 2.017450 g / cm^3
# Si number density = 20.220524 Si / 1000 Ang^3
#
#
#
# Elastic Constant Matrix: (Units=GPa)
#
#
# Indices 1 2 3 4 5 6 
#
# 1 110.5781 14.1139 -5.5111 0.0000 21.7531 0.0000
# 2 14.1139 106.6558 -2.5962 0.0000 9.2251 0.0000
# 3 -5.5111 -2.5962 17.0828 0.0000 7.5228 0.0000
# 4 0.0000 0.0000 0.0000 13.4447 0.0000 -0.6384
# 5 21.7531 9.2251 7.5228 0.0000 14.8697 0.0000
# 6 0.0000 0.0000 0.0000 -0.6384 0.0000 22.7967
#
#
#
# Elastic Compliance Matrix: (Units=1/GPa)
#
#
# Indices 1 2 3 4 5 6 
#
# 1 0.017398 0.001510 0.022469 0.000000 -0.037756 0.000000
# 2 0.001510 0.010445 0.007593 0.000000 -0.012531 0.000000
# 3 0.022469 0.007593 0.107424 0.000000 -0.091929 0.000000
# 4 0.000000 0.000000 0.000000 0.074478 0.000000 0.002086
# 5 -0.037756 -0.012531 -0.091929 0.000000 0.176767 0.000000
# 6 0.000000 0.000000 0.000000 0.002086 0.000000 0.043924
#
#
# Mechanical properties :
#
#
# Convention : Reuss Voigt Hill
#
# Bulk Modulus (GPa) = 5.04003 27.36999 16.20501
# Shear Modulus (GPa) = 11.53592 25.44290 18.48941
#
# Velocity S-wave (km/s) = 2.39112 3.55106 3.02717
# Velocity P-wave (km/s) = 3.18138 5.51167 4.49998
#
# Compressibility (1/GPa) = 0.19841145
#
# Stress axis : x y z
#
# Youngs Moduli (GPa) = 57.47815 95.74188 9.30889
#
# Poissons Ratio (x) = -0.14460 -0.20916
# Poissons Ratio (y) = -0.08681 -0.07068
# Poissons Ratio (z) = -1.29148 -0.72695
#
# Static dielectric constant tensor:
#      x y z
#    x 1.715570 0.000000 0.016720 
#    y 0.000000 1.763930 0.000000 
#    z 0.016720 0.000000 1.841590 
# 
# From -- ./inp_files/35504.got.cif
#   From: 2010.05.17/outbox.cif.g08.bks.cpg/sg11_18_cif.got.tgz:35504.got - 2010.06.03 12:22:45.
