data_PCOD9156234
_publ_section_title
;
Structure prediction by ZEFSAII (Michael W. Deem and Ramdas Pophale) SiO2 
 PCOD9156234
Probable space group: P 21/M
;
_chemical_formula_sum "Si O2"
_cell_formula_units_Z 24
_cell_length_a 15.585471
_cell_length_b 9.173942
_cell_length_c 12.547268
_cell_angle_alpha 90.000000
_cell_angle_beta 118.721679
_cell_angle_gamma 90.000000
_cell_volume 1573.283757
_symmetry_space_group_name_H-M "P 21/M"
_symmetry_group_IT_number 11
_symmetry_cell_setting 'monoclinic'
loop_
_space_group_symop_operation_xyz
x,y,z
-x,1/2+y,-z
-x,-y,-z
x,1/2-y,z
loop_
_atom_site_type_symbol
_atom_site_label
_atom_site_fract_x
_atom_site_fract_y
_atom_site_fract_z
Si Si1 0.170740 0.076839 0.914983
Si Si2 0.550660 0.924853 0.629815
Si Si3 0.776141 0.575672 0.806352
Si Si4 0.965100 0.075558 0.869686
Si Si5 0.344994 0.923254 0.919146
Si Si6 0.502334 0.424439 0.165463
O O1 0.184387 0.250000 0.908945
O O2 0.054665 0.044961 0.842686
O O3 0.238803 0.990849 0.874468
O O4 0.206924 0.042136 0.057717
O O5 0.543720 0.750000 0.614984
O O6 0.665781 0.961512 0.708520
O O7 0.501148 0.965813 0.713078
O O8 0.500000 0.000000 0.500000
O O9 0.790335 0.750000 0.803967
O O10 0.858330 0.491373 0.787909
O O11 0.959935 0.250000 0.880147
O O12 0.000000 0.000000 0.000000
O O13 0.342162 0.750000 0.932030
O O14 0.396810 0.954116 0.836696
O O15 0.417149 0.994410 0.049780
O O16 0.483220 0.250000 0.147455
#
# Coordination Sequence:
#
# PCOD9156234 Si02
#       6
#     4   4   4   4   4   4
#     4   9  16  28  43  62  93 125 144 173 231 276
#     4  10  20  34  49  65  90 123 156 189 228 268
#     4   9  17  30  45  61  88 123 150 183 229 267
#     4   9  17  27  41  62  89 120 150 181 222 271
#     4  10  18  26  45  70  89 117 154 185 217 269
#     4   9  18  33  45  60  92 124 147 183 233 269
#
# _framework density 15.254719
#
# number of rings (size 3 to 8) (size 9 to 14) (size 15 to 20)
#    0.000    2.667    1.667    2.000    0.000    5.333 
#    0.000    0.000    0.000    0.000    0.000    1.167 
#    0.000    0.000    0.000    0.000    0.000    0.000 
#
# Total GULP energy -133662.362903 kJ/mol
# GULP energy per Si atom -5569.265121 kJ/mol
# Density = 1.522000 g / cm^3
# Si number density = 15.254719 Si / 1000 Ang^3
#
#
#
# Elastic Constant Matrix: (Units=GPa)
#
#
# Indices 1 2 3 4 5 6 
#
# 1 161.2932 62.6528 53.1432 0.0000 -10.0854 0.0000
# 2 62.6528 35.7238 25.8882 0.0000 -4.7880 0.0000
# 3 53.1432 25.8882 69.2762 0.0000 -6.3002 0.0000
# 4 0.0000 0.0000 0.0000 19.5647 0.0000 1.9505
# 5 -10.0854 -4.7880 -6.3002 0.0000 14.9000 0.0000
# 6 0.0000 0.0000 0.0000 1.9505 0.0000 31.9334
#
#
#
# Elastic Compliance Matrix: (Units=1/GPa)
#
#
# Indices 1 2 3 4 5 6 
#
# 1 0.019954 -0.032615 -0.002958 0.000000 0.001775 0.000000
# 2 -0.032615 0.092315 -0.009140 0.000000 0.003724 0.000000
# 3 -0.002958 -0.009140 0.020457 0.000000 0.003711 0.000000
# 4 0.000000 0.000000 0.000000 0.051426 0.000000 -0.003141
# 5 0.001775 0.003724 0.003711 0.000000 0.071081 0.000000
# 6 0.000000 0.000000 0.000000 -0.003141 0.000000 0.031507
#
#
# Mechanical properties :
#
#
# Convention : Reuss Voigt Hill
#
# Bulk Modulus (GPa) = 23.09380 61.07353 42.08366
# Shear Modulus (GPa) = 12.80088 21.58688 17.19388
#
# Velocity S-wave (km/s) = 2.89994 3.76586 3.36090
# Velocity P-wave (km/s) = 5.13659 7.68320 6.53514
#
# Compressibility (1/GPa) = 0.04330167
#
# Stress axis : x y z
#
# Youngs Moduli (GPa) = 50.11447 10.83253 48.88296
#
# Poissons Ratio (x) = 0.35330 0.14460
# Poissons Ratio (y) = 1.63446 0.44677
# Poissons Ratio (z) = 0.14824 0.09900
#
# Static dielectric constant tensor:
#      x y z
#    x 1.552870 0.000000 -0.001790 
#    y 0.000000 1.507420 0.000000 
#    z -0.001790 0.000000 1.468160 
# 
# From -- ./inp_files/36990.got.cif
#   From: 2010.05.17/outbox.cif.g08.bks.cpg/sg11_19_cif.got.tgz:36990.got - 2010.06.03 12:22:45.
