data_PCOD9156684
_publ_section_title
;
Structure prediction by ZEFSAII (Michael W. Deem and Ramdas Pophale) SiO2 
 PCOD9156684
Probable space group: P 21/M
;
_chemical_formula_sum "Si O2"
_cell_formula_units_Z 28
_cell_length_a 14.858261
_cell_length_b 8.922111
_cell_length_c 17.764269
_cell_angle_alpha 90.000000
_cell_angle_beta 49.070148
_cell_angle_gamma 90.000000
_cell_volume 1779.198683
_symmetry_space_group_name_H-M "P 21/M"
_symmetry_group_IT_number 11
_symmetry_cell_setting 'monoclinic'
loop_
_space_group_symop_operation_xyz
x,y,z
-x,1/2+y,-z
-x,-y,-z
x,1/2-y,z
loop_
_atom_site_type_symbol
_atom_site_label
_atom_site_fract_x
_atom_site_fract_y
_atom_site_fract_z
Si Si1 0.592795 0.068829 0.135570
Si Si2 0.969805 0.429248 0.135543
Si Si3 0.811821 0.929059 0.095276
Si Si4 0.928800 0.930383 0.608185
Si Si5 0.656210 0.570351 0.777785
Si Si6 0.963071 0.424877 0.747644
Si Si7 0.678129 0.423987 0.922797
O O1 0.603144 0.250000 0.136344
O O2 0.453766 0.024797 0.214898
O O3 0.683552 0.992559 0.142976
O O4 0.634262 0.025771 0.028356
O O5 0.960456 0.250000 0.144865
O O6 0.866294 0.496367 0.139965
O O7 0.972994 0.500233 0.216356
O O8 0.093529 0.465648 0.023559
O O9 0.809132 0.750000 0.104713
O O10 0.933709 0.750000 0.603694
O O11 0.789020 0.978278 0.681919
O O12 0.000000 0.000000 0.500000
O O13 0.979553 0.990442 0.659688
O O14 0.656511 0.750000 0.779437
O O15 0.633545 0.514388 0.875125
O O16 0.994803 0.250000 0.723116
O O17 0.821485 0.433694 0.842372
O O18 0.643892 0.250000 0.932354
#
# Coordination Sequence:
#
# PCOD9156684 Si02
#       7
#     4   4   4   4   4   4   4
#     4  10  18  30  44  64  94 129 161 194 234 276
#     4  10  19  31  46  66  94 129 166 202 237 275
#     4  10  20  30  44  66  94 130 168 203 234 271
#     4  10  20  35  52  73  97 123 158 200 245 290
#     4   9  19  31  46  66  92 123 158 196 236 283
#     4  10  18  30  49  72  97 126 159 198 240 284
#     4   9  17  27  42  64  93 126 159 190 227 275
#
# _framework density 15.737422
#
# number of rings (size 3 to 8) (size 9 to 14) (size 15 to 20)
#    0.000    2.286    1.429    2.143    0.000    3.429 
#    0.000    0.000    0.000    0.000    0.000    1.000 
#    0.000    0.000    0.000    0.000    0.000    0.000 
#
# Total GULP energy -156152.093912 kJ/mol
# GULP energy per Si atom -5576.860497 kJ/mol
# Density = 1.570160 g / cm^3
# Si number density = 15.737422 Si / 1000 Ang^3
#
#
#
# Elastic Constant Matrix: (Units=GPa)
#
#
# Indices 1 2 3 4 5 6 
#
# 1 148.7979 53.7801 51.2643 0.0000 3.2961 0.0000
# 2 53.7801 48.0068 33.4897 0.0000 5.8443 0.0000
# 3 51.2643 33.4897 68.5356 0.0000 12.6522 0.0000
# 4 0.0000 0.0000 0.0000 18.4826 0.0000 4.8782
# 5 3.2961 5.8443 12.6522 0.0000 17.7538 0.0000
# 6 0.0000 0.0000 0.0000 4.8782 0.0000 30.5016
#
#
#
# Elastic Compliance Matrix: (Units=1/GPa)
#
#
# Indices 1 2 3 4 5 6 
#
# 1 0.012175 -0.011005 -0.004584 0.000000 0.004629 0.000000
# 2 -0.011005 0.041558 -0.011431 0.000000 -0.003491 0.000000
# 3 -0.004584 -0.011431 0.026201 0.000000 -0.014058 0.000000
# 4 0.000000 0.000000 0.000000 0.056489 0.000000 -0.009034
# 5 0.004629 -0.003491 -0.014058 0.000000 0.066634 0.000000
# 6 0.000000 0.000000 0.000000 -0.009034 0.000000 0.034230
#
#
# Mechanical properties :
#
#
# Convention : Reuss Voigt Hill
#
# Bulk Modulus (GPa) = 38.61927 60.26759 49.44343
# Shear Modulus (GPa) = 16.66907 21.80135 19.23521
#
# Velocity S-wave (km/s) = 3.25807 3.72602 3.49988
# Velocity P-wave (km/s) = 6.22466 7.54254 6.91506
#
# Compressibility (1/GPa) = 0.02589381
#
# Stress axis : x y z
#
# Youngs Moduli (GPa) = 82.13853 24.06282 38.16715
#
# Poissons Ratio (x) = 0.26480 0.17494
# Poissons Ratio (y) = 0.90390 0.43630
# Poissons Ratio (z) = 0.37649 0.27507
#
# Static dielectric constant tensor:
#      x y z
#    x 1.526000 0.000000 -0.022290 
#    y 0.000000 1.525730 0.000000 
#    z -0.022290 0.000000 1.510920 
# 
# From -- ./inp_files/38488.got.cif
#   From: 2010.05.17/outbox.cif.g08.bks.cpg/sg11_20_cif.got.tgz:38488.got - 2010.06.03 12:22:45.
