data_PCOD9156023
_publ_section_title
;
Structure prediction by ZEFSAII (Michael W. Deem and Ramdas Pophale) SiO2 
 PCOD9156023
Probable space group: P 21/M
;
_chemical_formula_sum "Si O2"
_cell_formula_units_Z 28
_cell_length_a 13.801976
_cell_length_b 16.967054
_cell_length_c 5.450703
_cell_angle_alpha 90.000000
_cell_angle_beta 89.942994
_cell_angle_gamma 90.000000
_cell_volume 1276.438849
_symmetry_space_group_name_H-M "P 21/M"
_symmetry_group_IT_number 11
_symmetry_cell_setting 'monoclinic'
loop_
_space_group_symop_operation_xyz
x,y,z
-x,1/2+y,-z
-x,-y,-z
x,1/2-y,z
loop_
_atom_site_type_symbol
_atom_site_label
_atom_site_fract_x
_atom_site_fract_y
_atom_site_fract_z
Si Si1 0.271241 0.657224 0.778105
Si Si2 0.726435 0.750000 0.676995
Si Si3 0.412162 0.404188 0.802851
Si Si4 0.917411 0.429324 0.288670
Si Si5 0.879966 0.975832 0.788824
Si Si6 0.661505 0.922893 0.697375
Si Si7 0.628715 0.345666 0.724781
Si Si8 0.273090 0.250000 0.823024
O O1 0.289280 0.750000 0.785013
O O2 0.158049 0.640244 0.749376
O O3 0.324968 0.627699 0.532706
O O4 0.310394 0.625916 0.038396
O O5 0.659146 0.827236 0.677319
O O6 0.785358 0.750000 0.427180
O O7 0.785185 0.750000 0.926661
O O8 0.376335 0.451454 0.564640
O O9 0.519619 0.374406 0.755773
O O10 0.340320 0.327781 0.822681
O O11 0.400122 0.446023 0.065144
O O12 0.900256 0.463099 0.563808
O O13 0.031271 0.414879 0.248024
O O14 0.889368 0.489953 0.065561
O O15 0.773064 0.943310 0.744804
O O16 0.628722 0.250000 0.723917
#
# Coordination Sequence:
#
# PCOD9156023 Si02
#       8
#     4   2   4   4   4   4   4   2
#     4  10  21  36  58  86 111 139 183 239 285 311
#     4   8  16  26  42  70 106 134 164 208 266 306
#     4  10  17  29  49  75 115 142 180 223 262 319
#     4  10  21  40  62  81 107 142 190 235 269 334
#     4  10  21  38  62  83 104 149 192 217 274 345
#     4  10  19  31  51  81 112 144 179 224 271 321
#     4  10  19  32  54  82 113 151 187 221 273 332
#     4   8  14  24  40  64  96 142 166 206 250 302
#
# _framework density 21.936032000000001
#
# number of rings (size 3 to 8) (size 9 to 14) (size 15 to 20)
#    0.000    2.286    0.714    2.571    0.000    0.000 
#    1.286    0.000    0.000   17.143    0.000    0.000 
#    0.000    0.000    0.000    0.000    0.000    0.000 
#
# Total GULP energy -156198.404635 kJ/mol
# GULP energy per Si atom -5578.514451 kJ/mol
# Density = 2.188610 g / cm^3
# Si number density = 21.936032 Si / 1000 Ang^3
#
#
#
# Elastic Constant Matrix: (Units=GPa)
#
#
# Indices 1 2 3 4 5 6 
#
# 1 49.7423 -6.2619 -0.6394 0.0000 2.8002 0.0000
# 2 -6.2619 47.6615 9.1044 0.0000 -1.4704 0.0000
# 3 -0.6394 9.1044 168.8740 0.0000 -0.8599 0.0000
# 4 0.0000 0.0000 0.0000 -3.7324 0.0000 5.5772
# 5 2.8002 -1.4704 -0.8599 0.0000 31.9657 0.0000
# 6 0.0000 0.0000 0.0000 5.5772 0.0000 24.9434
#
#
#
# Elastic Compliance Matrix: (Units=1/GPa)
#
#
# Indices 1 2 3 4 5 6 
#
# 1 0.020532 0.002660 -0.000074 0.000000 -0.001678 0.000000
# 2 0.002660 0.021573 -0.001149 0.000000 0.000728 0.000000
# 3 -0.000074 -0.001149 0.005984 0.000000 0.000115 0.000000
# 4 0.000000 0.000000 0.000000 -0.200827 0.000000 0.044904
# 5 -0.001678 0.000728 0.000115 0.000000 0.031467 0.000000
# 6 0.000000 0.000000 0.000000 0.044904 0.000000 0.030051
#
#
# Mechanical properties :
#
#
# Convention : Reuss Voigt Hill
#
# Bulk Modulus (GPa) = 19.62261 30.07597 24.84929
# Shear Modulus (GPa) = -64.84572 28.24033 -18.30270
#
# Velocity S-wave (km/s) = -5.44293 3.59192 -2.89167
# Velocity P-wave (km/s) = 5.52592 5.56265 0.45125
#
# Compressibility (1/GPa) = 0.05096161
#
# Stress axis : x y z
#
# Youngs Moduli (GPa) = 48.70450 46.35469 167.11687
#
# Poissons Ratio (x) = -0.12330 0.01240
# Poissons Ratio (y) = -0.12955 0.19206
# Poissons Ratio (z) = 0.00361 0.05327
#
# Static dielectric constant tensor:
#      x y z
#    x 1.782410 0.000000 -0.032810 
#    y 0.000000 1.847710 0.000000 
#    z -0.032810 0.000000 1.928410 
# 
# From -- ./inp_files/4905.got.cif
#   From: 2010.05.17/outbox.cif.g08.bks.cpg/sg11_3_cif.got.tgz:4905.got - 2010.06.03 12:22:45.
