data_PCOD9156557
_publ_section_title
;
Structure prediction by ZEFSAII (Michael W. Deem and Ramdas Pophale) SiO2 
 PCOD9156557
Probable space group: P 21/M
;
_chemical_formula_sum "Si O2"
_cell_formula_units_Z 32
_cell_length_a 12.569316
_cell_length_b 8.553098
_cell_length_c 24.491067
_cell_angle_alpha 90.000000
_cell_angle_beta 133.348252
_cell_angle_gamma 90.000000
_cell_volume 1914.668726
_symmetry_space_group_name_H-M "P 21/M"
_symmetry_group_IT_number 11
_symmetry_cell_setting 'monoclinic'
loop_
_space_group_symop_operation_xyz
x,y,z
-x,1/2+y,-z
-x,-y,-z
x,1/2-y,z
loop_
_atom_site_type_symbol
_atom_site_label
_atom_site_fract_x
_atom_site_fract_y
_atom_site_fract_z
Si Si1 0.305836 0.434071 0.577750
Si Si2 0.462017 0.062638 0.426440
Si Si3 0.377935 0.561722 0.998981
Si Si4 0.412978 0.062546 0.837013
Si Si5 0.732484 0.433498 0.318257
Si Si6 0.868478 0.937970 0.675662
Si Si7 0.055015 0.933939 0.416154
Si Si8 0.169072 0.560857 0.835530
O O1 0.312526 0.250000 0.590306
O O2 0.431267 0.485594 0.579795
O O3 0.318479 0.524406 0.639080
O O4 0.151998 0.476270 0.494847
O O5 0.481723 0.250000 0.432256
O O6 0.291005 0.026019 0.356827
O O7 0.500000 0.000000 0.500000
O O8 0.381997 0.750000 0.000822
O O9 0.437647 0.511895 0.079224
O O10 0.500000 0.500000 0.000000
O O11 0.226651 0.515248 0.916243
O O12 0.411819 0.250000 0.831241
O O13 0.382254 0.986168 0.768096
O O14 0.279294 0.012302 0.829831
O O15 0.760592 0.250000 0.322781
O O16 0.885230 0.522153 0.361319
O O17 0.874631 0.750000 0.669075
O O18 0.004170 0.982621 0.762001
O O19 0.890054 0.017655 0.624576
O O20 0.075463 0.750000 0.431504
O O21 0.180916 0.750000 0.835124
#
# Coordination Sequence:
#
# PCOD9156557 Si02
#       8
#     4   4   4   4   4   4   4   4
#     4  12  25  41  57  75 101 135 178 221 263 310
#     4  11  22  37  56  78 104 137 176 220 264 308
#     4   8  15  26  43  68 101 136 170 205 249 302
#     4  10  18  29  46  73 105 138 172 209 253 306
#     4  12  24  38  54  75 105 139 176 214 260 314
#     4  10  20  33  53  78 106 139 177 214 257 305
#     4  12  23  36  55  78 106 137 173 213 260 310
#     4   9  16  29  48  72 103 139 173 210 253 303
#
# _framework density 16.713073999999999
#
# number of rings (size 3 to 8) (size 9 to 14) (size 15 to 20)
#    0.000    1.500    2.500    4.500    0.000    1.000 
#    0.000    0.000    0.000    0.000    0.000    0.875 
#    0.000    0.000    0.000    0.000    0.000    0.000 
#
# Total GULP energy -178606.222448 kJ/mol
# GULP energy per Si atom -5581.444451 kJ/mol
# Density = 1.667503 g / cm^3
# Si number density = 16.713074 Si / 1000 Ang^3
#
#
#
# Elastic Constant Matrix: (Units=GPa)
#
#
# Indices 1 2 3 4 5 6 
#
# 1 29.8415 -4.9081 11.2114 0.0000 -9.0398 0.0000
# 2 -4.9081 18.2034 -1.5634 0.0000 6.0136 0.0000
# 3 11.2114 -1.5634 120.6488 0.0000 -4.4143 0.0000
# 4 0.0000 0.0000 0.0000 21.1598 0.0000 -4.2827
# 5 -9.0398 6.0136 -4.4143 0.0000 17.3584 0.0000
# 6 0.0000 0.0000 0.0000 -4.2827 0.0000 19.5799
#
#
#
# Elastic Compliance Matrix: (Units=1/GPa)
#
#
# Indices 1 2 3 4 5 6 
#
# 1 0.041196 0.004533 -0.003071 0.000000 0.019103 0.000000
# 2 0.004533 0.062533 -0.000320 0.000000 -0.019384 0.000000
# 3 -0.003071 -0.000320 0.008595 0.000000 0.000698 0.000000
# 4 0.000000 0.000000 0.000000 0.049449 0.000000 0.010816
# 5 0.019103 -0.019384 0.000698 0.000000 0.074450 0.000000
# 6 0.000000 0.000000 0.000000 0.010816 0.000000 0.053439
#
#
# Mechanical properties :
#
#
# Convention : Reuss Voigt Hill
#
# Bulk Modulus (GPa) = 8.72524 19.79705 14.26115
# Shear Modulus (GPa) = 15.35721 22.54987 18.95354
#
# Velocity S-wave (km/s) = 3.03458 3.67718 3.37123
# Velocity P-wave (km/s) = 4.18452 5.46807 4.86878
#
# Compressibility (1/GPa) = 0.11460999
#
# Stress axis : x y z
#
# Youngs Moduli (GPa) = 24.27402 15.99149 116.34361
#
# Poissons Ratio (x) = -0.07249 0.35724
# Poissons Ratio (y) = -0.11004 0.03725
# Poissons Ratio (z) = 0.07453 0.00512
#
# Static dielectric constant tensor:
#      x y z
#    x 1.522600 0.000000 0.008230 
#    y 0.000000 1.558840 0.000000 
#    z 0.008230 0.000000 1.603320 
# 
# From -- ./inp_files/68327.got.cif
#   From: 2010.05.17/outbox.cif.g08.bks.cpg/sg11_35_cif.got.tgz:68327.got - 2010.06.03 12:22:45.
