data_PCOD9156847
_publ_section_title
;
Structure prediction by ZEFSAII (Michael W. Deem and Ramdas Pophale) SiO2 
 PCOD9156847
Probable space group: P 21/M
;
_chemical_formula_sum "Si O2"
_cell_formula_units_Z 32
_cell_length_a 15.154660
_cell_length_b 8.382339
_cell_length_c 26.702169
_cell_angle_alpha 90.000000
_cell_angle_beta 148.134340
_cell_angle_gamma 90.000000
_cell_volume 1790.745285
_symmetry_space_group_name_H-M "P 21/M"
_symmetry_group_IT_number 11
_symmetry_cell_setting 'monoclinic'
loop_
_space_group_symop_operation_xyz
x,y,z
-x,1/2+y,-z
-x,-y,-z
x,1/2-y,z
loop_
_atom_site_type_symbol
_atom_site_label
_atom_site_fract_x
_atom_site_fract_y
_atom_site_fract_z
Si Si1 0.953994 0.561236 0.068503
Si Si2 0.241968 0.557554 0.393872
Si Si3 0.318875 0.061487 0.226723
Si Si4 0.425579 0.559123 0.845628
Si Si5 0.428068 0.442713 0.388634
Si Si6 0.134303 0.443246 0.770404
Si Si7 0.255611 0.056246 0.937356
Si Si8 0.364359 0.563484 0.141945
O O1 0.989511 0.750000 0.086675
O O2 0.885467 0.510074 0.090139
O O3 0.120469 0.470913 0.133289
O O4 0.799930 0.529336 0.956919
O O5 0.242018 0.750000 0.393523
O O6 0.288929 0.501250 0.360774
O O7 0.393261 0.503929 0.502838
O O8 0.058744 0.504897 0.322552
O O9 0.349078 0.250000 0.236974
O O10 0.392871 0.003125 0.315323
O O11 0.391281 0.977213 0.212710
O O12 0.434574 0.750000 0.846656
O O13 0.246927 0.506169 0.779697
O O14 0.484658 0.487717 0.821419
O O15 0.566676 0.504764 0.954153
O O16 0.425563 0.250000 0.387490
O O17 0.138138 0.250000 0.771537
O O18 0.215076 0.498721 0.862097
O O19 0.256274 0.250000 0.936927
O O20 0.331562 0.750000 0.119882
#
# Coordination Sequence:
#
# PCOD9156847 Si02
#       8
#     4   4   4   4   4   4   4   4
#     4  10  19  33  51  74 104 135 168 204 245 293
#     4   9  18  33  53  77 105 134 164 203 249 297
#     4  11  21  33  50  73 101 133 169 207 249 297
#     4  10  20  34  49  69 100 134 168 206 247 290
#     4   9  19  34  52  76 105 134 164 202 250 299
#     4  10  18  30  50  74  99 130 168 204 243 292
#     4   8  16  29  46  70 100 132 163 197 236 284
#     4  11  22  36  52  71  97 131 170 209 250 294
#
# _framework density 17.869654000000001
#
# number of rings (size 3 to 8) (size 9 to 14) (size 15 to 20)
#    0.000    2.250    0.000    4.500    0.000    2.500 
#    0.000    3.125    0.000    0.750    0.000    0.000 
#    0.000    0.000    0.000    0.000    0.000    0.000 
#
# Total GULP energy -178641.951439 kJ/mol
# GULP energy per Si atom -5582.560982 kJ/mol
# Density = 1.782898 g / cm^3
# Si number density = 17.869654 Si / 1000 Ang^3
#
#
#
# Elastic Constant Matrix: (Units=GPa)
#
#
# Indices 1 2 3 4 5 6 
#
# 1 134.6263 6.5425 67.7246 0.0000 2.2591 0.0000
# 2 6.5425 14.8786 1.8728 0.0000 1.9970 0.0000
# 3 67.7246 1.8728 61.0360 0.0000 4.7318 0.0000
# 4 0.0000 0.0000 0.0000 13.4666 0.0000 -0.4005
# 5 2.2591 1.9970 4.7318 0.0000 29.7963 0.0000
# 6 0.0000 0.0000 0.0000 -0.4005 0.0000 25.7572
#
#
#
# Elastic Compliance Matrix: (Units=1/GPa)
#
#
# Indices 1 2 3 4 5 6 
#
# 1 0.017330 -0.005483 -0.019224 0.000000 0.002106 0.000000
# 2 -0.005483 0.069741 0.004328 0.000000 -0.004946 0.000000
# 3 -0.019224 0.004328 0.037958 0.000000 -0.004860 0.000000
# 4 0.000000 0.000000 0.000000 0.074292 0.000000 0.001155
# 5 0.002106 -0.004946 -0.004860 0.000000 0.034505 0.000000
# 6 0.000000 0.000000 0.000000 0.001155 0.000000 0.038842
#
#
# Mechanical properties :
#
#
# Convention : Reuss Voigt Hill
#
# Bulk Modulus (GPa) = 11.86665 40.31341 26.09003
# Shear Modulus (GPa) = 14.64056 22.76410 18.70233
#
# Velocity S-wave (km/s) = 2.86544 3.57304 3.23863
# Velocity P-wave (km/s) = 4.19557 6.29530 5.34947
#
# Compressibility (1/GPa) = 0.08426979
#
# Stress axis : x y z
#
# Youngs Moduli (GPa) = 57.70392 14.33884 26.34460
#
# Poissons Ratio (x) = 0.07862 0.50645
# Poissons Ratio (y) = 0.31641 -0.11401
# Poissons Ratio (z) = 1.10930 -0.06205
#
# Static dielectric constant tensor:
#      x y z
#    x 1.603180 0.000000 -0.009360 
#    y 0.000000 1.605520 0.000000 
#    z -0.009360 0.000000 1.612940 
# 
# From -- ./inp_files/71650.got.cif
#   From: 2010.05.17/outbox.cif.g08.bks.cpg/sg11_36_cif.got.tgz:71650.got - 2010.06.03 12:22:45.
