data_PCOD9156930
_publ_section_title
;
Structure prediction by ZEFSAII (Michael W. Deem and Ramdas Pophale) SiO2 
 PCOD9156930
Probable space group: P 21/M
;
_chemical_formula_sum "Si O2"
_cell_formula_units_Z 18
_cell_length_a 8.764986
_cell_length_b 15.107934
_cell_length_c 7.790705
_cell_angle_alpha 90.000000
_cell_angle_beta 48.568842
_cell_angle_gamma 90.000000
_cell_volume 773.482177
_symmetry_space_group_name_H-M "P 21/M"
_symmetry_group_IT_number 11
_symmetry_cell_setting 'monoclinic'
loop_
_space_group_symop_operation_xyz
x,y,z
-x,1/2+y,-z
-x,-y,-z
x,1/2-y,z
loop_
_atom_site_type_symbol
_atom_site_label
_atom_site_fract_x
_atom_site_fract_y
_atom_site_fract_z
Si Si1 0.407139 0.750000 0.009998
Si Si2 0.468544 0.081950 0.902577
Si Si3 0.906990 0.443062 0.413886
Si Si4 0.496335 0.750000 0.554398
Si Si5 0.868890 0.250000 0.457382
Si Si6 0.306156 0.436634 0.678094
O O1 0.383291 0.750000 0.823246
O O2 0.535176 0.665854 0.973742
O O3 0.209257 0.750000 0.283933
O O4 0.678044 0.083742 0.641098
O O5 0.293298 0.070667 0.893218
O O6 0.500000 0.000000 0.000000
O O7 0.987846 0.342273 0.334373
O O8 0.875632 0.512312 0.281482
O O9 0.000000 0.500000 0.500000
O O10 0.326492 0.750000 0.529335
O O11 0.633906 0.838729 0.434599
O O12 0.500000 0.500000 0.500000
#
# Coordination Sequence:
#
# PCOD9156930 Si02
#       6
#     2   4   4   2   2   4
#     4  10  18  30  55  84 109 146 187 240 286 324
#     4  10  19  34  56  84 114 144 197 238 273 340
#     4  10  21  37  56  83 117 154 186 232 299 343
#     4  12  18  33  61  86 111 149 200 244 277 334
#     4  10  20  37  56  80 118 147 195 236 285 352
#     4  10  18  33  54  83 109 146 191 233 276 334
#
# _framework density 23.271384000000001
#
# number of rings (size 3 to 8) (size 9 to 14) (size 15 to 20)
#    0.000    1.778    6.667    2.667    0.000    0.889 
#    0.000    2.222    0.000    0.000    0.000    0.000 
#    0.000    0.000    0.000    0.000    0.000    0.000 
#
# Total GULP energy -100389.621399 kJ/mol
# GULP energy per Si atom -5577.201189 kJ/mol
# Density = 2.321842 g / cm^3
# Si number density = 23.271384 Si / 1000 Ang^3
#
#
#
# Elastic Constant Matrix: (Units=GPa)
#
#
# Indices 1 2 3 4 5 6 
#
# 1 98.3348 55.6151 37.6908 0.0000 27.9928 0.0000
# 2 55.6151 259.5830 42.6173 0.0000 30.8158 0.0000
# 3 37.6908 42.6173 90.6989 0.0000 29.7422 0.0000
# 4 0.0000 0.0000 0.0000 37.2015 0.0000 8.5480
# 5 27.9928 30.8158 29.7422 0.0000 51.9783 0.0000
# 6 0.0000 0.0000 0.0000 8.5480 0.0000 27.3534
#
#
#
# Elastic Compliance Matrix: (Units=1/GPa)
#
#
# Indices 1 2 3 4 5 6 
#
# 1 0.013779 -0.001874 -0.003418 0.000000 -0.004354 0.000000
# 2 -0.001874 0.004550 -0.000991 0.000000 -0.001121 0.000000
# 3 -0.003418 -0.000991 0.014914 0.000000 -0.006105 0.000000
# 4 0.000000 0.000000 0.000000 0.028960 0.000000 -0.009050
# 5 -0.004354 -0.001121 -0.006105 0.000000 0.025741 0.000000
# 6 0.000000 0.000000 0.000000 -0.009050 0.000000 0.039387
#
#
# Mechanical properties :
#
#
# Convention : Reuss Voigt Hill
#
# Bulk Modulus (GPa) = 48.36600 80.05146 64.20873
# Shear Modulus (GPa) = 34.06269 44.15288 39.10779
#
# Velocity S-wave (km/s) = 3.83000 4.36053 4.10385
# Velocity P-wave (km/s) = 6.35509 7.73473 7.07860
#
# Compressibility (1/GPa) = 0.02067568
#
# Stress axis : x y z
#
# Youngs Moduli (GPa) = 72.57653 219.79611 67.05280
#
# Poissons Ratio (x) = 0.41192 0.22915
# Poissons Ratio (y) = 0.13602 0.06648
# Poissons Ratio (z) = 0.24803 0.21792
#
# Static dielectric constant tensor:
#      x y z
#    x 1.934760 0.000000 -0.016250 
#    y 0.000000 1.884500 0.000000 
#    z -0.016250 0.000000 1.957780 
# 
# From -- ./inp_files/12111.got.cif
#   From: 2010.05.17/outbox.cif.g08.bks.cpg/sg11_7_cif.got.tgz:12111.got - 2010.06.03 12:22:45.
