data_PCOD9156385
_publ_section_title
;
Structure prediction by ZEFSAII (Michael W. Deem and Ramdas Pophale) SiO2 
 PCOD9156385
Probable space group: P 21/M
;
_chemical_formula_sum "Si O2"
_cell_formula_units_Z 28
_cell_length_a 16.765671
_cell_length_b 9.201036
_cell_length_c 18.656655
_cell_angle_alpha 90.000000
_cell_angle_beta 142.347339
_cell_angle_gamma 90.000000
_cell_volume 1758.095472
_symmetry_space_group_name_H-M "P 21/M"
_symmetry_group_IT_number 11
_symmetry_cell_setting 'monoclinic'
loop_
_space_group_symop_operation_xyz
x,y,z
-x,1/2+y,-z
-x,-y,-z
x,1/2-y,z
loop_
_atom_site_type_symbol
_atom_site_label
_atom_site_fract_x
_atom_site_fract_y
_atom_site_fract_z
Si Si1 0.306149 0.917201 0.399188
Si Si2 0.487991 0.923149 0.256130
Si Si3 0.395623 0.082376 0.328240
Si Si4 0.458626 0.077210 0.083880
Si Si5 0.300384 0.577121 0.849653
Si Si6 0.221498 0.076910 0.477029
Si Si7 0.015491 0.924756 0.587470
O O1 0.268523 0.750000 0.361603
O O2 0.456143 0.918313 0.534815
O O3 0.308584 0.005364 0.326833
O O4 0.224573 0.993058 0.404037
O O5 0.468427 0.750000 0.239372
O O6 0.640273 0.949824 0.384955
O O7 0.404240 0.993915 0.260603
O O8 0.458140 0.997300 0.159386
O O9 0.358593 0.250000 0.290696
O O10 0.443330 0.250000 0.081836
O O11 0.596667 0.050601 0.141444
O O12 0.350400 0.012407 0.953341
O O13 0.305217 0.750000 0.869182
O O14 0.155317 0.538739 0.721442
O O15 0.213838 0.250000 0.457858
O O16 0.102374 0.033965 0.443371
O O17 0.010855 0.750000 0.574872
O O18 0.000000 0.000000 0.500000
#
# Coordination Sequence:
#
# PCOD9156385 Si02
#       7
#     4   4   4   4   4   4   4
#     4   9  16  26  41  62  89 121 154 187 225 269
#     4  10  18  28  44  67  95 123 152 187 228 273
#     4   9  16  26  41  62  90 121 152 187 226 269
#     4  10  19  31  48  68  90 118 154 194 233 272
#     4   9  19  34  49  66  90 121 155 191 231 272
#     4   9  18  30  44  65  93 125 156 186 225 273
#     4  10  20  33  49  69  94 123 155 190 228 271
#
# _framework density 15.926325
#
# number of rings (size 3 to 8) (size 9 to 14) (size 15 to 20)
#    0.000    2.571    0.000    2.571    0.000    5.714 
#    0.000    0.000    0.000    0.000    0.000    1.000 
#    0.000    0.000    0.000    0.000    0.000    0.000 
#
# Total GULP energy -156131.819352 kJ/mol
# GULP energy per Si atom -5576.136405 kJ/mol
# Density = 1.589008 g / cm^3
# Si number density = 15.926325 Si / 1000 Ang^3
#
#
#
# Elastic Constant Matrix: (Units=GPa)
#
#
# Indices 1 2 3 4 5 6 
#
# 1 160.6161 87.1166 74.5345 0.0000 -25.2024 0.0000
# 2 87.1166 94.2654 58.1703 0.0000 -23.1987 0.0000
# 3 74.5345 58.1703 71.5914 0.0000 -17.0017 0.0000
# 4 0.0000 0.0000 0.0000 21.7018 0.0000 -9.2663
# 5 -25.2024 -23.1987 -17.0017 0.0000 26.4701 0.0000
# 6 0.0000 0.0000 0.0000 -9.2663 0.0000 31.4859
#
#
#
# Elastic Compliance Matrix: (Units=1/GPa)
#
#
# Indices 1 2 3 4 5 6 
#
# 1 0.014754 -0.008021 -0.008468 0.000000 0.001579 0.000000
# 2 -0.008021 0.027576 -0.011953 0.000000 0.008854 0.000000
# 3 -0.008468 -0.011953 0.033151 0.000000 0.002754 0.000000
# 4 0.000000 0.000000 0.000000 0.052702 0.000000 0.015510
# 5 0.001579 0.008854 0.002754 0.000000 0.048810 0.000000
# 6 0.000000 0.000000 0.000000 0.015510 0.000000 0.036325
#
#
# Mechanical properties :
#
#
# Convention : Reuss Voigt Hill
#
# Bulk Modulus (GPa) = 53.77459 85.12398 69.44928
# Shear Modulus (GPa) = 18.08962 23.04164 20.56563
#
# Velocity S-wave (km/s) = 3.37387 3.80776 3.59736
# Velocity P-wave (km/s) = 7.00108 8.53796 7.80743
#
# Compressibility (1/GPa) = 0.01859615
#
# Stress axis : x y z
#
# Youngs Moduli (GPa) = 67.77869 36.26344 30.16474
#
# Poissons Ratio (x) = 0.29086 0.25545
# Poissons Ratio (y) = 0.54363 0.36057
# Poissons Ratio (z) = 0.57398 0.43347
#
# Static dielectric constant tensor:
#      x y z
#    x 1.518160 0.000000 0.005890 
#    y 0.000000 1.530590 0.000000 
#    z 0.005890 0.000000 1.503390 
# 
# From -- ./inp_files/37421.got.cif
#   From: 2010.05.17/outbox.cif.g08.bks.cpg/sg11_19_cif.got.tgz:37421.got - 2010.06.03 12:22:45.
