data_PCOD9156070
_publ_section_title
;
Structure prediction by ZEFSAII (Michael W. Deem and Ramdas Pophale) SiO2 
 PCOD9156070
Probable space group: P 21/M
;
_chemical_formula_sum "Si O2"
_cell_formula_units_Z 32
_cell_length_a 10.214329
_cell_length_b 14.593254
_cell_length_c 20.767932
_cell_angle_alpha 90.000000
_cell_angle_beta 29.043744
_cell_angle_gamma 90.000000
_cell_volume 1502.879301
_symmetry_space_group_name_H-M "P 21/M"
_symmetry_group_IT_number 11
_symmetry_cell_setting 'monoclinic'
loop_
_space_group_symop_operation_xyz
x,y,z
-x,1/2+y,-z
-x,-y,-z
x,1/2-y,z
loop_
_atom_site_type_symbol
_atom_site_label
_atom_site_fract_x
_atom_site_fract_y
_atom_site_fract_z
Si Si1 0.195633 0.357179 0.828854
Si Si2 0.155161 0.897018 0.145662
Si Si3 0.729182 0.638973 0.740940
Si Si4 0.258823 0.105426 0.114396
Si Si5 0.809187 0.137206 0.102905
Si Si6 0.316997 0.637967 0.460933
Si Si7 0.644299 0.638980 0.447369
Si Si8 0.709786 0.146556 0.287444
O O1 0.245925 0.250000 0.820354
O O2 0.475803 0.396644 0.682023
O O3 0.988688 0.360011 0.856981
O O4 0.056981 0.395707 0.952289
O O5 0.940328 0.888858 0.295851
O O6 0.216606 0.003088 0.106881
O O7 0.450950 0.856300 0.032508
O O8 0.730248 0.750000 0.744581
O O9 0.724829 0.604047 0.815609
O O10 0.465182 0.612211 0.815638
O O11 0.008802 0.609107 0.588282
O O12 0.984771 0.152966 0.210109
O O13 0.826177 0.250000 0.096423
O O14 0.788491 0.104215 0.185147
O O15 0.322083 0.750000 0.457006
O O16 0.439816 0.612931 0.477787
O O17 0.644167 0.750000 0.450306
O O18 0.519104 0.603784 0.568217
O O19 0.614118 0.250000 0.314066
#
# Coordination Sequence:
#
# PCOD9156070 Si02
#       8
#     4   4   4   4   4   4   4   4
#     4   9  16  31  52  74 101 130 167 213 253 298
#     4  10  21  33  50  78 106 133 174 212 260 301
#     4  10  17  30  52  76  98 130 171 211 251 295
#     4  11  21  33  51  77 107 135 170 219 252 301
#     4   9  18  31  52  76 100 133 171 208 251 305
#     4   8  14  25  46  75  97 117 156 208 250 287
#     4   9  17  32  53  77 105 131 163 213 263 305
#     4  10  20  35  53  78 106 134 169 210 258 307
#
# _framework density 21.292460999999999
#
# number of rings (size 3 to 8) (size 9 to 14) (size 15 to 20)
#    0.000    2.500    2.500    1.500    0.000    2.000 
#    0.000    1.875    0.000    5.250    0.000    0.000 
#    0.000    0.000    0.000    0.000    0.000    0.000 
#
# Total GULP energy -178521.450509 kJ/mol
# GULP energy per Si atom -5578.795328 kJ/mol
# Density = 2.124400 g / cm^3
# Si number density = 21.292461 Si / 1000 Ang^3
#
#
#
# Elastic Constant Matrix: (Units=GPa)
#
#
# Indices 1 2 3 4 5 6 
#
# 1 67.9717 -4.2154 47.4768 0.0000 27.1222 0.0000
# 2 -4.2154 37.9587 -3.6388 0.0000 3.6278 0.0000
# 3 47.4768 -3.6388 182.2649 0.0000 34.5753 0.0000
# 4 0.0000 0.0000 0.0000 14.7255 0.0000 2.6706
# 5 27.1222 3.6278 34.5753 0.0000 36.2277 0.0000
# 6 0.0000 0.0000 0.0000 2.6706 0.0000 7.9940
#
#
#
# Elastic Compliance Matrix: (Units=1/GPa)
#
#
# Indices 1 2 3 4 5 6 
#
# 1 0.022932 0.003634 -0.003144 0.000000 -0.014531 0.000000
# 2 0.003634 0.027416 0.000779 0.000000 -0.006209 0.000000
# 3 -0.003144 0.000779 0.007191 0.000000 -0.004587 0.000000
# 4 0.000000 0.000000 0.000000 0.072289 0.000000 -0.024150
# 5 -0.014531 -0.006209 -0.004587 0.000000 0.043482 0.000000
# 6 0.000000 0.000000 0.000000 -0.024150 0.000000 0.133161
#
#
# Mechanical properties :
#
#
# Convention : Reuss Voigt Hill
#
# Bulk Modulus (GPa) = 16.64562 40.82672 28.73617
# Shear Modulus (GPa) = 15.43402 28.36098 21.89750
#
# Velocity S-wave (km/s) = 2.69524 3.65358 3.21037
# Velocity P-wave (km/s) = 4.18573 6.08392 5.22180
#
# Compressibility (1/GPa) = 0.06007588
#
# Stress axis : x y z
#
# Youngs Moduli (GPa) = 43.60754 36.47497 139.05732
#
# Poissons Ratio (x) = -0.13255 0.43723
# Poissons Ratio (y) = -0.15847 -0.10827
# Poissons Ratio (z) = 0.13711 -0.02840
#
# Static dielectric constant tensor:
#      x y z
#    x 1.728410 0.000000 0.023010 
#    y 0.000000 1.808100 0.000000 
#    z 0.023010 0.000000 1.816140 
# 
# From -- ./inp_files/63999.got.cif
#   From: 2010.05.17/outbox.cif.g08.bks.cpg/sg11_32_cif.got.tgz:63999.got - 2010.06.03 12:22:45.
