data_PCOD9156143
_publ_section_title
;
Structure prediction by ZEFSAII (Michael W. Deem and Ramdas Pophale) SiO2 
 PCOD9156143
Probable space group: P 21/M
;
_chemical_formula_sum "Si O2"
_cell_formula_units_Z 32
_cell_length_a 29.062903
_cell_length_b 7.605899
_cell_length_c 12.083362
_cell_angle_alpha 90.000000
_cell_angle_beta 32.984351
_cell_angle_gamma 90.000000
_cell_volume 1454.130515
_symmetry_space_group_name_H-M "P 21/M"
_symmetry_group_IT_number 11
_symmetry_cell_setting 'monoclinic'
loop_
_space_group_symop_operation_xyz
x,y,z
-x,1/2+y,-z
-x,-y,-z
x,1/2-y,z
loop_
_atom_site_type_symbol
_atom_site_label
_atom_site_fract_x
_atom_site_fract_y
_atom_site_fract_z
Si Si1 0.743057 0.546006 0.182963
Si Si2 0.570244 0.452529 0.642916
Si Si3 0.155563 0.537640 0.684664
Si Si4 0.650122 0.465197 0.703262
Si Si5 0.609380 0.453227 0.030581
Si Si6 0.900483 0.464997 0.447526
Si Si7 0.086576 0.044490 0.053750
Si Si8 0.249370 0.963718 0.087811
O O1 0.737337 0.750000 0.228070
O O2 0.657069 0.461546 0.400223
O O3 0.828195 0.467578 0.065273
O O4 0.749609 0.532533 0.038194
O O5 0.546125 0.250000 0.704295
O O6 0.590946 0.528187 0.722923
O O7 0.490117 0.539450 0.746646
O O8 0.152245 0.750000 0.693611
O O9 0.252390 0.484938 0.513619
O O10 0.130301 0.480193 0.612561
O O11 0.096093 0.469838 0.902226
O O12 0.646906 0.250000 0.706731
O O13 0.624479 0.527180 0.876994
O O14 0.636119 0.250000 0.966950
O O15 0.669485 0.525559 0.004765
O O16 0.901255 0.250000 0.444474
O O17 0.833484 0.516821 0.675683
O O18 0.996088 0.528340 0.272626
O O19 0.085965 0.250000 0.086103
O O20 0.250393 0.750000 0.078137
#
# Coordination Sequence:
#
# PCOD9156143 Si02
#       8
#     4   4   4   4   4   4   4   4
#     4  11  24  40  56  78 113 151 187 235 283 321
#     4  11  22  37  59  86 114 146 185 226 271 335
#     4  10  17  32  59  86 114 148 183 222 270 332
#     4   9  17  32  57  86 114 143 179 221 270 330
#     4  10  20  37  60  86 114 144 180 227 282 332
#     4   9  18  35  60  86 113 147 185 225 276 333
#     4  10  21  36  55  84 118 149 183 227 278 328
#     4  10  21  39  62  82 105 146 194 233 272 329
#
# _framework density 22.006277999999998
#
# number of rings (size 3 to 8) (size 9 to 14) (size 15 to 20)
#    0.000    2.000    2.500    1.500    0.000    2.000 
#    0.000    2.500    0.000    0.000    0.000    0.000 
#    0.000    0.000    0.000    0.000    0.000    0.000 
#
# Total GULP energy -178819.925999 kJ/mol
# GULP energy per Si atom -5588.122687 kJ/mol
# Density = 2.195619 g / cm^3
# Si number density = 22.006278 Si / 1000 Ang^3
#
#
#
# Elastic Constant Matrix: (Units=GPa)
#
#
# Indices 1 2 3 4 5 6 
#
# 1 79.1775 -7.2856 54.8808 0.0000 10.7423 0.0000
# 2 -7.2856 48.5645 -8.7095 0.0000 -3.6450 0.0000
# 3 54.8808 -8.7095 81.8845 0.0000 -12.0450 0.0000
# 4 0.0000 0.0000 0.0000 6.4679 0.0000 7.8779
# 5 10.7423 -3.6450 -12.0450 0.0000 35.1248 0.0000
# 6 0.0000 0.0000 0.0000 7.8779 0.0000 9.8381
#
#
#
# Elastic Compliance Matrix: (Units=1/GPa)
#
#
# Indices 1 2 3 4 5 6 
#
# 1 0.031503 -0.000894 -0.023842 0.000000 -0.017903 0.000000
# 2 -0.000894 0.021343 0.003407 0.000000 0.003656 0.000000
# 3 -0.023842 0.003407 0.031255 0.000000 0.018363 0.000000
# 4 0.000000 0.000000 0.000000 6.263615 0.000000 -5.015607
# 5 -0.017903 0.003656 0.018363 0.000000 0.040622 0.000000
# 6 0.000000 0.000000 0.000000 -5.015607 0.000000 4.117906
#
#
# Mechanical properties :
#
#
# Convention : Reuss Voigt Hill
#
# Bulk Modulus (GPa) = 24.12985 31.93310 28.03148
# Shear Modulus (GPa) = 0.47336 21.66889 11.07113
#
# Velocity S-wave (km/s) = 0.46430 3.14135 2.24540
# Velocity P-wave (km/s) = 3.35801 5.26306 4.41452
#
# Compressibility (1/GPa) = 0.04144244
#
# Stress axis : x y z
#
# Youngs Moduli (GPa) = 31.74351 46.85487 31.99439
#
# Poissons Ratio (x) = 0.04187 0.76282
# Poissons Ratio (y) = 0.02837 -0.10900
# Poissons Ratio (z) = 0.75684 -0.15963
#
# Static dielectric constant tensor:
#      x y z
#    x 1.792540 0.000000 -0.028430 
#    y 0.000000 1.812580 0.000000 
#    z -0.028430 0.000000 1.780600 
# 
# From -- ./inp_files/42892.got.cif
#   From: 2010.05.17/outbox.cif.g08.bks.cpg/sg11_22_cif.got.tgz:42892.got - 2010.06.03 12:22:45.
