data_PCOD9156646
_publ_section_title
;
Structure prediction by ZEFSAII (Michael W. Deem and Ramdas Pophale) SiO2 
 PCOD9156646
Probable space group: P 21/M
;
_chemical_formula_sum "Si O2"
_cell_formula_units_Z 28
_cell_length_a 10.238445
_cell_length_b 9.887554
_cell_length_c 18.366935
_cell_angle_alpha 90.000000
_cell_angle_beta 56.920344
_cell_angle_gamma 90.000000
_cell_volume 1557.967033
_symmetry_space_group_name_H-M "P 21/M"
_symmetry_group_IT_number 11
_symmetry_cell_setting 'monoclinic'
loop_
_space_group_symop_operation_xyz
x,y,z
-x,1/2+y,-z
-x,-y,-z
x,1/2-y,z
loop_
_atom_site_type_symbol
_atom_site_label
_atom_site_fract_x
_atom_site_fract_y
_atom_site_fract_z
Si Si1 0.443301 0.401406 0.620944
Si Si2 0.032507 0.907099 0.419891
Si Si3 0.834244 0.096883 0.256519
Si Si4 0.676045 0.894531 0.507724
Si Si5 0.139047 0.091970 0.264165
Si Si6 0.347340 0.088770 0.059158
Si Si7 0.051212 0.093805 0.050107
O O1 0.451984 0.250000 0.647937
O O2 0.303617 0.490032 0.695682
O O3 0.403719 0.392043 0.546961
O O4 0.604697 0.483174 0.575214
O O5 0.078310 0.750000 0.420551
O O6 0.858997 0.902517 0.438756
O O7 0.000000 0.000000 0.500000
O O8 0.141089 0.987847 0.330309
O O9 0.772993 0.250000 0.285218
O O10 0.971529 0.078437 0.274293
O O11 0.921850 0.087777 0.152969
O O12 0.643854 0.750000 0.554439
O O13 0.151980 0.250000 0.283460
O O14 0.267838 0.065877 0.162535
O O15 0.379675 0.250000 0.044381
O O16 0.214355 0.056603 0.039511
O O17 0.500000 0.000000 0.000000
O O18 0.063601 0.250000 0.022539
O O19 0.000000 0.000000 0.000000
#
# Coordination Sequence:
#
# PCOD9156646 Si02
#       7
#     4   4   4   4   4   4   4
#     4  10  18  29  49  76 100 125 165 210 250 298
#     4  11  22  36  53  75 104 138 179 222 264 314
#     4   9  17  31  52  75 103 137 172 213 262 312
#     4   9  19  33  47  69 101 131 162 205 254 300
#     4   9  18  34  55  77 103 138 180 223 266 316
#     4   9  19  36  58  85 113 142 182 228 276 331
#     4   9  19  35  54  80 111 142 177 219 269 326
#
# _framework density 17.97214
#
# number of rings (size 3 to 8) (size 9 to 14) (size 15 to 20)
#    0.000    2.571    1.429    2.571    0.000    3.429 
#    0.000    4.286    0.000    1.714    0.000    0.000 
#    0.000    0.000    0.000    0.000    0.000    0.000 
#
# Total GULP energy -155998.854349 kJ/mol
# GULP energy per Si atom -5571.387655 kJ/mol
# Density = 1.793123 g / cm^3
# Si number density = 17.972140 Si / 1000 Ang^3
#
#
#
# Elastic Constant Matrix: (Units=GPa)
#
#
# Indices 1 2 3 4 5 6 
#
# 1 27.1369 47.5289 35.9123 0.0000 -3.5404 0.0000
# 2 47.5289 149.3715 85.2914 0.0000 -1.8168 0.0000
# 3 35.9123 85.2914 85.5148 0.0000 -4.6901 0.0000
# 4 0.0000 0.0000 0.0000 39.1521 0.0000 -4.0094
# 5 -3.5404 -1.8168 -4.6901 0.0000 32.4339 0.0000
# 6 0.0000 0.0000 0.0000 -4.0094 0.0000 25.4171
#
#
#
# Elastic Compliance Matrix: (Units=1/GPa)
#
#
# Indices 1 2 3 4 5 6 
#
# 1 0.102185 -0.018906 -0.023691 0.000000 0.006670 0.000000
# 2 -0.018906 0.019111 -0.011265 0.000000 -0.002622 0.000000
# 3 -0.023691 -0.011265 0.032964 0.000000 0.001550 0.000000
# 4 0.000000 0.000000 0.000000 0.025961 0.000000 0.004095
# 5 0.006670 -0.002622 0.001550 0.000000 0.031637 0.000000
# 6 0.000000 0.000000 0.000000 0.004095 0.000000 0.039990
#
#
# Mechanical properties :
#
#
# Convention : Reuss Voigt Hill
#
# Bulk Modulus (GPa) = 21.48882 66.60982 44.04932
# Shear Modulus (GPa) = 13.33040 25.61999 19.47520
#
# Velocity S-wave (km/s) = 2.72642 3.77973 3.29543
# Velocity P-wave (km/s) = 4.67909 7.49611 6.24842
#
# Compressibility (1/GPa) = 0.04653582
#
# Stress axis : x y z
#
# Youngs Moduli (GPa) = 9.78620 52.32574 30.33639
#
# Poissons Ratio (x) = 0.98927 0.71869
# Poissons Ratio (y) = 0.18502 0.34175
# Poissons Ratio (z) = 0.23184 0.58947
#
# Static dielectric constant tensor:
#      x y z
#    x 1.627900 0.000000 0.000270 
#    y 0.000000 1.687480 0.000000 
#    z 0.000270 0.000000 1.595130 
# 
# From -- ./inp_files/64139.got.cif
#   From: 2010.05.17/outbox.cif.g08.bks.cpg/sg11_33_cif.got.tgz:64139.got - 2010.06.03 12:22:45.
