data_PCOD9156454
_publ_section_title
;
Structure prediction by ZEFSAII (Michael W. Deem and Ramdas Pophale) SiO2 
 PCOD9156454
Probable space group: P 21/M
;
_chemical_formula_sum "Si O2"
_cell_formula_units_Z 24
_cell_length_a 17.636645
_cell_length_b 8.994683
_cell_length_c 11.896782
_cell_angle_alpha 90.000000
_cell_angle_beta 121.140693
_cell_angle_gamma 90.000000
_cell_volume 1615.304384
_symmetry_space_group_name_H-M "P 21/M"
_symmetry_group_IT_number 11
_symmetry_cell_setting 'monoclinic'
loop_
_space_group_symop_operation_xyz
x,y,z
-x,1/2+y,-z
-x,-y,-z
x,1/2-y,z
loop_
_atom_site_type_symbol
_atom_site_label
_atom_site_fract_x
_atom_site_fract_y
_atom_site_fract_z
Si Si1 0.862343 0.573533 0.433471
Si Si2 0.067857 0.072237 0.963892
Si Si3 0.774537 0.923038 0.756300
Si Si4 0.590524 0.924340 0.533394
Si Si5 0.047181 0.926675 0.705216
Si Si6 0.264444 0.926377 0.492312
O O1 0.849864 0.750000 0.412031
O O2 0.885464 0.499478 0.332256
O O3 0.780183 0.499062 0.433820
O O4 0.949203 0.548876 0.578211
O O5 0.054985 0.250000 0.948534
O O6 0.055911 0.000768 0.833160
O O7 0.165123 0.043080 0.091539
O O8 0.000000 0.000000 0.000000
O O9 0.791334 0.750000 0.737306
O O10 0.668326 0.938036 0.687755
O O11 0.793504 0.024112 0.661838
O O12 0.577574 0.750000 0.501215
O O13 0.500000 0.000000 0.500000
O O14 0.639937 0.003988 0.466677
O O15 0.061204 0.750000 0.723364
O O16 0.268459 0.750000 0.503681
#
# Coordination Sequence:
#
# PCOD9156454 Si02
#       6
#     4   4   4   4   4   4
#     4  10  19  33  48  65  92 126 162 202 242 282
#     4  11  21  33  47  67  95 131 164 196 238 282
#     4   8  18  32  45  64  96 128 156 191 235 284
#     4   9  17  31  48  71  99 125 156 196 242 291
#     4  10  21  33  47  67  92 124 164 205 241 279
#     4  10  18  28  47  71  95 123 155 194 239 283
#
# _framework density 14.85788
#
# number of rings (size 3 to 8) (size 9 to 14) (size 15 to 20)
#    1.000    1.333    0.000    4.000    0.000    7.333 
#    0.000    0.000    0.000    0.000    0.000    1.167 
#    0.000    0.000    0.000    0.000    0.000    0.000 
#
# Total GULP energy -133603.511096 kJ/mol
# GULP energy per Si atom -5566.812962 kJ/mol
# Density = 1.482406 g / cm^3
# Si number density = 14.857880 Si / 1000 Ang^3
#
#
#
# Elastic Constant Matrix: (Units=GPa)
#
#
# Indices 1 2 3 4 5 6 
#
# 1 134.9568 76.9981 52.1905 0.0000 -16.3583 0.0000
# 2 76.9981 100.6353 49.6673 0.0000 -9.9658 0.0000
# 3 52.1905 49.6673 76.3109 0.0000 -16.7834 0.0000
# 4 0.0000 0.0000 0.0000 23.3699 0.0000 -4.3413
# 5 -16.3583 -9.9658 -16.7834 0.0000 23.0832 0.0000
# 6 0.0000 0.0000 0.0000 -4.3413 0.0000 29.2809
#
#
#
# Elastic Compliance Matrix: (Units=1/GPa)
#
#
# Indices 1 2 3 4 5 6 
#
# 1 0.014163 -0.008978 -0.002962 0.000000 0.004007 0.000000
# 2 -0.008978 0.020341 -0.007816 0.000000 -0.003264 0.000000
# 3 -0.002962 -0.007816 0.022633 0.000000 0.010982 0.000000
# 4 0.000000 0.000000 0.000000 0.044002 0.000000 0.006524
# 5 0.004007 -0.003264 0.010982 0.000000 0.052737 0.000000
# 6 0.000000 0.000000 0.000000 0.006524 0.000000 0.035119
#
#
# Mechanical properties :
#
#
# Convention : Reuss Voigt Hill
#
# Bulk Modulus (GPa) = 56.74023 74.40162 65.57093
# Shear Modulus (GPa) = 21.33271 24.01660 22.67466
#
# Velocity S-wave (km/s) = 3.79329 4.02484 3.91078
# Velocity P-wave (km/s) = 7.58003 8.47250 8.03866
#
# Compressibility (1/GPa) = 0.01762418
#
# Stress axis : x y z
#
# Youngs Moduli (GPa) = 70.60575 49.16294 44.18406
#
# Poissons Ratio (x) = 0.44138 0.13086
# Poissons Ratio (y) = 0.63389 0.34536
# Poissons Ratio (z) = 0.20912 0.38428
#
# Static dielectric constant tensor:
#      x y z
#    x 1.485790 0.000000 0.013490 
#    y 0.000000 1.493520 0.000000 
#    z 0.013490 0.000000 1.480530 
# 
# From -- ./inp_files/40424.got.cif
#   From: 2010.05.17/outbox.cif.g08.bks.cpg/sg11_21_cif.got.tgz:40424.got - 2010.06.03 12:22:45.
