data_PCOD9156685
_publ_section_title
;
Structure prediction by ZEFSAII (Michael W. Deem and Ramdas Pophale) SiO2 
 PCOD9156685
Probable space group: P 21/M
;
_chemical_formula_sum "Si O2"
_cell_formula_units_Z 32
_cell_length_a 18.815914
_cell_length_b 8.714171
_cell_length_c 16.364726
_cell_angle_alpha 90.000000
_cell_angle_beta 55.663109
_cell_angle_gamma 90.000000
_cell_volume 2215.649092
_symmetry_space_group_name_H-M "P 21/M"
_symmetry_group_IT_number 11
_symmetry_cell_setting 'monoclinic'
loop_
_space_group_symop_operation_xyz
x,y,z
-x,1/2+y,-z
-x,-y,-z
x,1/2-y,z
loop_
_atom_site_type_symbol
_atom_site_label
_atom_site_fract_x
_atom_site_fract_y
_atom_site_fract_z
Si Si1 0.995175 0.433132 0.594629
Si Si2 0.589851 0.933568 0.406397
Si Si3 0.657771 0.432774 0.518650
Si Si4 0.182633 0.065948 0.290808
Si Si5 0.520674 0.432743 0.295476
Si Si6 0.630885 0.565367 0.887596
Si Si7 0.185206 0.434627 0.482310
Si Si8 0.521842 0.567225 0.117594
O O1 0.991871 0.250000 0.592073
O O2 0.905218 0.494930 0.687023
O O3 0.000000 0.500000 0.500000
O O4 0.087644 0.474020 0.573288
O O5 0.588685 0.750000 0.408500
O O6 0.500000 0.000000 0.500000
O O7 0.658360 0.998042 0.426588
O O8 0.589116 0.995405 0.314649
O O9 0.648473 0.250000 0.520842
O O10 0.573469 0.501920 0.618401
O O11 0.741785 0.481641 0.513986
O O12 0.174461 0.250000 0.292377
O O13 0.270325 0.019740 0.189056
O O14 0.191835 0.026272 0.381343
O O15 0.519249 0.250000 0.305427
O O16 0.538239 0.482272 0.191644
O O17 0.624902 0.750000 0.879554
O O18 0.569160 0.485853 0.861497
O O19 0.591918 0.530625 0.001955
O O20 0.196718 0.250000 0.481607
O O21 0.521016 0.750000 0.131368
#
# Coordination Sequence:
#
# PCOD9156685 Si02
#       8
#     4   4   4   4   4   4   4   4
#     4   9  17  28  42  59  81 108 139 174 209 247
#     4  10  18  30  45  61  83 109 138 172 209 249
#     4  11  20  29  43  64  86 110 142 175 208 249
#     4   9  17  29  44  60  82 112 143 174 211 251
#     4  11  20  31  45  60  83 114 145 176 212 249
#     4   9  18  31  45  62  86 114 142 177 217 251
#     4   9  17  28  41  60  86 114 141 171 209 249
#     4  10  19  30  44  63  85 111 146 181 212 248
#
# _framework density 14.44272
#
# number of rings (size 3 to 8) (size 9 to 14) (size 15 to 20)
#    0.000    2.250    0.000    7.125    0.000    4.500 
#    0.000    0.000    0.000    0.000    0.000    0.000 
#    0.000    1.000    0.000    3.000    0.000    4.625 
#
# Total GULP energy -178367.854394 kJ/mol
# GULP energy per Si atom -5573.995450 kJ/mol
# Density = 1.440985 g / cm^3
# Si number density = 14.442720 Si / 1000 Ang^3
#
#
#
# Elastic Constant Matrix: (Units=GPa)
#
#
# Indices 1 2 3 4 5 6 
#
# 1 81.6357 41.9112 36.0590 0.0000 -0.9531 0.0000
# 2 41.9112 81.9809 28.6544 0.0000 3.9913 0.0000
# 3 36.0590 28.6544 60.4996 0.0000 -7.1876 0.0000
# 4 0.0000 0.0000 0.0000 18.5900 0.0000 -0.1916
# 5 -0.9531 3.9913 -7.1876 0.0000 27.4139 0.0000
# 6 0.0000 0.0000 0.0000 -0.1916 0.0000 26.3561
#
#
#
# Elastic Compliance Matrix: (Units=1/GPa)
#
#
# Indices 1 2 3 4 5 6 
#
# 1 0.019564 -0.007049 -0.008381 0.000000 -0.000491 0.000000
# 2 -0.007049 0.017611 -0.004618 0.000000 -0.004020 0.000000
# 3 -0.008381 -0.004618 0.024520 0.000000 0.006810 0.000000
# 4 0.000000 0.000000 0.000000 0.053796 0.000000 0.000391
# 5 -0.000491 -0.004020 0.006810 0.000000 0.038831 0.000000
# 6 0.000000 0.000000 0.000000 0.000391 0.000000 0.037945
#
#
# Mechanical properties :
#
#
# Convention : Reuss Voigt Hill
#
# Bulk Modulus (GPa) = 46.29236 48.59616 47.44426
# Shear Modulus (GPa) = 20.87140 22.30479 21.58809
#
# Velocity S-wave (km/s) = 3.80559 3.93410 3.87038
# Velocity P-wave (km/s) = 7.17161 7.37270 7.27285
#
# Compressibility (1/GPa) = 0.02160184
#
# Stress axis : x y z
#
# Youngs Moduli (GPa) = 51.11338 56.78217 40.78304
#
# Poissons Ratio (x) = 0.40025 0.34178
# Poissons Ratio (y) = 0.36029 0.18832
# Poissons Ratio (z) = 0.42836 0.26219
#
# Static dielectric constant tensor:
#      x y z
#    x 1.483800 0.000000 0.002340 
#    y 0.000000 1.484230 0.000000 
#    z 0.002340 0.000000 1.468090 
# 
# From -- ./inp_files/60692.got.cif
#   From: 2010.05.17/outbox.cif.g08.bks.cpg/sg11_31_cif.got.tgz:60692.got - 2010.06.03 12:22:45.
