data_PCOD9156044
_publ_section_title
;
Structure prediction by ZEFSAII (Michael W. Deem and Ramdas Pophale) SiO2 
 PCOD9156044
Probable space group: P 21/M
;
_chemical_formula_sum "Si O2"
_cell_formula_units_Z 32
_cell_length_a 13.583034
_cell_length_b 14.071805
_cell_length_c 18.949858
_cell_angle_alpha 90.000000
_cell_angle_beta 160.089175
_cell_angle_gamma 90.000000
_cell_volume 1233.509832
_symmetry_space_group_name_H-M "P 21/M"
_symmetry_group_IT_number 11
_symmetry_cell_setting 'monoclinic'
loop_
_space_group_symop_operation_xyz
x,y,z
-x,1/2+y,-z
-x,-y,-z
x,1/2-y,z
loop_
_atom_site_type_symbol
_atom_site_label
_atom_site_fract_x
_atom_site_fract_y
_atom_site_fract_z
Si Si1 0.517139 0.361564 0.588680
Si Si2 0.293907 0.141788 0.817380
Si Si3 0.170161 0.646285 0.047004
Si Si4 0.512464 0.851482 0.911166
Si Si5 0.852126 0.520960 0.572088
Si Si6 0.406627 0.352854 0.261177
Si Si7 0.913604 0.552892 0.082532
Si Si8 0.100447 0.102152 0.542766
O O1 0.481288 0.250000 0.544541
O O2 0.213328 0.415671 0.401780
O O3 0.748381 0.416971 0.694327
O O4 0.679362 0.363355 0.774534
O O5 0.176958 0.250000 0.747997
O O6 0.319892 0.134645 0.750807
O O7 0.551993 0.137760 0.048402
O O8 0.108603 0.050183 0.718045
O O9 0.256826 0.750000 0.075833
O O10 0.174877 0.550839 0.004782
O O11 0.832526 0.650720 0.839824
O O12 0.660390 0.750000 0.000419
O O13 0.210524 0.848212 0.667760
O O14 0.740247 0.928231 0.037630
O O15 0.607079 0.440878 0.411312
O O16 0.799900 0.591638 0.470017
O O17 0.549714 0.250000 0.353546
O O18 0.245412 0.374883 0.079122
O O19 0.000000 0.000000 0.500000
#
# Coordination Sequence:
#
# PCOD9156044 Si02
#       8
#     4   4   4   4   4   4   4   4
#     4  10  19  31  52  89 130 167 210 260 325 397
#     4  10  23  43  65  94 128 167 224 278 317 374
#     4   9  17  29  51  86 128 170 215 260 310 383
#     4  11  24  42  67  96 128 172 224 273 318 379
#     4  11  20  36  59  92 124 165 205 264 331 392
#     4  10  17  29  55  90 124 163 211 262 311 378
#     4  11  17  33  57  86 127 168 215 264 321 377
#     4  10  23  39  64  93 127 166 216 269 329 380
#
# _framework density 25.942233000000002
#
# number of rings (size 3 to 8) (size 9 to 14) (size 15 to 20)
#    0.000    1.750    2.500    4.875    0.000    3.000 
#    0.000    0.625    0.000    1.500    0.000    0.000 
#    0.000    0.000    0.000    0.000    0.000    0.000 
#
# Total GULP energy -178499.578581 kJ/mol
# GULP energy per Si atom -5578.111831 kJ/mol
# Density = 2.588319 g / cm^3
# Si number density = 25.942233 Si / 1000 Ang^3
#
#
#
# Elastic Constant Matrix: (Units=GPa)
#
#
# Indices 1 2 3 4 5 6 
#
# 1 110.2520 39.0983 21.9235 0.0000 -2.1181 0.0000
# 2 39.0983 167.0860 22.0669 0.0000 -1.2484 0.0000
# 3 21.9235 22.0669 30.5577 0.0000 -0.5677 0.0000
# 4 0.0000 0.0000 0.0000 8.7945 0.0000 2.2009
# 5 -2.1181 -1.2484 -0.5677 0.0000 33.3442 0.0000
# 6 0.0000 0.0000 0.0000 2.2009 0.0000 25.3741
#
#
#
# Elastic Compliance Matrix: (Units=1/GPa)
#
#
# Indices 1 2 3 4 5 6 
#
# 1 0.011005 -0.001691 -0.006665 0.000000 0.000522 0.000000
# 2 -0.001691 0.006877 -0.003751 0.000000 0.000086 0.000000
# 3 -0.006665 -0.003751 0.040218 0.000000 0.000121 0.000000
# 4 0.000000 0.000000 0.000000 0.116230 0.000000 -0.010081
# 5 0.000522 0.000086 0.000121 0.000000 0.030029 0.000000
# 6 0.000000 0.000000 0.000000 -0.010081 0.000000 0.040285
#
#
# Mechanical properties :
#
#
# Convention : Reuss Voigt Hill
#
# Bulk Modulus (GPa) = 29.51096 52.67477 41.09287
# Shear Modulus (GPa) = 17.84750 28.48971 23.16860
#
# Velocity S-wave (km/s) = 2.62577 3.31750 2.99169
# Velocity P-wave (km/s) = 4.53797 5.91804 5.27335
#
# Compressibility (1/GPa) = 0.03388571
#
# Stress axis : x y z
#
# Youngs Moduli (GPa) = 90.86663 145.41839 24.86478
#
# Poissons Ratio (x) = 0.24592 0.16572
# Poissons Ratio (y) = 0.15367 0.09327
# Poissons Ratio (z) = 0.60560 0.54547
#
# Static dielectric constant tensor:
#      x y z
#    x 2.062950 0.000000 -0.008000 
#    y 0.000000 2.029720 0.000000 
#    z -0.008000 0.000000 2.099010 
# 
# From -- ./inp_files/65782.got.cif
#   From: 2010.05.17/outbox.cif.g08.bks.cpg/sg11_33_cif.got.tgz:65782.got - 2010.06.03 12:22:45.
