data_PCOD9156045
_publ_section_title
;
Structure prediction by ZEFSAII (Michael W. Deem and Ramdas Pophale) SiO2 
 PCOD9156045
Probable space group: P 21/M
;
_chemical_formula_sum "Si O2"
_cell_formula_units_Z 32
_cell_length_a 12.906395
_cell_length_b 16.765941
_cell_length_c 18.547696
_cell_angle_alpha 90.000000
_cell_angle_beta 26.598816
_cell_angle_gamma 90.000000
_cell_volume 1797.005234
_symmetry_space_group_name_H-M "P 21/M"
_symmetry_group_IT_number 11
_symmetry_cell_setting 'monoclinic'
loop_
_space_group_symop_operation_xyz
x,y,z
-x,1/2+y,-z
-x,-y,-z
x,1/2-y,z
loop_
_atom_site_type_symbol
_atom_site_label
_atom_site_fract_x
_atom_site_fract_y
_atom_site_fract_z
Si Si1 0.132558 0.089795 0.717323
Si Si2 0.336522 0.421514 0.105342
Si Si3 0.550055 0.162471 0.540382
Si Si4 0.010727 0.982004 0.408922
Si Si5 0.946494 0.657061 0.847527
Si Si6 0.205671 0.658634 0.192259
Si Si7 0.929056 0.032128 0.121276
Si Si8 0.411156 0.002906 0.424299
O O1 0.331027 0.147110 0.624878
O O2 0.260908 0.024820 0.587762
O O3 0.952796 0.132898 0.776967
O O4 0.029084 0.039097 0.847300
O O5 0.143090 0.445791 0.284411
O O6 0.205757 0.394342 0.114108
O O7 0.500000 0.500000 0.000000
O O8 0.528876 0.353825 0.997561
O O9 0.536689 0.250000 0.581336
O O10 0.790331 0.157125 0.346880
O O11 0.544034 0.091232 0.601256
O O12 0.139865 0.901977 0.298848
O O13 0.748253 0.975057 0.543306
O O14 0.000000 0.000000 0.500000
O O15 0.872720 0.750000 0.897454
O O16 0.951518 0.610334 0.920183
O O17 0.163069 0.750000 0.238540
O O18 0.653877 0.046068 0.284526
O O19 0.000000 0.000000 0.000000
#
# Coordination Sequence:
#
# PCOD9156045 Si02
#       8
#     4   4   4   4   4   4   4   4
#     4  10  18  36  56  78 109 145 196 224 276 344
#     4  10  20  37  60  81 110 152 201 234 286 345
#     4  10  17  29  56  83 103 133 183 241 277 313
#     4  10  21  37  58  82 114 151 190 236 290 352
#     4  11  20  35  57  86 112 144 194 245 284 330
#     4  10  21  37  58  83 112 151 197 243 283 338
#     4  11  21  34  55  84 115 151 180 227 293 353
#     4  10  18  36  54  77 108 142 194 224 269 344
#
# _framework density 17.807403999999998
#
# number of rings (size 3 to 8) (size 9 to 14) (size 15 to 20)
#    0.000    1.750    3.750    3.000    0.000    3.000 
#    0.000    5.000    0.000    0.000    0.000    0.000 
#    0.000    0.000    0.000    0.000    0.000    0.000 
#
# Total GULP energy -178284.429436 kJ/mol
# GULP energy per Si atom -5571.388420 kJ/mol
# Density = 1.776687 g / cm^3
# Si number density = 17.807404 Si / 1000 Ang^3
#
#
#
# Elastic Constant Matrix: (Units=GPa)
#
#
# Indices 1 2 3 4 5 6 
#
# 1 111.2259 52.9714 47.8445 0.0000 7.7766 0.0000
# 2 52.9714 110.6110 29.7186 0.0000 2.9862 0.0000
# 3 47.8445 29.7186 42.9276 0.0000 -3.8779 0.0000
# 4 0.0000 0.0000 0.0000 17.7310 0.0000 -3.2187
# 5 7.7766 2.9862 -3.8779 0.0000 31.5017 0.0000
# 6 0.0000 0.0000 0.0000 -3.2187 0.0000 13.6761
#
#
#
# Elastic Compliance Matrix: (Units=1/GPa)
#
#
# Indices 1 2 3 4 5 6 
#
# 1 0.020119 -0.003989 -0.020302 0.000000 -0.007088 0.000000
# 2 -0.003989 0.012026 -0.003938 0.000000 -0.000640 0.000000
# 3 -0.020302 -0.003938 0.049688 0.000000 0.011502 0.000000
# 4 0.000000 0.000000 0.000000 0.058916 0.000000 0.013866
# 5 -0.007088 -0.000640 0.011502 0.000000 0.034971 0.000000
# 6 0.000000 0.000000 0.000000 0.013866 0.000000 0.076384
#
#
# Mechanical properties :
#
#
# Convention : Reuss Voigt Hill
#
# Bulk Modulus (GPa) = 39.40843 58.42596 48.91720
# Shear Modulus (GPa) = 15.77188 21.53043 18.65115
#
# Velocity S-wave (km/s) = 2.97929 3.48094 3.23984
# Velocity P-wave (km/s) = 5.83209 7.00265 6.44400
#
# Compressibility (1/GPa) = 0.02537528
#
# Stress axis : x y z
#
# Youngs Moduli (GPa) = 49.70386 83.15160 20.12560
#
# Poissons Ratio (x) = 0.33168 0.40860
# Poissons Ratio (y) = 0.19826 0.07925
# Poissons Ratio (z) = 1.00911 0.32743
#
# Static dielectric constant tensor:
#      x y z
#    x 1.621520 0.000000 -0.029130 
#    y 0.000000 1.637850 0.000000 
#    z -0.029130 0.000000 1.647350 
# 
# From -- ./inp_files/59612.got.cif
#   From: 2010.05.17/outbox.cif.g08.bks.cpg/sg11_30_cif.got.tgz:59612.got - 2010.06.03 12:22:45.
