data_PCOD9156803
_publ_section_title
;
Structure prediction by ZEFSAII (Michael W. Deem and Ramdas Pophale) SiO2 
 PCOD9156803
Probable space group: P 21/M
;
_chemical_formula_sum "Si O2"
_cell_formula_units_Z 28
_cell_length_a 31.954711
_cell_length_b 9.130361
_cell_length_c 9.805191
_cell_angle_alpha 90.000000
_cell_angle_beta 34.524818
_cell_angle_gamma 90.000000
_cell_volume 1621.363953
_symmetry_space_group_name_H-M "P 21/M"
_symmetry_group_IT_number 11
_symmetry_cell_setting 'monoclinic'
loop_
_space_group_symop_operation_xyz
x,y,z
-x,1/2+y,-z
-x,-y,-z
x,1/2-y,z
loop_
_atom_site_type_symbol
_atom_site_label
_atom_site_fract_x
_atom_site_fract_y
_atom_site_fract_z
Si Si1 0.201003 0.577461 0.174235
Si Si2 0.593862 0.075885 0.133284
Si Si3 0.078853 0.576566 0.280591
Si Si4 0.683799 0.923948 0.332160
Si Si5 0.449384 0.923929 0.436947
Si Si6 0.764055 0.424751 0.614751
Si Si7 0.195635 0.424688 0.769558
O O1 0.222465 0.750000 0.105385
O O2 0.124778 0.557660 0.297964
O O3 0.198595 0.542026 0.339981
O O4 0.262501 0.483467 0.931305
O O5 0.581999 0.250000 0.148583
O O6 0.582474 0.043694 0.324980
O O7 0.531507 0.989201 0.218473
O O8 0.677048 0.041481 0.866421
O O9 0.071383 0.750000 0.275829
O O10 0.000000 0.500000 0.500000
O O11 0.129959 0.503251 0.027912
O O12 0.674887 0.750000 0.344469
O O13 0.728610 0.957089 0.350423
O O14 0.605699 0.002363 0.522356
O O15 0.450523 0.750000 0.416241
O O16 0.770858 0.250000 0.571553
O O17 0.797096 0.513666 0.401217
O O18 0.184779 0.250000 0.800986
#
# Coordination Sequence:
#
# PCOD9156803 Si02
#       7
#     4   4   4   4   4   4   4
#     4   9  18  34  56  81 106 137 177 217 260 312
#     4   9  18  31  48  73 105 137 173 223 272 316
#     4  10  20  37  62  86 111 140 172 213 259 311
#     4  10  19  32  51  75 104 138 179 225 265 310
#     4  10  18  30  49  74 103 136 180 227 269 315
#     4  10  19  35  55  78 108 140 176 218 268 318
#     4  10  22  37  54  80 111 141 177 217 261 315
#
# _framework density 17.269410000000001
#
# number of rings (size 3 to 8) (size 9 to 14) (size 15 to 20)
#    0.000    2.286    1.429    1.714    0.000    4.000 
#    0.000    1.429    0.000    0.000    0.000    0.000 
#    0.000    0.000    0.000    0.000    0.000    0.000 
#
# Total GULP energy -156251.824164 kJ/mol
# GULP energy per Si atom -5580.422292 kJ/mol
# Density = 1.723010 g / cm^3
# Si number density = 17.269410 Si / 1000 Ang^3
#
#
#
# Elastic Constant Matrix: (Units=GPa)
#
#
# Indices 1 2 3 4 5 6 
#
# 1 88.2337 52.7338 53.5798 0.0000 2.8296 0.0000
# 2 52.7338 57.5766 42.6550 0.0000 -1.9712 0.0000
# 3 53.5798 42.6550 73.4685 0.0000 0.9496 0.0000
# 4 0.0000 0.0000 0.0000 30.0303 0.0000 -2.3365
# 5 2.8296 -1.9712 0.9496 0.0000 28.0841 0.0000
# 6 0.0000 0.0000 0.0000 -2.3365 0.0000 25.6251
#
#
#
# Elastic Compliance Matrix: (Units=1/GPa)
#
#
# Indices 1 2 3 4 5 6 
#
# 1 0.029081 -0.019472 -0.009852 0.000000 -0.003964 0.000000
# 2 -0.019472 0.043727 -0.011257 0.000000 0.005412 0.000000
# 3 -0.009852 -0.011257 0.027341 0.000000 -0.000722 0.000000
# 4 0.000000 0.000000 0.000000 0.033538 0.000000 0.003058
# 5 -0.003964 0.005412 -0.000722 0.000000 0.036411 0.000000
# 6 0.000000 0.000000 0.000000 0.003058 0.000000 0.039303
#
#
# Mechanical properties :
#
#
# Convention : Reuss Voigt Hill
#
# Bulk Modulus (GPa) = 52.66544 57.46843 55.06694
# Shear Modulus (GPa) = 16.84125 21.43525 19.13825
#
# Velocity S-wave (km/s) = 3.12622 3.52693 3.33260
# Velocity P-wave (km/s) = 6.60254 7.06650 6.83846
#
# Compressibility (1/GPa) = 0.01898778
#
# Stress axis : x y z
#
# Youngs Moduli (GPa) = 34.38710 22.86930 36.57502
#
# Poissons Ratio (x) = 0.44530 0.36034
# Poissons Ratio (y) = 0.66957 0.41171
# Poissons Ratio (z) = 0.33878 0.25743
#
# Static dielectric constant tensor:
#      x y z
#    x 1.593020 0.000000 -0.000580 
#    y 0.000000 1.573160 0.000000 
#    z -0.000580 0.000000 1.551880 
# 
# From -- ./inp_files/28294.got.cif
#   From: 2010.05.17/outbox.cif.g08.bks.cpg/sg11_15_cif.got.tgz:28294.got - 2010.06.03 12:22:45.
