data_PCOD9156021
_publ_section_title
;
Structure prediction by ZEFSAII (Michael W. Deem and Ramdas Pophale) SiO2 
 PCOD9156021
Probable space group: P 21/M
;
_chemical_formula_sum "Si O2"
_cell_formula_units_Z 28
_cell_length_a 14.782271
_cell_length_b 7.754645
_cell_length_c 14.961749
_cell_angle_alpha 90.000000
_cell_angle_beta 60.933073
_cell_angle_gamma 90.000000
_cell_volume 1499.074156
_symmetry_space_group_name_H-M "P 21/M"
_symmetry_group_IT_number 11
_symmetry_cell_setting 'monoclinic'
loop_
_space_group_symop_operation_xyz
x,y,z
-x,1/2+y,-z
-x,-y,-z
x,1/2-y,z
loop_
_atom_site_type_symbol
_atom_site_label
_atom_site_fract_x
_atom_site_fract_y
_atom_site_fract_z
Si Si1 0.905942 0.048761 0.611879
Si Si2 0.699760 0.052135 0.224216
Si Si3 0.735228 0.542280 0.558869
Si Si4 0.065637 0.540691 0.202656
Si Si5 0.511168 0.541245 0.600248
Si Si6 0.172605 0.457046 0.672126
Si Si7 0.113273 0.958607 0.986522
O O1 0.922029 0.250000 0.617515
O O2 0.907118 0.972240 0.711653
O O3 0.796662 0.018532 0.616004
O O4 0.000000 0.000000 0.500000
O O5 0.684434 0.250000 0.202064
O O6 0.586446 0.974258 0.295435
O O7 0.789391 0.974738 0.118188
O O8 0.750067 0.048215 0.298243
O O9 0.732324 0.750000 0.564520
O O10 0.619759 0.481503 0.590458
O O11 0.804990 0.493605 0.440107
O O12 0.077219 0.750000 0.197743
O O13 0.944487 0.503445 0.247207
O O14 0.120348 0.479843 0.085836
O O15 0.500000 0.500000 0.500000
O O16 0.510239 0.750000 0.605182
O O17 0.188467 0.250000 0.672256
O O18 0.118529 0.750000 0.982806
O O19 0.000000 0.000000 0.000000
#
# Coordination Sequence:
#
# PCOD9156021 Si02
#       7
#     4   4   4   4   4   4   4
#     4  11  21  34  52  74  99 130 167 206 248 298
#     4  10  20  31  47  76 104 128 166 209 244 287
#     4  10  20  34  49  70 101 136 166 200 248 298
#     4   9  18  32  48  68  98 132 162 192 241 300
#     4  10  20  33  50  73 103 134 167 205 250 298
#     4  10  17  29  49  71 100 135 164 194 241 301
#     4  10  19  32  50  72 100 131 164 201 245 296
#
# _framework density 18.678194000000001
#
# number of rings (size 3 to 8) (size 9 to 14) (size 15 to 20)
#    0.000    2.000    4.286    0.429    0.000    1.143 
#    0.000    1.429    0.000    0.857    0.000    0.000 
#    0.000    0.000    0.000    0.000    0.000    0.143 
#
# Total GULP energy -156093.849192 kJ/mol
# GULP energy per Si atom -5574.780328 kJ/mol
# Density = 1.863568 g / cm^3
# Si number density = 18.678194 Si / 1000 Ang^3
#
#
#
# Elastic Constant Matrix: (Units=GPa)
#
#
# Indices 1 2 3 4 5 6 
#
# 1 80.7227 1.0961 46.7553 0.0000 2.7968 0.0000
# 2 1.0961 24.5701 3.7109 0.0000 -3.4574 0.0000
# 3 46.7553 3.7109 113.9371 0.0000 -8.0664 0.0000
# 4 0.0000 0.0000 0.0000 9.2691 0.0000 3.0063
# 5 2.7968 -3.4574 -8.0664 0.0000 31.9415 0.0000
# 6 0.0000 0.0000 0.0000 3.0063 0.0000 19.3470
#
#
#
# Elastic Compliance Matrix: (Units=1/GPa)
#
#
# Indices 1 2 3 4 5 6 
#
# 1 0.016571 -0.000134 -0.007025 0.000000 -0.003240 0.000000
# 2 -0.000134 0.041454 -0.000994 0.000000 0.004248 0.000000
# 3 -0.007025 -0.000994 0.011941 0.000000 0.003523 0.000000
# 4 0.000000 0.000000 0.000000 0.113611 0.000000 -0.017654
# 5 -0.003240 0.004248 0.003523 0.000000 0.032940 0.000000
# 6 0.000000 0.000000 0.000000 -0.017654 0.000000 0.054431
#
#
# Mechanical properties :
#
#
# Convention : Reuss Voigt Hill
#
# Bulk Modulus (GPa) = 18.63616 35.81717 27.22666
# Shear Modulus (GPa) = 16.38580 23.28936 19.83758
#
# Velocity S-wave (km/s) = 2.96509 3.53494 3.26248
# Velocity P-wave (km/s) = 4.66063 5.98988 5.36657
#
# Compressibility (1/GPa) = 0.05365911
#
# Stress axis : x y z
#
# Youngs Moduli (GPa) = 60.34578 24.12328 83.74211
#
# Poissons Ratio (x) = 0.00323 0.58830
# Poissons Ratio (y) = 0.00809 0.08327
# Poissons Ratio (z) = 0.42394 0.02399
#
# Static dielectric constant tensor:
#      x y z
#    x 1.634680 0.000000 -0.006520 
#    y 0.000000 1.663000 0.000000 
#    z -0.006520 0.000000 1.679530 
# 
# From -- ./inp_files/51100.got.cif
#   From: 2010.05.17/outbox.cif.g08.bks.cpg/sg11_26_cif.got.tgz:51100.got - 2010.06.03 12:22:45.
