data_PCOD9156273
_publ_section_title
;
Structure prediction by ZEFSAII (Michael W. Deem and Ramdas Pophale) SiO2 
 PCOD9156273
Probable space group: P 21/M
;
_chemical_formula_sum "Si O2"
_cell_formula_units_Z 28
_cell_length_a 12.379141
_cell_length_b 8.982906
_cell_length_c 26.542287
_cell_angle_alpha 90.000000
_cell_angle_beta 37.061510
_cell_angle_gamma 90.000000
_cell_volume 1778.798516
_symmetry_space_group_name_H-M "P 21/M"
_symmetry_group_IT_number 11
_symmetry_cell_setting 'monoclinic'
loop_
_space_group_symop_operation_xyz
x,y,z
-x,1/2+y,-z
-x,-y,-z
x,1/2-y,z
loop_
_atom_site_type_symbol
_atom_site_label
_atom_site_fract_x
_atom_site_fract_y
_atom_site_fract_z
Si Si1 0.330671 0.426678 0.535987
Si Si2 0.561795 0.925614 0.056982
Si Si3 0.995559 0.576195 0.711874
Si Si4 0.753114 0.927465 0.890057
Si Si5 0.812564 0.426740 0.508570
Si Si6 0.796828 0.073588 0.630447
Si Si7 0.373454 0.424696 0.214677
O O1 0.500000 0.500000 0.500000
O O2 0.348307 0.250000 0.527796
O O3 0.151947 0.474141 0.632835
O O4 0.304545 0.492376 0.489764
O O5 0.554253 0.750000 0.069699
O O6 0.394852 0.974580 0.083734
O O7 0.529638 0.013335 0.120495
O O8 0.732046 0.957189 0.957342
O O9 0.048177 0.750000 0.687305
O O10 0.936689 0.547226 0.791566
O O11 0.813922 0.555977 0.746648
O O12 0.710485 0.750000 0.898527
O O13 0.816896 0.250000 0.497380
O O14 0.750010 0.452072 0.589291
O O15 0.014754 0.490208 0.430063
O O16 0.823496 0.250000 0.627727
O O17 0.654185 0.011759 0.723157
O O18 0.396335 0.250000 0.215056
#
# Coordination Sequence:
#
# PCOD9156273 Si02
#       7
#     4   4   4   4   4   4   4
#     4  12  24  36  51  68  90 121 159 198 237 277
#     4   9  15  23  37  58  85 116 152 185 218 267
#     4   9  17  30  45  62  87 118 154 192 232 273
#     4   8  15  26  39  56  82 117 149 184 226 267
#     4  10  20  34  49  68  93 119 151 193 236 276
#     4  10  19  30  48  70  92 121 156 190 227 276
#     4  10  18  27  42  63  93 125 152 187 228 269
#
# _framework density 15.740962
#
# number of rings (size 3 to 8) (size 9 to 14) (size 15 to 20)
#    0.000    2.286    1.429    3.857    0.000    4.571 
#    0.000    0.000    0.000    0.000    0.000    0.000 
#    0.000    1.143    0.000    3.429    0.000    4.857 
#
# Total GULP energy -156018.992317 kJ/mol
# GULP energy per Si atom -5572.106868 kJ/mol
# Density = 1.570513 g / cm^3
# Si number density = 15.740962 Si / 1000 Ang^3
#
#
#
# Elastic Constant Matrix: (Units=GPa)
#
#
# Indices 1 2 3 4 5 6 
#
# 1 67.8085 48.8449 35.2689 0.0000 15.5514 0.0000
# 2 48.8449 96.2499 48.5816 0.0000 17.1795 0.0000
# 3 35.2689 48.5816 81.0676 0.0000 37.2098 0.0000
# 4 0.0000 0.0000 0.0000 25.6086 0.0000 5.3179
# 5 15.5514 17.1795 37.2098 0.0000 24.7195 0.0000
# 6 0.0000 0.0000 0.0000 5.3179 0.0000 19.6254
#
#
#
# Elastic Compliance Matrix: (Units=1/GPa)
#
#
# Indices 1 2 3 4 5 6 
#
# 1 0.024553 -0.010515 -0.002086 0.000000 -0.004999 0.000000
# 2 -0.010515 0.020200 -0.013341 0.000000 0.012659 0.000000
# 3 -0.002086 -0.013341 0.052995 0.000000 -0.069189 0.000000
# 4 0.000000 0.000000 0.000000 0.041378 0.000000 -0.011212
# 5 -0.004999 0.012659 -0.069189 0.000000 0.138950 0.000000
# 6 0.000000 0.000000 0.000000 -0.011212 0.000000 0.053992
#
#
# Mechanical properties :
#
#
# Convention : Reuss Voigt Hill
#
# Bulk Modulus (GPa) = 21.80350 56.72409 39.26380
# Shear Modulus (GPa) = 12.52376 21.48609 17.00492
#
# Velocity S-wave (km/s) = 2.82373 3.69857 3.29035
# Velocity P-wave (km/s) = 4.95104 7.37248 6.27958
#
# Compressibility (1/GPa) = 0.04586420
#
# Stress axis : x y z
#
# Youngs Moduli (GPa) = 40.72767 49.50438 18.86961
#
# Poissons Ratio (x) = 0.52054 0.03937
# Poissons Ratio (y) = 0.42826 0.25174
# Poissons Ratio (z) = 0.08497 0.66044
#
# Static dielectric constant tensor:
#      x y z
#    x 1.506300 0.000000 0.041860 
#    y 0.000000 1.512720 0.000000 
#    z 0.041860 0.000000 1.562990 
# 
# From -- ./inp_files/69383.got.cif
#   From: 2010.05.17/outbox.cif.g08.bks.cpg/sg11_35_cif.got.tgz:69383.got - 2010.06.03 12:22:45.
