data_PCOD9156714
_publ_section_title
;
Structure prediction by ZEFSAII (Michael W. Deem and Ramdas Pophale) SiO2 
 PCOD9156714
Probable space group: P 21/M
;
_chemical_formula_sum "Si O2"
_cell_formula_units_Z 28
_cell_length_a 13.669681
_cell_length_b 8.992479
_cell_length_c 17.724808
_cell_angle_alpha 90.000000
_cell_angle_beta 125.579916
_cell_angle_gamma 90.000000
_cell_volume 1772.036519
_symmetry_space_group_name_H-M "P 21/M"
_symmetry_group_IT_number 11
_symmetry_cell_setting 'monoclinic'
loop_
_space_group_symop_operation_xyz
x,y,z
-x,1/2+y,-z
-x,-y,-z
x,1/2-y,z
loop_
_atom_site_type_symbol
_atom_site_label
_atom_site_fract_x
_atom_site_fract_y
_atom_site_fract_z
Si Si1 0.068598 0.072339 0.461004
Si Si2 0.349113 0.427410 0.567598
Si Si3 0.963907 0.077539 0.711789
Si Si4 0.814711 0.927858 0.909549
Si Si5 0.033802 0.572730 0.895208
Si Si6 0.581449 0.571895 0.713595
Si Si7 0.323892 0.923200 0.396687
O O1 0.055199 0.250000 0.455500
O O2 0.211784 0.038410 0.528966
O O3 0.021179 0.006994 0.360545
O O4 0.000000 0.000000 0.500000
O O5 0.363404 0.250000 0.571555
O O6 0.450396 0.500862 0.665235
O O7 0.366400 0.495511 0.491720
O O8 0.997779 0.250000 0.719153
O O9 0.821152 0.071219 0.666020
O O10 0.029701 0.002637 0.811887
O O11 0.822063 0.750000 0.925172
O O12 0.681379 0.965216 0.821293
O O13 0.910245 0.963510 0.885554
O O14 0.860478 0.012016 0.003969
O O15 0.039973 0.750000 0.890487
O O16 0.573308 0.750000 0.704484
O O17 0.631030 0.505424 0.657414
O O18 0.361082 0.750000 0.413447
#
# Coordination Sequence:
#
# PCOD9156714 Si02
#       7
#     4   4   4   4   4   4   4
#     4  10  21  37  56  76  99 124 157 202 249 295
#     4  10  21  34  48  68  95 126 160 198 240 290
#     4  10  19  31  50  73  99 130 165 202 244 292
#     4   9  19  31  44  65  96 133 170 206 242 280
#     4  10  18  30  47  68  96 130 169 208 244 283
#     4  11  20  31  46  66  96 132 167 202 238 281
#     4  10  19  30  45  66  94 130 167 200 235 281
#
# _framework density 15.801030000000001
#
# number of rings (size 3 to 8) (size 9 to 14) (size 15 to 20)
#    0.000    2.000    1.429    3.000    0.000    4.571 
#    0.000    0.000    0.000    0.000    0.000    1.000 
#    0.000    0.000    0.000    0.000    0.000    0.000 
#
# Total GULP energy -156283.720796 kJ/mol
# GULP energy per Si atom -5581.561457 kJ/mol
# Density = 1.576507 g / cm^3
# Si number density = 15.801030 Si / 1000 Ang^3
#
#
#
# Elastic Constant Matrix: (Units=GPa)
#
#
# Indices 1 2 3 4 5 6 
#
# 1 62.3101 45.1191 59.3491 0.0000 -7.5441 0.0000
# 2 45.1191 84.5524 74.5191 0.0000 1.4441 0.0000
# 3 59.3491 74.5191 144.4439 0.0000 6.1727 0.0000
# 4 0.0000 0.0000 0.0000 31.4826 0.0000 -0.3280
# 5 -7.5441 1.4441 6.1727 0.0000 21.3988 0.0000
# 6 0.0000 0.0000 0.0000 -0.3280 0.0000 23.1135
#
#
#
# Elastic Compliance Matrix: (Units=1/GPa)
#
#
# Indices 1 2 3 4 5 6 
#
# 1 0.034422 -0.010238 -0.009527 0.000000 0.015575 0.000000
# 2 -0.010238 0.024801 -0.008467 0.000000 -0.002841 0.000000
# 3 -0.009527 -0.008467 0.015516 0.000000 -0.007263 0.000000
# 4 0.000000 0.000000 0.000000 0.031768 0.000000 0.000451
# 5 0.015575 -0.002841 -0.007263 0.000000 0.054509 0.000000
# 6 0.000000 0.000000 0.000000 0.000451 0.000000 0.043271
#
#
# Mechanical properties :
#
#
# Convention : Reuss Voigt Hill
#
# Bulk Modulus (GPa) = 54.71884 72.14233 63.43059
# Shear Modulus (GPa) = 18.73758 22.68693 20.71225
#
# Velocity S-wave (km/s) = 3.44735 3.79329 3.62445
# Velocity P-wave (km/s) = 7.10990 8.05861 7.59908
#
# Compressibility (1/GPa) = 0.01827524
#
# Stress axis : x y z
#
# Youngs Moduli (GPa) = 29.05108 40.32125 64.44895
#
# Poissons Ratio (x) = 0.41280 0.61402
# Poissons Ratio (y) = 0.29742 0.54569
# Poissons Ratio (z) = 0.27678 0.34140
#
# Static dielectric constant tensor:
#      x y z
#    x 1.515430 0.000000 0.027970 
#    y 0.000000 1.524760 0.000000 
#    z 0.027970 0.000000 1.521860 
# 
# From -- ./inp_files/37701.got.cif
#   From: 2010.05.17/outbox.cif.g08.bks.cpg/sg11_19_cif.got.tgz:37701.got - 2010.06.03 12:22:45.
