data_PCOD9156064
_publ_section_title
;
Structure prediction by ZEFSAII (Michael W. Deem and Ramdas Pophale) SiO2 
 PCOD9156064
Probable space group: P 21/M
;
_chemical_formula_sum "Si O2"
_cell_formula_units_Z 24
_cell_length_a 9.418607
_cell_length_b 11.337727
_cell_length_c 13.338565
_cell_angle_alpha 90.000000
_cell_angle_beta 43.840495
_cell_angle_gamma 90.000000
_cell_volume 986.591969
_symmetry_space_group_name_H-M "P 21/M"
_symmetry_group_IT_number 11
_symmetry_cell_setting 'monoclinic'
loop_
_space_group_symop_operation_xyz
x,y,z
-x,1/2+y,-z
-x,-y,-z
x,1/2-y,z
loop_
_atom_site_type_symbol
_atom_site_label
_atom_site_fract_x
_atom_site_fract_y
_atom_site_fract_z
Si Si1 0.106227 0.508315 0.837284
Si Si2 0.835861 0.750000 0.217181
Si Si3 0.898010 0.750000 0.939708
Si Si4 0.094775 0.521570 0.563776
Si Si5 0.621972 0.250000 0.564910
Si Si6 0.657114 0.996703 0.828888
Si Si7 0.530869 0.887943 0.680013
Si Si8 0.437416 0.750000 0.173755
O O1 0.075720 0.380346 0.800790
O O2 0.348112 0.532059 0.729600
O O3 0.016340 0.632901 0.847701
O O4 0.000000 0.500000 0.000000
O O5 0.598497 0.750000 0.376728
O O6 0.873988 0.750000 0.074874
O O7 0.667286 0.750000 0.014006
O O8 0.236804 0.634859 0.512647
O O9 0.258709 0.415554 0.485900
O O10 0.000000 0.500000 0.500000
O O11 0.887610 0.542018 0.730559
O O12 0.541851 0.250000 0.718874
O O13 0.565448 0.929217 0.778463
O O14 0.681695 0.133814 0.791245
O O15 0.500000 0.000000 0.000000
O O16 0.478021 0.750000 0.704320
#
# Coordination Sequence:
#
# PCOD9156064 Si02
#       8
#     4   2   2   4   2   4   4   2
#     4  10  17  30  50  83 116 140 176 228 293 332
#     4   9  16  26  45  73 116 141 166 216 276 340
#     4   9  18  30  52  81 113 143 178 234 298 336
#     4  10  21  32  54  77 109 145 188 231 280 325
#     4  11  16  33  52  76 108 148 176 225 286 315
#     4  11  25  37  54  79 113 156 189 222 275 345
#     4  11  21  34  54  86 115 138 185 244 275 321
#     4  11  20  39  57  76 119 148 186 233 286 335
#
# _framework density 24.326167000000002
#
# number of rings (size 3 to 8) (size 9 to 14) (size 15 to 20)
#    0.000    1.667    5.833    2.000    7.000    0.000 
#    0.000    0.000    0.000    0.000    0.000    4.667 
#    0.000    0.000    0.000    0.000    0.000    0.000 
#
# Total GULP energy -133963.742919 kJ/mol
# GULP energy per Si atom -5581.822622 kJ/mol
# Density = 2.427080 g / cm^3
# Si number density = 24.326167 Si / 1000 Ang^3
#
#
#
# Elastic Constant Matrix: (Units=GPa)
#
#
# Indices 1 2 3 4 5 6 
#
# 1 48.7472 20.5196 30.9187 0.0000 2.5547 0.0000
# 2 20.5196 179.4872 16.9624 0.0000 -9.1923 0.0000
# 3 30.9187 16.9624 143.4849 0.0000 -17.9906 0.0000
# 4 0.0000 0.0000 0.0000 74.0158 0.0000 -82.5102
# 5 2.5547 -9.1923 -17.9906 0.0000 37.3486 0.0000
# 6 0.0000 0.0000 0.0000 -82.5102 0.0000 90.2955
#
#
#
# Elastic Compliance Matrix: (Units=1/GPa)
#
#
# Indices 1 2 3 4 5 6 
#
# 1 0.025619 -0.002642 -0.005864 0.000000 -0.005227 0.000000
# 2 -0.002642 0.005952 0.000077 0.000000 0.001683 0.000000
# 3 -0.005864 0.000077 0.008808 0.000000 0.004663 0.000000
# 4 0.000000 0.000000 0.000000 -0.724448 0.000000 -0.661986
# 5 -0.005227 0.001683 0.004663 0.000000 0.029793 0.000000
# 6 0.000000 0.000000 0.000000 -0.661986 0.000000 -0.593835
#
#
# Mechanical properties :
#
#
# Convention : Reuss Voigt Hill
#
# Bulk Modulus (GPa) = 42.51411 56.50228 49.50820
# Shear Modulus (GPa) = -4.08693 60.55323 28.23315
#
# Velocity S-wave (km/s) = -1.29758 4.99462 3.41047
# Velocity P-wave (km/s) = 3.90765 7.51925 5.99203
#
# Compressibility (1/GPa) = 0.02352160
#
# Stress axis : x y z
#
# Youngs Moduli (GPa) = 39.03302 167.99789 113.52721
#
# Poissons Ratio (x) = 0.44393 0.66567
# Poissons Ratio (y) = 0.10314 -0.00871
# Poissons Ratio (z) = 0.22887 -0.01289
#
# Static dielectric constant tensor:
#      x y z
#    x 2.010700 0.000000 0.021010 
#    y 0.000000 1.902980 0.000000 
#    z 0.021010 0.000000 2.027540 
# 
# From -- ./inp_files/59145.got.cif
#   From: 2010.05.17/outbox.cif.g08.bks.cpg/sg11_30_cif.got.tgz:59145.got - 2010.06.03 12:22:45.
