data_PCOD9156570
_publ_section_title
;
Structure prediction by ZEFSAII (Michael W. Deem and Ramdas Pophale) SiO2 
 PCOD9156570
Probable space group: P 21/M
;
_chemical_formula_sum "Si O2"
_cell_formula_units_Z 28
_cell_length_a 11.698707
_cell_length_b 7.644201
_cell_length_c 17.062295
_cell_angle_alpha 90.000000
_cell_angle_beta 119.421630
_cell_angle_gamma 90.000000
_cell_volume 1329.045156
_symmetry_space_group_name_H-M "P 21/M"
_symmetry_group_IT_number 11
_symmetry_cell_setting 'monoclinic'
loop_
_space_group_symop_operation_xyz
x,y,z
-x,1/2+y,-z
-x,-y,-z
x,1/2-y,z
loop_
_atom_site_type_symbol
_atom_site_label
_atom_site_fract_x
_atom_site_fract_y
_atom_site_fract_z
Si Si1 0.829587 0.458244 0.122872
Si Si2 0.599666 0.463853 0.157370
Si Si3 0.304860 0.460099 0.076105
Si Si4 0.886705 0.955243 0.523379
Si Si5 0.904233 0.534616 0.705847
Si Si6 0.670333 0.963747 0.737827
Si Si7 0.623323 0.040183 0.343905
O O1 0.830637 0.250000 0.135385
O O2 0.704374 0.527745 0.129434
O O3 0.966010 0.523856 0.204016
O O4 0.804454 0.489247 0.023035
O O5 0.598769 0.250000 0.154878
O O6 0.449077 0.521776 0.095615
O O7 0.640848 0.517145 0.259404
O O8 0.309786 0.250000 0.079950
O O9 0.288210 0.518587 0.160240
O O10 0.895073 0.750000 0.537024
O O11 0.905632 0.030108 0.616837
O O12 0.745339 0.994648 0.438894
O O13 0.000000 0.000000 0.500000
O O14 0.904209 0.750000 0.706299
O O15 0.773708 0.478727 0.707886
O O16 0.670133 0.750000 0.737084
O O17 0.519700 0.021566 0.675515
O O18 0.616782 0.250000 0.338624
#
# Coordination Sequence:
#
# PCOD9156570 Si02
#       7
#     4   4   4   4   4   4   4
#     4  10  18  29  47  69  96 131 169 206 245 291
#     4   8  15  29  48  70  97 132 167 198 244 306
#     4   9  17  30  49  71  96 127 166 209 249 293
#     4  11  22  36  55  78 104 132 165 205 250 300
#     4   9  19  34  51  72 100 136 172 203 243 304
#     4   8  16  33  54  74  99 134 171 202 243 303
#     4   9  17  33  57  78  99 131 169 207 247 295
#
# _framework density 21.067758000000001
#
# number of rings (size 3 to 8) (size 9 to 14) (size 15 to 20)
#    0.000    2.857    0.000    3.429    0.000    3.429 
#    0.000    6.429    0.000    3.429    0.000    0.000 
#    0.000    0.000    0.000    0.000    0.000    0.000 
#
# Total GULP energy -156271.171137 kJ/mol
# GULP energy per Si atom -5581.113255 kJ/mol
# Density = 2.101981 g / cm^3
# Si number density = 21.067758 Si / 1000 Ang^3
#
#
#
# Elastic Constant Matrix: (Units=GPa)
#
#
# Indices 1 2 3 4 5 6 
#
# 1 139.2081 3.8892 108.9323 0.0000 -13.1033 0.0000
# 2 3.8892 34.4459 0.3085 0.0000 -1.0488 0.0000
# 3 108.9323 0.3085 183.3141 0.0000 16.6234 0.0000
# 4 0.0000 0.0000 0.0000 16.8614 0.0000 -6.3773
# 5 -13.1033 -1.0488 16.6234 0.0000 22.0798 0.0000
# 6 0.0000 0.0000 0.0000 -6.3773 0.0000 -6.6916
#
#
#
# Elastic Compliance Matrix: (Units=1/GPa)
#
#
# Indices 1 2 3 4 5 6 
#
# 1 0.020567 -0.001497 -0.014296 0.000000 0.022897 0.000000
# 2 -0.001497 0.029188 0.000854 0.000000 -0.000145 0.000000
# 3 -0.014296 0.000854 0.015793 0.000000 -0.020333 0.000000
# 4 0.000000 0.000000 0.000000 0.043594 0.000000 -0.041546
# 5 0.022897 -0.000145 -0.020333 0.000000 0.074180 0.000000
# 6 0.000000 0.000000 0.000000 -0.041546 0.000000 -0.109847
#
#
# Mechanical properties :
#
#
# Convention : Reuss Voigt Hill
#
# Bulk Modulus (GPa) = 28.03515 64.80314 46.41914
# Shear Modulus (GPa) = 43.38671 22.70580 33.04625
#
# Velocity S-wave (km/s) = 4.54297 3.28647 3.96481
# Velocity P-wave (km/s) = 6.39173 6.72513 6.56055
#
# Compressibility (1/GPa) = 0.03566951
#
# Stress axis : x y z
#
# Youngs Moduli (GPa) = 48.62131 34.26067 63.32098
#
# Poissons Ratio (x) = 0.05129 0.90521
# Poissons Ratio (y) = 0.07278 -0.05405
# Poissons Ratio (z) = 0.69507 -0.02924
#
# Static dielectric constant tensor:
#      x y z
#    x 1.727360 0.000000 -0.012950 
#    y 0.000000 1.796270 0.000000 
#    z -0.012950 0.000000 1.751410 
# 
# From -- ./inp_files/49182.got.cif
#   From: 2010.05.17/outbox.cif.g08.bks.cpg/sg11_25_cif.got.tgz:49182.got - 2010.06.03 12:22:45.
