data_PCOD9156314
_publ_section_title
;
Structure prediction by ZEFSAII (Michael W. Deem and Ramdas Pophale) SiO2 
 PCOD9156314
Probable space group: P 21/M
;
_chemical_formula_sum "Si O2"
_cell_formula_units_Z 32
_cell_length_a 11.965099
_cell_length_b 18.695390
_cell_length_c 8.857836
_cell_angle_alpha 90.000000
_cell_angle_beta 63.343335
_cell_angle_gamma 90.000000
_cell_volume 1770.824613
_symmetry_space_group_name_H-M "P 21/M"
_symmetry_group_IT_number 11
_symmetry_cell_setting 'monoclinic'
loop_
_space_group_symop_operation_xyz
x,y,z
-x,1/2+y,-z
-x,-y,-z
x,1/2-y,z
loop_
_atom_site_type_symbol
_atom_site_label
_atom_site_fract_x
_atom_site_fract_y
_atom_site_fract_z
Si Si1 0.641455 0.520306 0.133342
Si Si2 0.494902 0.375517 0.224048
Si Si3 0.111313 0.930535 0.010901
Si Si4 0.487042 0.916807 0.459134
Si Si5 0.994256 0.563777 0.764796
Si Si6 0.759101 0.432205 0.582104
Si Si7 0.730039 0.168947 0.890657
Si Si8 0.741146 0.920035 0.763817
O O1 0.535700 0.459344 0.180489
O O2 0.596600 0.584255 0.268413
O O3 0.767477 0.479149 0.111433
O O4 0.668995 0.549814 0.952801
O O5 0.504102 0.367113 0.399537
O O6 0.353672 0.364488 0.254605
O O7 0.597487 0.336728 0.058964
O O8 0.168170 0.860963 0.053312
O O9 0.028629 0.913042 0.914991
O O10 0.041802 0.980256 0.177782
O O11 0.354234 0.911536 0.459216
O O12 0.500000 0.000000 0.500000
O O13 0.112288 0.575469 0.586443
O O14 0.875798 0.598754 0.752318
O O15 0.740520 0.383917 0.742009
O O16 0.755623 0.514599 0.637955
O O17 0.752272 0.250000 0.831250
#
# Coordination Sequence:
#
# PCOD9156314 Si02
#       8
#     4   4   4   4   4   4   4   4
#     4   9  15  28  45  75 106 135 167 218 278 331
#     4  10  18  32  50  78 102 141 182 221 272 326
#     4   9  19  35  54  78 114 142 182 227 281 331
#     4  10  18  27  51  78 110 136 170 226 283 332
#     4  10  20  32  51  86 115 140 173 237 288 326
#     4  12  19  32  51  84 118 140 182 224 280 332
#     4  11  23  38  56  76 108 153 189 224 266 332
#     4  11  18  28  51  80 114 138 163 221 289 329
#
# _framework density 18.070677
#
# number of rings (size 3 to 8) (size 9 to 14) (size 15 to 20)
#    0.000    1.750    6.250    3.750    0.000    0.000 
#    0.000    2.500    0.000    1.500    0.000    0.000 
#    0.000    0.000    0.000    0.000    0.000    0.000 
#
# Total GULP energy -178214.320991 kJ/mol
# GULP energy per Si atom -5569.197531 kJ/mol
# Density = 1.802955 g / cm^3
# Si number density = 18.070677 Si / 1000 Ang^3
#
#
#
# Elastic Constant Matrix: (Units=GPa)
#
#
# Indices 1 2 3 4 5 6 
#
# 1 123.0071 11.8518 19.5277 0.0000 16.6705 0.0000
# 2 11.8518 22.6964 0.6709 0.0000 -5.1838 0.0000
# 3 19.5277 0.6709 75.9898 0.0000 -1.8071 0.0000
# 4 0.0000 0.0000 0.0000 4.3111 0.0000 -2.6218
# 5 16.6705 -5.1838 -1.8071 0.0000 21.8148 0.0000
# 6 0.0000 0.0000 0.0000 -2.6218 0.0000 4.8520
#
#
#
# Elastic Compliance Matrix: (Units=1/GPa)
#
#
# Indices 1 2 3 4 5 6 
#
# 1 0.010758 -0.007893 -0.002941 0.000000 -0.010341 0.000000
# 2 -0.007893 0.052380 0.002009 0.000000 0.018645 0.000000
# 3 -0.002941 0.002009 0.013990 0.000000 0.003884 0.000000
# 4 0.000000 0.000000 0.000000 0.345494 0.000000 0.186686
# 5 -0.010341 0.018645 0.003884 0.000000 0.058495 0.000000
# 6 0.000000 0.000000 0.000000 0.186686 0.000000 0.306974
#
#
# Mechanical properties :
#
#
# Convention : Reuss Voigt Hill
#
# Bulk Modulus (GPa) = 16.81239 31.75491 24.28365
# Shear Modulus (GPa) = 6.05644 18.83844 12.44744
#
# Velocity S-wave (km/s) = 1.83270 3.23226 2.62739
# Velocity P-wave (km/s) = 3.71514 5.61612 4.76146
#
# Compressibility (1/GPa) = 0.05947993
#
# Stress axis : x y z
#
# Youngs Moduli (GPa) = 92.95114 19.09113 71.47955
#
# Poissons Ratio (x) = 0.15068 0.21021
# Poissons Ratio (y) = 0.73363 -0.14361
# Poissons Ratio (z) = 0.27336 -0.03836
#
# Static dielectric constant tensor:
#      x y z
#    x 1.681500 0.000000 0.001060 
#    y 0.000000 1.633790 0.000000 
#    z 0.001060 0.000000 1.744680 
# 
# From -- ./inp_files/19157.got.cif
#   From: 2010.05.17/outbox.cif.g08.bks.cpg/sg11_10_cif.got.tgz:19157.got - 2010.06.03 12:22:45.
