data_PCOD9156706
_publ_section_title
;
Structure prediction by ZEFSAII (Michael W. Deem and Ramdas Pophale) SiO2 
 PCOD9156706
Probable space group: P 21/M
;
_chemical_formula_sum "Si O2"
_cell_formula_units_Z 24
_cell_length_a 11.815515
_cell_length_b 8.952757
_cell_length_c 21.190331
_cell_angle_alpha 90.000000
_cell_angle_beta 133.965331
_cell_angle_gamma 90.000000
_cell_volume 1613.373427
_symmetry_space_group_name_H-M "P 21/M"
_symmetry_group_IT_number 11
_symmetry_cell_setting 'monoclinic'
loop_
_space_group_symop_operation_xyz
x,y,z
-x,1/2+y,-z
-x,-y,-z
x,1/2-y,z
loop_
_atom_site_type_symbol
_atom_site_label
_atom_site_fract_x
_atom_site_fract_y
_atom_site_fract_z
Si Si1 0.753510 0.924891 0.241431
Si Si2 0.223405 0.427101 0.135231
Si Si3 0.135431 0.571835 0.594572
Si Si4 0.670251 0.428938 0.078026
Si Si5 0.126881 0.571922 0.966854
Si Si6 0.546064 0.576163 0.275504
O O1 0.792036 0.750000 0.249972
O O2 0.588270 0.933510 0.216593
O O3 0.869256 0.006605 0.335709
O O4 0.738110 0.004175 0.168966
O O5 0.249778 0.250000 0.145608
O O6 0.376046 0.508939 0.221271
O O7 0.059867 0.459485 0.107854
O O8 0.195156 0.483558 0.052912
O O9 0.127115 0.750000 0.591288
O O10 0.308038 0.515110 0.638696
O O11 0.000000 0.500000 0.500000
O O12 0.656362 0.250000 0.077671
O O13 0.782693 0.463678 0.062318
O O14 0.500000 0.500000 0.000000
O O15 0.144542 0.750000 0.986079
O O16 0.555684 0.750000 0.296534
#
# Coordination Sequence:
#
# PCOD9156706 Si02
#       6
#     4   4   4   4   4   4
#     4   9  19  32  46  68  97 125 156 194 236 283
#     4  10  18  30  47  66  88 122 165 203 239 282
#     4  10  18  31  50  74 100 126 156 192 240 289
#     4  11  21  32  46  65  94 130 165 201 240 285
#     4   9  20  33  44  62  92 126 162 203 242 279
#     4   9  18  30  46  68  96 123 150 192 239 279
#
# _framework density 14.875664
#
# number of rings (size 3 to 8) (size 9 to 14) (size 15 to 20)
#    1.000    1.333    0.000    4.000    0.000    6.000 
#    0.000    0.000    0.000    0.000    0.000    1.167 
#    0.000    0.000    0.000    0.000    0.000    0.000 
#
# Total GULP energy -133620.209178 kJ/mol
# GULP energy per Si atom -5567.508716 kJ/mol
# Density = 1.484181 g / cm^3
# Si number density = 14.875664 Si / 1000 Ang^3
#
#
#
# Elastic Constant Matrix: (Units=GPa)
#
#
# Indices 1 2 3 4 5 6 
#
# 1 78.9701 55.0252 54.1879 0.0000 3.8110 0.0000
# 2 55.0252 109.4302 67.7961 0.0000 7.0590 0.0000
# 3 54.1879 67.7961 118.0131 0.0000 6.4424 0.0000
# 4 0.0000 0.0000 0.0000 30.0702 0.0000 1.2839
# 5 3.8110 7.0590 6.4424 0.0000 20.6526 0.0000
# 6 0.0000 0.0000 0.0000 1.2839 0.0000 20.8000
#
#
#
# Elastic Compliance Matrix: (Units=1/GPa)
#
#
# Indices 1 2 3 4 5 6 
#
# 1 0.021747 -0.007387 -0.005758 0.000000 0.000308 0.000000
# 2 -0.007387 0.016810 -0.006130 0.000000 -0.002470 0.000000
# 3 -0.005758 -0.006130 0.014718 0.000000 -0.001433 0.000000
# 4 0.000000 0.000000 0.000000 0.033343 0.000000 -0.002058
# 5 0.000308 -0.002470 -0.001433 0.000000 0.049655 0.000000
# 6 0.000000 0.000000 0.000000 -0.002058 0.000000 0.048204
#
#
# Mechanical properties :
#
#
# Convention : Reuss Voigt Hill
#
# Bulk Modulus (GPa) = 67.92249 73.38131 70.65190
# Shear Modulus (GPa) = 21.93599 22.93151 22.43375
#
# Velocity S-wave (km/s) = 3.84425 3.93051 3.88762
# Velocity P-wave (km/s) = 8.09096 8.36872 8.23101
#
# Compressibility (1/GPa) = 0.01472267
#
# Stress axis : x y z
#
# Youngs Moduli (GPa) = 45.98353 59.48818 67.94600
#
# Poissons Ratio (x) = 0.43946 0.39126
# Poissons Ratio (y) = 0.33970 0.41652
# Poissons Ratio (z) = 0.26479 0.36467
#
# Static dielectric constant tensor:
#      x y z
#    x 1.486440 0.000000 0.014820 
#    y 0.000000 1.493700 0.000000 
#    z 0.014820 0.000000 1.477190 
# 
# From -- ./inp_files/68261.got.cif
#   From: 2010.05.17/outbox.cif.g08.bks.cpg/sg11_35_cif.got.tgz:68261.got - 2010.06.03 12:22:45.
