data_PCOD9156249
_publ_section_title
;
Structure prediction by ZEFSAII (Michael W. Deem and Ramdas Pophale) SiO2 
 PCOD9156249
Probable space group: P 21/M
;
_chemical_formula_sum "Si O2"
_cell_formula_units_Z 32
_cell_length_a 27.433502
_cell_length_b 9.113731
_cell_length_c 13.839312
_cell_angle_alpha 90.000000
_cell_angle_beta 147.408982
_cell_angle_gamma 90.000000
_cell_volume 1863.757993
_symmetry_space_group_name_H-M "P 21/M"
_symmetry_group_IT_number 11
_symmetry_cell_setting 'monoclinic'
loop_
_space_group_symop_operation_xyz
x,y,z
-x,1/2+y,-z
-x,-y,-z
x,1/2-y,z
loop_
_atom_site_type_symbol
_atom_site_label
_atom_site_fract_x
_atom_site_fract_y
_atom_site_fract_z
Si Si1 0.106116 0.575321 0.277041
Si Si2 0.595794 0.571387 0.684435
Si Si3 0.243559 0.584829 0.155743
Si Si4 0.051070 0.904700 0.460558
Si Si5 0.696386 0.915335 0.040433
Si Si6 0.865757 0.004601 0.205887
Si Si7 0.103215 0.074862 0.063038
Si Si8 0.195481 0.424104 0.598871
O O1 0.116087 0.750000 0.279957
O O2 0.112214 0.491200 0.185613
O O3 0.180489 0.510360 0.474560
O O4 0.002617 0.549104 0.142209
O O5 0.500000 0.500000 0.500000
O O6 0.594441 0.750000 0.680496
O O7 0.669463 0.510501 0.730836
O O8 0.626874 0.521979 0.845228
O O9 0.267845 0.750000 0.228001
O O10 0.177212 0.504463 0.120020
O O11 0.186298 0.594198 0.961315
O O12 0.080730 0.750000 0.464397
O O13 0.943891 0.915619 0.282761
O O14 0.083661 0.906653 0.625975
O O15 0.101146 0.040613 0.496080
O O16 0.666304 0.750000 0.010815
O O17 0.789596 0.912817 0.134550
O O18 0.727390 0.979244 0.196188
O O19 0.117235 0.250000 0.086026
O O20 0.205979 0.250000 0.601992
#
# Coordination Sequence:
#
# PCOD9156249 Si02
#       8
#     4   4   4   4   4   4   4   4
#     4  10  20  34  51  71  98 133 174 217 256 292
#     4  10  20  36  56  78 104 132 163 201 248 301
#     4  11  21  33  50  72  98 129 166 206 249 296
#     4  10  18  27  40  60  89 126 166 202 237 280
#     4   8  16  30  46  66  94 126 159 195 238 292
#     4   9  18  27  40  61  91 125 161 200 239 280
#     4  10  21  35  50  70  98 134 174 215 256 296
#     4  10  19  30  45  66  93 127 164 202 245 290
#
# _framework density 17.169609999999999
#
# number of rings (size 3 to 8) (size 9 to 14) (size 15 to 20)
#    0.000    2.250    0.000    3.375    0.000    8.500 
#    0.000    1.875    0.000    0.000    0.000    0.875 
#    0.000    0.000    0.000    0.000    0.000    0.000 
#
# Total GULP energy -178145.430169 kJ/mol
# GULP energy per Si atom -5567.044693 kJ/mol
# Density = 1.713053 g / cm^3
# Si number density = 17.169610 Si / 1000 Ang^3
#
#
#
# Elastic Constant Matrix: (Units=GPa)
#
#
# Indices 1 2 3 4 5 6 
#
# 1 61.9611 29.8364 33.7228 0.0000 -6.9126 0.0000
# 2 29.8364 92.0661 33.7516 0.0000 -1.3992 0.0000
# 3 33.7228 33.7516 116.2318 0.0000 -8.2238 0.0000
# 4 0.0000 0.0000 0.0000 13.6610 0.0000 -0.3489
# 5 -6.9126 -1.3992 -8.2238 0.0000 23.9153 0.0000
# 6 0.0000 0.0000 0.0000 -0.3489 0.0000 16.6880
#
#
#
# Elastic Compliance Matrix: (Units=1/GPa)
#
#
# Indices 1 2 3 4 5 6 
#
# 1 0.021590 -0.005313 -0.004409 0.000000 0.004413 0.000000
# 2 -0.005313 0.013470 -0.002483 0.000000 -0.001602 0.000000
# 3 -0.004409 -0.002483 0.010765 0.000000 0.002282 0.000000
# 4 0.000000 0.000000 0.000000 0.073240 0.000000 0.001531
# 5 0.004413 -0.001602 0.002282 0.000000 0.043781 0.000000
# 6 0.000000 0.000000 0.000000 0.001531 0.000000 0.059955
#
#
# Mechanical properties :
#
#
# Convention : Reuss Voigt Hill
#
# Bulk Modulus (GPa) = 46.69821 51.65340 49.17581
# Shear Modulus (GPa) = 19.65800 22.38273 21.02037
#
# Velocity S-wave (km/s) = 3.38735 3.61449 3.50276
# Velocity P-wave (km/s) = 6.52350 6.89702 6.71286
#
# Compressibility (1/GPa) = 0.02141410
#
# Stress axis : x y z
#
# Youngs Moduli (GPa) = 46.31864 74.24098 92.89249
#
# Poissons Ratio (x) = 0.39447 0.40954
# Poissons Ratio (y) = 0.24611 0.23066
# Poissons Ratio (z) = 0.20421 0.18435
#
# Static dielectric constant tensor:
#      x y z
#    x 1.586240 0.000000 -0.038610 
#    y 0.000000 1.621020 0.000000 
#    z -0.038610 0.000000 1.605710 
# 
# From -- ./inp_files/56482.got.cif
#   From: 2010.05.17/outbox.cif.g08.bks.cpg/sg11_29_cif.got.tgz:56482.got - 2010.06.03 12:22:45.
