data_PCOD9156655
_publ_section_title
;
Structure prediction by ZEFSAII (Michael W. Deem and Ramdas Pophale) SiO2 
 PCOD9156655
Probable space group: P 21/M
;
_chemical_formula_sum "Si O2"
_cell_formula_units_Z 32
_cell_length_a 20.874206
_cell_length_b 8.385093
_cell_length_c 12.621365
_cell_angle_alpha 90.000000
_cell_angle_beta 54.055194
_cell_angle_gamma 90.000000
_cell_volume 1788.485695
_symmetry_space_group_name_H-M "P 21/M"
_symmetry_group_IT_number 11
_symmetry_cell_setting 'monoclinic'
loop_
_space_group_symop_operation_xyz
x,y,z
-x,1/2+y,-z
-x,-y,-z
x,1/2-y,z
loop_
_atom_site_type_symbol
_atom_site_label
_atom_site_fract_x
_atom_site_fract_y
_atom_site_fract_z
Si Si1 0.888267 0.942905 0.684819
Si Si2 0.668037 0.557111 0.699939
Si Si3 0.311793 0.059817 0.655440
Si Si4 0.054281 0.942551 0.600127
Si Si5 0.709625 0.942816 0.894098
Si Si6 0.549968 0.944059 0.636127
Si Si7 0.801720 0.440592 0.409078
Si Si8 0.629299 0.440298 0.185303
O O1 0.887687 0.750000 0.682435
O O2 0.801555 0.995437 0.805100
O O3 0.962762 0.995072 0.684475
O O4 0.907084 0.002320 0.548158
O O5 0.673839 0.750000 0.691739
O O6 0.672606 0.505871 0.817240
O O7 0.589936 0.511462 0.709611
O O8 0.741845 0.491174 0.561268
O O9 0.314674 0.250000 0.653778
O O10 0.389106 0.001158 0.514046
O O11 0.235563 0.008432 0.662032
O O12 0.317772 0.997494 0.768210
O O13 0.054531 0.750000 0.600818
O O14 0.111199 0.997069 0.639766
O O15 0.708439 0.750000 0.897664
O O16 0.663308 0.004848 0.040256
O O17 0.548768 0.750000 0.633148
O O18 0.460651 0.002262 0.711589
O O19 0.802024 0.250000 0.401240
O O20 0.626356 0.250000 0.189657
#
# Coordination Sequence:
#
# PCOD9156655 Si02
#       8
#     4   4   4   4   4   4   4   4
#     4   9  17  30  48  72 102 137 168 197 236 289
#     4   9  17  32  51  72 100 135 170 201 240 294
#     4  10  20  36  56  74  96 127 167 209 249 299
#     4   9  17  28  47  76 106 130 160 202 246 289
#     4  10  20  33  50  71 102 140 173 201 236 293
#     4   8  17  33  53  75  98 125 161 209 254 293
#     4  10  18  29  49  78 107 129 157 204 256 295
#     4  11  22  35  51  72  99 131 168 210 255 295
#
# _framework density 17.892232
#
# number of rings (size 3 to 8) (size 9 to 14) (size 15 to 20)
#    0.000    2.500    1.250    2.250    0.000    2.000 
#    0.000    5.625    0.000    0.750    0.000    0.000 
#    0.000    0.000    0.000    0.000    0.000    0.000 
#
# Total GULP energy -178426.654107 kJ/mol
# GULP energy per Si atom -5575.832941 kJ/mol
# Density = 1.785151 g / cm^3
# Si number density = 17.892232 Si / 1000 Ang^3
#
#
#
# Elastic Constant Matrix: (Units=GPa)
#
#
# Indices 1 2 3 4 5 6 
#
# 1 96.1137 12.8656 17.2329 0.0000 19.9259 0.0000
# 2 12.8656 13.4803 6.9446 0.0000 5.8394 0.0000
# 3 17.2329 6.9446 26.5153 0.0000 22.5938 0.0000
# 4 0.0000 0.0000 0.0000 23.4297 0.0000 3.8267
# 5 19.9259 5.8394 22.5938 0.0000 26.1573 0.0000
# 6 0.0000 0.0000 0.0000 3.8267 0.0000 17.1222
#
#
#
# Elastic Compliance Matrix: (Units=1/GPa)
#
#
# Indices 1 2 3 4 5 6 
#
# 1 0.013357 -0.009635 0.002575 0.000000 -0.010249 0.000000
# 2 -0.009635 0.092710 -0.025146 0.000000 0.008363 0.000000
# 3 0.002575 -0.025146 0.149687 0.000000 -0.125643 0.000000
# 4 0.000000 0.000000 0.000000 0.044298 0.000000 -0.009900
# 5 -0.010249 0.008363 -0.125643 0.000000 0.152696 0.000000
# 6 0.000000 0.000000 0.000000 -0.009900 0.000000 0.060617
#
#
# Mechanical properties :
#
#
# Convention : Reuss Voigt Hill
#
# Bulk Modulus (GPa) = 5.22623 23.35504 14.29063
# Shear Modulus (GPa) = 7.79354 19.94626 13.86990
#
# Velocity S-wave (km/s) = 2.08932 3.34248 2.78725
# Velocity P-wave (km/s) = 2.95764 5.28940 4.28517
#
# Compressibility (1/GPa) = 0.19134265
#
# Stress axis : x y z
#
# Youngs Moduli (GPa) = 74.86698 10.78634 6.68060
#
# Poissons Ratio (x) = 0.10393 -0.01720
# Poissons Ratio (y) = 0.72136 0.16799
# Poissons Ratio (z) = -0.19281 0.27123
#
# Static dielectric constant tensor:
#      x y z
#    x 1.654600 0.000000 -0.012490 
#    y 0.000000 1.610280 0.000000 
#    z -0.012490 0.000000 1.572890 
# 
# From -- ./inp_files/40663.got.cif
#   From: 2010.05.17/outbox.cif.g08.bks.cpg/sg11_21_cif.got.tgz:40663.got - 2010.06.03 12:22:45.
