data_PCOD9156612
_publ_section_title
;
Structure prediction by ZEFSAII (Michael W. Deem and Ramdas Pophale) SiO2 
 PCOD9156612
Probable space group: P 21/M
;
_chemical_formula_sum "Si O2"
_cell_formula_units_Z 32
_cell_length_a 27.587783
_cell_length_b 9.349166
_cell_length_c 21.771237
_cell_angle_alpha 90.000000
_cell_angle_beta 160.961589
_cell_angle_gamma 90.000000
_cell_volume 1831.721056
_symmetry_space_group_name_H-M "P 21/M"
_symmetry_group_IT_number 11
_symmetry_cell_setting 'monoclinic'
loop_
_space_group_symop_operation_xyz
x,y,z
-x,1/2+y,-z
-x,-y,-z
x,1/2-y,z
loop_
_atom_site_type_symbol
_atom_site_label
_atom_site_fract_x
_atom_site_fract_y
_atom_site_fract_z
Si Si1 0.432349 0.420657 0.725802
Si Si2 0.587823 0.585639 0.015972
Si Si3 0.607373 0.418481 0.675818
Si Si4 0.143967 0.922090 0.433671
Si Si5 0.891638 0.084265 0.824920
Si Si6 0.590608 0.582703 0.443769
Si Si7 0.273387 0.913762 0.713840
Si Si8 0.906893 0.915400 0.052975
O O1 0.427171 0.250000 0.730070
O O2 0.275668 0.491981 0.557847
O O3 0.456043 0.447918 0.682040
O O4 0.555196 0.492973 0.916516
O O5 0.621465 0.750000 0.041746
O O6 0.706748 0.515699 0.204331
O O7 0.431016 0.583959 0.865772
O O8 0.500000 0.500000 0.500000
O O9 0.610465 0.250000 0.665116
O O10 0.538276 0.437184 0.660968
O O11 0.770777 0.485337 0.871562
O O12 0.171417 0.750000 0.459930
O O13 0.155669 0.954706 0.520140
O O14 0.988811 0.953649 0.214659
O O15 0.881419 0.250000 0.830856
O O16 0.966334 0.076961 0.847207
O O17 0.730945 0.012717 0.630133
O O18 0.000000 0.000000 0.000000
O O19 0.636439 0.750000 0.501072
O O20 0.248060 0.750000 0.703020
O O21 0.855822 0.750000 0.994653
#
# Coordination Sequence:
#
# PCOD9156612 Si02
#       8
#     4   4   4   4   4   4   4   4
#     4  10  18  29  48  72 100 133 170 212 256 303
#     4   9  16  25  39  63  99 136 169 206 248 299
#     4  11  24  41  58  77 103 136 175 217 262 312
#     4   9  17  31  49  72 103 134 168 211 256 303
#     4  11  22  35  55  79 105 133 167 210 259 314
#     4  10  22  38  54  76 105 135 172 217 261 308
#     4   8  14  24  40  63  95 134 169 202 245 299
#     4  10  21  37  55  78 106 136 170 213 262 311
#
# _framework density 17.469909999999999
#
# number of rings (size 3 to 8) (size 9 to 14) (size 15 to 20)
#    0.000    2.250    1.250    3.000    0.000    9.000 
#    0.000    0.000    0.000    0.000    0.000    0.875 
#    0.000    0.000    0.000    0.000    0.000    0.000 
#
# Total GULP energy -178500.875638 kJ/mol
# GULP energy per Si atom -5578.152364 kJ/mol
# Density = 1.743015 g / cm^3
# Si number density = 17.469910 Si / 1000 Ang^3
#
#
#
# Elastic Constant Matrix: (Units=GPa)
#
#
# Indices 1 2 3 4 5 6 
#
# 1 23.9168 17.1321 0.0982 0.0000 -14.3801 0.0000
# 2 17.1321 55.2004 13.9775 0.0000 -12.1325 0.0000
# 3 0.0982 13.9775 44.5892 0.0000 -20.4054 0.0000
# 4 0.0000 0.0000 0.0000 29.2112 0.0000 -5.8921
# 5 -14.3801 -12.1325 -20.4054 0.0000 31.8318 0.0000
# 6 0.0000 0.0000 0.0000 -5.8921 0.0000 22.1206
#
#
#
# Elastic Compliance Matrix: (Units=1/GPa)
#
#
# Indices 1 2 3 4 5 6 
#
# 1 0.089946 -0.024503 0.030856 0.000000 0.051074 0.000000
# 2 -0.024503 0.026936 -0.012393 0.000000 -0.008747 0.000000
# 3 0.030856 -0.012393 0.043107 0.000000 0.036849 0.000000
# 4 0.000000 0.000000 0.000000 0.036177 0.000000 0.009636
# 5 0.051074 -0.008747 0.036849 0.000000 0.074776 0.000000
# 6 0.000000 0.000000 0.000000 0.009636 0.000000 0.047774
#
#
# Mechanical properties :
#
#
# Convention : Reuss Voigt Hill
#
# Bulk Modulus (GPa) = 6.76091 20.68021 13.72056
# Shear Modulus (GPa) = 13.15447 22.79928 17.97688
#
# Velocity S-wave (km/s) = 2.74702 3.61648 3.21131
# Velocity P-wave (km/s) = 3.73362 5.41312 4.64983
#
# Compressibility (1/GPa) = 0.14790907
#
# Stress axis : x y z
#
# Youngs Moduli (GPa) = 11.11780 37.12474 23.19803
#
# Poissons Ratio (x) = 0.90968 -0.71580
# Poissons Ratio (y) = 0.27242 0.28749
# Poissons Ratio (z) = -0.34305 0.46008
#
# Static dielectric constant tensor:
#      x y z
#    x 1.604040 0.000000 -0.023540 
#    y 0.000000 1.589580 0.000000 
#    z -0.023540 0.000000 1.582230 
# 
# From -- ./inp_files/67264.got.cif
#   From: 2010.05.17/outbox.cif.g08.bks.cpg/sg11_34_cif.got.tgz:67264.got - 2010.06.03 12:22:45.
