data_PCOD9156484
_publ_section_title
;
Structure prediction by ZEFSAII (Michael W. Deem and Ramdas Pophale) SiO2 
 PCOD9156484
Probable space group: P 21/M
;
_chemical_formula_sum "Si O2"
_cell_formula_units_Z 28
_cell_length_a 15.145013
_cell_length_b 7.977731
_cell_length_c 13.722842
_cell_angle_alpha 90.000000
_cell_angle_beta 77.507583
_cell_angle_gamma 90.000000
_cell_volume 1618.778224
_symmetry_space_group_name_H-M "P 21/M"
_symmetry_group_IT_number 11
_symmetry_cell_setting 'monoclinic'
loop_
_space_group_symop_operation_xyz
x,y,z
-x,1/2+y,-z
-x,-y,-z
x,1/2-y,z
loop_
_atom_site_type_symbol
_atom_site_label
_atom_site_fract_x
_atom_site_fract_y
_atom_site_fract_z
Si Si1 0.207832 0.550146 0.735573
Si Si2 0.961414 0.549724 0.113348
Si Si3 0.892037 0.945728 0.435024
Si Si4 0.934518 0.044823 0.718367
Si Si5 0.600544 0.054344 0.355290
Si Si6 0.401712 0.447515 0.425305
Si Si7 0.227749 0.556692 0.360685
O O1 0.210206 0.750000 0.715672
O O2 0.138736 0.518324 0.839871
O O3 0.163999 0.462008 0.652033
O O4 0.310924 0.487434 0.720651
O O5 0.957094 0.750000 0.120804
O O6 0.026652 0.490891 0.186487
O O7 0.000000 0.500000 0.000000
O O8 0.895479 0.750000 0.462125
O O9 0.991750 0.007238 0.380817
O O10 0.838957 0.044489 0.530203
O O11 0.934271 0.250000 0.716823
O O12 0.834654 0.988245 0.711858
O O13 0.594695 0.250000 0.331190
O O14 0.499164 0.985405 0.365821
O O15 0.619772 0.035223 0.466547
O O16 0.411346 0.250000 0.445346
O O17 0.320310 0.469520 0.369605
O O18 0.249189 0.750000 0.336065
#
# Coordination Sequence:
#
# PCOD9156484 Si02
#       7
#     4   4   4   4   4   4   4
#     4  10  18  30  49  71  94 124 158 193 234 283
#     4  10  20  36  54  74  96 119 150 192 239 286
#     4  10  18  29  43  64  92 125 160 197 230 269
#     4   8  18  32  46  64  91 122 155 190 231 281
#     4   9  18  31  45  64  92 126 163 197 234 276
#     4  10  19  29  43  64  93 128 163 200 233 267
#     4  11  19  29  43  63  92 129 162 191 227 274
#
# _framework density 17.296996
#
# number of rings (size 3 to 8) (size 9 to 14) (size 15 to 20)
#    0.000    2.286    1.429    3.429    0.000    1.143 
#    0.000    7.857    0.000    0.000    0.000    1.000 
#    0.000    0.000    0.000    0.000    0.000    0.000 
#
# Total GULP energy -156088.488720 kJ/mol
# GULP energy per Si atom -5574.588883 kJ/mol
# Density = 1.725763 g / cm^3
# Si number density = 17.296996 Si / 1000 Ang^3
#
#
#
# Elastic Constant Matrix: (Units=GPa)
#
#
# Indices 1 2 3 4 5 6 
#
# 1 147.5892 0.0080 45.2821 0.0000 -9.9018 0.0000
# 2 0.0080 25.2079 -4.5530 0.0000 0.7971 0.0000
# 3 45.2821 -4.5530 66.5835 0.0000 -11.0940 0.0000
# 4 0.0000 0.0000 0.0000 14.2421 0.0000 -1.6718
# 5 -9.9018 0.7971 -11.0940 0.0000 17.5780 0.0000
# 6 0.0000 0.0000 0.0000 -1.6718 0.0000 18.5082
#
#
#
# Elastic Compliance Matrix: (Units=1/GPa)
#
#
# Indices 1 2 3 4 5 6 
#
# 1 0.008617 -0.001076 -0.005718 0.000000 0.001294 0.000000
# 2 -0.001076 0.040301 0.003445 0.000000 -0.000260 0.000000
# 3 -0.005718 0.003445 0.020764 0.000000 0.009727 0.000000
# 4 0.000000 0.000000 0.000000 0.070967 0.000000 0.006410
# 5 0.001294 -0.000260 0.009727 0.000000 0.063769 0.000000
# 6 0.000000 0.000000 0.000000 0.006410 0.000000 0.054609
#
#
# Mechanical properties :
#
#
# Convention : Reuss Voigt Hill
#
# Bulk Modulus (GPa) = 15.87768 35.65050 25.76409
# Shear Modulus (GPa) = 17.43860 23.30857 20.37359
#
# Velocity S-wave (km/s) = 3.17864 3.67488 3.43573
# Velocity P-wave (km/s) = 4.76141 6.21787 5.53773
#
# Compressibility (1/GPa) = 0.06298151
#
# Stress axis : x y z
#
# Youngs Moduli (GPa) = 116.05199 24.81336 48.16064
#
# Poissons Ratio (x) = 0.02671 0.27539
# Poissons Ratio (y) = 0.12492 -0.16589
# Poissons Ratio (z) = 0.66360 -0.08547
#
# Static dielectric constant tensor:
#      x y z
#    x 1.650190 0.000000 -0.002880 
#    y 0.000000 1.677020 0.000000 
#    z -0.002880 0.000000 1.560620 
# 
# From -- ./inp_files/50995.got.cif
#   From: 2010.05.17/outbox.cif.g08.bks.cpg/sg11_26_cif.got.tgz:50995.got - 2010.06.03 12:22:45.
