data_PCOD9156945
_publ_section_title
;
Structure prediction by ZEFSAII (Michael W. Deem and Ramdas Pophale) SiO2 
 PCOD9156945
Probable space group: P 21/M
;
_chemical_formula_sum "Si O2"
_cell_formula_units_Z 32
_cell_length_a 16.478879
_cell_length_b 8.067788
_cell_length_c 22.070510
_cell_angle_alpha 90.000000
_cell_angle_beta 34.595054
_cell_angle_gamma 90.000000
_cell_volume 1665.977024
_symmetry_space_group_name_H-M "P 21/M"
_symmetry_group_IT_number 11
_symmetry_cell_setting 'monoclinic'
loop_
_space_group_symop_operation_xyz
x,y,z
-x,1/2+y,-z
-x,-y,-z
x,1/2-y,z
loop_
_atom_site_type_symbol
_atom_site_label
_atom_site_fract_x
_atom_site_fract_y
_atom_site_fract_z
Si Si1 0.009314 0.953155 0.189074
Si Si2 0.277457 0.438496 0.700947
Si Si3 0.874192 0.550016 0.393240
Si Si4 0.712024 0.441462 0.051751
Si Si5 0.435162 0.554360 0.280892
Si Si6 0.552575 0.450204 0.587864
Si Si7 0.839864 0.440704 0.107275
Si Si8 0.117377 0.446118 0.475902
O O1 0.010908 0.750000 0.181453
O O2 0.862684 0.010993 0.245968
O O3 0.987200 0.998314 0.272578
O O4 0.158505 0.012719 0.068474
O O5 0.291917 0.250000 0.668994
O O6 0.435394 0.516125 0.611726
O O7 0.231999 0.441756 0.799532
O O8 0.872558 0.750000 0.395717
O O9 0.714873 0.495010 0.472356
O O10 0.903749 0.485107 0.442732
O O11 0.692563 0.250000 0.045599
O O12 0.555788 0.517813 0.156935
O O13 0.770769 0.447573 0.084044
O O14 0.425517 0.750000 0.294150
O O15 0.468377 0.487830 0.329235
O O16 0.279322 0.490229 0.358577
O O17 0.538606 0.250000 0.596221
O O18 0.833195 0.250000 0.133005
O O19 0.000000 0.500000 0.000000
O O20 0.107697 0.250000 0.486604
O O21 0.000000 0.500000 0.500000
#
# Coordination Sequence:
#
# PCOD9156945 Si02
#       8
#     4   4   4   4   4   4   4   4
#     4   9  18  33  50  69  99 142 181 212 253 301
#     4  10  18  31  47  67  97 138 180 220 262 299
#     4   9  19  35  54  74 100 134 171 207 249 311
#     4  10  19  31  49  71 100 138 176 213 255 300
#     4  10  19  32  52  79 109 135 164 208 258 301
#     4   9  18  30  47  70 100 135 171 217 263 295
#     4  11  20  29  44  67  96 134 180 228 265 294
#     4  10  20  36  60  87 108 128 159 201 253 309
#
# _framework density 19.207947999999998
#
# number of rings (size 3 to 8) (size 9 to 14) (size 15 to 20)
#    0.000    2.250    2.500    1.125    0.000    2.500 
#    0.000    1.250    0.000    0.750    0.000    0.000 
#    0.000    0.000    0.000    0.000    0.000    0.000 
#
# Total GULP energy -178321.619417 kJ/mol
# GULP energy per Si atom -5572.550607 kJ/mol
# Density = 1.916423 g / cm^3
# Si number density = 19.207948 Si / 1000 Ang^3
#
#
#
# Elastic Constant Matrix: (Units=GPa)
#
#
# Indices 1 2 3 4 5 6 
#
# 1 74.6915 14.2649 58.1570 0.0000 -17.1196 0.0000
# 2 14.2649 24.5632 10.4743 0.0000 -1.0779 0.0000
# 3 58.1570 10.4743 118.0237 0.0000 0.8138 0.0000
# 4 0.0000 0.0000 0.0000 18.5242 0.0000 -3.2936
# 5 -17.1196 -1.0779 0.8138 0.0000 22.7498 0.0000
# 6 0.0000 0.0000 0.0000 -3.2936 0.0000 13.2257
#
#
#
# Elastic Compliance Matrix: (Units=1/GPa)
#
#
# Indices 1 2 3 4 5 6 
#
# 1 0.033700 -0.011747 -0.015739 0.000000 0.025367 0.000000
# 2 -0.011747 0.046512 0.001707 0.000000 -0.006697 0.000000
# 3 -0.015739 0.001707 0.016162 0.000000 -0.012341 0.000000
# 4 0.000000 0.000000 0.000000 0.056484 0.000000 0.014067
# 5 0.025367 -0.006697 -0.012341 0.000000 0.063169 0.000000
# 6 0.000000 0.000000 0.000000 0.014067 0.000000 0.079114
#
#
# Mechanical properties :
#
#
# Convention : Reuss Voigt Hill
#
# Bulk Modulus (GPa) = 22.31323 42.56342 32.43833
# Shear Modulus (GPa) = 13.82601 19.85875 16.84238
#
# Velocity S-wave (km/s) = 2.68583 3.21889 2.96437
# Velocity P-wave (km/s) = 4.61087 6.00187 5.35175
#
# Compressibility (1/GPa) = 0.04481646
#
# Stress axis : x y z
#
# Youngs Moduli (GPa) = 29.67319 21.50003 61.87438
#
# Poissons Ratio (x) = 0.25256 0.97381
# Poissons Ratio (y) = 0.34857 -0.10560
# Poissons Ratio (z) = 0.46701 -0.03669
#
# Static dielectric constant tensor:
#      x y z
#    x 1.582680 0.000000 -0.030740 
#    y 0.000000 1.714430 0.000000 
#    z -0.030740 0.000000 1.702100 
# 
# From -- ./inp_files/61791.got.cif
#   From: 2010.05.17/outbox.cif.g08.bks.cpg/sg11_31_cif.got.tgz:61791.got - 2010.06.03 12:22:45.
