data_PCOD9156107
_publ_section_title
;
Structure prediction by ZEFSAII (Michael W. Deem and Ramdas Pophale) SiO2 
 PCOD9156107
Probable space group: P 21/M
;
_chemical_formula_sum "Si O2"
_cell_formula_units_Z 32
_cell_length_a 6.994360
_cell_length_b 14.606889
_cell_length_c 14.012546
_cell_angle_alpha 90.000000
_cell_angle_beta 116.787557
_cell_angle_gamma 90.000000
_cell_volume 1277.969162
_symmetry_space_group_name_H-M "P 21/M"
_symmetry_group_IT_number 11
_symmetry_cell_setting 'monoclinic'
loop_
_space_group_symop_operation_xyz
x,y,z
-x,1/2+y,-z
-x,-y,-z
x,1/2-y,z
loop_
_atom_site_type_symbol
_atom_site_label
_atom_site_fract_x
_atom_site_fract_y
_atom_site_fract_z
Si Si1 0.190960 0.385057 0.904723
Si Si2 0.204821 0.913237 0.830457
Si Si3 0.860115 0.469358 0.377718
Si Si4 0.319429 0.651350 0.049131
Si Si5 0.051478 0.344498 0.681244
Si Si6 0.300629 0.055401 0.119970
Si Si7 0.589496 0.557059 0.651684
Si Si8 0.436545 0.854873 0.435384
O O1 0.172701 0.491401 0.877153
O O2 0.427466 0.354126 0.923878
O O3 0.032372 0.343471 0.791704
O O4 0.171621 0.382861 0.014314
O O5 0.452981 0.919228 0.850400
O O6 0.068865 0.913043 0.701230
O O7 0.200754 0.846961 0.919562
O O8 0.814267 0.568559 0.320001
O O9 0.651179 0.420881 0.368840
O O10 0.000000 0.500000 0.500000
O O11 0.284415 0.750000 0.090669
O O12 0.278167 0.554458 0.094636
O O13 0.153558 0.250000 0.672303
O O14 0.812213 0.350070 0.587743
O O15 0.265883 0.075701 0.223450
O O16 0.579695 0.447067 0.632427
O O17 0.600544 0.612118 0.555183
O O18 0.486737 0.750000 0.415502
#
# Coordination Sequence:
#
# PCOD9156107 Si02
#       8
#     4   4   4   4   4   4   4   4
#     4   8  14  26  44  66  96 127 156 197 251 303
#     4   7  14  25  39  63  98 129 153 192 244 303
#     4  10  17  31  53  76 100 131 171 212 256 304
#     4   9  14  23  41  69 101 131 160 199 253 304
#     4  10  19  32  51  77 106 132 168 217 259 300
#     4   8  15  28  45  69  95 125 168 207 241 302
#     4  10  20  36  56  76 101 140 178 213 261 308
#     4  10  22  38  53  73 103 139 176 214 259 312
#
# _framework density 25.039726999999999
#
# number of rings (size 3 to 8) (size 9 to 14) (size 15 to 20)
#    0.000    3.000    1.250    2.625    0.000    1.000 
#    0.000    7.500    0.000    0.000    0.000    0.000 
#    0.000    0.000    0.000    0.000    0.000    0.000 
#
# Total GULP energy -178177.295248 kJ/mol
# GULP energy per Si atom -5568.040476 kJ/mol
# Density = 2.498274 g / cm^3
# Si number density = 25.039727 Si / 1000 Ang^3
#
#
#
# Elastic Constant Matrix: (Units=GPa)
#
#
# Indices 1 2 3 4 5 6 
#
# 1 43.6562 -8.3312 4.8089 0.0000 4.4667 0.0000
# 2 -8.3312 82.9783 20.1528 0.0000 -2.4609 0.0000
# 3 4.8089 20.1528 158.8532 0.0000 4.8116 0.0000
# 4 0.0000 0.0000 0.0000 -13.6318 0.0000 -6.9936
# 5 4.4667 -2.4609 4.8116 0.0000 30.1042 0.0000
# 6 0.0000 0.0000 0.0000 -6.9936 0.0000 9.3267
#
#
#
# Elastic Compliance Matrix: (Units=1/GPa)
#
#
# Indices 1 2 3 4 5 6 
#
# 1 0.023818 0.002527 -0.000945 0.000000 -0.003176 0.000000
# 2 0.002527 0.012751 -0.001723 0.000000 0.000943 0.000000
# 3 -0.000945 -0.001723 0.006574 0.000000 -0.001051 0.000000
# 4 0.000000 0.000000 0.000000 -0.052978 0.000000 -0.039725
# 5 -0.003176 0.000943 -0.001051 0.000000 0.033934 0.000000
# 6 0.000000 0.000000 0.000000 -0.039725 0.000000 0.077432
#
#
# Mechanical properties :
#
#
# Convention : Reuss Voigt Hill
#
# Bulk Modulus (GPa) = 23.33157 35.41651 29.37404
# Shear Modulus (GPa) = 43.06600 23.08363 33.07482
#
# Velocity S-wave (km/s) = 4.15168 3.03954 3.63835
# Velocity P-wave (km/s) = 5.68506 5.14716 5.42278
#
# Compressibility (1/GPa) = 0.04286038
#
# Stress axis : x y z
#
# Youngs Moduli (GPa) = 41.98581 78.42274 152.11123
#
# Poissons Ratio (x) = -0.19815 0.14380
# Poissons Ratio (y) = -0.10609 0.26205
# Poissons Ratio (z) = 0.03969 0.13510
#
# Static dielectric constant tensor:
#      x y z
#    x 2.059460 0.000000 -0.010760 
#    y 0.000000 1.983720 0.000000 
#    z -0.010760 0.000000 2.086990 
# 
# From -- ./inp_files/47639.got.cif
#   From: 2010.05.17/outbox.cif.g08.bks.cpg/sg11_24_cif.got.tgz:47639.got - 2010.06.03 12:22:45.
