data_PCOD9156868
_publ_section_title
;
Structure prediction by ZEFSAII (Michael W. Deem and Ramdas Pophale) SiO2 
 PCOD9156868
Probable space group: P 21/M
;
_chemical_formula_sum "Si O2"
_cell_formula_units_Z 32
_cell_length_a 27.913086
_cell_length_b 8.712648
_cell_length_c 20.148039
_cell_angle_alpha 90.000000
_cell_angle_beta 158.983159
_cell_angle_gamma 90.000000
_cell_volume 1757.326131
_symmetry_space_group_name_H-M "P 21/M"
_symmetry_group_IT_number 11
_symmetry_cell_setting 'monoclinic'
loop_
_space_group_symop_operation_xyz
x,y,z
-x,1/2+y,-z
-x,-y,-z
x,1/2-y,z
loop_
_atom_site_type_symbol
_atom_site_label
_atom_site_fract_x
_atom_site_fract_y
_atom_site_fract_z
Si Si1 0.024675 0.433780 0.294534
Si Si2 0.201641 0.435002 0.789069
Si Si3 0.559908 0.934540 0.807488
Si Si4 0.260644 0.566135 0.231089
Si Si5 0.699522 0.566684 0.578194
Si Si6 0.049000 0.064030 0.178619
Si Si7 0.076001 0.566721 0.499069
Si Si8 0.272149 0.066524 0.106442
O O1 0.023195 0.250000 0.296152
O O2 0.084015 0.479904 0.299642
O O3 0.094404 0.500587 0.449606
O O4 0.872328 0.493773 0.095674
O O5 0.199906 0.250000 0.782251
O O6 0.177733 0.505014 0.685853
O O7 0.072359 0.479706 0.666357
O O8 0.336851 0.480645 0.001313
O O9 0.542107 0.750000 0.787625
O O10 0.631366 0.970588 0.829760
O O11 0.418446 0.017377 0.623566
O O12 0.266415 0.750000 0.234667
O O13 0.325378 0.508157 0.382407
O O14 0.316969 0.496336 0.235894
O O15 0.103793 0.516173 0.031713
O O16 0.703481 0.750000 0.590168
O O17 0.840980 0.510216 0.731241
O O18 0.048896 0.250000 0.175941
O O19 0.079949 0.750000 0.501997
O O20 0.258178 0.250000 0.091547
#
# Coordination Sequence:
#
# PCOD9156868 Si02
#       8
#     4   4   4   4   4   4   4   4
#     4  10  18  31  53  79 107 137 168 209 261 310
#     4   9  18  33  50  73 106 141 169 205 253 304
#     4  10  21  37  53  72 106 142 172 208 254 309
#     4  10  20  36  56  78 103 132 169 215 265 312
#     4  11  22  36  54  76 101 135 177 216 256 303
#     4   8  18  35  54  77 103 131 170 218 261 302
#     4  10  18  30  50  80 109 135 169 210 253 302
#     4  10  19  34  53  76 105 136 170 213 259 304
#
# _framework density 18.209482999999999
#
# number of rings (size 3 to 8) (size 9 to 14) (size 15 to 20)
#    0.000    2.250    1.250    3.000    0.000    2.500 
#    0.000    6.875    0.000    0.750    0.000    0.000 
#    0.000    0.000    0.000    0.000    0.000    0.000 
#
# Total GULP energy -178586.881829 kJ/mol
# GULP energy per Si atom -5580.840057 kJ/mol
# Density = 1.816804 g / cm^3
# Si number density = 18.209483 Si / 1000 Ang^3
#
#
#
# Elastic Constant Matrix: (Units=GPa)
#
#
# Indices 1 2 3 4 5 6 
#
# 1 45.6420 9.8008 12.3797 0.0000 -26.0168 0.0000
# 2 9.8008 26.3512 11.5513 0.0000 -8.0287 0.0000
# 3 12.3797 11.5513 65.4905 0.0000 -27.5956 0.0000
# 4 0.0000 0.0000 0.0000 27.8072 0.0000 -7.9796
# 5 -26.0168 -8.0287 -27.5956 0.0000 27.7462 0.0000
# 6 0.0000 0.0000 0.0000 -7.9796 0.0000 22.6519
#
#
#
# Elastic Compliance Matrix: (Units=1/GPa)
#
#
# Indices 1 2 3 4 5 6 
#
# 1 0.062771 -0.009372 0.023146 0.000000 0.079167 0.000000
# 2 -0.009372 0.043605 -0.007412 0.000000 -0.003542 0.000000
# 3 0.023146 -0.007412 0.035190 0.000000 0.054558 0.000000
# 4 0.000000 0.000000 0.000000 0.040006 0.000000 0.014093
# 5 0.079167 -0.003542 0.054558 0.000000 0.163510 0.000000
# 6 0.000000 0.000000 0.000000 0.014093 0.000000 0.049111
#
#
# Mechanical properties :
#
#
# Convention : Reuss Voigt Hill
#
# Bulk Modulus (GPa) = 6.48130 22.77190 14.62660
# Shear Modulus (GPa) = 11.55005 22.55785 17.05395
#
# Velocity S-wave (km/s) = 2.52124 3.52347 3.06362
# Velocity P-wave (km/s) = 3.47024 5.39313 4.53478
#
# Compressibility (1/GPa) = 0.15428992
#
# Stress axis : x y z
#
# Youngs Moduli (GPa) = 15.93103 22.93338 28.41680
#
# Poissons Ratio (x) = 0.21493 -0.65773
# Poissons Ratio (y) = 0.14930 0.21062
# Poissons Ratio (z) = -0.36874 0.16998
#
# Static dielectric constant tensor:
#      x y z
#    x 1.626570 0.000000 -0.005020 
#    y 0.000000 1.609170 0.000000 
#    z -0.005020 0.000000 1.630710 
# 
# From -- ./inp_files/64334.got.cif
#   From: 2010.05.17/outbox.cif.g08.bks.cpg/sg11_33_cif.got.tgz:64334.got - 2010.06.03 12:22:45.
