data_PCOD9156886
_publ_section_title
;
Structure prediction by ZEFSAII (Michael W. Deem and Ramdas Pophale) SiO2 
 PCOD9156886
Probable space group: P 21/M
;
_chemical_formula_sum "Si O2"
_cell_formula_units_Z 24
_cell_length_a 9.148364
_cell_length_b 20.860763
_cell_length_c 11.504310
_cell_angle_alpha 90.000000
_cell_angle_beta 37.739350
_cell_angle_gamma 90.000000
_cell_volume 1343.802690
_symmetry_space_group_name_H-M "P 21/M"
_symmetry_group_IT_number 11
_symmetry_cell_setting 'monoclinic'
loop_
_space_group_symop_operation_xyz
x,y,z
-x,1/2+y,-z
-x,-y,-z
x,1/2-y,z
loop_
_atom_site_type_symbol
_atom_site_label
_atom_site_fract_x
_atom_site_fract_y
_atom_site_fract_z
Si Si1 0.984989 0.080454 0.873059
Si Si2 0.870606 0.675271 0.414684
Si Si3 0.784645 0.503871 0.801440
Si Si4 0.087642 0.898779 0.474191
Si Si5 0.564019 0.421000 0.318881
Si Si6 0.527532 0.436413 0.606599
O O1 0.996150 0.140170 0.776699
O O2 0.244455 0.073094 0.768564
O O3 0.914159 0.019227 0.838243
O O4 0.785849 0.087298 0.095712
O O5 0.838909 0.750000 0.413371
O O6 0.623655 0.635831 0.578390
O O7 0.002241 0.661637 0.453947
O O8 0.856398 0.451475 0.659969
O O9 0.887531 0.570572 0.685946
O O10 0.500000 0.500000 0.000000
O O11 0.329491 0.891799 0.395692
O O12 0.629344 0.426333 0.413373
O O13 0.438196 0.489907 0.374036
#
# Coordination Sequence:
#
# PCOD9156886 Si02
#       6
#     4   4   4   4   4   4
#     4  10  20  34  55  82 111 140 173 216 270 328
#     4  10  22  38  54  72 100 144 189 221 252 304
#     4  10  18  30  51  77 105 137 172 214 264 313
#     4  10  19  32  49  75 106 133 171 218 263 308
#     4  10  19  34  56  81 110 140 171 213 266 326
#     4  10  19  32  54  86 113 133 165 218 284 335
#
# _framework density 17.859766
#
# number of rings (size 3 to 8) (size 9 to 14) (size 15 to 20)
#    0.000    2.000    0.000    7.500    0.000    2.000 
#    0.000    3.333    0.000    0.000    0.000    0.000 
#    0.000    0.000    0.000    0.000    0.000    0.000 
#
# Total GULP energy -133926.849635 kJ/mol
# GULP energy per Si atom -5580.285401 kJ/mol
# Density = 1.781912 g / cm^3
# Si number density = 17.859766 Si / 1000 Ang^3
#
#
#
# Elastic Constant Matrix: (Units=GPa)
#
#
# Indices 1 2 3 4 5 6 
#
# 1 103.4848 35.1819 51.8799 0.0000 -14.3028 0.0000
# 2 35.1819 95.1539 35.4573 0.0000 0.0633 0.0000
# 3 51.8799 35.4573 161.1232 0.0000 4.5265 0.0000
# 4 0.0000 0.0000 0.0000 5.9429 0.0000 0.8755
# 5 -14.3028 0.0633 4.5265 0.0000 21.4630 0.0000
# 6 0.0000 0.0000 0.0000 0.8755 0.0000 19.0061
#
#
#
# Elastic Compliance Matrix: (Units=1/GPa)
#
#
# Indices 1 2 3 4 5 6 
#
# 1 0.014485 -0.003828 -0.004117 0.000000 0.010532 0.000000
# 2 -0.003828 0.012465 -0.001446 0.000000 -0.002283 0.000000
# 3 -0.004117 -0.001446 0.007975 0.000000 -0.004421 0.000000
# 4 0.000000 0.000000 0.000000 0.169417 0.000000 -0.007804
# 5 0.010532 -0.002283 -0.004421 0.000000 0.054549 0.000000
# 6 0.000000 0.000000 0.000000 -0.007804 0.000000 0.052974
#
#
# Mechanical properties :
#
#
# Convention : Reuss Voigt Hill
#
# Bulk Modulus (GPa) = 61.95546 67.20002 64.57774
# Shear Modulus (GPa) = 14.87966 25.09858 19.98912
#
# Velocity S-wave (km/s) = 2.88955 3.75282 3.34911
# Velocity P-wave (km/s) = 6.77480 7.51574 7.15487
#
# Compressibility (1/GPa) = 0.01614063
#
# Stress axis : x y z
#
# Youngs Moduli (GPa) = 69.03928 80.22326 125.39740
#
# Poissons Ratio (x) = 0.30711 0.51630
# Poissons Ratio (y) = 0.26430 0.18137
# Poissons Ratio (z) = 0.28425 0.11603
#
# Static dielectric constant tensor:
#      x y z
#    x 1.664410 0.000000 -0.006770 
#    y 0.000000 1.598030 0.000000 
#    z -0.006770 0.000000 1.620030 
# 
# From -- ./inp_files/32596.got.cif
#   From: 2010.05.17/outbox.cif.g08.bks.cpg/sg11_17_cif.got.tgz:32596.got - 2010.06.03 12:22:45.
