data_PCOD9156830
_publ_section_title
;
Structure prediction by ZEFSAII (Michael W. Deem and Ramdas Pophale) SiO2 
 PCOD9156830
Probable space group: P 21/M
;
_chemical_formula_sum "Si O2"
_cell_formula_units_Z 32
_cell_length_a 22.459026
_cell_length_b 7.438509
_cell_length_c 29.105696
_cell_angle_alpha 90.000000
_cell_angle_beta 161.157035
_cell_angle_gamma 90.000000
_cell_volume 1570.450854
_symmetry_space_group_name_H-M "P 21/M"
_symmetry_group_IT_number 11
_symmetry_cell_setting 'monoclinic'
loop_
_space_group_symop_operation_xyz
x,y,z
-x,1/2+y,-z
-x,-y,-z
x,1/2-y,z
loop_
_atom_site_type_symbol
_atom_site_label
_atom_site_fract_x
_atom_site_fract_y
_atom_site_fract_z
Si Si1 0.913426 0.533795 0.831717
Si Si2 0.305947 0.468448 0.600265
Si Si3 0.806793 0.970345 0.652512
Si Si4 0.716018 0.035023 0.162339
Si Si5 0.689657 0.029655 0.843932
Si Si6 0.998701 0.464977 0.445021
Si Si7 0.594717 0.036871 0.672351
Si Si8 0.016779 0.468448 0.311098
O O1 0.923728 0.750000 0.836868
O O2 0.862267 0.468488 0.743578
O O3 0.754906 0.490690 0.752448
O O4 0.112491 0.468489 0.993815
O O5 0.309233 0.250000 0.604024
O O6 0.515957 0.527140 0.748097
O O7 0.189948 0.517278 0.469974
O O8 0.183523 0.530365 0.553943
O O9 0.806331 0.750000 0.652858
O O10 0.601238 0.031476 0.488975
O O11 0.944532 0.027142 0.712387
O O12 0.734552 0.250000 0.176186
O O13 0.822562 0.969753 0.286282
O O14 0.834794 0.969636 0.205217
O O15 0.500000 0.000000 0.000000
O O16 0.692428 0.250000 0.845894
O O17 0.652156 0.968523 0.764419
O O18 0.998918 0.250000 0.440551
O O19 0.000000 0.500000 0.500000
O O20 0.568689 0.250000 0.659337
O O21 0.011608 0.250000 0.306398
#
# Coordination Sequence:
#
# PCOD9156830 Si02
#       8
#     4   4   4   4   4   4   4   4
#     4  10  20  30  42  68  99 116 138 192 243 266
#     4   8  13  26  48  70  90 117 157 196 225 265
#     4   9  16  28  46  68  91 116 151 193 231 266
#     4   9  18  32  51  75 102 130 161 201 245 289
#     4   9  16  28  46  68  91 116 151 193 231 266
#     4   9  18  32  51  75 102 130 161 201 245 289
#     4  10  18  30  50  66  83 122 160 180 219 284
#     4   8  13  26  48  70  90 117 157 196 225 265
#
# _framework density 20.376315999999999
#
# number of rings (size 3 to 8) (size 9 to 14) (size 15 to 20)
#    0.000    3.000    1.250    2.250    0.000    0.500 
#    2.250    0.000    0.000    3.000    0.000    0.000 
#    0.000    0.000    0.000    0.000    0.000    0.000 
#
# Total GULP energy -178514.822211 kJ/mol
# GULP energy per Si atom -5578.588194 kJ/mol
# Density = 2.032994 g / cm^3
# Si number density = 20.376316 Si / 1000 Ang^3
#
#
#
# Elastic Constant Matrix: (Units=GPa)
#
#
# Indices 1 2 3 4 5 6 
#
# 1 186.0312 -1.5772 118.8112 0.0000 -2.8238 0.0000
# 2 -1.5772 60.1554 4.2163 0.0000 -4.0462 0.0000
# 3 118.8112 4.2163 184.9496 0.0000 3.5240 0.0000
# 4 0.0000 0.0000 0.0000 5.3234 0.0000 7.0385
# 5 -2.8238 -4.0462 3.5240 0.0000 31.1819 0.0000
# 6 0.0000 0.0000 0.0000 7.0385 0.0000 15.3991
#
#
#
# Elastic Compliance Matrix: (Units=1/GPa)
#
#
# Indices 1 2 3 4 5 6 
#
# 1 0.009220 0.000768 -0.005971 0.000000 0.001609 0.000000
# 2 0.000768 0.016867 -0.000923 0.000000 0.002363 0.000000
# 3 -0.005971 -0.000923 0.009296 0.000000 -0.001711 0.000000
# 4 0.000000 0.000000 0.000000 0.474762 0.000000 -0.217001
# 5 0.001609 0.002363 -0.001711 0.000000 0.032716 0.000000
# 6 0.000000 0.000000 0.000000 -0.217001 0.000000 0.164124
#
#
# Mechanical properties :
#
#
# Convention : Reuss Voigt Hill
#
# Bulk Modulus (GPa) = 43.23004 74.89299 59.06151
# Shear Modulus (GPa) = 6.87808 31.02659 18.95234
#
# Velocity S-wave (km/s) = 1.83925 3.90639 3.05309
# Velocity P-wave (km/s) = 5.07665 7.56182 6.44025
#
# Compressibility (1/GPa) = 0.02313206
#
# Stress axis : x y z
#
# Youngs Moduli (GPa) = 108.46178 59.28602 107.56989
#
# Poissons Ratio (x) = -0.04556 0.64230
# Poissons Ratio (y) = -0.08335 0.09931
# Poissons Ratio (z) = 0.64762 0.05473
#
# Static dielectric constant tensor:
#      x y z
#    x 1.708850 0.000000 0.002780 
#    y 0.000000 1.797600 0.000000 
#    z 0.002780 0.000000 1.704870 
# 
# From -- ./inp_files/72170.got.cif
#   From: 2010.05.17/outbox.cif.g08.bks.cpg/sg11_37_cif.got.tgz:72170.got - 2010.06.03 12:22:45.
