data_PCOD9156841
_publ_section_title
;
Structure prediction by ZEFSAII (Michael W. Deem and Ramdas Pophale) SiO2 
 PCOD9156841
Probable space group: P 21/M
;
_chemical_formula_sum "Si O2"
_cell_formula_units_Z 32
_cell_length_a 20.987627
_cell_length_b 7.616565
_cell_length_c 30.135347
_cell_angle_alpha 90.000000
_cell_angle_beta 19.726538
_cell_angle_gamma 90.000000
_cell_volume 1625.970731
_symmetry_space_group_name_H-M "P 21/M"
_symmetry_group_IT_number 11
_symmetry_cell_setting 'monoclinic'
loop_
_space_group_symop_operation_xyz
x,y,z
-x,1/2+y,-z
-x,-y,-z
x,1/2-y,z
loop_
_atom_site_type_symbol
_atom_site_label
_atom_site_fract_x
_atom_site_fract_y
_atom_site_fract_z
Si Si1 0.028973 0.462013 0.099468
Si Si2 0.174828 0.961045 0.853044
Si Si3 0.951411 0.965010 0.341616
Si Si4 0.532255 0.452452 0.853570
Si Si5 0.674210 0.461412 0.853117
Si Si6 0.565281 0.959792 0.638276
Si Si7 0.460500 0.461721 0.805088
Si Si8 0.898214 0.456705 0.850985
O O1 0.030257 0.250000 0.097513
O O2 0.883199 0.525077 0.157885
O O3 0.996700 0.515968 0.171314
O O4 0.241590 0.522184 0.947386
O O5 0.190675 0.750000 0.840255
O O6 0.370671 0.030172 0.744646
O O7 0.000000 0.000000 0.000000
O O8 0.949357 0.750000 0.343797
O O9 0.754076 0.027258 0.491095
O O10 0.989674 0.017974 0.265738
O O11 0.130876 0.023088 0.253029
O O12 0.594702 0.250000 0.809822
O O13 0.631800 0.531574 0.831523
O O14 0.550848 0.529329 0.791873
O O15 0.307158 0.455222 0.010648
O O16 0.684415 0.250000 0.843401
O O17 0.500000 0.500000 0.000000
O O18 0.563660 0.750000 0.632966
O O19 0.561313 0.991340 0.693498
O O20 0.454793 0.250000 0.811861
O O21 0.860143 0.250000 0.870453
#
# Coordination Sequence:
#
# PCOD9156841 Si02
#       8
#     4   4   4   4   4   4   4   4
#     4   9  18  32  49  72 102 130 160 207 255 295
#     4  10  19  32  52  75  99 129 169 211 247 291
#     4   9  19  34  50  73 105 134 163 204 253 296
#     4   9  18  31  50  74 101 130 162 204 253 295
#     4  10  18  32  53  75 100 132 168 207 246 291
#     4  10  20  34  52  73  99 135 170 201 247 303
#     4   9  17  31  48  70 101 130 161 205 252 294
#     4  10  18  30  50  74 100 130 164 205 247 293
#
# _framework density 19.68055
#
# number of rings (size 3 to 8) (size 9 to 14) (size 15 to 20)
#    0.000    2.500    2.500    1.125    0.000    2.500 
#    0.000    3.125    0.000    0.000    0.000    0.000 
#    0.000    0.000    0.000    0.000    0.000    0.000 
#
# Total GULP energy -178506.109275 kJ/mol
# GULP energy per Si atom -5578.315915 kJ/mol
# Density = 1.963576 g / cm^3
# Si number density = 19.680550 Si / 1000 Ang^3
#
#
#
# Elastic Constant Matrix: (Units=GPa)
#
#
# Indices 1 2 3 4 5 6 
#
# 1 197.4830 -0.7054 89.4363 0.0000 12.0280 0.0000
# 2 -0.7054 41.0243 -3.7412 0.0000 -2.7401 0.0000
# 3 89.4363 -3.7412 121.3806 0.0000 6.4506 0.0000
# 4 0.0000 0.0000 0.0000 13.6290 0.0000 3.3064
# 5 12.0280 -2.7401 6.4506 0.0000 26.1474 0.0000
# 6 0.0000 0.0000 0.0000 3.3064 0.0000 10.6240
#
#
#
# Elastic Compliance Matrix: (Units=1/GPa)
#
#
# Indices 1 2 3 4 5 6 
#
# 1 0.007731 -0.000526 -0.005594 0.000000 -0.002231 0.000000
# 2 -0.000526 0.024631 0.001010 0.000000 0.002574 0.000000
# 3 -0.005594 0.001010 0.012412 0.000000 -0.000383 0.000000
# 4 0.000000 0.000000 0.000000 0.079365 0.000000 -0.024699
# 5 -0.002231 0.002574 -0.000383 0.000000 0.039635 0.000000
# 6 0.000000 0.000000 0.000000 -0.024699 0.000000 0.101813
#
#
# Mechanical properties :
#
#
# Convention : Reuss Voigt Hill
#
# Bulk Modulus (GPa) = 28.94076 58.87417 43.90747
# Shear Modulus (GPa) = 17.40185 28.40664 22.90424
#
# Velocity S-wave (km/s) = 2.97680 3.80331 3.41515
# Velocity P-wave (km/s) = 5.15289 7.01903 6.15707
#
# Compressibility (1/GPa) = 0.03455334
#
# Stress axis : x y z
#
# Youngs Moduli (GPa) = 129.34457 40.59959 80.56715
#
# Poissons Ratio (x) = 0.02137 0.45071
# Poissons Ratio (y) = 0.06807 -0.08138
# Poissons Ratio (z) = 0.72358 -0.04101
#
# Static dielectric constant tensor:
#      x y z
#    x 1.724160 0.000000 -0.004800 
#    y 0.000000 1.750190 0.000000 
#    z -0.004800 0.000000 1.647580 
# 
# From -- ./inp_files/64182.got.cif
#   From: 2010.05.17/outbox.cif.g08.bks.cpg/sg11_33_cif.got.tgz:64182.got - 2010.06.03 12:22:45.
