data_PCOD9156785
_publ_section_title
;
Structure prediction by ZEFSAII (Michael W. Deem and Ramdas Pophale) SiO2 
 PCOD9156785
Probable space group: P 21/M
;
_chemical_formula_sum "Si O2"
_cell_formula_units_Z 32
_cell_length_a 11.825986
_cell_length_b 14.164672
_cell_length_c 12.156667
_cell_angle_alpha 90.000000
_cell_angle_beta 72.809840
_cell_angle_gamma 90.000000
_cell_volume 1945.411260
_symmetry_space_group_name_H-M "P 21/M"
_symmetry_group_IT_number 11
_symmetry_cell_setting 'monoclinic'
loop_
_space_group_symop_operation_xyz
x,y,z
-x,1/2+y,-z
-x,-y,-z
x,1/2-y,z
loop_
_atom_site_type_symbol
_atom_site_label
_atom_site_fract_x
_atom_site_fract_y
_atom_site_fract_z
Si Si1 0.700184 0.140926 0.015998
Si Si2 0.317200 0.363259 0.808718
Si Si3 0.873140 0.526939 0.989421
Si Si4 0.534670 0.636093 0.030993
Si Si5 0.770669 0.636986 0.827879
Si Si6 0.602510 0.355346 0.291199
Si Si7 0.633929 0.974332 0.422939
Si Si8 0.319033 0.362139 0.383332
O O1 0.726805 0.250000 0.979225
O O2 0.655102 0.140070 0.154459
O O3 0.808117 0.070493 0.978577
O O4 0.591217 0.102440 0.974667
O O5 0.300234 0.250000 0.818816
O O6 0.204859 0.416094 0.896508
O O7 0.425630 0.390845 0.858521
O O8 0.352010 0.397029 0.677560
O O9 0.866880 0.588097 0.878780
O O10 0.000000 0.500000 0.000000
O O11 0.526146 0.750000 0.029821
O O12 0.643977 0.613038 0.920122
O O13 0.784890 0.750000 0.830999
O O14 0.755907 0.612957 0.703724
O O15 0.616632 0.250000 0.331855
O O16 0.667391 0.429234 0.351439
O O17 0.460819 0.371260 0.320086
O O18 0.701549 0.931655 0.508189
O O19 0.500000 0.000000 0.500000
O O20 0.299645 0.250000 0.413657
#
# Coordination Sequence:
#
# PCOD9156785 Si02
#       8
#     4   4   4   4   4   4   4   4
#     4  10  18  30  49  72 101 134 168 210 261 314
#     4  10  20  35  53  78 109 140 172 217 269 319
#     4  11  23  35  51  75 104 137 182 220 261 310
#     4   8  15  28  49  75 101 129 164 206 263 324
#     4   9  17  32  53  76 102 133 169 215 265 312
#     4   9  16  28  44  69 104 138 167 202 250 308
#     4  10  19  29  47  77 109 140 172 204 259 322
#     4   9  16  28  49  75 104 132 169 209 247 310
#
# _framework density 16.448962999999999
#
# number of rings (size 3 to 8) (size 9 to 14) (size 15 to 20)
#    0.000    2.500    2.500    1.500    0.000    5.500 
#    0.000    0.000    0.000    1.500    0.000    0.000 
#    0.000    0.000    0.000    0.000    0.000    0.000 
#
# Total GULP energy -178178.120415 kJ/mol
# GULP energy per Si atom -5568.066263 kJ/mol
# Density = 1.641152 g / cm^3
# Si number density = 16.448963 Si / 1000 Ang^3
#
#
#
# Elastic Constant Matrix: (Units=GPa)
#
#
# Indices 1 2 3 4 5 6 
#
# 1 109.0583 48.5640 40.6542 0.0000 27.6564 0.0000
# 2 48.5640 87.3680 37.4420 0.0000 17.9293 0.0000
# 3 40.6542 37.4420 81.6711 0.0000 31.3517 0.0000
# 4 0.0000 0.0000 0.0000 22.7026 0.0000 9.6522
# 5 27.6564 17.9293 31.3517 0.0000 22.7195 0.0000
# 6 0.0000 0.0000 0.0000 9.6522 0.0000 21.6896
#
#
#
# Elastic Compliance Matrix: (Units=1/GPa)
#
#
# Indices 1 2 3 4 5 6 
#
# 1 0.015267 -0.005733 0.000906 0.000000 -0.015311 0.000000
# 2 -0.005733 0.016641 -0.005131 0.000000 0.000926 0.000000
# 3 0.000906 -0.005131 0.027675 0.000000 -0.035243 0.000000
# 4 0.000000 0.000000 0.000000 0.054326 0.000000 -0.024176
# 5 -0.015311 0.000926 -0.035243 0.000000 0.110555 0.000000
# 6 0.000000 0.000000 0.000000 -0.024176 0.000000 0.056864
#
#
# Mechanical properties :
#
#
# Convention : Reuss Voigt Hill
#
# Bulk Modulus (GPa) = 25.20976 59.04644 42.12810
# Shear Modulus (GPa) = 15.89998 23.51817 19.70907
#
# Velocity S-wave (km/s) = 3.11243 3.78533 3.46525
# Velocity P-wave (km/s) = 5.31748 7.42156 6.45582
#
# Compressibility (1/GPa) = 0.03966717
#
# Stress axis : x y z
#
# Youngs Moduli (GPa) = 65.50011 60.09188 36.13419
#
# Poissons Ratio (x) = 0.34448 -0.03273
# Poissons Ratio (y) = 0.37548 0.18541
# Poissons Ratio (z) = -0.05933 0.30835
#
# Static dielectric constant tensor:
#      x y z
#    x 1.537910 0.000000 0.020260 
#    y 0.000000 1.606090 0.000000 
#    z 0.020260 0.000000 1.568530 
# 
# From -- ./inp_files/35488.got.cif
#   From: 2010.05.17/outbox.cif.g08.bks.cpg/sg11_18_cif.got.tgz:35488.got - 2010.06.03 12:22:45.
