data_PCOD9156381
_publ_section_title
;
Structure prediction by ZEFSAII (Michael W. Deem and Ramdas Pophale) SiO2 
 PCOD9156381
Probable space group: P 21/M
;
_chemical_formula_sum "Si O2"
_cell_formula_units_Z 32
_cell_length_a 11.923513
_cell_length_b 31.421813
_cell_length_c 5.078287
_cell_angle_alpha 90.000000
_cell_angle_beta 102.756810
_cell_angle_gamma 90.000000
_cell_volume 1855.658674
_symmetry_space_group_name_H-M "P 21/M"
_symmetry_group_IT_number 11
_symmetry_cell_setting 'monoclinic'
loop_
_space_group_symop_operation_xyz
x,y,z
-x,1/2+y,-z
-x,-y,-z
x,1/2-y,z
loop_
_atom_site_type_symbol
_atom_site_label
_atom_site_fract_x
_atom_site_fract_y
_atom_site_fract_z
Si Si1 0.285461 0.557649 0.478147
Si Si2 0.103309 0.147872 0.823243
Si Si3 0.897067 0.797749 0.677709
Si Si4 0.101297 0.487011 0.355934
Si Si5 0.377615 0.514113 0.045216
Si Si6 0.825413 0.297794 0.196680
Si Si7 0.824764 0.147645 0.695673
Si Si8 0.815412 0.554855 0.092501
O O1 0.174230 0.529371 0.349510
O O2 0.319339 0.544082 0.791203
O O3 0.247140 0.605868 0.414734
O O4 0.379247 0.540440 0.318020
O O5 0.134359 0.167819 0.558472
O O6 0.171985 0.105139 0.924797
O O7 0.963965 0.138991 0.757801
O O8 0.130165 0.183815 0.051517
O O9 0.852658 0.750000 0.608436
O O10 0.035881 0.795168 0.741129
O O11 0.168017 0.455274 0.589386
O O12 0.000000 0.500000 0.500000
O O13 0.090318 0.464527 0.066564
O O14 0.298916 0.471725 0.040899
O O15 0.500000 0.500000 0.000000
O O16 0.781005 0.250000 0.126347
O O17 0.798308 0.315959 0.468685
O O18 0.794064 0.332673 0.962114
#
# Coordination Sequence:
#
# PCOD9156381 Si02
#       8
#     4   4   4   4   4   4   4   4
#     4  10  20  32  49  71  91 120 159 193 233 280
#     4  10  18  28  44  66  96 125 153 190 223 266
#     4   9  17  28  42  62  92 130 160 182 217 264
#     4  10  19  30  44  64  96 127 150 180 224 279
#     4  10  21  37  52  66  91 123 156 203 246 279
#     4   9  17  28  42  62  93 131 158 179 216 264
#     4  10  18  28  44  67  96 123 153 190 221 266
#     4  10  20  31  46  68  90 121 160 191 229 276
#
# _framework density 17.24455
#
# number of rings (size 3 to 8) (size 9 to 14) (size 15 to 20)
#    0.000    2.250    0.000    3.750    0.000    7.000 
#    0.000    0.000    0.000    0.000    0.000    0.000 
#    0.000   20.000    0.000    0.000    0.000    0.000 
#
# Total GULP energy -178221.643101 kJ/mol
# GULP energy per Si atom -5569.426347 kJ/mol
# Density = 1.720530 g / cm^3
# Si number density = 17.244550 Si / 1000 Ang^3
#
#
#
# Elastic Constant Matrix: (Units=GPa)
#
#
# Indices 1 2 3 4 5 6 
#
# 1 37.2151 13.7012 -5.6930 0.0000 -10.4897 0.0000
# 2 13.7012 93.6390 -0.1878 0.0000 3.4797 0.0000
# 3 -5.6930 -0.1878 60.3667 0.0000 -5.5119 0.0000
# 4 0.0000 0.0000 0.0000 11.8568 0.0000 5.9342
# 5 -10.4897 3.4797 -5.5119 0.0000 15.0661 0.0000
# 6 0.0000 0.0000 0.0000 5.9342 0.0000 6.1216
#
#
#
# Elastic Compliance Matrix: (Units=1/GPa)
#
#
# Indices 1 2 3 4 5 6 
#
# 1 0.039228 -0.006890 0.006535 0.000000 0.031294 0.000000
# 2 -0.006890 0.011984 -0.001348 0.000000 -0.008058 0.000000
# 3 0.006535 -0.001348 0.018230 0.000000 0.011531 0.000000
# 4 0.000000 0.000000 0.000000 0.163820 0.000000 -0.158804
# 5 0.031294 -0.008058 0.011531 0.000000 0.094242 0.000000
# 6 0.000000 0.000000 0.000000 -0.158804 0.000000 0.317297
#
#
# Mechanical properties :
#
#
# Convention : Reuss Voigt Hill
#
# Bulk Modulus (GPa) = 15.14286 22.98462 19.06374
# Shear Modulus (GPa) = 7.46024 18.83559 13.14792
#
# Velocity S-wave (km/s) = 2.08220 3.30853 2.76423
# Velocity P-wave (km/s) = 3.81851 5.28703 4.61160
#
# Compressibility (1/GPa) = 0.06603773
#
# Stress axis : x y z
#
# Youngs Moduli (GPa) = 25.49200 83.44368 54.85332
#
# Poissons Ratio (x) = 0.57490 -0.35849
# Poissons Ratio (y) = 0.17563 0.07395
# Poissons Ratio (z) = -0.16660 0.11250
#
# Static dielectric constant tensor:
#      x y z
#    x 1.609390 0.000000 -0.010750 
#    y 0.000000 1.587130 0.000000 
#    z -0.010750 0.000000 1.630090 
# 
# From -- ./inp_files/5602.got.cif
#   From: 2010.05.17/outbox.cif.g08.bks.cpg/sg11_3_cif.got.tgz:5602.got - 2010.06.03 12:22:45.
