data_PCOD9156264
_publ_section_title
;
Structure prediction by ZEFSAII (Michael W. Deem and Ramdas Pophale) SiO2 
 PCOD9156264
Probable space group: P 21/M
;
_chemical_formula_sum "Si O2"
_cell_formula_units_Z 28
_cell_length_a 17.936298
_cell_length_b 8.650822
_cell_length_c 15.135457
_cell_angle_alpha 90.000000
_cell_angle_beta 48.677331
_cell_angle_gamma 90.000000
_cell_volume 1763.710766
_symmetry_space_group_name_H-M "P 21/M"
_symmetry_group_IT_number 11
_symmetry_cell_setting 'monoclinic'
loop_
_space_group_symop_operation_xyz
x,y,z
-x,1/2+y,-z
-x,-y,-z
x,1/2-y,z
loop_
_atom_site_type_symbol
_atom_site_label
_atom_site_fract_x
_atom_site_fract_y
_atom_site_fract_z
Si Si1 0.364856 0.434693 0.414501
Si Si2 0.109943 0.567129 0.920303
Si Si3 0.586478 0.937059 0.814868
Si Si4 0.246705 0.431265 0.959208
Si Si5 0.430775 0.069275 0.680182
Si Si6 0.273315 0.437420 0.660880
Si Si7 0.631558 0.562955 0.974542
O O1 0.353766 0.250000 0.419512
O O2 0.362800 0.493032 0.315345
O O3 0.473808 0.473546 0.366906
O O4 0.287030 0.490332 0.549266
O O5 0.106789 0.750000 0.915810
O O6 0.180216 0.501307 0.787468
O O7 0.162505 0.519418 0.971236
O O8 0.000000 0.500000 0.000000
O O9 0.582117 0.750000 0.816114
O O10 0.638988 0.981851 0.865805
O O11 0.473931 0.998815 0.908944
O O12 0.219172 0.250000 0.984808
O O13 0.279996 0.487334 0.029864
O O14 0.346745 0.441333 0.821766
O O15 0.458623 0.250000 0.649631
O O16 0.373011 0.017887 0.637188
O O17 0.268575 0.250000 0.668278
O O18 0.627172 0.750000 0.983318
#
# Coordination Sequence:
#
# PCOD9156264 Si02
#       7
#     4   4   4   4   4   4   4
#     4  10  18  27  41  63  93 126 159 192 223 258
#     4  11  22  36  54  73  91 112 143 187 235 282
#     4   9  17  26  40  64  93 126 164 197 223 258
#     4   9  17  30  47  67  93 125 157 189 229 273
#     4   9  16  26  40  59  88 125 161 189 220 263
#     4   9  19  33  45  62  91 124 153 186 227 272
#     4   9  16  28  43  61  91 129 161 192 229 263
#
# _framework density 15.875619
#
# number of rings (size 3 to 8) (size 9 to 14) (size 15 to 20)
#    0.000    2.571    1.429    2.571    0.000    3.429 
#    0.000    0.000    0.000    0.000    0.000    1.000 
#    0.000    0.000    0.000    0.000    0.000    0.000 
#
# Total GULP energy -156008.400098 kJ/mol
# GULP energy per Si atom -5571.728575 kJ/mol
# Density = 1.583949 g / cm^3
# Si number density = 15.875619 Si / 1000 Ang^3
#
#
#
# Elastic Constant Matrix: (Units=GPa)
#
#
# Indices 1 2 3 4 5 6 
#
# 1 109.1388 24.3734 70.6560 0.0000 21.0736 0.0000
# 2 24.3734 15.6225 19.0087 0.0000 5.6224 0.0000
# 3 70.6560 19.0087 85.0533 0.0000 24.2950 0.0000
# 4 0.0000 0.0000 0.0000 16.3658 0.0000 -3.0692
# 5 21.0736 5.6224 24.2950 0.0000 29.0766 0.0000
# 6 0.0000 0.0000 0.0000 -3.0692 0.0000 20.7297
#
#
#
# Elastic Compliance Matrix: (Units=1/GPa)
#
#
# Indices 1 2 3 4 5 6 
#
# 1 0.022757 -0.017158 -0.014851 0.000000 -0.000767 0.000000
# 2 -0.017158 0.100868 -0.008236 0.000000 -0.000187 0.000000
# 3 -0.014851 -0.008236 0.029430 0.000000 -0.012234 0.000000
# 4 0.000000 0.000000 0.000000 0.062848 0.000000 0.009305
# 5 -0.000767 -0.000187 -0.012234 0.000000 0.045206 0.000000
# 6 0.000000 0.000000 0.000000 0.009305 0.000000 0.049618
#
#
# Mechanical properties :
#
#
# Convention : Reuss Voigt Hill
#
# Bulk Modulus (GPa) = 13.78082 48.65450 31.21766
# Shear Modulus (GPa) = 12.03641 19.61953 15.82797
#
# Velocity S-wave (km/s) = 2.75647 3.51925 3.16095
# Velocity P-wave (km/s) = 4.33938 6.87221 5.74707
#
# Compressibility (1/GPa) = 0.07256461
#
# Stress axis : x y z
#
# Youngs Moduli (GPa) = 43.94216 9.91391 33.97907
#
# Poissons Ratio (x) = 0.17011 0.50463
# Poissons Ratio (y) = 0.75398 0.27985
# Poissons Ratio (z) = 0.65260 0.08165
#
# Static dielectric constant tensor:
#      x y z
#    x 1.542730 0.000000 0.053390 
#    y 0.000000 1.536770 0.000000 
#    z 0.053390 0.000000 1.542250 
# 
# From -- ./inp_files/42606.got.cif
#   From: 2010.05.17/outbox.cif.g08.bks.cpg/sg11_22_cif.got.tgz:42606.got - 2010.06.03 12:22:45.
