data_PCOD9156627
_publ_section_title
;
Structure prediction by ZEFSAII (Michael W. Deem and Ramdas Pophale) SiO2 
 PCOD9156627
Probable space group: P 21/M
;
_chemical_formula_sum "Si O2"
_cell_formula_units_Z 20
_cell_length_a 30.090538
_cell_length_b 8.657631
_cell_length_c 12.978418
_cell_angle_alpha 90.000000
_cell_angle_beta 160.329407
_cell_angle_gamma 90.000000
_cell_volume 1138.099894
_symmetry_space_group_name_H-M "P 21/M"
_symmetry_group_IT_number 11
_symmetry_cell_setting 'monoclinic'
loop_
_space_group_symop_operation_xyz
x,y,z
-x,1/2+y,-z
-x,-y,-z
x,1/2-y,z
loop_
_atom_site_type_symbol
_atom_site_label
_atom_site_fract_x
_atom_site_fract_y
_atom_site_fract_z
Si Si1 0.640721 0.934700 0.843886
Si Si2 0.856731 0.065622 0.160833
Si Si3 0.647590 0.065519 0.302245
Si Si4 0.593864 0.565681 0.976579
Si Si5 0.299769 0.434617 0.371935
O O1 0.643635 0.750000 0.833634
O O2 0.651766 0.964425 0.990122
O O3 0.500000 0.000000 0.500000
O O4 0.754451 0.013320 0.025754
O O5 0.859744 0.250000 0.160434
O O6 0.000000 0.000000 0.500000
O O7 0.801714 0.996287 0.934016
O O8 0.645825 0.250000 0.300903
O O9 0.728461 0.999567 0.575249
O O10 0.500000 0.000000 0.000000
O O11 0.677650 0.005246 0.253398
O O12 0.582150 0.750000 0.965545
O O13 0.446001 0.495148 0.659254
O O14 0.302318 0.250000 0.379470
#
# Coordination Sequence:
#
# PCOD9156627 Si02
#       5
#     4   4   4   4   4
#     4  11  22  36  58  85 116 151 189 234 284 334
#     4  12  25  41  59  82 114 151 193 235 283 342
#     4  10  18  29  48  76 110 145 183 228 280 331
#     4  10  19  32  52  81 114 146 184 230 280 332
#     4  11  20  33  54  79 111 147 187 231 281 335
#
# _framework density 17.573150999999999
#
# number of rings (size 3 to 8) (size 9 to 14) (size 15 to 20)
#    0.000    1.200    2.000    9.000    0.000    2.400 
#    0.000    0.000    0.000    1.200    0.000    0.000 
#    0.000    0.000    0.000    0.000    0.000    0.000 
#
# Total GULP energy -111722.986948 kJ/mol
# GULP energy per Si atom -5586.149347 kJ/mol
# Density = 1.753315 g / cm^3
# Si number density = 17.573151 Si / 1000 Ang^3
#
#
#
# Elastic Constant Matrix: (Units=GPa)
#
#
# Indices 1 2 3 4 5 6 
#
# 1 137.6250 86.3295 75.8456 0.0000 -37.6411 0.0000
# 2 86.3295 171.8188 56.4437 0.0000 -24.8901 0.0000
# 3 75.8456 56.4437 105.8423 0.0000 -19.1332 0.0000
# 4 0.0000 0.0000 0.0000 27.4557 0.0000 -5.7291
# 5 -37.6411 -24.8901 -19.1332 0.0000 33.5942 0.0000
# 6 0.0000 0.0000 0.0000 -5.7291 0.0000 33.1838
#
#
#
# Elastic Compliance Matrix: (Units=1/GPa)
#
#
# Indices 1 2 3 4 5 6 
#
# 1 0.017996 -0.004576 -0.008275 0.000000 0.012060 0.000000
# 2 -0.004576 0.008595 -0.001204 0.000000 0.000555 0.000000
# 3 -0.008275 -0.001204 0.015810 0.000000 -0.001159 0.000000
# 4 0.000000 0.000000 0.000000 0.037783 0.000000 0.006523
# 5 0.012060 0.000555 -0.001159 0.000000 0.043031 0.000000
# 6 0.000000 0.000000 0.000000 0.006523 0.000000 0.031261
#
#
# Mechanical properties :
#
#
# Convention : Reuss Voigt Hill
#
# Bulk Modulus (GPa) = 69.97619 94.72485 82.35052
# Shear Modulus (GPa) = 26.68790 31.95790 29.32290
#
# Velocity S-wave (km/s) = 3.90125 4.26909 4.08931
# Velocity P-wave (km/s) = 7.75882 8.84988 8.32225
#
# Compressibility (1/GPa) = 0.01429058
#
# Stress axis : x y z
#
# Youngs Moduli (GPa) = 55.56927 116.34131 63.25011
#
# Poissons Ratio (x) = 0.53242 0.52339
# Poissons Ratio (y) = 0.25431 0.07616
# Poissons Ratio (z) = 0.45983 0.14008
#
# Static dielectric constant tensor:
#      x y z
#    x 1.636760 0.000000 -0.029700 
#    y 0.000000 1.585020 0.000000 
#    z -0.029700 0.000000 1.581910 
# 
# From -- ./inp_files/23902.got.cif
#   From: 2010.05.17/outbox.cif.g08.bks.cpg/sg11_12_cif.got.tgz:23902.got - 2010.06.03 12:22:45.
