data_PCOD9156826
_publ_section_title
;
Structure prediction by ZEFSAII (Michael W. Deem and Ramdas Pophale) SiO2 
 PCOD9156826
Probable space group: P 21/M
;
_chemical_formula_sum "Si O2"
_cell_formula_units_Z 32
_cell_length_a 21.628148
_cell_length_b 8.214602
_cell_length_c 16.151360
_cell_angle_alpha 90.000000
_cell_angle_beta 26.124774
_cell_angle_gamma 90.000000
_cell_volume 1263.544938
_symmetry_space_group_name_H-M "P 21/M"
_symmetry_group_IT_number 11
_symmetry_cell_setting 'monoclinic'
loop_
_space_group_symop_operation_xyz
x,y,z
-x,1/2+y,-z
-x,-y,-z
x,1/2-y,z
loop_
_atom_site_type_symbol
_atom_site_label
_atom_site_fract_x
_atom_site_fract_y
_atom_site_fract_z
Si Si1 0.502132 0.941097 0.401594
Si Si2 0.707888 0.440938 0.744258
Si Si3 0.598033 0.558329 0.711643
Si Si4 0.897061 0.550671 0.289023
Si Si5 0.004536 0.941146 0.398944
Si Si6 0.198166 0.939758 0.952693
Si Si7 0.699897 0.939199 0.943572
Si Si8 0.210138 0.440446 0.753534
O O1 0.526342 0.250000 0.569939
O O2 0.662402 0.973279 0.182003
O O3 0.369175 0.038599 0.526355
O O4 0.500000 0.000000 0.500000
O O5 0.677372 0.250000 0.783120
O O6 0.608988 0.528960 0.797217
O O7 0.699620 0.512521 0.846445
O O8 0.870736 0.468895 0.521663
O O9 0.589255 0.750000 0.706430
O O10 0.748135 0.491576 0.501588
O O11 0.459709 0.478048 0.839803
O O12 0.896890 0.750000 0.295243
O O13 0.892062 0.508969 0.197666
O O14 0.041076 0.496136 0.158679
O O15 0.975353 0.750000 0.427985
O O16 0.165674 0.970571 0.178798
O O17 0.000000 0.000000 0.500000
O O18 0.208128 0.750000 0.961663
O O19 0.202894 0.957814 0.846283
O O20 0.728157 0.750000 0.918535
O O21 0.190005 0.250000 0.797867
#
# Coordination Sequence:
#
# PCOD9156826 Si02
#       8
#     4   4   4   4   4   4   4   4
#     4  10  18  30  49  78 107 136 170 214 262 310
#     4  11  21  36  57  84 111 141 177 221 269 319
#     4  11  22  39  56  76 106 145 186 225 264 316
#     4   9  21  37  55  76 105 141 180 217 262 316
#     4  10  18  32  55  84 111 140 174 218 266 316
#     4  10  18  33  55  81 106 136 173 216 262 313
#     4  11  21  36  57  84 111 141 177 221 269 319
#     4  10  18  33  55  81 106 136 173 216 262 313
#
# _framework density 25.325574
#
# number of rings (size 3 to 8) (size 9 to 14) (size 15 to 20)
#    0.000    1.750    0.000    9.375    0.000    0.000 
#    0.000    8.125    0.000    3.000    0.000    0.000 
#    0.000    0.000    0.000    0.000    0.000    0.000 
#
# Total GULP energy -179112.988932 kJ/mol
# GULP energy per Si atom -5597.280904 kJ/mol
# Density = 2.526793 g / cm^3
# Si number density = 25.325574 Si / 1000 Ang^3
#
#
#
# Elastic Constant Matrix: (Units=GPa)
#
#
# Indices 1 2 3 4 5 6 
#
# 1 105.7252 -3.9975 24.8973 0.0000 -30.9326 0.0000
# 2 -3.9975 97.3440 -9.0802 0.0000 -3.3408 0.0000
# 3 24.8973 -9.0802 146.6726 0.0000 -18.2797 0.0000
# 4 0.0000 0.0000 0.0000 33.6741 0.0000 -10.2630
# 5 -30.9326 -3.3408 -18.2797 0.0000 53.4925 0.0000
# 6 0.0000 0.0000 0.0000 -10.2630 0.0000 16.4924
#
#
#
# Elastic Compliance Matrix: (Units=1/GPa)
#
#
# Indices 1 2 3 4 5 6 
#
# 1 0.011611 0.000589 -0.001142 0.000000 0.006361 0.000000
# 2 0.000589 0.010404 0.000697 0.000000 0.001228 0.000000
# 3 -0.001142 0.000697 0.007288 0.000000 0.001874 0.000000
# 4 0.000000 0.000000 0.000000 0.036647 0.000000 0.022805
# 5 0.006361 0.001228 0.001874 0.000000 0.023089 0.000000
# 6 0.000000 0.000000 0.000000 0.022805 0.000000 0.074825
#
#
# Mechanical properties :
#
#
# Convention : Reuss Voigt Hill
#
# Bulk Modulus (GPa) = 33.79350 41.48677 37.64013
# Shear Modulus (GPa) = 28.82849 43.25996 36.04423
#
# Velocity S-wave (km/s) = 3.37755 4.13746 3.77667
# Velocity P-wave (km/s) = 5.34631 6.26432 5.82344
#
# Compressibility (1/GPa) = 0.02959149
#
# Stress axis : x y z
#
# Youngs Moduli (GPa) = 86.12879 96.11487 137.20378
#
# Poissons Ratio (x) = -0.05657 0.15665
# Poissons Ratio (y) = -0.05069 -0.09567
# Poissons Ratio (z) = 0.09833 -0.06702
#
# Static dielectric constant tensor:
#      x y z
#    x 2.383040 0.000000 0.324140 
#    y 0.000000 1.825540 0.000000 
#    z 0.324140 0.000000 2.328980 
# 
# From -- ./inp_files/67103.got.cif
#   From: 2010.05.17/outbox.cif.g08.bks.cpg/sg11_34_cif.got.tgz:67103.got - 2010.06.03 12:22:45.
