data_PCOD9156814
_publ_section_title
;
Structure prediction by ZEFSAII (Michael W. Deem and Ramdas Pophale) SiO2 
 PCOD9156814
Probable space group: P 21/M
;
_chemical_formula_sum "Si O2"
_cell_formula_units_Z 32
_cell_length_a 29.287781
_cell_length_b 7.678886
_cell_length_c 12.718927
_cell_angle_alpha 90.000000
_cell_angle_beta 149.278877
_cell_angle_gamma 90.000000
_cell_volume 1461.291848
_symmetry_space_group_name_H-M "P 21/M"
_symmetry_group_IT_number 11
_symmetry_cell_setting 'monoclinic'
loop_
_space_group_symop_operation_xyz
x,y,z
-x,1/2+y,-z
-x,-y,-z
x,1/2-y,z
loop_
_atom_site_type_symbol
_atom_site_label
_atom_site_fract_x
_atom_site_fract_y
_atom_site_fract_z
Si Si1 0.232893 0.038491 0.779362
Si Si2 0.858950 0.960568 0.009130
Si Si3 0.711639 0.548655 0.553178
Si Si4 0.491831 0.463195 0.821573
Si Si5 0.279117 0.038326 0.096357
Si Si6 0.038053 0.048643 0.460104
Si Si7 0.462140 0.042226 0.538184
Si Si8 0.321694 0.545374 0.733704
O O1 0.234609 0.250000 0.778201
O O2 0.132007 0.973117 0.604634
O O3 0.274587 0.976723 0.752921
O O4 0.286396 0.982051 0.990389
O O5 0.862638 0.750000 0.012361
O O6 0.792728 0.022221 0.784806
O O7 0.810933 0.013278 0.023330
O O8 0.960023 0.022602 0.220039
O O9 0.703046 0.750000 0.570576
O O10 0.610044 0.476627 0.361042
O O11 0.730315 0.539506 0.466123
O O12 0.492809 0.250000 0.831068
O O13 0.510987 0.519838 0.738996
O O14 0.575976 0.524982 0.056213
O O15 0.280685 0.250000 0.098351
O O16 0.360323 0.978471 0.329772
O O17 0.058646 0.250000 0.512637
O O18 0.000000 0.000000 0.500000
O O19 0.460096 0.250000 0.543608
O O20 0.500000 0.000000 0.500000
O O21 0.325992 0.750000 0.719365
#
# Coordination Sequence:
#
# PCOD9156814 Si02
#       8
#     4   4   4   4   4   4   4   4
#     4  10  21  38  58  81 113 152 191 227 277 349
#     4  10  19  36  61  87 112 144 188 234 282 336
#     4  10  20  38  63  83 109 155 199 233 281 346
#     4   9  18  34  56  81 111 150 193 234 278 335
#     4   9  16  31  55  79 107 145 184 224 272 335
#     4  11  22  37  61  90 119 150 186 232 284 343
#     4  10  18  30  49  75 110 148 186 225 273 333
#     4  11  23  37  55  83 118 150 190 246 290 325
#
# _framework density 21.898433000000001
#
# number of rings (size 3 to 8) (size 9 to 14) (size 15 to 20)
#    0.000    2.000    2.500    1.875    0.000    1.500 
#    0.000    3.125    0.000    0.000    0.000    0.000 
#    0.000    0.000    0.000    0.000    0.000    0.000 
#
# Total GULP energy -178548.591708 kJ/mol
# GULP energy per Si atom -5579.643491 kJ/mol
# Density = 2.184859 g / cm^3
# Si number density = 21.898433 Si / 1000 Ang^3
#
#
#
# Elastic Constant Matrix: (Units=GPa)
#
#
# Indices 1 2 3 4 5 6 
#
# 1 70.3398 -3.9463 35.5693 0.0000 -15.3344 0.0000
# 2 -3.9463 39.3224 -5.7616 0.0000 2.2105 0.0000
# 3 35.5693 -5.7616 119.0185 0.0000 -12.0250 0.0000
# 4 0.0000 0.0000 0.0000 15.9253 0.0000 -2.1497
# 5 -15.3344 2.2105 -12.0250 0.0000 37.0805 0.0000
# 6 0.0000 0.0000 0.0000 -2.1497 0.0000 19.3848
#
#
#
# Elastic Compliance Matrix: (Units=1/GPa)
#
#
# Indices 1 2 3 4 5 6 
#
# 1 0.017923 0.000778 -0.004730 0.000000 0.005832 0.000000
# 2 0.000778 0.025695 0.000919 0.000000 -0.000912 0.000000
# 3 -0.004730 0.000919 0.009984 0.000000 0.001227 0.000000
# 4 0.000000 0.000000 0.000000 0.063747 0.000000 0.007069
# 5 0.005832 -0.000912 0.001227 0.000000 0.029832 0.000000
# 6 0.000000 0.000000 0.000000 0.007069 0.000000 0.052371
#
#
# Mechanical properties :
#
#
# Convention : Reuss Voigt Hill
#
# Bulk Modulus (GPa) = 21.03611 31.15595 26.09603
# Shear Modulus (GPa) = 22.57706 27.99939 25.28822
#
# Velocity S-wave (km/s) = 3.21439 3.57963 3.40192
# Velocity P-wave (km/s) = 4.83771 5.59852 5.23196
#
# Compressibility (1/GPa) = 0.04753732
#
# Stress axis : x y z
#
# Youngs Moduli (GPa) = 55.79298 38.91830 100.16020
#
# Poissons Ratio (x) = -0.03027 0.47372
# Poissons Ratio (y) = -0.04340 -0.09207
# Poissons Ratio (z) = 0.26388 -0.03578
#
# Static dielectric constant tensor:
#      x y z
#    x 1.855900 0.000000 0.000340 
#    y 0.000000 1.834050 0.000000 
#    z 0.000340 0.000000 1.856370 
# 
# From -- ./inp_files/45309.got.cif
#   From: 2010.05.17/outbox.cif.g08.bks.cpg/sg11_23_cif.got.tgz:45309.got - 2010.06.03 12:22:45.
