data_PCOD9156562
_publ_section_title
;
Structure prediction by ZEFSAII (Michael W. Deem and Ramdas Pophale) SiO2 
 PCOD9156562
Probable space group: P 21/M
;
_chemical_formula_sum "Si O2"
_cell_formula_units_Z 28
_cell_length_a 6.807754
_cell_length_b 18.144662
_cell_length_c 10.119117
_cell_angle_alpha 90.000000
_cell_angle_beta 115.151721
_cell_angle_gamma 90.000000
_cell_volume 1131.443690
_symmetry_space_group_name_H-M "P 21/M"
_symmetry_group_IT_number 11
_symmetry_cell_setting 'monoclinic'
loop_
_space_group_symop_operation_xyz
x,y,z
-x,1/2+y,-z
-x,-y,-z
x,1/2-y,z
loop_
_atom_site_type_symbol
_atom_site_label
_atom_site_fract_x
_atom_site_fract_y
_atom_site_fract_z
Si Si1 0.970920 0.834075 0.100372
Si Si2 0.771089 0.426996 0.407578
Si Si3 0.617671 0.163067 0.144367
Si Si4 0.040563 0.529733 0.293014
Si Si5 0.208970 0.162355 0.514232
Si Si6 0.885796 0.878669 0.793821
Si Si7 0.474798 0.662528 0.167389
O O1 0.939134 0.750000 0.137597
O O2 0.946789 0.897196 0.201434
O O3 0.224090 0.844180 0.134891
O O4 0.844197 0.846336 0.926489
O O5 0.592877 0.385791 0.268966
O O6 0.753276 0.455436 0.551681
O O7 0.866014 0.490769 0.339818
O O8 0.972850 0.369980 0.479849
O O9 0.580748 0.250000 0.155910
O O10 0.874752 0.153360 0.179124
O O11 0.501676 0.135625 0.976895
O O12 0.095725 0.467409 0.200763
O O13 0.201894 0.250000 0.518875
O O14 0.254840 0.141382 0.375271
O O15 0.381842 0.134413 0.670597
O O16 0.516084 0.750000 0.169506
#
# Coordination Sequence:
#
# PCOD9156562 Si02
#       7
#     4   4   4   4   4   4   4
#     4  10  18  29  47  68  87 111 146 182 218 261
#     4   9  17  29  45  64  88 119 150 179 216 257
#     4   8  13  24  43  64  85 113 150 183 209 250
#     4   9  18  30  45  64  90 116 145 182 219 257
#     4   9  15  26  46  68  90 116 148 184 217 255
#     4   9  16  28  45  64  87 115 145 178 219 260
#     4   8  15  26  42  66  91 114 143 183 225 257
#
# _framework density 24.747146000000001
#
# number of rings (size 3 to 8) (size 9 to 14) (size 15 to 20)
#    0.000    3.429    0.000    3.857    0.000    1.143 
#    0.000    2.857    0.000   23.143    0.000    4.000 
#    0.000    0.000    0.000    0.000    0.000    0.000 
#
# Total GULP energy -156445.312567 kJ/mol
# GULP energy per Si atom -5587.332592 kJ/mol
# Density = 2.469082 g / cm^3
# Si number density = 24.747146 Si / 1000 Ang^3
#
#
#
# Elastic Constant Matrix: (Units=GPa)
#
#
# Indices 1 2 3 4 5 6 
#
# 1 61.7484 12.0215 32.0821 0.0000 -0.4448 0.0000
# 2 12.0215 148.6982 73.7005 0.0000 -4.1457 0.0000
# 3 32.0821 73.7005 184.4038 0.0000 21.0025 0.0000
# 4 0.0000 0.0000 0.0000 45.8444 0.0000 -9.9419
# 5 -0.4448 -4.1457 21.0025 0.0000 35.5701 0.0000
# 6 0.0000 0.0000 0.0000 -9.9419 0.0000 2.4152
#
#
#
# Elastic Compliance Matrix: (Units=1/GPa)
#
#
# Indices 1 2 3 4 5 6 
#
# 1 0.017982 0.000369 -0.003545 0.000000 0.002361 0.000000
# 2 0.000369 0.008741 -0.003939 0.000000 0.003349 0.000000
# 3 -0.003545 -0.003939 0.008224 0.000000 -0.005360 0.000000
# 4 0.000000 0.000000 0.000000 0.203250 0.000000 0.836651
# 5 0.002361 0.003349 -0.005360 0.000000 0.031698 0.000000
# 6 0.000000 0.000000 0.000000 0.836651 0.000000 3.857997
#
#
# Mechanical properties :
#
#
# Convention : Reuss Voigt Hill
#
# Bulk Modulus (GPa) = 48.26914 70.05094 59.16004
# Shear Modulus (GPa) = 1.20510 35.23570 18.22040
#
# Velocity S-wave (km/s) = 0.69859 3.77746 2.71636
# Velocity P-wave (km/s) = 4.49422 6.88431 5.81342
#
# Compressibility (1/GPa) = 0.02071717
#
# Stress axis : x y z
#
# Youngs Moduli (GPa) = 55.61221 114.40372 121.58978
#
# Poissons Ratio (x) = -0.04222 0.43101
# Poissons Ratio (y) = -0.02052 0.47896
# Poissons Ratio (z) = 0.19713 0.45065
#
# Static dielectric constant tensor:
#      x y z
#    x 2.068900 0.000000 0.024940 
#    y 0.000000 1.926230 0.000000 
#    z 0.024940 0.000000 1.999990 
# 
# From -- ./inp_files/35948.got.cif
#   From: 2010.05.17/outbox.cif.g08.bks.cpg/sg11_18_cif.got.tgz:35948.got - 2010.06.03 12:22:45.
