data_PCOD9156856
_publ_section_title
;
Structure prediction by ZEFSAII (Michael W. Deem and Ramdas Pophale) SiO2 
 PCOD9156856
Probable space group: P 21/M
;
_chemical_formula_sum "Si O2"
_cell_formula_units_Z 24
_cell_length_a 11.451751
_cell_length_b 8.660215
_cell_length_c 20.409840
_cell_angle_alpha 90.000000
_cell_angle_beta 44.077936
_cell_angle_gamma 90.000000
_cell_volume 1408.063841
_symmetry_space_group_name_H-M "P 21/M"
_symmetry_group_IT_number 11
_symmetry_cell_setting 'monoclinic'
loop_
_space_group_symop_operation_xyz
x,y,z
-x,1/2+y,-z
-x,-y,-z
x,1/2-y,z
loop_
_atom_site_type_symbol
_atom_site_label
_atom_site_fract_x
_atom_site_fract_y
_atom_site_fract_z
Si Si1 0.310850 0.937343 0.218056
Si Si2 0.613090 0.935442 0.013912
Si Si3 0.815915 0.435473 0.589237
Si Si4 0.625253 0.934642 0.542676
Si Si5 0.092605 0.935126 0.179055
Si Si6 0.256149 0.934670 0.640373
O O1 0.305815 0.750000 0.220519
O O2 0.247854 0.991038 0.313870
O O3 0.188451 0.985564 0.207721
O O4 0.502231 0.980156 0.121930
O O5 0.620509 0.750000 0.007447
O O6 0.795930 0.003880 0.926353
O O7 0.500000 0.000000 0.000000
O O8 0.822813 0.250000 0.587452
O O9 0.693155 0.490569 0.581293
O O10 0.000000 0.500000 0.500000
O O11 0.641071 0.750000 0.539991
O O12 0.431204 0.974334 0.605760
O O13 0.730525 0.994190 0.437742
O O14 0.090775 0.750000 0.178656
O O15 0.905879 0.000242 0.257790
O O16 0.245974 0.750000 0.639378
#
# Coordination Sequence:
#
# PCOD9156856 Si02
#       6
#     4   4   4   4   4   4
#     4   8  17  31  47  69  99 132 161 198 244 289
#     4   9  16  29  47  69  98 130 165 204 248 293
#     4  11  21  34  52  74 101 134 170 203 244 296
#     4  10  21  36  51  72 102 131 164 207 251 294
#     4  10  18  30  50  76 103 128 160 205 253 297
#     4  10  20  34  53  74  97 130 168 205 247 297
#
# _framework density 17.044682000000002
#
# number of rings (size 3 to 8) (size 9 to 14) (size 15 to 20)
#    0.000    2.333    0.000    4.500    0.000    3.333 
#    0.000    9.167    0.000    1.000    0.000    0.000 
#    0.000    0.000    0.000    0.000    0.000    0.000 
#
# Total GULP energy -133841.283531 kJ/mol
# GULP energy per Si atom -5576.720147 kJ/mol
# Density = 1.700589 g / cm^3
# Si number density = 17.044682 Si / 1000 Ang^3
#
#
#
# Elastic Constant Matrix: (Units=GPa)
#
#
# Indices 1 2 3 4 5 6 
#
# 1 50.8524 20.3873 44.5805 0.0000 5.2944 0.0000
# 2 20.3873 46.4283 36.2365 0.0000 -3.4006 0.0000
# 3 44.5805 36.2365 170.0275 0.0000 -9.1209 0.0000
# 4 0.0000 0.0000 0.0000 29.9222 0.0000 -3.9495
# 5 5.2944 -3.4006 -9.1209 0.0000 25.7559 0.0000
# 6 0.0000 0.0000 0.0000 -3.9495 0.0000 24.8199
#
#
#
# Elastic Compliance Matrix: (Units=1/GPa)
#
#
# Indices 1 2 3 4 5 6 
#
# 1 0.029849 -0.008756 -0.006474 0.000000 -0.009585 0.000000
# 2 -0.008756 0.028461 -0.003539 0.000000 0.004304 0.000000
# 3 -0.006474 -0.003539 0.008542 0.000000 0.003888 0.000000
# 4 0.000000 0.000000 0.000000 0.034137 0.000000 0.005432
# 5 -0.009585 0.004304 0.003888 0.000000 0.042742 0.000000
# 6 0.000000 0.000000 0.000000 0.005432 0.000000 0.041155
#
#
# Mechanical properties :
#
#
# Convention : Reuss Voigt Hill
#
# Bulk Modulus (GPa) = 34.11457 52.19076 43.15266
# Shear Modulus (GPa) = 21.53373 27.17320 24.35347
#
# Velocity S-wave (km/s) = 3.55825 3.99712 3.78405
# Velocity P-wave (km/s) = 6.07781 7.21034 6.66816
#
# Compressibility (1/GPa) = 0.02931299
#
# Stress axis : x y z
#
# Youngs Moduli (GPa) = 33.50221 35.13609 117.07196
#
# Poissons Ratio (x) = 0.30765 0.75796
# Poissons Ratio (y) = 0.29334 0.41431
# Poissons Ratio (z) = 0.21690 0.12434
#
# Static dielectric constant tensor:
#      x y z
#    x 1.574310 0.000000 -0.018210 
#    y 0.000000 1.572280 0.000000 
#    z -0.018210 0.000000 1.604510 
# 
# From -- ./inp_files/42261.got.cif
#   From: 2010.05.17/outbox.cif.g08.bks.cpg/sg11_22_cif.got.tgz:42261.got - 2010.06.03 12:22:45.
