data_PCOD9156104
_publ_section_title
;
Structure prediction by ZEFSAII (Michael W. Deem and Ramdas Pophale) SiO2 
 PCOD9156104
Probable space group: P 21/M
;
_chemical_formula_sum "Si O2"
_cell_formula_units_Z 32
_cell_length_a 15.877674
_cell_length_b 20.136069
_cell_length_c 16.633606
_cell_angle_alpha 90.000000
_cell_angle_beta 18.398522
_cell_angle_gamma 90.000000
_cell_volume 1678.490050
_symmetry_space_group_name_H-M "P 21/M"
_symmetry_group_IT_number 11
_symmetry_cell_setting 'monoclinic'
loop_
_space_group_symop_operation_xyz
x,y,z
-x,1/2+y,-z
-x,-y,-z
x,1/2-y,z
loop_
_atom_site_type_symbol
_atom_site_label
_atom_site_fract_x
_atom_site_fract_y
_atom_site_fract_z
Si Si1 0.626705 0.988845 0.721579
Si Si2 0.475011 0.870866 0.264565
Si Si3 0.760233 0.601724 0.735350
Si Si4 0.811324 0.540915 0.284689
Si Si5 0.691928 0.548815 0.215644
Si Si6 0.058437 0.583603 0.217791
Si Si7 0.098355 0.323354 0.240754
Si Si8 0.807993 0.327592 0.768284
O O1 0.707116 0.969334 0.740476
O O2 0.857489 0.960009 0.454751
O O3 0.584387 0.064777 0.737622
O O4 0.347214 0.951875 0.955631
O O5 0.586255 0.898101 0.247871
O O6 0.198858 0.832543 0.522288
O O7 0.692784 0.828890 0.020057
O O8 0.843557 0.615502 0.751048
O O9 0.991566 0.636513 0.474160
O O10 0.484215 0.641494 0.976192
O O11 0.750899 0.572976 0.252885
O O12 0.542162 0.506143 0.561123
O O13 0.933739 0.586799 0.242684
O O14 0.038329 0.485029 0.062274
O O15 0.093334 0.652820 0.232116
O O16 0.124087 0.250000 0.256773
O O17 0.804131 0.250000 0.757135
#
# Coordination Sequence:
#
# PCOD9156104 Si02
#       8
#     4   4   4   4   4   4   4   4
#     4  10  20  34  56  85 110 139 169 220 301 323
#     4  12  22  38  59  81 114 140 183 237 276 336
#     4  10  22  38  56  78 107 138 183 238 273 327
#     4  10  17  32  53  83 115 137 172 211 269 337
#     4  10  20  31  55  84 108 142 171 218 273 325
#     4  10  17  31  52  80 116 140 167 219 265 336
#     4  12  26  40  57  76 104 153 199 231 262 313
#     4  10  19  32  54  77 105 143 180 220 269 323
#
# _framework density 19.064754000000001
#
# number of rings (size 3 to 8) (size 9 to 14) (size 15 to 20)
#    0.000    1.500    2.500    3.750    0.000    1.000 
#    0.000    0.000    0.000    1.500    0.000    0.000 
#    0.000    0.000    0.000    0.000    0.000    0.000 
#
# Total GULP energy -178730.847488 kJ/mol
# GULP energy per Si atom -5585.338984 kJ/mol
# Density = 1.902136 g / cm^3
# Si number density = 19.064754 Si / 1000 Ang^3
#
#
#
# Elastic Constant Matrix: (Units=GPa)
#
#
# Indices 1 2 3 4 5 6 
#
# 1 125.6602 9.2350 20.2404 0.0000 -6.6197 0.0000
# 2 9.2350 37.0213 15.4648 0.0000 -1.6611 0.0000
# 3 20.2404 15.4648 108.9427 0.0000 -17.7260 0.0000
# 4 0.0000 0.0000 0.0000 -39.8031 0.0000 31.1691
# 5 -6.6197 -1.6611 -17.7260 0.0000 23.0257 0.0000
# 6 0.0000 0.0000 0.0000 31.1691 0.0000 4.1870
#
#
#
# Elastic Compliance Matrix: (Units=1/GPa)
#
#
# Indices 1 2 3 4 5 6 
#
# 1 0.008324 -0.001556 -0.001091 0.000000 0.001441 0.000000
# 2 -0.001556 0.029035 -0.004075 0.000000 -0.001490 0.000000
# 3 -0.001091 -0.004075 0.011274 0.000000 0.008071 0.000000
# 4 0.000000 0.000000 0.000000 -0.003679 0.000000 0.027385
# 5 0.001441 -0.001490 0.008071 0.000000 0.049950 0.000000
# 6 0.000000 0.000000 0.000000 0.027385 0.000000 0.034971
#
#
# Mechanical properties :
#
#
# Convention : Reuss Voigt Hill
#
# Bulk Modulus (GPa) = 28.41850 40.16717 34.29283
# Shear Modulus (GPa) = 32.24800 12.59420 22.42110
#
# Velocity S-wave (km/s) = 4.11724 2.57300 3.43308
# Velocity P-wave (km/s) = 6.12707 5.47190 5.80873
#
# Compressibility (1/GPa) = 0.03518834
#
# Stress axis : x y z
#
# Youngs Moduli (GPa) = 120.13480 34.44127 88.70301
#
# Poissons Ratio (x) = 0.05359 0.09679
# Poissons Ratio (y) = 0.18692 0.36146
# Poissons Ratio (z) = 0.13109 0.14035
#
# Static dielectric constant tensor:
#      x y z
#    x 1.693240 0.000000 0.000610 
#    y 0.000000 1.632900 0.000000 
#    z 0.000610 0.000000 1.664600 
# 
# From -- ./inp_files/52663.got.cif
#   From: 2010.05.17/outbox.cif.g08.bks.cpg/sg11_27_cif.got.tgz:52663.got - 2010.06.03 12:22:45.
