data_PCOD9156901
_publ_section_title
;
Structure prediction by ZEFSAII (Michael W. Deem and Ramdas Pophale) SiO2 
 PCOD9156901
Probable space group: P 21/M
;
_chemical_formula_sum "Si O2"
_cell_formula_units_Z 28
_cell_length_a 9.207696
_cell_length_b 8.610332
_cell_length_c 29.673930
_cell_angle_alpha 90.000000
_cell_angle_beta 140.872169
_cell_angle_gamma 90.000000
_cell_volume 1484.607196
_symmetry_space_group_name_H-M "P 21/M"
_symmetry_group_IT_number 11
_symmetry_cell_setting 'monoclinic'
loop_
_space_group_symop_operation_xyz
x,y,z
-x,1/2+y,-z
-x,-y,-z
x,1/2-y,z
loop_
_atom_site_type_symbol
_atom_site_label
_atom_site_fract_x
_atom_site_fract_y
_atom_site_fract_z
Si Si1 0.536454 0.436764 0.148869
Si Si2 0.834714 0.064576 0.999999
Si Si3 0.611615 0.062803 0.709619
Si Si4 0.756924 0.936827 0.568011
Si Si5 0.063523 0.437197 0.290381
Si Si6 0.083130 0.063173 0.568011
Si Si7 0.207888 0.936764 0.148869
O O1 0.520761 0.250000 0.145022
O O2 0.413840 0.501616 0.074402
O O3 0.392156 0.500002 0.156863
O O4 0.801190 0.485161 0.217305
O O5 0.836796 0.250000 0.999999
O O6 0.000000 0.000000 0.000000
O O7 0.958168 0.001619 0.074401
O O8 0.615785 0.250000 0.709329
O O9 0.346372 0.013685 0.640572
O O10 0.714670 0.014836 0.782696
O O11 0.764311 0.000002 0.705724
O O12 0.753434 0.750000 0.565539
O O13 0.856487 0.986315 0.640572
O O14 0.500000 0.000000 0.500000
O O15 0.918766 0.000000 0.567506
O O16 0.069147 0.250000 0.290672
O O17 0.074259 0.250000 0.565539
O O18 0.000000 0.000000 0.500000
O O19 0.204337 0.750000 0.145020
#
# Coordination Sequence:
#
# PCOD9156901 Si02
#       7
#     4   4   4   4   4   4   4
#     4  10  19  34  55  81 109 142 182 228 276 328
#     4  10  18  30  51  80 109 142 180 224 274 328
#     4  10  23  39  57  81 112 147 187 230 277 328
#     4  11  23  40  61  88 117 150 188 231 279 332
#     4  10  23  39  57  81 112 147 187 230 277 328
#     4  11  23  40  61  88 117 150 188 231 279 332
#     4  10  19  34  55  81 109 142 182 228 276 328
#
# _framework density 18.860208
#
# number of rings (size 3 to 8) (size 9 to 14) (size 15 to 20)
#    0.000    1.714    0.000    6.429    0.000    6.857 
#    0.000    0.714    0.000    0.000    0.000    0.000 
#    0.000    0.000    0.000    0.000    0.000    0.000 
#
# Total GULP energy -156441.073248 kJ/mol
# GULP energy per Si atom -5587.181187 kJ/mol
# Density = 1.881728 g / cm^3
# Si number density = 18.860208 Si / 1000 Ang^3
#
#
#
# Elastic Constant Matrix: (Units=GPa)
#
#
# Indices 1 2 3 4 5 6 
#
# 1 143.1799 36.7481 110.3577 0.0000 -0.4129 0.0000
# 2 36.7481 71.3567 59.2770 0.0000 -0.2884 0.0000
# 3 110.3577 59.2770 236.5092 0.0000 -0.7840 0.0000
# 4 0.0000 0.0000 0.0000 29.8772 0.0000 0.0399
# 5 -0.4129 -0.2884 -0.7840 0.0000 32.4929 0.0000
# 6 0.0000 0.0000 0.0000 0.0399 0.0000 33.0014
#
#
#
# Elastic Compliance Matrix: (Units=1/GPa)
#
#
# Indices 1 2 3 4 5 6 
#
# 1 0.011084 -0.001783 -0.004725 0.000000 0.000011 0.000000
# 2 -0.001783 0.017986 -0.003676 0.000000 0.000048 0.000000
# 3 -0.004725 -0.003676 0.007354 0.000000 0.000085 0.000000
# 4 0.000000 0.000000 0.000000 0.033470 0.000000 -0.000040
# 5 0.000011 0.000048 0.000085 0.000000 0.030779 0.000000
# 6 0.000000 0.000000 0.000000 -0.000040 0.000000 0.030302
#
#
# Mechanical properties :
#
#
# Convention : Reuss Voigt Hill
#
# Bulk Modulus (GPa) = 62.27859 95.97906 79.12882
# Shear Modulus (GPa) = 31.90932 35.38518 33.64725
#
# Velocity S-wave (km/s) = 4.11772 4.33619 4.22836
# Velocity P-wave (km/s) = 7.46326 8.72183 8.11697
#
# Compressibility (1/GPa) = 0.01605688
#
# Stress axis : x y z
#
# Youngs Moduli (GPa) = 90.22375 55.59866 135.97363
#
# Poissons Ratio (x) = 0.09913 0.64245
# Poissons Ratio (y) = 0.16086 0.49981
# Poissons Ratio (z) = 0.42629 0.20437
#
# Static dielectric constant tensor:
#      x y z
#    x 1.640230 0.000000 -0.000470 
#    y 0.000000 1.639370 0.000000 
#    z -0.000470 0.000000 1.677000 
# 
# From -- ./inp_files/72754.got.cif
#   From: 2010.05.17/outbox.cif.g08.bks.cpg/sg11_37_cif.got.tgz:72754.got - 2010.06.03 12:22:45.
