data_PCOD9156503
_publ_section_title
;
Structure prediction by ZEFSAII (Michael W. Deem and Ramdas Pophale) SiO2 
 PCOD9156503
Probable space group: P 21/M
;
_chemical_formula_sum "Si O2"
_cell_formula_units_Z 32
_cell_length_a 20.915736
_cell_length_b 8.692022
_cell_length_c 22.371723
_cell_angle_alpha 90.000000
_cell_angle_beta 26.011672
_cell_angle_gamma 90.000000
_cell_volume 1783.679050
_symmetry_space_group_name_H-M "P 21/M"
_symmetry_group_IT_number 11
_symmetry_cell_setting 'monoclinic'
loop_
_space_group_symop_operation_xyz
x,y,z
-x,1/2+y,-z
-x,-y,-z
x,1/2-y,z
loop_
_atom_site_type_symbol
_atom_site_label
_atom_site_fract_x
_atom_site_fract_y
_atom_site_fract_z
Si Si1 0.532008 0.934286 0.038156
Si Si2 0.645764 0.933227 0.249639
Si Si3 0.665114 0.065917 0.356422
Si Si4 0.843906 0.433975 0.443979
Si Si5 0.828505 0.934363 0.854985
Si Si6 0.317563 0.433893 0.534860
Si Si7 0.391675 0.434058 0.271927
Si Si8 0.695447 0.066890 0.082923
O O1 0.522324 0.750000 0.045399
O O2 0.694017 0.977995 0.925216
O O3 0.500000 0.000000 0.000000
O O4 0.423941 0.000504 0.179296
O O5 0.638118 0.750000 0.261364
O O6 0.719633 0.003550 0.246966
O O7 0.480913 0.001063 0.386763
O O8 0.718157 0.983472 0.126750
O O9 0.661962 0.250000 0.359493
O O10 0.500000 0.000000 0.500000
O O11 0.738013 0.001620 0.355285
O O12 0.827008 0.250000 0.453556
O O13 0.780003 0.511317 0.438014
O O14 0.749207 0.495070 0.578561
O O15 0.014810 0.470983 0.304064
O O16 0.820710 0.750000 0.870862
O O17 0.803772 0.014772 0.939540
O O18 0.325461 0.250000 0.531266
O O19 0.381087 0.250000 0.278863
O O20 0.533659 0.473114 0.193403
O O21 0.701205 0.250000 0.086645
#
# Coordination Sequence:
#
# PCOD9156503 Si02
#       8
#     4   4   4   4   4   4   4   4
#     4  10  20  38  62  86 113 144 180 220 263 315
#     4  11  19  29  48  73 103 138 179 227 276 323
#     4  10  18  29  44  67 100 136 177 225 275 325
#     4  11  21  35  55  80 110 145 181 222 271 322
#     4   9  21  38  56  80 111 144 180 220 267 322
#     4  11  20  31  47  72 105 140 179 222 273 326
#     4  10  20  34  55  83 112 142 180 223 265 315
#     4  10  19  32  52  78 107 139 180 227 273 321
#
# _framework density 17.940446999999999
#
# number of rings (size 3 to 8) (size 9 to 14) (size 15 to 20)
#    0.000    1.750    1.250    6.375    0.000    2.500 
#    0.000    0.625    0.000    0.750    0.000    0.000 
#    0.000    0.000    0.000    0.000    0.000    0.000 
#
# Total GULP energy -178680.712148 kJ/mol
# GULP energy per Si atom -5583.772255 kJ/mol
# Density = 1.789961 g / cm^3
# Si number density = 17.940447 Si / 1000 Ang^3
#
#
#
# Elastic Constant Matrix: (Units=GPa)
#
#
# Indices 1 2 3 4 5 6 
#
# 1 108.2565 50.0134 60.4741 0.0000 36.4843 0.0000
# 2 50.0134 110.1655 55.1086 0.0000 16.5716 0.0000
# 3 60.4741 55.1086 115.5154 0.0000 19.4658 0.0000
# 4 0.0000 0.0000 0.0000 23.6756 0.0000 10.3307
# 5 36.4843 16.5716 19.4658 0.0000 28.7629 0.0000
# 6 0.0000 0.0000 0.0000 10.3307 0.0000 29.5676
#
#
#
# Elastic Compliance Matrix: (Units=1/GPa)
#
#
# Indices 1 2 3 4 5 6 
#
# 1 0.021191 -0.003535 -0.005893 0.000000 -0.020855 0.000000
# 2 -0.003535 0.012816 -0.004261 0.000000 -0.000016 0.000000
# 3 -0.005893 -0.004261 0.013659 0.000000 0.000686 0.000000
# 4 0.000000 0.000000 0.000000 0.049835 0.000000 -0.017412
# 5 -0.020855 -0.000016 0.000686 0.000000 0.060765 0.000000
# 6 0.000000 0.000000 0.000000 -0.017412 0.000000 0.039904
#
#
# Mechanical properties :
#
#
# Convention : Reuss Voigt Hill
#
# Bulk Modulus (GPa) = 49.29010 73.90330 61.59670
# Shear Modulus (GPa) = 21.52288 27.62398 24.57343
#
# Velocity S-wave (km/s) = 3.46740 3.92823 3.70499
# Velocity P-wave (km/s) = 6.60034 7.86497 7.26024
#
# Compressibility (1/GPa) = 0.02028805
#
# Stress axis : x y z
#
# Youngs Moduli (GPa) = 47.19011 78.02775 73.21250
#
# Poissons Ratio (x) = 0.27587 0.43143
# Poissons Ratio (y) = 0.16684 0.31192
# Poissons Ratio (z) = 0.27808 0.33244
#
# Static dielectric constant tensor:
#      x y z
#    x 1.616470 0.000000 0.008110 
#    y 0.000000 1.597520 0.000000 
#    z 0.008110 0.000000 1.613230 
# 
# From -- ./inp_files/66420.got.cif
#   From: 2010.05.17/outbox.cif.g08.bks.cpg/sg11_34_cif.got.tgz:66420.got - 2010.06.03 12:22:45.
