data_PCOD9156257
_publ_section_title
;
Structure prediction by ZEFSAII (Michael W. Deem and Ramdas Pophale) SiO2 
 PCOD9156257
Probable space group: P 21/M
;
_chemical_formula_sum "Si O2"
_cell_formula_units_Z 32
_cell_length_a 20.833654
_cell_length_b 9.123711
_cell_length_c 12.364146
_cell_angle_alpha 90.000000
_cell_angle_beta 116.698556
_cell_angle_gamma 90.000000
_cell_volume 2099.610018
_symmetry_space_group_name_H-M "P 21/M"
_symmetry_group_IT_number 11
_symmetry_cell_setting 'monoclinic'
loop_
_space_group_symop_operation_xyz
x,y,z
-x,1/2+y,-z
-x,-y,-z
x,1/2-y,z
loop_
_atom_site_type_symbol
_atom_site_label
_atom_site_fract_x
_atom_site_fract_y
_atom_site_fract_z
Si Si1 0.480799 0.426058 0.370630
Si Si2 0.116059 0.075780 0.586676
Si Si3 0.983899 0.424194 0.324319
Si Si4 0.960312 0.574587 0.870082
Si Si5 0.614303 0.579757 0.391153
Si Si6 0.327544 0.081423 0.316106
Si Si7 0.190928 0.921803 0.280777
Si Si8 0.245170 0.923249 0.569207
O O1 0.500000 0.500000 0.500000
O O2 0.489685 0.250000 0.384338
O O3 0.538371 0.495347 0.332582
O O4 0.395813 0.455961 0.292477
O O5 0.126299 0.250000 0.600453
O O6 0.056657 0.045823 0.447840
O O7 0.079820 0.013109 0.667525
O O8 0.189179 0.996440 0.608557
O O9 0.969821 0.250000 0.323300
O O10 0.999070 0.460698 0.211627
O O11 0.959155 0.750000 0.880627
O O12 0.879681 0.513790 0.798640
O O13 0.000000 0.500000 0.000000
O O14 0.606241 0.750000 0.355760
O O15 0.641939 0.575901 0.537378
O O16 0.677290 0.500666 0.372710
O O17 0.306177 0.250000 0.279845
O O18 0.259042 0.977183 0.263178
O O19 0.177774 0.750000 0.253389
O O20 0.212503 0.942973 0.423230
O O21 0.252075 0.750000 0.593116
#
# Coordination Sequence:
#
# PCOD9156257 Si02
#       8
#     4   4   4   4   4   4   4   4
#     4   9  15  23  34  50  73 104 140 175 212 253
#     4  10  18  29  47  67  88 113 144 182 222 264
#     4   9  19  33  47  65  87 113 142 179 224 266
#     4  11  22  36  51  66  88 115 146 184 226 270
#     4   9  16  24  35  52  77 108 142 177 213 254
#     4   8  15  25  37  52  74 105 138 176 216 253
#     4  10  19  29  43  62  82 108 145 183 219 262
#     4  10  18  27  41  61  86 114 145 181 218 261
#
# _framework density 15.240924
#
# number of rings (size 3 to 8) (size 9 to 14) (size 15 to 20)
#    0.000    2.500    1.250    3.000    0.000    6.000 
#    0.000    0.000    0.000    0.000    0.000    0.000 
#    0.000    0.000    0.000    1.125    0.000   15.125 
#
# Total GULP energy -178286.741479 kJ/mol
# GULP energy per Si atom -5571.460671 kJ/mol
# Density = 1.520624 g / cm^3
# Si number density = 15.240924 Si / 1000 Ang^3
#
#
#
# Elastic Constant Matrix: (Units=GPa)
#
#
# Indices 1 2 3 4 5 6 
#
# 1 165.8856 87.4559 30.3597 0.0000 0.5051 0.0000
# 2 87.4559 89.4886 30.3705 0.0000 0.1167 0.0000
# 3 30.3597 30.3705 34.7430 0.0000 -6.9569 0.0000
# 4 0.0000 0.0000 0.0000 14.3739 0.0000 2.6882
# 5 0.5051 0.1167 -6.9569 0.0000 7.0777 0.0000
# 6 0.0000 0.0000 0.0000 2.6882 0.0000 33.7121
#
#
#
# Elastic Compliance Matrix: (Units=1/GPa)
#
#
# Indices 1 2 3 4 5 6 
#
# 1 0.012449 -0.011907 -0.000757 0.000000 -0.001436 0.000000
# 2 -0.011907 0.029188 -0.018720 0.000000 -0.018032 0.000000
# 3 -0.000757 -0.018720 0.057125 0.000000 0.056512 0.000000
# 4 0.000000 0.000000 0.000000 0.070624 0.000000 -0.005632
# 5 -0.001436 -0.018032 0.056512 0.000000 0.197234 0.000000
# 6 0.000000 0.000000 0.000000 -0.005632 0.000000 0.030112
#
#
# Mechanical properties :
#
#
# Convention : Reuss Voigt Hill
#
# Bulk Modulus (GPa) = 27.78412 65.16550 46.47481
# Shear Modulus (GPa) = 10.60450 20.49483 15.54966
#
# Velocity S-wave (km/s) = 2.64065 3.67103 3.19761
# Velocity P-wave (km/s) = 5.25042 7.79861 6.64775
#
# Compressibility (1/GPa) = 0.03599178
#
# Stress axis : x y z
#
# Youngs Moduli (GPa) = 80.32977 34.26062 17.50558
#
# Poissons Ratio (x) = 0.40794 0.01326
# Poissons Ratio (y) = 0.95649 0.32771
# Poissons Ratio (z) = 0.06083 0.64138
#
# Static dielectric constant tensor:
#      x y z
#    x 1.525340 0.000000 0.002390 
#    y 0.000000 1.506310 0.000000 
#    z 0.002390 0.000000 1.469190 
# 
# From -- ./inp_files/42469.got.cif
#   From: 2010.05.17/outbox.cif.g08.bks.cpg/sg11_22_cif.got.tgz:42469.got - 2010.06.03 12:22:45.
