data_PCOD9156823
_publ_section_title
;
Structure prediction by ZEFSAII (Michael W. Deem and Ramdas Pophale) SiO2 
 PCOD9156823
Probable space group: P 21/M
;
_chemical_formula_sum "Si O2"
_cell_formula_units_Z 32
_cell_length_a 11.122834
_cell_length_b 8.050625
_cell_length_c 17.344956
_cell_angle_alpha 90.000000
_cell_angle_beta 84.430268
_cell_angle_gamma 90.000000
_cell_volume 1545.834567
_symmetry_space_group_name_H-M "P 21/M"
_symmetry_group_IT_number 11
_symmetry_cell_setting 'monoclinic'
loop_
_space_group_symop_operation_xyz
x,y,z
-x,1/2+y,-z
-x,-y,-z
x,1/2-y,z
loop_
_atom_site_type_symbol
_atom_site_label
_atom_site_fract_x
_atom_site_fract_y
_atom_site_fract_z
Si Si1 0.834468 0.454105 0.879695
Si Si2 0.323434 0.558204 0.975578
Si Si3 0.901799 0.941616 0.106063
Si Si4 0.628453 0.048680 0.582296
Si Si5 0.349364 0.447058 0.590394
Si Si6 0.286476 0.548543 0.260531
Si Si7 0.227396 0.563171 0.747169
Si Si8 0.545444 0.555739 0.174211
O O1 0.835089 0.250000 0.881651
O O2 0.815492 0.508229 0.792800
O O3 0.962144 0.506715 0.907094
O O4 0.721651 0.507868 0.939461
O O5 0.358088 0.750000 0.980975
O O6 0.199240 0.543338 0.933346
O O7 0.423929 0.468862 0.917756
O O8 0.895271 0.750000 0.080802
O O9 0.862660 0.949098 0.198394
O O10 0.627600 0.250000 0.581863
O O11 0.487657 0.994097 0.597831
O O12 0.702578 0.989961 0.652337
O O13 0.675629 0.989094 0.496915
O O14 0.349251 0.250000 0.601217
O O15 0.256574 0.520962 0.657389
O O16 0.278298 0.750000 0.264446
O O17 0.413172 0.509812 0.210584
O O18 0.183080 0.750000 0.757224
O O19 0.355546 0.543625 0.783322
O O20 0.563448 0.750000 0.191577
#
# Coordination Sequence:
#
# PCOD9156823 Si02
#       8
#     4   4   4   4   4   4   4   4
#     4   9  19  33  51  73  97 131 170 208 249 296
#     4  10  19  32  50  74 101 128 164 211 256 292
#     4  10  19  33  53  74  96 127 169 212 254 293
#     4   9  17  30  49  74 102 134 162 195 241 292
#     4  10  18  30  49  77 105 131 162 198 242 292
#     4   9  17  32  51  71 101 135 167 200 242 298
#     4  11  20  31  50  75 103 131 162 206 252 292
#     4  10  18  31  50  73 100 133 166 200 248 299
#
# _framework density 20.700793999999998
#
# number of rings (size 3 to 8) (size 9 to 14) (size 15 to 20)
#    0.000    2.250    1.250    4.500    0.000    1.000 
#    0.000    1.875    0.000    9.000    0.000    0.000 
#    0.000    0.000    0.000    0.000    0.000    0.000 
#
# Total GULP energy -178606.968649 kJ/mol
# GULP energy per Si atom -5581.467770 kJ/mol
# Density = 2.065368 g / cm^3
# Si number density = 20.700794 Si / 1000 Ang^3
#
#
#
# Elastic Constant Matrix: (Units=GPa)
#
#
# Indices 1 2 3 4 5 6 
#
# 1 23.0658 -2.1545 2.6472 0.0000 2.1612 0.0000
# 2 -2.1545 33.1044 -2.9464 0.0000 -0.0457 0.0000
# 3 2.6472 -2.9464 108.6949 0.0000 3.0494 0.0000
# 4 0.0000 0.0000 0.0000 17.3437 0.0000 -1.9188
# 5 2.1612 -0.0457 3.0494 0.0000 26.9881 0.0000
# 6 0.0000 0.0000 0.0000 -1.9188 0.0000 10.1558
#
#
#
# Elastic Compliance Matrix: (Units=1/GPa)
#
#
# Indices 1 2 3 4 5 6 
#
# 1 0.044038 0.002781 -0.000901 0.000000 -0.003420 0.000000
# 2 0.002781 0.030456 0.000765 0.000000 -0.000258 0.000000
# 3 -0.000901 0.000765 0.009270 0.000000 -0.000974 0.000000
# 4 0.000000 0.000000 0.000000 0.058889 0.000000 0.011126
# 5 -0.003420 -0.000258 -0.000974 0.000000 0.037437 0.000000
# 6 0.000000 0.000000 0.000000 0.011126 0.000000 0.100568
#
#
# Mechanical properties :
#
#
# Convention : Reuss Voigt Hill
#
# Bulk Modulus (GPa) = 11.22912 17.77309 14.50110
# Shear Modulus (GPa) = 16.39062 22.05210 19.22136
#
# Velocity S-wave (km/s) = 2.81692 3.26740 3.05049
# Velocity P-wave (km/s) = 4.00204 4.77900 4.40768
#
# Compressibility (1/GPa) = 0.08905416
#
# Stress axis : x y z
#
# Youngs Moduli (GPa) = 22.70770 32.83404 107.87396
#
# Poissons Ratio (x) = -0.09132 0.09722
# Poissons Ratio (y) = -0.06315 -0.08253
# Poissons Ratio (z) = 0.02046 -0.02512
#
# Static dielectric constant tensor:
#      x y z
#    x 1.732610 0.000000 0.009990 
#    y 0.000000 1.723510 0.000000 
#    z 0.009990 0.000000 1.784190 
# 
# From -- ./inp_files/58693.got.cif
#   From: 2010.05.17/outbox.cif.g08.bks.cpg/sg11_30_cif.got.tgz:58693.got - 2010.06.03 12:22:45.
