data_PCOD9156600
_publ_section_title
;
Structure prediction by ZEFSAII (Michael W. Deem and Ramdas Pophale) SiO2 
 PCOD9156600
Probable space group: P 21/M
;
_chemical_formula_sum "Si O2"
_cell_formula_units_Z 32
_cell_length_a 14.868457
_cell_length_b 8.964278
_cell_length_c 24.103884
_cell_angle_alpha 90.000000
_cell_angle_beta 151.022440
_cell_angle_gamma 90.000000
_cell_volume 1556.440342
_symmetry_space_group_name_H-M "P 21/M"
_symmetry_group_IT_number 11
_symmetry_cell_setting 'monoclinic'
loop_
_space_group_symop_operation_xyz
x,y,z
-x,1/2+y,-z
-x,-y,-z
x,1/2-y,z
loop_
_atom_site_type_symbol
_atom_site_label
_atom_site_fract_x
_atom_site_fract_y
_atom_site_fract_z
Si Si1 0.218673 0.569512 0.700173
Si Si2 0.097994 0.926571 0.953438
Si Si3 0.700926 0.928683 0.766799
Si Si4 0.477490 0.072401 0.548512
Si Si5 0.536003 0.930525 0.795001
Si Si6 0.941383 0.929819 0.643362
Si Si7 0.500757 0.913086 0.944641
Si Si8 0.932774 0.917814 0.175118
O O1 0.204366 0.750000 0.687811
O O2 0.328548 0.521308 0.703543
O O3 0.376112 0.522117 0.829444
O O4 0.031882 0.523113 0.632741
O O5 0.131431 0.750000 0.971513
O O6 0.918341 0.962806 0.894149
O O7 0.021065 0.975108 0.851119
O O8 0.288404 0.004530 0.075743
O O9 0.687628 0.750000 0.751214
O O10 0.579146 0.969129 0.754741
O O11 0.624498 0.010989 0.671666
O O12 0.492444 0.250000 0.550799
O O13 0.275274 0.037138 0.465395
O O14 0.500000 0.000000 0.500000
O O15 0.544419 0.750000 0.805932
O O16 0.965549 0.750000 0.661344
O O17 0.035881 0.010258 0.747513
O O18 0.420022 0.750000 0.911419
O O19 0.714336 0.900760 0.045904
O O20 0.500000 0.000000 0.000000
O O21 0.015964 0.750000 0.217680
#
# Coordination Sequence:
#
# PCOD9156600 Si02
#       8
#     4   4   4   4   4   4   4   4
#     4   9  17  33  55  79 112 150 186 225 275 333
#     4  11  22  35  54  84 118 153 189 231 281 335
#     4  10  23  41  61  84 114 150 190 233 283 336
#     4  11  24  42  65  88 113 145 187 237 286 335
#     4  10  20  38  61  85 114 151 190 229 274 335
#     4  10  21  37  57  83 113 148 189 236 287 335
#     4  10  18  29  47  73 108 150 187 221 270 331
#     4  11  21  32  50  81 115 150 190 229 274 334
#
# _framework density 20.559735
#
# number of rings (size 3 to 8) (size 9 to 14) (size 15 to 20)
#    0.000    1.750    2.500    2.250    0.000    6.000 
#    0.000    1.250    0.000    0.000    0.000    0.000 
#    0.000    0.000    0.000    0.000    0.000    0.000 
#
# Total GULP energy -178247.415711 kJ/mol
# GULP energy per Si atom -5570.231741 kJ/mol
# Density = 2.051294 g / cm^3
# Si number density = 20.559735 Si / 1000 Ang^3
#
#
#
# Elastic Constant Matrix: (Units=GPa)
#
#
# Indices 1 2 3 4 5 6 
#
# 1 153.6909 30.7735 37.8060 0.0000 14.9031 0.0000
# 2 30.7735 20.5230 19.0565 0.0000 -1.3859 0.0000
# 3 37.8060 19.0565 60.1508 0.0000 15.1414 0.0000
# 4 0.0000 0.0000 0.0000 19.9195 0.0000 -1.6717
# 5 14.9031 -1.3859 15.1414 0.0000 38.6174 0.0000
# 6 0.0000 0.0000 0.0000 -1.6717 0.0000 21.0053
#
#
#
# Elastic Compliance Matrix: (Units=1/GPa)
#
#
# Indices 1 2 3 4 5 6 
#
# 1 0.010005 -0.014762 -0.000562 0.000000 -0.004171 0.000000
# 2 -0.014762 0.096479 -0.026177 0.000000 0.019423 0.000000
# 3 -0.000562 -0.026177 0.028240 0.000000 -0.011795 0.000000
# 4 0.000000 0.000000 0.000000 0.050540 0.000000 0.004022
# 5 -0.004171 0.019423 -0.011795 0.000000 0.032826 0.000000
# 6 0.000000 0.000000 0.000000 0.004022 0.000000 0.047927
#
#
# Mechanical properties :
#
#
# Convention : Reuss Voigt Hill
#
# Bulk Modulus (GPa) = 19.33368 45.51520 32.42444
# Shear Modulus (GPa) = 13.65152 25.69035 19.67094
#
# Velocity S-wave (km/s) = 2.57960 3.53873 3.09653
# Velocity P-wave (km/s) = 4.27745 6.23561 5.34693
#
# Compressibility (1/GPa) = 0.05172322
#
# Stress axis : x y z
#
# Youngs Moduli (GPa) = 99.95013 10.36493 35.41070
#
# Poissons Ratio (x) = 0.15301 0.01989
# Poissons Ratio (y) = 1.47550 0.92693
# Poissons Ratio (z) = 0.05613 0.27132
#
# Static dielectric constant tensor:
#      x y z
#    x 1.818940 0.000000 0.052630 
#    y 0.000000 1.723900 0.000000 
#    z 0.052630 0.000000 1.707500 
# 
# From -- ./inp_files/69172.got.cif
#   From: 2010.05.17/outbox.cif.g08.bks.cpg/sg11_35_cif.got.tgz:69172.got - 2010.06.03 12:22:45.
