data_PCOD9156710
_publ_section_title
;
Structure prediction by ZEFSAII (Michael W. Deem and Ramdas Pophale) SiO2 
 PCOD9156710
Probable space group: P 21/M
;
_chemical_formula_sum "Si O2"
_cell_formula_units_Z 32
_cell_length_a 27.074150
_cell_length_b 9.248919
_cell_length_c 21.911123
_cell_angle_alpha 90.000000
_cell_angle_beta 159.371860
_cell_angle_gamma 90.000000
_cell_volume 1932.968320
_symmetry_space_group_name_H-M "P 21/M"
_symmetry_group_IT_number 11
_symmetry_cell_setting 'monoclinic'
loop_
_space_group_symop_operation_xyz
x,y,z
-x,1/2+y,-z
-x,-y,-z
x,1/2-y,z
loop_
_atom_site_type_symbol
_atom_site_label
_atom_site_fract_x
_atom_site_fract_y
_atom_site_fract_z
Si Si1 0.889836 0.416872 0.456160
Si Si2 0.209796 0.417129 0.773543
Si Si3 0.575805 0.578026 0.531238
Si Si4 0.903450 0.921307 0.936745
Si Si5 0.092300 0.078707 0.918765
Si Si6 0.409420 0.078731 0.235078
Si Si7 0.988846 0.916233 0.684567
Si Si8 0.691358 0.417158 0.997732
O O1 0.846896 0.250000 0.411454
O O2 0.799313 0.503490 0.301888
O O3 0.897775 0.495250 0.530475
O O4 0.049936 0.417527 0.615135
O O5 0.252354 0.250000 0.817472
O O6 0.301108 0.503923 0.928461
O O7 0.500000 0.500000 0.500000
O O8 0.545601 0.750000 0.496544
O O9 0.741192 0.557965 0.731749
O O10 0.519434 0.504111 0.404655
O O11 0.931387 0.750000 0.967626
O O12 0.926593 0.969865 0.033437
O O13 0.000000 0.000000 0.000000
O O14 0.061935 0.250000 0.878952
O O15 0.256264 0.061965 0.089971
O O16 0.001427 0.991902 0.764610
O O17 0.438196 0.250000 0.264603
O O18 0.395962 0.006369 0.153130
O O19 0.943968 0.750000 0.636913
O O20 0.148148 0.917013 0.842018
O O21 0.647234 0.250000 0.951246
#
# Coordination Sequence:
#
# PCOD9156710 Si02
#       8
#     4   4   4   4   4   4   4   4
#     4   9  15  22  32  47  70 105 144 184 228 273
#     4   9  15  22  32  47  71 106 145 186 227 272
#     4  11  21  35  53  75  99 125 160 202 245 291
#     4  10  22  38  53  73  99 128 161 200 245 296
#     4   9  17  31  46  63  90 119 150 192 238 284
#     4  10  18  30  47  68  92 119 154 197 241 284
#     4   9  16  24  36  56  78 105 146 189 228 275
#     4   9  16  25  36  55  81 111 147 187 231 280
#
# _framework density 16.554849000000001
#
# number of rings (size 3 to 8) (size 9 to 14) (size 15 to 20)
#    0.000    2.500    1.250    2.250    0.000    8.000 
#    0.000    0.000    0.000    0.000    0.000    0.000 
#    0.000    0.000    0.000    1.125    0.000   15.750 
#
# Total GULP energy -178396.121838 kJ/mol
# GULP energy per Si atom -5574.878807 kJ/mol
# Density = 1.651717 g / cm^3
# Si number density = 16.554849 Si / 1000 Ang^3
#
#
#
# Elastic Constant Matrix: (Units=GPa)
#
#
# Indices 1 2 3 4 5 6 
#
# 1 91.3813 77.4703 63.4465 0.0000 -45.7453 0.0000
# 2 77.4703 146.4379 68.1532 0.0000 -39.0782 0.0000
# 3 63.4465 68.1532 64.3764 0.0000 -43.9897 0.0000
# 4 0.0000 0.0000 0.0000 25.2504 0.0000 -11.8129
# 5 -45.7453 -39.0782 -43.9897 0.0000 41.0285 0.0000
# 6 0.0000 0.0000 0.0000 -11.8129 0.0000 26.5368
#
#
#
# Elastic Compliance Matrix: (Units=1/GPa)
#
#
# Indices 1 2 3 4 5 6 
#
# 1 0.038065 -0.006568 -0.021827 0.000000 0.012783 0.000000
# 2 -0.006568 0.015591 -0.018287 0.000000 -0.012080 0.000000
# 3 -0.021827 -0.018287 0.104256 0.000000 0.070026 0.000000
# 4 0.000000 0.000000 0.000000 0.050020 0.000000 0.022267
# 5 0.012783 -0.012080 0.070026 0.000000 0.102200 0.000000
# 6 0.000000 0.000000 0.000000 0.022267 0.000000 0.047596
#
#
# Mechanical properties :
#
#
# Convention : Reuss Voigt Hill
#
# Bulk Modulus (GPa) = 15.49258 80.03729 47.76494
# Shear Modulus (GPa) = 10.57962 24.77151 17.67556
#
# Velocity S-wave (km/s) = 2.53072 3.87244 3.27111
# Velocity P-wave (km/s) = 4.23297 8.27321 6.57130
#
# Compressibility (1/GPa) = 0.06454701
#
# Stress axis : x y z
#
# Youngs Moduli (GPa) = 26.27078 64.14137 9.59181
#
# Poissons Ratio (x) = 0.42127 0.20936
# Poissons Ratio (y) = 0.17254 0.17540
# Poissons Ratio (z) = 0.57342 1.17294
#
# Static dielectric constant tensor:
#      x y z
#    x 1.539500 0.000000 -0.018170 
#    y 0.000000 1.551030 0.000000 
#    z -0.018170 0.000000 1.538490 
# 
# From -- ./inp_files/67305.got.cif
#   From: 2010.05.17/outbox.cif.g08.bks.cpg/sg11_34_cif.got.tgz:67305.got - 2010.06.03 12:22:45.
