data_PCOD9156678
_publ_section_title
;
Structure prediction by ZEFSAII (Michael W. Deem and Ramdas Pophale) SiO2 
 PCOD9156678
Probable space group: P 21/M
;
_chemical_formula_sum "Si O2"
_cell_formula_units_Z 32
_cell_length_a 12.201425
_cell_length_b 21.260581
_cell_length_c 12.553873
_cell_angle_alpha 90.000000
_cell_angle_beta 144.956739
_cell_angle_gamma 90.000000
_cell_volume 1869.918367
_symmetry_space_group_name_H-M "P 21/M"
_symmetry_group_IT_number 11
_symmetry_cell_setting 'monoclinic'
loop_
_space_group_symop_operation_xyz
x,y,z
-x,1/2+y,-z
-x,-y,-z
x,1/2-y,z
loop_
_atom_site_type_symbol
_atom_site_label
_atom_site_fract_x
_atom_site_fract_y
_atom_site_fract_z
Si Si1 0.707744 0.543195 0.235268
Si Si2 0.451483 0.391009 0.260598
Si Si3 0.819540 0.175490 0.462667
Si Si4 0.543783 0.461199 0.770298
Si Si5 0.897942 0.084957 0.338760
Si Si6 0.864013 0.598810 0.157413
Si Si7 0.381272 0.435940 0.428141
Si Si8 0.963516 0.460917 0.163551
O O1 0.533761 0.556070 0.175183
O O2 0.742361 0.469765 0.237669
O O3 0.711148 0.580525 0.127478
O O4 0.900452 0.562858 0.450612
O O5 0.618531 0.347424 0.350519
O O6 0.504640 0.464506 0.280098
O O7 0.426419 0.388892 0.368091
O O8 0.254974 0.379447 0.039825
O O9 0.834654 0.250000 0.472127
O O10 0.841458 0.145576 0.362046
O O11 0.984129 0.145459 0.669217
O O12 0.444216 0.421147 0.598752
O O13 0.770806 0.456324 0.942502
O O14 0.934991 0.085052 0.242124
O O15 0.967208 0.532344 0.212568
O O16 0.500000 0.500000 0.500000
O O17 0.155900 0.448580 0.253268
#
# Coordination Sequence:
#
# PCOD9156678 Si02
#       8
#     4   4   4   4   4   4   4   4
#     4   9  15  28  51  78 110 135 158 207 261 324
#     4  10  21  33  51  73 109 141 172 207 253 313
#     4  11  22  36  53  74 101 137 179 224 264 300
#     4  10  18  29  51  82 112 139 166 199 262 323
#     4   9  17  30  52  74 107 134 171 207 264 314
#     4   9  20  32  51  79 107 138 169 210 263 316
#     4  10  20  32  48  75 115 140 165 200 244 313
#     4  10  19  30  53  83 108 142 166 206 268 326
#
# _framework density 17.113047999999999
#
# number of rings (size 3 to 8) (size 9 to 14) (size 15 to 20)
#    0.000    2.250    2.500    2.250    1.750    7.500 
#    0.000    0.000    0.000    0.750    0.000    0.875 
#    0.000    0.000    0.000    0.000    0.000    0.000 
#
# Total GULP energy -178410.856413 kJ/mol
# GULP energy per Si atom -5575.339263 kJ/mol
# Density = 1.707410 g / cm^3
# Si number density = 17.113048 Si / 1000 Ang^3
#
#
#
# Elastic Constant Matrix: (Units=GPa)
#
#
# Indices 1 2 3 4 5 6 
#
# 1 80.7358 23.7394 18.5023 0.0000 16.5504 0.0000
# 2 23.7394 68.4829 30.2982 0.0000 3.2945 0.0000
# 3 18.5023 30.2982 66.6569 0.0000 3.9985 0.0000
# 4 0.0000 0.0000 0.0000 10.7415 0.0000 0.6798
# 5 16.5504 3.2945 3.9985 0.0000 27.0149 0.0000
# 6 0.0000 0.0000 0.0000 0.6798 0.0000 11.5167
#
#
#
# Elastic Compliance Matrix: (Units=1/GPa)
#
#
# Indices 1 2 3 4 5 6 
#
# 1 0.015909 -0.004216 -0.001963 0.000000 -0.008942 0.000000
# 2 -0.004216 0.019422 -0.007740 0.000000 0.001360 0.000000
# 3 -0.001963 -0.007740 0.019106 0.000000 -0.000681 0.000000
# 4 0.000000 0.000000 0.000000 0.093446 0.000000 -0.005516
# 5 -0.008942 0.001360 -0.000681 0.000000 0.042430 0.000000
# 6 0.000000 0.000000 0.000000 -0.005516 0.000000 0.087156
#
#
# Mechanical properties :
#
#
# Convention : Reuss Voigt Hill
#
# Bulk Modulus (GPa) = 37.59466 40.10617 38.85041
# Shear Modulus (GPa) = 15.91483 19.41033 17.66258
#
# Velocity S-wave (km/s) = 3.05287 3.37150 3.21614
# Velocity P-wave (km/s) = 5.86880 6.21635 6.04507
#
# Compressibility (1/GPa) = 0.02659952
#
# Stress axis : x y z
#
# Youngs Moduli (GPa) = 62.85904 51.48708 52.33985
#
# Poissons Ratio (x) = 0.21707 0.10275
# Poissons Ratio (y) = 0.26501 0.40509
# Poissons Ratio (z) = 0.12340 0.39849
#
# Static dielectric constant tensor:
#      x y z
#    x 1.614170 0.000000 -0.022960 
#    y 0.000000 1.536680 0.000000 
#    z -0.022960 0.000000 1.631870 
# 
# From -- ./inp_files/36379.got.cif
#   From: 2010.05.17/outbox.cif.g08.bks.cpg/sg11_19_cif.got.tgz:36379.got - 2010.06.03 12:22:45.
