data_PCOD9156239
_publ_section_title
;
Structure prediction by ZEFSAII (Michael W. Deem and Ramdas Pophale) SiO2 
 PCOD9156239
Probable space group: P 21/M
;
_chemical_formula_sum "Si O2"
_cell_formula_units_Z 32
_cell_length_a 20.643079
_cell_length_b 8.252492
_cell_length_c 30.317610
_cell_angle_alpha 90.000000
_cell_angle_beta 23.064004
_cell_angle_gamma 90.000000
_cell_volume 2023.362567
_symmetry_space_group_name_H-M "P 21/M"
_symmetry_group_IT_number 11
_symmetry_cell_setting 'monoclinic'
loop_
_space_group_symop_operation_xyz
x,y,z
-x,1/2+y,-z
-x,-y,-z
x,1/2-y,z
loop_
_atom_site_type_symbol
_atom_site_label
_atom_site_fract_x
_atom_site_fract_y
_atom_site_fract_z
Si Si1 0.908285 0.444753 0.258945
Si Si2 0.681399 0.947280 0.483673
Si Si3 0.119266 0.060277 0.560354
Si Si4 0.392292 0.555749 0.162037
Si Si5 0.049043 0.554224 0.420835
Si Si6 0.612314 0.054874 0.388584
Si Si7 0.260992 0.559663 0.063502
Si Si8 0.212819 0.061710 0.191272
O O1 0.919094 0.250000 0.252284
O O2 0.808902 0.495855 0.365656
O O3 0.795617 0.499176 0.287836
O O4 0.091253 0.516004 0.145388
O O5 0.687616 0.750000 0.479761
O O6 0.743238 0.007769 0.492516
O O7 0.496230 0.998722 0.585370
O O8 0.157038 0.250000 0.530762
O O9 0.076270 0.992471 0.538923
O O10 0.946911 0.042462 0.694868
O O11 0.393798 0.750000 0.158842
O O12 0.234688 0.504192 0.290207
O O13 0.354825 0.486823 0.136696
O O14 0.570193 0.493743 0.065822
O O15 0.046631 0.750000 0.420651
O O16 0.000000 0.500000 0.500000
O O17 0.617033 0.250000 0.384398
O O18 0.500000 0.000000 0.500000
O O19 0.265879 0.750000 0.068894
O O20 0.255714 0.470020 0.113952
O O21 0.171679 0.250000 0.223102
#
# Coordination Sequence:
#
# PCOD9156239 Si02
#       8
#     4   4   4   4   4   4   4   4
#     4  10  18  27  39  59  87 118 153 186 218 253
#     4   9  15  26  43  60  84 117 151 185 220 256
#     4   9  17  29  45  66  90 117 150 184 219 258
#     4  10  21  36  49  64  85 111 145 182 221 260
#     4   9  19  34  51  68  88 113 140 177 221 266
#     4   8  15  25  38  57  81 113 150 185 217 253
#     4  12  22  31  43  61  87 119 153 184 216 257
#     4  11  20  30  44  63  88 117 148 182 219 256
#
# _framework density 15.815258
#
# number of rings (size 3 to 8) (size 9 to 14) (size 15 to 20)
#    0.000    2.250    1.250    4.125    0.000    3.000 
#    0.000    0.000    0.000    0.000    0.000    0.000 
#    0.000    1.000    0.000    2.000    0.000    2.625 
#
# Total GULP energy -178266.268589 kJ/mol
# GULP energy per Si atom -5570.820893 kJ/mol
# Density = 1.577926 g / cm^3
# Si number density = 15.815258 Si / 1000 Ang^3
#
#
#
# Elastic Constant Matrix: (Units=GPa)
#
#
# Indices 1 2 3 4 5 6 
#
# 1 123.5419 5.1391 62.6387 0.0000 -24.5030 0.0000
# 2 5.1391 19.9469 3.9228 0.0000 -4.4386 0.0000
# 3 62.6387 3.9228 64.0738 0.0000 -21.9957 0.0000
# 4 0.0000 0.0000 0.0000 17.7795 0.0000 -0.6547
# 5 -24.5030 -4.4386 -21.9957 0.0000 25.9866 0.0000
# 6 0.0000 0.0000 0.0000 -0.6547 0.0000 17.2805
#
#
#
# Elastic Compliance Matrix: (Units=1/GPa)
#
#
# Indices 1 2 3 4 5 6 
#
# 1 0.016185 -0.000676 -0.014916 0.000000 0.002520 0.000000
# 2 -0.000676 0.052144 0.000432 0.000000 0.008635 0.000000
# 3 -0.014916 0.000432 0.035747 0.000000 0.016266 0.000000
# 4 0.000000 0.000000 0.000000 0.056323 0.000000 0.002134
# 5 0.002520 0.008635 0.016266 0.000000 0.056101 0.000000
# 6 0.000000 0.000000 0.000000 0.002134 0.000000 0.057950
#
#
# Mechanical properties :
#
#
# Convention : Reuss Voigt Hill
#
# Bulk Modulus (GPa) = 13.55810 38.99598 26.27704
# Shear Modulus (GPa) = 15.18127 21.26679 18.22403
#
# Velocity S-wave (km/s) = 3.10161 3.67099 3.39825
# Velocity P-wave (km/s) = 4.62796 6.53292 5.66114
#
# Compressibility (1/GPa) = 0.07375663
#
# Stress axis : x y z
#
# Youngs Moduli (GPa) = 61.78460 19.17782 27.97473
#
# Poissons Ratio (x) = 0.01296 0.41728
# Poissons Ratio (y) = 0.04174 -0.01210
# Poissons Ratio (z) = 0.92159 -0.00829
#
# Static dielectric constant tensor:
#      x y z
#    x 1.570560 0.000000 -0.048610 
#    y 0.000000 1.544340 0.000000 
#    z -0.048610 0.000000 1.516640 
# 
# From -- ./inp_files/43794.got.cif
#   From: 2010.05.17/outbox.cif.g08.bks.cpg/sg11_22_cif.got.tgz:43794.got - 2010.06.03 12:22:45.
