data_PCOD9156208
_publ_section_title
;
Structure prediction by ZEFSAII (Michael W. Deem and Ramdas Pophale) SiO2 
 PCOD9156208
Probable space group: P 21/M
;
_chemical_formula_sum "Si O2"
_cell_formula_units_Z 32
_cell_length_a 20.447003
_cell_length_b 7.942093
_cell_length_c 29.754982
_cell_angle_alpha 90.000000
_cell_angle_beta 156.349181
_cell_angle_gamma 90.000000
_cell_volume 1938.401472
_symmetry_space_group_name_H-M "P 21/M"
_symmetry_group_IT_number 11
_symmetry_cell_setting 'monoclinic'
loop_
_space_group_symop_operation_xyz
x,y,z
-x,1/2+y,-z
-x,-y,-z
x,1/2-y,z
loop_
_atom_site_type_symbol
_atom_site_label
_atom_site_fract_x
_atom_site_fract_y
_atom_site_fract_z
Si Si1 0.110231 0.547415 0.612286
Si Si2 0.599234 0.045543 0.261725
Si Si3 0.241043 0.445328 0.051883
Si Si4 0.104351 0.550167 0.157911
Si Si5 0.178625 0.453582 0.512573
Si Si6 0.435756 0.444901 0.411315
Si Si7 0.258024 0.548017 0.164018
Si Si8 0.394582 0.450720 0.569637
O O1 0.118236 0.750000 0.620794
O O2 0.289735 0.488162 0.710601
O O3 0.000000 0.500000 0.500000
O O4 0.000994 0.485782 0.585283
O O5 0.595027 0.250000 0.258895
O O6 0.414095 0.979910 0.145422
O O7 0.694368 0.996490 0.367383
O O8 0.244362 0.250000 0.039631
O O9 0.240619 0.457712 0.105802
O O10 0.064077 0.519393 0.927846
O O11 0.080206 0.750000 0.137008
O O12 0.267393 0.530451 0.289608
O O13 0.142614 0.484066 0.131727
O O14 0.174526 0.250000 0.507708
O O15 0.248587 0.515656 0.509125
O O16 0.500000 0.500000 0.500000
O O17 0.397679 0.250000 0.388868
O O18 0.569737 0.475749 0.456786
O O19 0.236145 0.750000 0.143944
O O20 0.440401 0.522406 0.297770
O O21 0.376395 0.250000 0.552337
#
# Coordination Sequence:
#
# PCOD9156208 Si02
#       8
#     4   4   4   4   4   4   4   4
#     4   8  14  23  35  52  77 112 149 180 209 242
#     4   9  16  24  35  56  85 115 149 183 211 240
#     4  10  18  26  39  58  85 117 146 179 211 241
#     4   9  19  33  44  59  83 111 143 175 210 250
#     4   9  15  25  40  56  80 115 149 179 211 244
#     4  11  22  36  53  68  83 105 132 169 216 262
#     4   9  16  26  39  55  81 113 145 181 210 240
#     4   9  17  29  44  64  87 112 144 179 212 250
#
# _framework density 16.508448999999999
#
# number of rings (size 3 to 8) (size 9 to 14) (size 15 to 20)
#    0.000    2.750    1.250    2.250    0.000    3.000 
#    0.000    0.000    0.000    0.000    0.000    0.000 
#    0.000    1.000    0.000    1.750    0.000    2.500 
#
# Total GULP energy -178134.923789 kJ/mol
# GULP energy per Si atom -5566.716368 kJ/mol
# Density = 1.647087 g / cm^3
# Si number density = 16.508449 Si / 1000 Ang^3
#
#
#
# Elastic Constant Matrix: (Units=GPa)
#
#
# Indices 1 2 3 4 5 6 
#
# 1 123.7103 7.3397 55.0472 0.0000 35.2147 0.0000
# 2 7.3397 9.8085 -1.6463 0.0000 2.4698 0.0000
# 3 55.0472 -1.6463 50.2176 0.0000 19.4013 0.0000
# 4 0.0000 0.0000 0.0000 11.2890 0.0000 -2.8979
# 5 35.2147 2.4698 19.4013 0.0000 33.6735 0.0000
# 6 0.0000 0.0000 0.0000 -2.8979 0.0000 13.9348
#
#
#
# Elastic Compliance Matrix: (Units=1/GPa)
#
#
# Indices 1 2 3 4 5 6 
#
# 1 0.020015 -0.015971 -0.019076 0.000000 -0.008769 0.000000
# 2 -0.015971 0.119285 0.023598 0.000000 -0.005643 0.000000
# 3 -0.019076 0.023598 0.044454 0.000000 -0.007395 0.000000
# 4 0.000000 0.000000 0.000000 0.093577 0.000000 0.019460
# 5 -0.008769 -0.005643 -0.007395 0.000000 0.043542 0.000000
# 6 0.000000 0.000000 0.000000 0.019460 0.000000 0.075810
#
#
# Mechanical properties :
#
#
# Convention : Reuss Voigt Hill
#
# Bulk Modulus (GPa) = 6.21675 33.91309 20.06492
# Shear Modulus (GPa) = 10.56635 19.97918 15.27276
#
# Velocity S-wave (km/s) = 2.53268 3.48262 3.04492
# Velocity P-wave (km/s) = 3.51093 6.06292 4.95407
#
# Compressibility (1/GPa) = 0.16085565
#
# Stress axis : x y z
#
# Youngs Moduli (GPa) = 49.96158 8.38331 22.49498
#
# Poissons Ratio (x) = 0.13389 0.42911
# Poissons Ratio (y) = 0.79794 -0.53083
# Poissons Ratio (z) = 0.95306 -0.19783
#
# Static dielectric constant tensor:
#      x y z
#    x 1.612260 0.000000 0.069700 
#    y 0.000000 1.582250 0.000000 
#    z 0.069700 0.000000 1.521150 
# 
# From -- ./inp_files/69458.got.cif
#   From: 2010.05.17/outbox.cif.g08.bks.cpg/sg11_35_cif.got.tgz:69458.got - 2010.06.03 12:22:45.
