data_PCOD9156539
_publ_section_title
;
Structure prediction by ZEFSAII (Michael W. Deem and Ramdas Pophale) SiO2 
 PCOD9156539
Probable space group: P 21/M
;
_chemical_formula_sum "Si O2"
_cell_formula_units_Z 32
_cell_length_a 14.372485
_cell_length_b 8.668309
_cell_length_c 15.132510
_cell_angle_alpha 90.000000
_cell_angle_beta 87.547889
_cell_angle_gamma 90.000000
_cell_volume 1883.559595
_symmetry_space_group_name_H-M "P 21/M"
_symmetry_group_IT_number 11
_symmetry_cell_setting 'monoclinic'
loop_
_space_group_symop_operation_xyz
x,y,z
-x,1/2+y,-z
-x,-y,-z
x,1/2-y,z
loop_
_atom_site_type_symbol
_atom_site_label
_atom_site_fract_x
_atom_site_fract_y
_atom_site_fract_z
Si Si1 0.392973 0.067749 0.249136
Si Si2 0.528216 0.934561 0.093675
Si Si3 0.326360 0.935669 0.789217
Si Si4 0.685592 0.068686 0.477515
Si Si5 0.779248 0.064155 0.659892
Si Si6 0.461492 0.430700 0.633788
Si Si7 0.983930 0.066674 0.599228
Si Si8 0.160391 0.931161 0.682765
O O1 0.398910 0.250000 0.236253
O O2 0.449460 0.985110 0.168070
O O3 0.287046 0.012378 0.264713
O O4 0.447775 0.020867 0.336890
O O5 0.535754 0.750000 0.092481
O O6 0.625917 0.009150 0.122662
O O7 0.500000 0.000000 0.000000
O O8 0.338583 0.750000 0.777980
O O9 0.219217 0.970499 0.768717
O O10 0.387479 0.024336 0.713404
O O11 0.661476 0.250000 0.480393
O O12 0.732586 0.026168 0.567372
O O13 0.765155 0.048913 0.399804
O O14 0.593581 0.979078 0.451660
O O15 0.776214 0.250000 0.670912
O O16 0.886291 0.013642 0.646205
O O17 0.481991 0.250000 0.633146
O O18 0.977269 0.250000 0.588955
O O19 0.000000 0.000000 0.500000
O O20 0.069498 0.023833 0.659191
O O21 0.136368 0.750000 0.687112
#
# Coordination Sequence:
#
# PCOD9156539 Si02
#       8
#     4   4   4   4   4   4   4   4
#     4  11  22  36  52  73 100 132 168 208 254 305
#     4  11  21  36  59  85 111 136 164 200 246 305
#     4   9  17  31  50  74 105 136 167 206 252 301
#     4   9  17  31  47  64  93 132 173 215 257 299
#     4  10  21  36  49  66  96 135 175 218 263 303
#     4  10  18  29  46  68  95 129 169 209 251 300
#     4  11  21  33  50  71  98 134 180 227 268 306
#     4   9  17  31  49  71 100 135 173 219 264 299
#
# _framework density 16.989108999999999
#
# number of rings (size 3 to 8) (size 9 to 14) (size 15 to 20)
#    0.000    2.000    1.250    6.375    0.000    4.500 
#    0.000    0.000    0.000    0.000    0.000    0.875 
#    0.000    0.000    0.000    0.000    0.000    0.000 
#
# Total GULP energy -178496.650848 kJ/mol
# GULP energy per Si atom -5578.020339 kJ/mol
# Density = 1.695044 g / cm^3
# Si number density = 16.989109 Si / 1000 Ang^3
#
#
#
# Elastic Constant Matrix: (Units=GPa)
#
#
# Indices 1 2 3 4 5 6 
#
# 1 108.1488 34.9050 37.0290 0.0000 5.4519 0.0000
# 2 34.9050 58.7115 22.2006 0.0000 -0.3870 0.0000
# 3 37.0290 22.2006 63.9712 0.0000 15.7045 0.0000
# 4 0.0000 0.0000 0.0000 19.9991 0.0000 5.8375
# 5 5.4519 -0.3870 15.7045 0.0000 20.2794 0.0000
# 6 0.0000 0.0000 0.0000 5.8375 0.0000 27.2914
#
#
#
# Elastic Compliance Matrix: (Units=1/GPa)
#
#
# Indices 1 2 3 4 5 6 
#
# 1 0.012970 -0.005503 -0.005823 0.000000 0.000918 0.000000
# 2 -0.005503 0.022771 -0.006405 0.000000 0.006874 0.000000
# 3 -0.005823 -0.006405 0.025770 0.000000 -0.018513 0.000000
# 4 0.000000 0.000000 0.000000 0.053332 0.000000 -0.011407
# 5 0.000918 0.006874 -0.018513 0.000000 0.063532 0.000000
# 6 0.000000 0.000000 0.000000 -0.011407 0.000000 0.039082
#
#
# Mechanical properties :
#
#
# Convention : Reuss Voigt Hill
#
# Bulk Modulus (GPa) = 38.38762 46.56673 42.47718
# Shear Modulus (GPa) = 19.11301 22.62712 20.87006
#
# Velocity S-wave (km/s) = 3.35776 3.65343 3.50871
# Velocity P-wave (km/s) = 6.13818 6.72800 6.43984
#
# Compressibility (1/GPa) = 0.02605006
#
# Stress axis : x y z
#
# Youngs Moduli (GPa) = 77.10018 43.91515 38.80460
#
# Poissons Ratio (x) = 0.24167 0.22596
# Poissons Ratio (y) = 0.42429 0.24853
# Poissons Ratio (z) = 0.44896 0.28126
#
# Static dielectric constant tensor:
#      x y z
#    x 1.607240 0.000000 0.001190 
#    y 0.000000 1.572350 0.000000 
#    z 0.001190 0.000000 1.603190 
# 
# From -- ./inp_files/51191.got.cif
#   From: 2010.05.17/outbox.cif.g08.bks.cpg/sg11_26_cif.got.tgz:51191.got - 2010.06.03 12:22:45.
