data_PCOD9156100
_publ_section_title
;
Structure prediction by ZEFSAII (Michael W. Deem and Ramdas Pophale) SiO2 
 PCOD9156100
Probable space group: P 21/M
;
_chemical_formula_sum "Si O2"
_cell_formula_units_Z 28
_cell_length_a 17.275555
_cell_length_b 8.573202
_cell_length_c 10.254999
_cell_angle_alpha 90.000000
_cell_angle_beta 101.317658
_cell_angle_gamma 90.000000
_cell_volume 1489.300386
_symmetry_space_group_name_H-M "P 21/M"
_symmetry_group_IT_number 11
_symmetry_cell_setting 'monoclinic'
loop_
_space_group_symop_operation_xyz
x,y,z
-x,1/2+y,-z
-x,-y,-z
x,1/2-y,z
loop_
_atom_site_type_symbol
_atom_site_label
_atom_site_fract_x
_atom_site_fract_y
_atom_site_fract_z
Si Si1 0.679027 0.562772 0.971455
Si Si2 0.207351 0.061637 0.569345
Si Si3 0.357497 0.935165 0.751103
Si Si4 0.075784 0.438030 0.738135
Si Si5 0.856553 0.560037 0.963926
Si Si6 0.093184 0.438106 0.303138
Si Si7 0.481854 0.935749 0.139487
O O1 0.674196 0.750000 0.972643
O O2 0.669543 0.503349 0.117012
O O3 0.764736 0.516135 0.947283
O O4 0.606099 0.497067 0.863575
O O5 0.215830 0.250000 0.576156
O O6 0.145520 0.016183 0.662873
O O7 0.165328 0.016692 0.420649
O O8 0.291437 0.986607 0.626752
O O9 0.361974 0.750000 0.763462
O O10 0.444956 0.001495 0.752557
O O11 0.073028 0.250000 0.736529
O O12 0.990295 0.501383 0.672779
O O13 0.097715 0.492352 0.891500
O O14 0.858894 0.750000 0.964593
O O15 0.893011 0.505616 0.839986
O O16 0.090486 0.250000 0.301970
O O17 0.482726 0.750000 0.137613
O O18 0.500000 0.000000 0.000000
#
# Coordination Sequence:
#
# PCOD9156100 Si02
#       7
#     4   4   4   4   4   4   4
#     4  10  17  31  52  74 105 138 169 207 256 303
#     4  10  20  35  53  73 103 138 171 211 259 305
#     4  11  20  31  50  77 104 132 172 212 254 303
#     4  10  19  34  53  73 101 137 172 212 261 303
#     4   9  18  33  53  75 104 137 170 209 256 305
#     4  10  21  35  52  76 102 135 175 212 254 306
#     4  10  18  29  47  75 108 135 166 208 255 301
#
# _framework density 18.800775000000002
#
# number of rings (size 3 to 8) (size 9 to 14) (size 15 to 20)
#    0.000    2.000    1.429    5.571    0.000    1.143 
#    0.000    1.429    0.000    0.857    0.000    0.000 
#    0.000    0.000    0.000    0.000    0.000    0.000 
#
# Total GULP energy -156288.644128 kJ/mol
# GULP energy per Si atom -5581.737290 kJ/mol
# Density = 1.875798 g / cm^3
# Si number density = 18.800775 Si / 1000 Ang^3
#
#
#
# Elastic Constant Matrix: (Units=GPa)
#
#
# Indices 1 2 3 4 5 6 
#
# 1 61.0659 16.6137 7.8600 0.0000 33.5745 0.0000
# 2 16.6137 60.6299 12.2519 0.0000 12.1794 0.0000
# 3 7.8600 12.2519 60.3923 0.0000 15.3744 0.0000
# 4 0.0000 0.0000 0.0000 14.2629 0.0000 12.6905
# 5 33.5745 12.1794 15.3744 0.0000 34.4551 0.0000
# 6 0.0000 0.0000 0.0000 12.6905 0.0000 26.0046
#
#
#
# Elastic Compliance Matrix: (Units=1/GPa)
#
#
# Indices 1 2 3 4 5 6 
#
# 1 0.037277 -0.003800 0.005443 0.000000 -0.037410 0.000000
# 2 -0.003800 0.018419 -0.002851 0.000000 -0.001536 0.000000
# 3 0.005443 -0.002851 0.019768 0.000000 -0.013117 0.000000
# 4 0.000000 0.000000 0.000000 0.123918 0.000000 -0.060473
# 5 -0.037410 -0.001536 -0.013117 0.000000 0.071873 0.000000
# 6 0.000000 0.000000 0.000000 -0.060473 0.000000 0.067966
#
#
# Mechanical properties :
#
#
# Convention : Reuss Voigt Hill
#
# Bulk Modulus (GPa) = 13.68948 28.39326 21.04137
# Shear Modulus (GPa) = 13.66170 24.63536 19.14853
#
# Velocity S-wave (km/s) = 2.69858 3.62379 3.19485
# Velocity P-wave (km/s) = 4.12395 5.71350 4.98252
#
# Compressibility (1/GPa) = 0.07304878
#
# Stress axis : x y z
#
# Youngs Moduli (GPa) = 26.82594 54.29055 50.58792
#
# Poissons Ratio (x) = 0.20628 -0.27535
# Poissons Ratio (y) = 0.10193 0.14423
# Poissons Ratio (z) = -0.14601 0.15479
#
# Static dielectric constant tensor:
#      x y z
#    x 1.645760 0.000000 0.023630 
#    y 0.000000 1.632090 0.000000 
#    z 0.023630 0.000000 1.654170 
# 
# From -- ./inp_files/37649.got.cif
#   From: 2010.05.17/outbox.cif.g08.bks.cpg/sg11_19_cif.got.tgz:37649.got - 2010.06.03 12:22:45.
