data_PCOD9156112
_publ_section_title
;
Structure prediction by ZEFSAII (Michael W. Deem and Ramdas Pophale) SiO2 
 PCOD9156112
Probable space group: P 21/M
;
_chemical_formula_sum "Si O2"
_cell_formula_units_Z 32
_cell_length_a 14.544180
_cell_length_b 16.407860
_cell_length_c 9.462055
_cell_angle_alpha 90.000000
_cell_angle_beta 141.491382
_cell_angle_gamma 90.000000
_cell_volume 1405.912615
_symmetry_space_group_name_H-M "P 21/M"
_symmetry_group_IT_number 11
_symmetry_cell_setting 'monoclinic'
loop_
_space_group_symop_operation_xyz
x,y,z
-x,1/2+y,-z
-x,-y,-z
x,1/2-y,z
loop_
_atom_site_type_symbol
_atom_site_label
_atom_site_fract_x
_atom_site_fract_y
_atom_site_fract_z
Si Si1 0.244183 0.159493 0.217698
Si Si2 0.163348 0.487274 0.628410
Si Si3 0.644027 0.343089 0.530239
Si Si4 0.248710 0.660879 0.776511
Si Si5 0.476970 0.879297 0.299177
Si Si6 0.015733 0.342663 0.318763
Si Si7 0.942147 0.408750 0.941751
Si Si8 0.383507 0.060552 0.140247
O O1 0.272221 0.250000 0.193528
O O2 0.352781 0.147689 0.482101
O O3 0.073453 0.148125 0.044780
O O4 0.288214 0.091222 0.157976
O O5 0.228729 0.576296 0.666489
O O6 0.137665 0.412714 0.490318
O O7 0.000000 0.500000 0.500000
O O8 0.275510 0.454957 0.881462
O O9 0.684273 0.250000 0.557411
O O10 0.589066 0.352599 0.627670
O O11 0.509080 0.372013 0.271333
O O12 0.787093 0.397826 0.680907
O O13 0.262144 0.750000 0.721903
O O14 0.097154 0.662430 0.685968
O O15 0.381509 0.652478 0.051608
O O16 0.463857 0.976575 0.275066
O O17 0.068208 0.250000 0.354334
O O18 0.920522 0.378097 0.075404
O O19 0.000000 0.500000 0.000000
#
# Coordination Sequence:
#
# PCOD9156112 Si02
#       8
#     4   4   4   4   4   4   4   4
#     4  11  22  33  51  86 121 147 180 238 302 354
#     4   9  20  34  58  85 119 147 197 245 290 334
#     4  11  20  34  56  81 114 155 196 242 294 363
#     4   9  16  30  56  84 111 148 194 241 289 344
#     4  10  17  31  54  82 115 149 191 236 290 351
#     4  10  20  36  58  83 111 155 202 240 284 354
#     4  12  24  37  58  81 118 154 198 240 302 359
#     4  10  20  35  57  88 116 148 191 240 299 349
#
# _framework density 22.761016000000001
#
# number of rings (size 3 to 8) (size 9 to 14) (size 15 to 20)
#    0.000    1.750    1.250    6.375    3.500    1.000 
#    0.000    0.000    0.000    6.750    0.000    0.000 
#    0.000    0.000    0.000    0.000    0.000    0.000 
#
# Total GULP energy -178782.910601 kJ/mol
# GULP energy per Si atom -5586.965956 kJ/mol
# Density = 2.270921 g / cm^3
# Si number density = 22.761016 Si / 1000 Ang^3
#
#
#
# Elastic Constant Matrix: (Units=GPa)
#
#
# Indices 1 2 3 4 5 6 
#
# 1 30.6626 4.9724 22.3172 0.0000 4.8778 0.0000
# 2 4.9724 124.4257 15.2316 0.0000 -12.7278 0.0000
# 3 22.3172 15.2316 113.7935 0.0000 8.5670 0.0000
# 4 0.0000 0.0000 0.0000 10.1084 0.0000 2.3725
# 5 4.8778 -12.7278 8.5670 0.0000 28.4065 0.0000
# 6 0.0000 0.0000 0.0000 2.3725 0.0000 17.3325
#
#
#
# Elastic Compliance Matrix: (Units=1/GPa)
#
#
# Indices 1 2 3 4 5 6 
#
# 1 0.038750 -0.001203 -0.007057 0.000000 -0.005064 0.000000
# 2 -0.001203 0.008699 -0.001266 0.000000 0.004486 0.000000
# 3 -0.007057 -0.001266 0.010532 0.000000 -0.002532 0.000000
# 4 0.000000 0.000000 0.000000 0.102211 0.000000 -0.013991
# 5 -0.005064 0.004486 -0.002532 0.000000 0.038846 0.000000
# 6 0.000000 0.000000 0.000000 -0.013991 0.000000 0.059610
#
#
# Mechanical properties :
#
#
# Convention : Reuss Voigt Hill
#
# Bulk Modulus (GPa) = 25.68809 39.32493 32.50651
# Shear Modulus (GPa) = 17.20115 26.26017 21.73066
#
# Velocity S-wave (km/s) = 2.75203 3.40035 3.09323
# Velocity P-wave (km/s) = 4.62696 5.72113 5.20289
#
# Compressibility (1/GPa) = 0.03892854
#
# Stress axis : x y z
#
# Youngs Moduli (GPa) = 25.80618 114.95735 94.94817
#
# Poissons Ratio (x) = 0.13826 0.67010
# Poissons Ratio (y) = 0.03104 0.12023
# Poissons Ratio (z) = 0.18213 0.14556
#
# Static dielectric constant tensor:
#      x y z
#    x 1.908320 0.000000 -0.026930 
#    y 0.000000 1.681280 0.000000 
#    z -0.026930 0.000000 1.883760 
# 
# From -- ./inp_files/41742.got.cif
#   From: 2010.05.17/outbox.cif.g08.bks.cpg/sg11_21_cif.got.tgz:41742.got - 2010.06.03 12:22:45.
