data_PCOD9156383
_publ_section_title
;
Structure prediction by ZEFSAII (Michael W. Deem and Ramdas Pophale) SiO2 
 PCOD9156383
Probable space group: P 21/M
;
_chemical_formula_sum "Si O2"
_cell_formula_units_Z 32
_cell_length_a 16.255991
_cell_length_b 15.441602
_cell_length_c 12.031265
_cell_angle_alpha 90.000000
_cell_angle_beta 156.053659
_cell_angle_gamma 90.000000
_cell_volume 1225.788995
_symmetry_space_group_name_H-M "P 21/M"
_symmetry_group_IT_number 11
_symmetry_cell_setting 'monoclinic'
loop_
_space_group_symop_operation_xyz
x,y,z
-x,1/2+y,-z
-x,-y,-z
x,1/2-y,z
loop_
_atom_site_type_symbol
_atom_site_label
_atom_site_fract_x
_atom_site_fract_y
_atom_site_fract_z
Si Si1 0.426146 0.349586 0.004819
Si Si2 0.785490 0.849334 0.732048
Si Si3 0.844050 0.415758 0.123559
Si Si4 0.945745 0.149249 0.478885
Si Si5 0.643326 0.342749 0.674526
Si Si6 0.739766 0.857059 0.421461
Si Si7 0.940899 0.850340 0.146928
Si Si8 0.542336 0.573861 0.737085
O O1 0.489577 0.250000 0.098889
O O2 0.437874 0.371137 0.888765
O O3 0.183957 0.354822 0.735978
O O4 0.526615 0.408224 0.223270
O O5 0.857038 0.750000 0.805675
O O6 0.567661 0.845949 0.520780
O O7 0.734377 0.880344 0.544898
O O8 0.927564 0.889354 0.005531
O O9 0.822435 0.392008 0.225809
O O10 0.083269 0.419877 0.403554
O O11 0.799802 0.350026 0.967958
O O12 0.686527 0.491429 0.905497
O O13 0.891279 0.250000 0.414140
O O14 0.938053 0.114987 0.595840
O O15 0.668985 0.250000 0.649161
O O16 0.633481 0.418171 0.571043
O O17 0.774360 0.750000 0.454691
O O18 0.998978 0.750000 0.206452
O O19 0.707279 0.852932 0.903921
#
# Coordination Sequence:
#
# PCOD9156383 Si02
#       8
#     4   4   4   4   4   4   4   4
#     4   8  14  26  45  67  91 119 152 189 223 258
#     4   8  15  29  50  69  85 115 158 192 214 254
#     4  11  20  28  44  71  99 118 140 185 238 273
#     4   8  14  25  41  63  89 116 146 181 221 261
#     4  10  19  33  50  65  86 120 156 185 218 266
#     4   9  17  30  48  71  95 118 148 187 229 267
#     4   8  14  27  46  65  87 118 156 190 217 256
#     4  10  18  28  44  67  93 118 152 188 221 264
#
# _framework density 26.105634999999999
#
# number of rings (size 3 to 8) (size 9 to 14) (size 15 to 20)
#    0.000    3.000    0.000    4.875    0.000    4.500 
#    0.000    2.500    0.000    2.250    0.000    5.250 
#    0.000    0.000    0.000    0.000    0.000    0.000 
#
# Total GULP energy -178337.401603 kJ/mol
# GULP energy per Si atom -5573.043800 kJ/mol
# Density = 2.604622 g / cm^3
# Si number density = 26.105635 Si / 1000 Ang^3
#
#
#
# Elastic Constant Matrix: (Units=GPa)
#
#
# Indices 1 2 3 4 5 6 
#
# 1 118.1472 2.3750 51.2307 0.0000 -39.0875 0.0000
# 2 2.3750 39.1423 22.6766 0.0000 -11.0152 0.0000
# 3 51.2307 22.6766 92.6650 0.0000 -62.1533 0.0000
# 4 0.0000 0.0000 0.0000 3.4699 0.0000 -5.6570
# 5 -39.0875 -11.0152 -62.1533 0.0000 75.5702 0.0000
# 6 0.0000 0.0000 0.0000 -5.6570 0.0000 -0.4182
#
#
#
# Elastic Compliance Matrix: (Units=1/GPa)
#
#
# Indices 1 2 3 4 5 6 
#
# 1 0.011575 0.003352 -0.006415 0.000000 0.001199 0.000000
# 2 0.003352 0.031206 -0.011767 0.000000 -0.003396 0.000000
# 3 -0.006415 -0.011767 0.030873 0.000000 0.020358 0.000000
# 4 0.000000 0.000000 0.000000 0.012502 0.000000 -0.169105
# 5 0.001199 -0.003396 0.020358 0.000000 0.030102 0.000000
# 6 0.000000 0.000000 0.000000 -0.169105 0.000000 -0.103728
#
#
# Mechanical properties :
#
#
# Convention : Reuss Voigt Hill
#
# Bulk Modulus (GPa) = 22.73122 44.72435 33.72779
# Shear Modulus (GPa) = 87.94172 27.30254 57.62213
#
# Velocity S-wave (km/s) = 5.81034 3.23747 4.70325
# Velocity P-wave (km/s) = 7.33073 5.58070 6.51475
#
# Compressibility (1/GPa) = 0.04399236
#
# Stress axis : x y z
#
# Youngs Moduli (GPa) = 86.39165 32.04499 32.39086
#
# Poissons Ratio (x) = -0.10741 0.20779
# Poissons Ratio (y) = -0.28957 0.38116
# Poissons Ratio (z) = 0.55422 0.37709
#
# Static dielectric constant tensor:
#      x y z
#    x 2.082460 0.000000 -0.018870 
#    y 0.000000 2.076740 0.000000 
#    z -0.018870 0.000000 2.201650 
# 
# From -- ./inp_files/35909.got.cif
#   From: 2010.05.17/outbox.cif.g08.bks.cpg/sg11_18_cif.got.tgz:35909.got - 2010.06.03 12:22:45.
