data_PCOD9156352
_publ_section_title
;
Structure prediction by ZEFSAII (Michael W. Deem and Ramdas Pophale) SiO2 
 PCOD9156352
Probable space group: P 21/M
;
_chemical_formula_sum "Si O2"
_cell_formula_units_Z 32
_cell_length_a 16.992393
_cell_length_b 8.225260
_cell_length_c 24.751059
_cell_angle_alpha 90.000000
_cell_angle_beta 151.306136
_cell_angle_gamma 90.000000
_cell_volume 1660.949420
_symmetry_space_group_name_H-M "P 21/M"
_symmetry_group_IT_number 11
_symmetry_cell_setting 'monoclinic'
loop_
_space_group_symop_operation_xyz
x,y,z
-x,1/2+y,-z
-x,-y,-z
x,1/2-y,z
loop_
_atom_site_type_symbol
_atom_site_label
_atom_site_fract_x
_atom_site_fract_y
_atom_site_fract_z
Si Si1 0.558351 0.939851 0.411792
Si Si2 0.924181 0.442193 0.623349
Si Si3 0.103180 0.554318 0.511004
Si Si4 0.516673 0.052385 0.268796
Si Si5 0.977727 0.947354 0.203716
Si Si6 0.277645 0.064945 0.312200
Si Si7 0.055657 0.932780 0.090315
Si Si8 0.265785 0.433997 0.029472
O O1 0.595210 0.750000 0.433426
O O2 0.729592 0.035627 0.515738
O O3 0.476459 0.986198 0.304494
O O4 0.446073 0.979618 0.395994
O O5 0.958753 0.250000 0.642899
O O6 0.960795 0.508838 0.585680
O O7 0.014661 0.508998 0.730473
O O8 0.099777 0.750000 0.507024
O O9 0.294663 0.508282 0.629260
O O10 0.000000 0.500000 0.500000
O O11 0.501113 0.250000 0.262057
O O12 0.404197 0.991668 0.151569
O O13 0.968008 0.750000 0.196717
O O14 0.819816 0.009907 0.075039
O O15 0.150716 0.989824 0.278808
O O16 0.310371 0.250000 0.346769
O O17 0.174970 0.050496 0.194546
O O18 0.127894 0.750000 0.130616
O O19 0.891578 0.920664 0.026611
O O20 0.000000 0.000000 0.000000
O O21 0.322338 0.250000 0.049494
#
# Coordination Sequence:
#
# PCOD9156352 Si02
#       8
#     4   4   4   4   4   4   4   4
#     4  11  21  32  48  71  98 130 172 217 257 296
#     4   9  19  36  55  74  98 128 162 202 252 305
#     4   9  18  32  53  79 103 128 156 192 242 300
#     4   9  17  32  52  75 102 129 161 202 252 302
#     4   9  18  34  53  72  95 127 170 213 249 293
#     4  11  21  32  45  64  96 136 174 212 252 295
#     4  10  18  28  43  65  92 126 170 216 260 300
#     4   8  15  28  48  70  92 122 160 202 244 288
#
# _framework density 19.266089999999998
#
# number of rings (size 3 to 8) (size 9 to 14) (size 15 to 20)
#    0.000    2.500    0.000    4.875    0.000    4.000 
#    0.000    2.500    0.000    0.750    0.000    0.000 
#    0.000    0.000    0.000    0.000    0.000    0.500 
#
# Total GULP energy -178325.329607 kJ/mol
# GULP energy per Si atom -5572.666550 kJ/mol
# Density = 1.922224 g / cm^3
# Si number density = 19.266090 Si / 1000 Ang^3
#
#
#
# Elastic Constant Matrix: (Units=GPa)
#
#
# Indices 1 2 3 4 5 6 
#
# 1 85.5219 9.1653 40.1661 0.0000 -18.2443 0.0000
# 2 9.1653 17.7637 -1.5628 0.0000 -1.0381 0.0000
# 3 40.1661 -1.5628 86.3205 0.0000 -33.3080 0.0000
# 4 0.0000 0.0000 0.0000 8.6346 0.0000 0.0775
# 5 -18.2443 -1.0381 -33.3080 0.0000 30.1668 0.0000
# 6 0.0000 0.0000 0.0000 0.0775 0.0000 21.6249
#
#
#
# Elastic Compliance Matrix: (Units=1/GPa)
#
#
# Indices 1 2 3 4 5 6 
#
# 1 0.016362 -0.008965 -0.007102 0.000000 0.001745 0.000000
# 2 -0.008965 0.061795 0.007002 0.000000 0.004436 0.000000
# 3 -0.007102 0.007002 0.023437 0.000000 0.021823 0.000000
# 4 0.000000 0.000000 0.000000 0.115816 0.000000 -0.000415
# 5 0.001745 0.004436 0.021823 0.000000 0.058453 0.000000
# 6 0.000000 0.000000 0.000000 -0.000415 0.000000 0.046244
#
#
# Mechanical properties :
#
#
# Convention : Reuss Voigt Hill
#
# Bulk Modulus (GPa) = 11.98131 31.68258 21.83195
# Shear Modulus (GPa) = 13.58479 21.54111 17.56295
#
# Velocity S-wave (km/s) = 2.65828 3.34740 3.02255
# Velocity P-wave (km/s) = 3.95655 5.60541 4.85154
#
# Compressibility (1/GPa) = 0.08346332
#
# Stress axis : x y z
#
# Youngs Moduli (GPa) = 61.11907 16.18250 42.66739
#
# Poissons Ratio (x) = 0.14507 0.30304
# Poissons Ratio (y) = 0.54791 -0.29875
# Poissons Ratio (z) = 0.43408 -0.11331
#
# Static dielectric constant tensor:
#      x y z
#    x 1.680130 0.000000 -0.059220 
#    y 0.000000 1.687160 0.000000 
#    z -0.059220 0.000000 1.764790 
# 
# From -- ./inp_files/69468.got.cif
#   From: 2010.05.17/outbox.cif.g08.bks.cpg/sg11_35_cif.got.tgz:69468.got - 2010.06.03 12:22:45.
