data_PCOD9156213
_publ_section_title
;
Structure prediction by ZEFSAII (Michael W. Deem and Ramdas Pophale) SiO2 
 PCOD9156213
Probable space group: P 21/M
;
_chemical_formula_sum "Si O2"
_cell_formula_units_Z 32
_cell_length_a 12.753737
_cell_length_b 8.247288
_cell_length_c 24.693885
_cell_angle_alpha 90.000000
_cell_angle_beta 40.270785
_cell_angle_gamma 90.000000
_cell_volume 1678.958388
_symmetry_space_group_name_H-M "P 21/M"
_symmetry_group_IT_number 11
_symmetry_cell_setting 'monoclinic'
loop_
_space_group_symop_operation_xyz
x,y,z
-x,1/2+y,-z
-x,-y,-z
x,1/2-y,z
loop_
_atom_site_type_symbol
_atom_site_label
_atom_site_fract_x
_atom_site_fract_y
_atom_site_fract_z
Si Si1 0.450913 0.433741 0.961624
Si Si2 0.478110 0.444815 0.227598
Si Si3 0.765629 0.066482 0.761692
Si Si4 0.604180 0.942771 0.408379
Si Si5 0.229053 0.563286 0.960822
Si Si6 0.977590 0.551282 0.254387
Si Si7 0.041530 0.053640 0.859558
Si Si8 0.588252 0.443811 0.297375
O O1 0.384580 0.250000 0.990309
O O2 0.615112 0.427244 0.862337
O O3 0.330515 0.550938 0.976885
O O4 0.500000 0.500000 0.000000
O O5 0.491995 0.250000 0.220274
O O6 0.316267 0.488030 0.258568
O O7 0.642965 0.509878 0.132633
O O8 0.481915 0.499019 0.288165
O O9 0.813853 0.250000 0.728172
O O10 0.909323 0.991516 0.741230
O O11 0.610263 0.750000 0.406563
O O12 0.791561 0.999915 0.336710
O O13 0.500000 0.000000 0.500000
O O14 0.536762 0.996268 0.376661
O O15 0.201225 0.750000 0.956031
O O16 0.058130 0.490999 0.048769
O O17 0.986340 0.750000 0.251432
O O18 0.023975 0.502181 0.174441
O O19 0.032910 0.250000 0.864378
O O20 0.228457 0.002993 0.786119
O O21 0.589479 0.250000 0.297943
#
# Coordination Sequence:
#
# PCOD9156213 Si02
#       8
#     4   4   4   4   4   4   4   4
#     4  10  18  26  39  61  89 124 167 213 255 294
#     4   9  19  33  47  68 100 137 173 210 251 287
#     4   9  17  30  48  68  92 127 169 205 239 290
#     4  10  20  36  59  84 106 127 154 192 244 302
#     4   9  17  30  45  62  91 132 174 214 255 294
#     4   8  15  29  49  73  99 126 157 198 249 296
#     4   9  17  30  48  69  96 132 173 215 258 299
#     4  10  20  34  51  73 103 134 165 203 247 297
#
# _framework density 19.059436999999999
#
# number of rings (size 3 to 8) (size 9 to 14) (size 15 to 20)
#    0.000    2.750    0.000    2.625    0.000    4.500 
#    0.000    3.125    0.000    0.750    0.000    0.000 
#    0.000    0.000    0.000    0.000    0.000    0.000 
#
# Total GULP energy -178246.922906 kJ/mol
# GULP energy per Si atom -5570.216341 kJ/mol
# Density = 1.901606 g / cm^3
# Si number density = 19.059437 Si / 1000 Ang^3
#
#
#
# Elastic Constant Matrix: (Units=GPa)
#
#
# Indices 1 2 3 4 5 6 
#
# 1 100.5210 10.9584 36.9208 0.0000 29.9110 0.0000
# 2 10.9584 22.6132 13.6985 0.0000 4.7524 0.0000
# 3 36.9208 13.6985 77.2426 0.0000 18.2913 0.0000
# 4 0.0000 0.0000 0.0000 17.5109 0.0000 0.4851
# 5 29.9110 4.7524 18.2913 0.0000 24.2100 0.0000
# 6 0.0000 0.0000 0.0000 0.4851 0.0000 19.4786
#
#
#
# Elastic Compliance Matrix: (Units=1/GPa)
#
#
# Indices 1 2 3 4 5 6 
#
# 1 0.016683 -0.002331 -0.003396 0.000000 -0.017589 0.000000
# 2 -0.002331 0.050153 -0.007467 0.000000 -0.001324 0.000000
# 3 -0.003396 -0.007467 0.017724 0.000000 -0.007730 0.000000
# 4 0.000000 0.000000 0.000000 0.057147 0.000000 -0.001423
# 5 -0.017589 -0.001324 -0.007730 0.000000 0.069135 0.000000
# 6 0.000000 0.000000 0.000000 -0.001423 0.000000 0.051374
#
#
# Mechanical properties :
#
#
# Convention : Reuss Voigt Hill
#
# Bulk Modulus (GPa) = 17.19015 35.94802 26.56908
# Shear Modulus (GPa) = 16.23405 21.49316 18.86360
#
# Velocity S-wave (km/s) = 2.92166 3.36175 3.14940
# Velocity P-wave (km/s) = 4.51888 5.82842 5.21492
#
# Compressibility (1/GPa) = 0.05817283
#
# Stress axis : x y z
#
# Youngs Moduli (GPa) = 59.94024 19.93899 56.42068
#
# Poissons Ratio (x) = 0.04648 0.19160
# Poissons Ratio (y) = 0.13973 0.42127
# Poissons Ratio (z) = 0.20355 0.14888
#
# Static dielectric constant tensor:
#      x y z
#    x 1.703250 0.000000 0.013120 
#    y 0.000000 1.690050 0.000000 
#    z 0.013120 0.000000 1.645940 
# 
# From -- ./inp_files/64358.got.cif
#   From: 2010.05.17/outbox.cif.g08.bks.cpg/sg11_33_cif.got.tgz:64358.got - 2010.06.03 12:22:45.
