data_PCOD9156201
_publ_section_title
;
Structure prediction by ZEFSAII (Michael W. Deem and Ramdas Pophale) SiO2 
 PCOD9156201
Probable space group: P 21/M
;
_chemical_formula_sum "Si O2"
_cell_formula_units_Z 32
_cell_length_a 16.662954
_cell_length_b 9.169139
_cell_length_c 23.451576
_cell_angle_alpha 90.000000
_cell_angle_beta 38.274617
_cell_angle_gamma 90.000000
_cell_volume 2219.451879
_symmetry_space_group_name_H-M "P 21/M"
_symmetry_group_IT_number 11
_symmetry_cell_setting 'monoclinic'
loop_
_space_group_symop_operation_xyz
x,y,z
-x,1/2+y,-z
-x,-y,-z
x,1/2-y,z
loop_
_atom_site_type_symbol
_atom_site_label
_atom_site_fract_x
_atom_site_fract_y
_atom_site_fract_z
Si Si1 0.016758 0.075825 0.052137
Si Si2 0.433791 0.074926 0.263217
Si Si3 0.680308 0.424670 0.560184
Si Si4 0.765704 0.575618 0.217285
Si Si5 0.483609 0.424827 0.569630
Si Si6 0.930443 0.582701 0.454310
Si Si7 0.828644 0.582551 0.642584
Si Si8 0.696321 0.577058 0.123154
O O1 0.002024 0.250000 0.054933
O O2 0.899819 0.008298 0.153474
O O3 0.166558 0.047370 0.984293
O O4 0.000000 0.000000 0.000000
O O5 0.432244 0.250000 0.271113
O O6 0.321090 0.037766 0.280477
O O7 0.391831 0.998849 0.345904
O O8 0.575374 0.015935 0.169553
O O9 0.680192 0.250000 0.568114
O O10 0.600196 0.460328 0.548088
O O11 0.825934 0.486427 0.479036
O O12 0.787311 0.750000 0.208307
O O13 0.650587 0.534369 0.324098
O O14 0.719189 0.545829 0.178042
O O15 0.500000 0.500000 0.500000
O O16 0.482326 0.250000 0.563450
O O17 0.928243 0.750000 0.436548
O O18 0.880797 0.580352 0.547954
O O19 0.074366 0.517122 0.375776
O O20 0.836703 0.750000 0.657694
O O21 0.668359 0.750000 0.134403
#
# Coordination Sequence:
#
# PCOD9156201 Si02
#       8
#     4   4   4   4   4   4   4   4
#     4   9  17  27  40  59  79 103 134 166 202 244
#     4  10  18  25  38  59  80 104 139 170 195 235
#     4  10  18  30  43  54  75 105 132 166 212 248
#     4   9  17  31  44  57  78 103 134 171 209 249
#     4  10  21  34  46  61  80 105 138 176 217 253
#     4   9  16  25  38  56  73  95 133 168 194 235
#     4   8  15  25  34  51  77 103 129 161 197 232
#     4   9  16  27  40  56  82 108 133 165 203 244
#
# _framework density 14.417975
#
# number of rings (size 3 to 8) (size 9 to 14) (size 15 to 20)
#    0.000    2.750    1.250    3.000    0.000    7.500 
#    0.000    0.000    0.000    0.000    0.000    0.000 
#    0.000    0.000    0.000    1.125    0.000   14.750 
#
# Total GULP energy -178155.935909 kJ/mol
# GULP energy per Si atom -5567.372997 kJ/mol
# Density = 1.438516 g / cm^3
# Si number density = 14.417975 Si / 1000 Ang^3
#
#
#
# Elastic Constant Matrix: (Units=GPa)
#
#
# Indices 1 2 3 4 5 6 
#
# 1 70.5776 46.3003 54.0909 0.0000 -29.6934 0.0000
# 2 46.3003 57.5500 41.5177 0.0000 -23.3374 0.0000
# 3 54.0909 41.5177 78.0278 0.0000 -28.7871 0.0000
# 4 0.0000 0.0000 0.0000 23.5052 0.0000 -7.7511
# 5 -29.6934 -23.3374 -28.7871 0.0000 29.2304 0.0000
# 6 0.0000 0.0000 0.0000 -7.7511 0.0000 22.0285
#
#
#
# Elastic Compliance Matrix: (Units=1/GPa)
#
#
# Indices 1 2 3 4 5 6 
#
# 1 0.044565 -0.018553 -0.015369 0.000000 0.015323 0.000000
# 2 -0.018553 0.038971 -0.005260 0.000000 0.007087 0.000000
# 3 -0.015369 -0.005260 0.029780 0.000000 0.009516 0.000000
# 4 0.000000 0.000000 0.000000 0.048128 0.000000 0.016935
# 5 0.015323 0.007087 0.009516 0.000000 0.064807 0.000000
# 6 0.000000 0.000000 0.000000 0.016935 0.000000 0.051355
#
#
# Mechanical properties :
#
#
# Convention : Reuss Voigt Hill
#
# Bulk Modulus (GPa) = 28.61008 54.44146 41.52577
# Shear Modulus (GPa) = 13.60101 19.23591 16.41846
#
# Velocity S-wave (km/s) = 3.07471 3.65658 3.37820
# Velocity P-wave (km/s) = 5.70014 7.46116 6.63929
#
# Compressibility (1/GPa) = 0.03495272
#
# Stress axis : x y z
#
# Youngs Moduli (GPa) = 22.43904 25.66021 33.57977
#
# Poissons Ratio (x) = 0.47606 0.51609
# Poissons Ratio (y) = 0.41630 0.17663
# Poissons Ratio (z) = 0.34487 0.13497
#
# Static dielectric constant tensor:
#      x y z
#    x 1.465820 0.000000 -0.040350 
#    y 0.000000 1.484040 0.000000 
#    z -0.040350 0.000000 1.485840 
# 
# From -- ./inp_files/51352.got.cif
#   From: 2010.05.17/outbox.cif.g08.bks.cpg/sg11_26_cif.got.tgz:51352.got - 2010.06.03 12:22:45.
