data_PCOD9156691
_publ_section_title
;
Structure prediction by ZEFSAII (Michael W. Deem and Ramdas Pophale) SiO2 
 PCOD9156691
Probable space group: P 21/M
;
_chemical_formula_sum "Si O2"
_cell_formula_units_Z 32
_cell_length_a 32.383277
_cell_length_b 8.894102
_cell_length_c 21.016958
_cell_angle_alpha 90.000000
_cell_angle_beta 20.352092
_cell_angle_gamma 90.000000
_cell_volume 2105.269111
_symmetry_space_group_name_H-M "P 21/M"
_symmetry_group_IT_number 11
_symmetry_cell_setting 'monoclinic'
loop_
_space_group_symop_operation_xyz
x,y,z
-x,1/2+y,-z
-x,-y,-z
x,1/2-y,z
loop_
_atom_site_type_symbol
_atom_site_label
_atom_site_fract_x
_atom_site_fract_y
_atom_site_fract_z
Si Si1 0.788236 0.074234 0.484159
Si Si2 0.164271 0.077412 0.713052
Si Si3 0.207057 0.568883 0.308146
Si Si4 0.880184 0.422565 0.094854
Si Si5 0.059967 0.068019 0.261380
Si Si6 0.871220 0.568630 0.703023
Si Si7 0.069137 0.427936 0.107362
Si Si8 0.370532 0.429140 0.179177
O O1 0.758432 0.250000 0.534548
O O2 0.926589 0.056171 0.304039
O O3 0.778660 0.022035 0.424964
O O4 0.708026 0.976085 0.646409
O O5 0.202656 0.250000 0.652538
O O6 0.180204 0.014590 0.760970
O O7 0.022064 0.073470 0.904815
O O8 0.212913 0.750000 0.298656
O O9 0.213542 0.502921 0.227458
O O10 0.304997 0.500408 0.212848
O O11 0.076467 0.525439 0.524999
O O12 0.842293 0.250000 0.151696
O O13 0.868333 0.490429 0.041721
O O14 0.058347 0.250000 0.260204
O O15 0.141955 0.028571 0.203332
O O16 0.096484 0.013845 0.138802
O O17 0.873383 0.750000 0.694136
O O18 0.000000 0.500000 0.500000
O O19 0.094930 0.250000 0.066114
O O20 0.376907 0.250000 0.164116
O O21 0.500000 0.500000 0.000000
#
# Coordination Sequence:
#
# PCOD9156691 Si02
#       8
#     4   4   4   4   4   4   4   4
#     4  10  18  30  46  61  80 107 139 177 219 256
#     4   9  16  26  39  55  76 104 139 173 207 251
#     4  10  18  32  47  61  82 109 141 181 222 261
#     4   9  16  24  34  54  79 105 138 175 208 243
#     4   8  14  25  41  60  84 112 142 173 209 252
#     4   9  16  26  41  62  84 110 142 177 214 257
#     4   9  15  25  40  57  81 114 142 171 210 251
#     4  12  24  36  49  65  84 109 144 184 225 266
#
# _framework density 15.199958000000001
#
# number of rings (size 3 to 8) (size 9 to 14) (size 15 to 20)
#    0.000    2.500    1.250    3.750    0.000    3.500 
#    0.000    1.250    0.000    0.000    0.000    0.000 
#    0.000    0.000    0.000    1.125    0.000   14.250 
#
# Total GULP energy -178231.314516 kJ/mol
# GULP energy per Si atom -5569.728579 kJ/mol
# Density = 1.516536 g / cm^3
# Si number density = 15.199958 Si / 1000 Ang^3
#
#
#
# Elastic Constant Matrix: (Units=GPa)
#
#
# Indices 1 2 3 4 5 6 
#
# 1 154.1615 46.2095 28.0373 0.0000 13.7440 0.0000
# 2 46.2095 77.4419 17.5422 0.0000 2.1180 0.0000
# 3 28.0373 17.5422 18.0752 0.0000 -5.2592 0.0000
# 4 0.0000 0.0000 0.0000 15.0861 0.0000 4.3950
# 5 13.7440 2.1180 -5.2592 0.0000 13.7896 0.0000
# 6 0.0000 0.0000 0.0000 4.3950 0.0000 27.0522
#
#
#
# Elastic Compliance Matrix: (Units=1/GPa)
#
#
# Indices 1 2 3 4 5 6 
#
# 1 0.014108 -0.001531 -0.027468 0.000000 -0.024302 0.000000
# 2 -0.001531 0.017972 -0.017351 0.000000 -0.007851 0.000000
# 3 -0.027468 -0.017351 0.138929 0.000000 0.083027 0.000000
# 4 0.000000 0.000000 0.000000 0.069580 0.000000 -0.011304
# 5 -0.024302 -0.007851 0.083027 0.000000 0.129611 0.000000
# 6 0.000000 0.000000 0.000000 -0.011304 0.000000 0.038802
#
#
# Mechanical properties :
#
#
# Convention : Reuss Voigt Hill
#
# Bulk Modulus (GPa) = 12.77018 48.13962 30.45490
# Shear Modulus (GPa) = 9.47320 21.71155 15.59238
#
# Velocity S-wave (km/s) = 2.49918 3.78351 3.20631
# Velocity P-wave (km/s) = 4.09238 7.12925 5.81265
#
# Compressibility (1/GPa) = 0.07830745
#
# Stress axis : x y z
#
# Youngs Moduli (GPa) = 70.88188 55.64281 7.19795
#
# Poissons Ratio (x) = 0.08521 0.19771
# Poissons Ratio (y) = 0.10855 0.12489
# Poissons Ratio (z) = 1.94700 0.96545
#
# Static dielectric constant tensor:
#      x y z
#    x 1.544640 0.000000 0.008060 
#    y 0.000000 1.507830 0.000000 
#    z 0.008060 0.000000 1.472860 
# 
# From -- ./inp_files/67409.got.cif
#   From: 2010.05.17/outbox.cif.g08.bks.cpg/sg11_34_cif.got.tgz:67409.got - 2010.06.03 12:22:45.
