data_PCOD9156854
_publ_section_title
;
Structure prediction by ZEFSAII (Michael W. Deem and Ramdas Pophale) SiO2 
 PCOD9156854
Probable space group: P 21/M
;
_chemical_formula_sum "Si O2"
_cell_formula_units_Z 28
_cell_length_a 19.210381
_cell_length_b 9.173144
_cell_length_c 15.778330
_cell_angle_alpha 90.000000
_cell_angle_beta 145.679627
_cell_angle_gamma 90.000000
_cell_volume 1567.673121
_symmetry_space_group_name_H-M "P 21/M"
_symmetry_group_IT_number 11
_symmetry_cell_setting 'monoclinic'
loop_
_space_group_symop_operation_xyz
x,y,z
-x,1/2+y,-z
-x,-y,-z
x,1/2-y,z
loop_
_atom_site_type_symbol
_atom_site_label
_atom_site_fract_x
_atom_site_fract_y
_atom_site_fract_z
Si Si1 0.896001 0.071950 0.836115
Si Si2 0.613930 0.416032 0.573798
Si Si3 0.671770 0.911609 0.173467
Si Si4 0.447555 0.917608 0.080923
Si Si5 0.866805 0.572998 0.624709
Si Si6 0.057987 0.084194 0.480029
Si Si7 0.392682 0.582881 0.634931
O O1 0.903869 0.250000 0.841384
O O2 0.756517 0.032937 0.728010
O O3 0.907047 0.004834 0.752401
O O4 0.000000 0.000000 0.000000
O O5 0.500000 0.500000 0.500000
O O6 0.609855 0.250000 0.600840
O O7 0.593699 0.416598 0.452347
O O8 0.654571 0.750000 0.118757
O O9 0.563288 0.931707 0.132522
O O10 0.797693 0.915280 0.350977
O O11 0.663903 0.024588 0.088739
O O12 0.432624 0.750000 0.090233
O O13 0.487824 0.016473 0.199653
O O14 0.867469 0.750000 0.632868
O O15 0.947354 0.531186 0.622695
O O16 0.727330 0.516231 0.468124
O O17 0.011476 0.250000 0.434153
O O18 0.000000 0.000000 0.500000
O O19 0.370807 0.750000 0.641160
#
# Coordination Sequence:
#
# PCOD9156854 Si02
#       7
#     4   4   4   4   4   4   4
#     4  10  21  38  60  89 116 146 188 234 284 341
#     4   9  20  36  55  82 113 142 180 224 275 333
#     4   9  18  33  48  70 103 133 167 214 262 306
#     4  10  18  30  50  76 101 130 171 214 260 310
#     4  10  19  35  56  80 108 141 184 232 274 324
#     4  10  21  36  53  75 106 142 183 227 271 321
#     4  10  19  32  52  79 108 139 177 222 267 321
#
# _framework density 17.860866000000001
#
# number of rings (size 3 to 8) (size 9 to 14) (size 15 to 20)
#    0.000    2.286    1.429    2.571    0.000    5.714 
#    0.000    1.429    0.000    0.000    0.000    0.000 
#    0.000    0.000    0.000    0.000    0.000    0.000 
#
# Total GULP energy -155943.762022 kJ/mol
# GULP energy per Si atom -5569.420072 kJ/mol
# Density = 1.782021 g / cm^3
# Si number density = 17.860866 Si / 1000 Ang^3
#
#
#
# Elastic Constant Matrix: (Units=GPa)
#
#
# Indices 1 2 3 4 5 6 
#
# 1 98.2263 42.7245 26.4653 0.0000 -1.0425 0.0000
# 2 42.7245 70.2329 37.1457 0.0000 -5.1825 0.0000
# 3 26.4653 37.1457 86.2479 0.0000 -16.3810 0.0000
# 4 0.0000 0.0000 0.0000 30.4031 0.0000 -3.2664
# 5 -1.0425 -5.1825 -16.3810 0.0000 15.6712 0.0000
# 6 0.0000 0.0000 0.0000 -3.2664 0.0000 29.8864
#
#
#
# Elastic Compliance Matrix: (Units=1/GPa)
#
#
# Indices 1 2 3 4 5 6 
#
# 1 0.014018 -0.007984 -0.001481 0.000000 -0.003256 0.000000
# 2 -0.007984 0.023082 -0.007663 0.000000 -0.000909 0.000000
# 3 -0.001481 -0.007663 0.018528 0.000000 0.016734 0.000000
# 4 0.000000 0.000000 0.000000 0.033282 0.000000 0.003638
# 5 -0.003256 -0.000909 0.016734 0.000000 0.080786 0.000000
# 6 0.000000 0.000000 0.000000 0.003638 0.000000 0.033858
#
#
# Mechanical properties :
#
#
# Convention : Reuss Voigt Hill
#
# Bulk Modulus (GPa) = 46.79584 51.93092 49.36338
# Shear Modulus (GPa) = 20.41366 25.08359 22.74863
#
# Velocity S-wave (km/s) = 3.38439 3.75158 3.57271
# Velocity P-wave (km/s) = 6.44431 6.92129 6.68705
#
# Compressibility (1/GPa) = 0.02136942
#
# Stress axis : x y z
#
# Youngs Moduli (GPa) = 71.33703 43.32461 53.97305
#
# Poissons Ratio (x) = 0.34592 0.07994
# Poissons Ratio (y) = 0.56959 0.41362
# Poissons Ratio (z) = 0.10566 0.33202
#
# Static dielectric constant tensor:
#      x y z
#    x 1.616490 0.000000 -0.006020 
#    y 0.000000 1.651490 0.000000 
#    z -0.006020 0.000000 1.633510 
# 
# From -- ./inp_files/53286.got.cif
#   From: 2010.05.17/outbox.cif.g08.bks.cpg/sg11_27_cif.got.tgz:53286.got - 2010.06.03 12:22:45.
