data_PCOD9156515
_publ_section_title
;
Structure prediction by ZEFSAII (Michael W. Deem and Ramdas Pophale) SiO2 
 PCOD9156515
Probable space group: P 21/M
;
_chemical_formula_sum "Si O2"
_cell_formula_units_Z 32
_cell_length_a 13.346602
_cell_length_b 11.951057
_cell_length_c 19.344760
_cell_angle_alpha 90.000000
_cell_angle_beta 26.855357
_cell_angle_gamma 90.000000
_cell_volume 1393.890457
_symmetry_space_group_name_H-M "P 21/M"
_symmetry_group_IT_number 11
_symmetry_cell_setting 'monoclinic'
loop_
_space_group_symop_operation_xyz
x,y,z
-x,1/2+y,-z
-x,-y,-z
x,1/2-y,z
loop_
_atom_site_type_symbol
_atom_site_label
_atom_site_fract_x
_atom_site_fract_y
_atom_site_fract_z
Si Si1 0.727298 0.401038 0.617480
Si Si2 0.885028 0.864463 0.512221
Si Si3 0.116157 0.885415 0.041858
Si Si4 0.184168 0.956751 0.217276
Si Si5 0.513654 0.873464 0.904671
Si Si6 0.639704 0.879303 0.338295
Si Si7 0.240398 0.124145 0.899108
Si Si8 0.838377 0.377329 0.387409
O O1 0.921382 0.367004 0.549805
O O2 0.480965 0.365315 0.786866
O O3 0.791848 0.369857 0.499153
O O4 0.723491 0.534160 0.620444
O O5 0.757475 0.750000 0.594540
O O6 0.007112 0.879884 0.364160
O O7 0.106187 0.750000 0.023207
O O8 0.876843 0.905305 0.226039
O O9 0.327768 0.885668 0.961167
O O10 0.141985 0.002333 0.981675
O O11 0.299814 0.032333 0.205330
O O12 0.372543 0.889893 0.061888
O O13 0.051894 0.043774 0.250061
O O14 0.615034 0.750000 0.839887
O O15 0.596494 0.750000 0.380831
O O16 0.703971 0.886282 0.217017
O O17 0.393077 0.929078 0.499513
O O18 0.132011 0.250000 0.976227
O O19 0.879923 0.250000 0.337189
#
# Coordination Sequence:
#
# PCOD9156515 Si02
#       8
#     4   4   4   4   4   4   4   4
#     4   9  18  28  43  70  98 128 160 195 244 298
#     4  10  18  29  45  66  96 128 161 201 246 297
#     4  10  20  34  52  75 103 136 171 207 252 302
#     4  10  20  33  50  71  92 127 168 205 251 296
#     4  10  21  36  51  70  99 130 166 211 256 303
#     4   8  16  31  52  76 102 133 166 202 248 302
#     4  10  18  31  51  75 104 135 168 206 248 296
#     4   9  16  30  51  72  96 124 159 200 240 293
#
# _framework density 22.957326999999999
#
# number of rings (size 3 to 8) (size 9 to 14) (size 15 to 20)
#    0.000    2.500    0.000    3.750    0.000    0.500 
#    0.000    6.875    0.000    3.750    0.000    0.000 
#    0.000    0.000    0.000    0.000    0.000    0.000 
#
# Total GULP energy -178214.127198 kJ/mol
# GULP energy per Si atom -5569.191475 kJ/mol
# Density = 2.290508 g / cm^3
# Si number density = 22.957327 Si / 1000 Ang^3
#
#
#
# Elastic Constant Matrix: (Units=GPa)
#
#
# Indices 1 2 3 4 5 6 
#
# 1 42.7086 17.4125 -0.5005 0.0000 -18.3888 0.0000
# 2 17.4125 170.7535 23.7401 0.0000 -5.3112 0.0000
# 3 -0.5005 23.7401 59.0807 0.0000 -11.7886 0.0000
# 4 0.0000 0.0000 0.0000 6.3117 0.0000 -3.8463
# 5 -18.3888 -5.3112 -11.7886 0.0000 34.7993 0.0000
# 6 0.0000 0.0000 0.0000 -3.8463 0.0000 6.0762
#
#
#
# Elastic Compliance Matrix: (Units=1/GPa)
#
#
# Indices 1 2 3 4 5 6 
#
# 1 0.032986 -0.003537 0.005439 0.000000 0.018733 0.000000
# 2 -0.003537 0.006583 -0.003054 0.000000 -0.001899 0.000000
# 3 0.005439 -0.003054 0.020034 0.000000 0.009194 0.000000
# 4 0.000000 0.000000 0.000000 0.257935 0.000000 0.163277
# 5 0.018733 -0.001899 0.009194 0.000000 0.041460 0.000000
# 6 0.000000 0.000000 0.000000 0.163277 0.000000 0.267933
#
#
# Mechanical properties :
#
#
# Convention : Reuss Voigt Hill
#
# Bulk Modulus (GPa) = 17.45269 39.31634 28.38452
# Shear Modulus (GPa) = 7.71206 24.89682 16.30444
#
# Velocity S-wave (km/s) = 1.83483 3.29672 2.66786
# Velocity P-wave (km/s) = 3.47959 5.62620 4.67770
#
# Compressibility (1/GPa) = 0.05729776
#
# Stress axis : x y z
#
# Youngs Moduli (GPa) = 30.31564 151.91491 49.91557
#
# Poissons Ratio (x) = 0.53736 -0.27148
# Poissons Ratio (y) = 0.10723 0.15244
# Poissons Ratio (z) = -0.16488 0.46394
#
# Static dielectric constant tensor:
#      x y z
#    x 1.915240 0.000000 -0.016730 
#    y 0.000000 1.928550 0.000000 
#    z -0.016730 0.000000 1.837880 
# 
# From -- ./inp_files/69043.got.cif
#   From: 2010.05.17/outbox.cif.g08.bks.cpg/sg11_35_cif.got.tgz:69043.got - 2010.06.03 12:22:45.
