data_PCOD9156910
_publ_section_title
;
Structure prediction by ZEFSAII (Michael W. Deem and Ramdas Pophale) SiO2 
 PCOD9156910
Probable space group: P 21/M
;
_chemical_formula_sum "Si O2"
_cell_formula_units_Z 30
_cell_length_a 16.262866
_cell_length_b 9.639863
_cell_length_c 8.869137
_cell_angle_alpha 90.000000
_cell_angle_beta 96.645314
_cell_angle_gamma 90.000000
_cell_volume 1381.089041
_symmetry_space_group_name_H-M "P 21/M"
_symmetry_group_IT_number 11
_symmetry_cell_setting 'monoclinic'
loop_
_space_group_symop_operation_xyz
x,y,z
-x,1/2+y,-z
-x,-y,-z
x,1/2-y,z
loop_
_atom_site_type_symbol
_atom_site_label
_atom_site_fract_x
_atom_site_fract_y
_atom_site_fract_z
Si Si1 0.031988 0.250000 0.991863
Si Si2 0.683402 0.094250 0.657238
Si Si3 0.959290 0.477474 0.802253
Si Si4 0.598959 0.911525 0.151169
Si Si5 0.555442 0.913618 0.789710
Si Si6 0.197597 0.602487 0.038459
Si Si7 0.789842 0.912450 0.227562
Si Si8 0.149433 0.916237 0.493170
O O1 0.029420 0.372679 0.122713
O O2 0.031959 0.372698 0.859674
O O3 0.654535 0.250000 0.609704
O O4 0.760805 0.055423 0.567081
O O5 0.610483 0.986155 0.672091
O O6 0.727242 0.103610 0.830011
O O7 0.923962 0.475510 0.626534
O O8 0.884747 0.402040 0.879624
O O9 0.576787 0.750000 0.172499
O O10 0.691067 0.936551 0.231365
O O11 0.532877 0.011659 0.214230
O O12 0.594307 0.931669 0.967742
O O13 0.548583 0.750000 0.761633
O O14 0.198294 0.750000 0.952102
O O15 0.200150 0.467034 0.939496
O O16 0.803992 0.750000 0.248756
O O17 0.844183 0.007533 0.347277
O O18 0.140558 0.750000 0.501424
#
# Coordination Sequence:
#
# PCOD9156910 Si02
#       8
#     2   4   4   4   4   4   4   4
#     4  10  20  36  66  92 122 138 186 226 274 328
#     4   9  18  33  55  79 107 145 187 239 280 328
#     4  10  20  38  63  95 113 149 181 232 272 325
#     4   9  19  34  48  74 110 147 184 231 286 332
#     4  10  18  30  52  79 107 138 186 242 286 331
#     4  10  19  35  57  84 115 146 192 227 277 329
#     4  11  23  36  55  82 116 151 190 234 278 335
#     4  10  21  39  57  82 117 151 189 224 282 335
#
# _framework density 21.721988
#
# number of rings (size 3 to 8) (size 9 to 14) (size 15 to 20)
#    0.000    2.133    2.667    1.600    1.867    2.133 
#    2.400    0.667    0.000    4.800    0.000    0.000 
#    0.000    0.000    0.000    0.000    0.000    0.000 
#
# Total GULP energy -167006.772381 kJ/mol
# GULP energy per Si atom -5566.892413 kJ/mol
# Density = 2.167255 g / cm^3
# Si number density = 21.721988 Si / 1000 Ang^3
#
#
#
# Elastic Constant Matrix: (Units=GPa)
#
#
# Indices 1 2 3 4 5 6 
#
# 1 44.8541 20.8076 -8.9743 0.0000 3.3689 0.0000
# 2 20.8076 87.7452 7.4841 0.0000 2.9081 0.0000
# 3 -8.9743 7.4841 54.7494 0.0000 10.4508 0.0000
# 4 0.0000 0.0000 0.0000 24.4426 0.0000 -1.4006
# 5 3.3689 2.9081 10.4508 0.0000 22.6458 0.0000
# 6 0.0000 0.0000 0.0000 -1.4006 0.0000 107.7592
#
#
#
# Elastic Compliance Matrix: (Units=1/GPa)
#
#
# Indices 1 2 3 4 5 6 
#
# 1 0.027240 -0.006815 0.006583 0.000000 -0.006215 0.000000
# 2 -0.006815 0.013250 -0.003067 0.000000 0.000728 0.000000
# 3 0.006583 -0.003067 0.021795 0.000000 -0.010644 0.000000
# 4 0.000000 0.000000 0.000000 0.040943 0.000000 0.000532
# 5 -0.006215 0.000728 -0.010644 0.000000 0.049901 0.000000
# 6 0.000000 0.000000 0.000000 0.000532 0.000000 0.009287
#
#
# Mechanical properties :
#
#
# Convention : Reuss Voigt Hill
#
# Bulk Modulus (GPa) = 17.95765 25.10927 21.53346
# Shear Modulus (GPa) = 26.65573 42.17162 34.41367
#
# Velocity S-wave (km/s) = 3.50684 4.41094 3.98462
# Velocity P-wave (km/s) = 4.96812 6.12587 5.57712
#
# Compressibility (1/GPa) = 0.05568658
#
# Stress axis : x y z
#
# Youngs Moduli (GPa) = 36.71083 75.47028 45.88187
#
# Poissons Ratio (x) = 0.51434 -0.30204
# Poissons Ratio (y) = 0.25019 0.14073
# Poissons Ratio (z) = -0.24167 0.23149
#
# Static dielectric constant tensor:
#      x y z
#    x 1.896150 0.000000 0.010500 
#    y 0.000000 1.762440 0.000000 
#    z 0.010500 0.000000 1.787940 
# 
# From -- ./inp_files/25863.got.cif
#   From: 2010.05.17/outbox.cif.g08.bks.cpg/sg11_13_cif.got.tgz:25863.got - 2010.06.03 12:22:45.
