data_PCOD9156940
_publ_section_title
;
Structure prediction by ZEFSAII (Michael W. Deem and Ramdas Pophale) SiO2 
 PCOD9156940
Probable space group: P 21/M
;
_chemical_formula_sum "Si O2"
_cell_formula_units_Z 32
_cell_length_a 12.060190
_cell_length_b 8.928231
_cell_length_c 21.090828
_cell_angle_alpha 90.000000
_cell_angle_beta 115.068944
_cell_angle_gamma 90.000000
_cell_volume 2057.049964
_symmetry_space_group_name_H-M "P 21/M"
_symmetry_group_IT_number 11
_symmetry_cell_setting 'monoclinic'
loop_
_space_group_symop_operation_xyz
x,y,z
-x,1/2+y,-z
-x,-y,-z
x,1/2-y,z
loop_
_atom_site_type_symbol
_atom_site_label
_atom_site_fract_x
_atom_site_fract_y
_atom_site_fract_z
Si Si1 0.097912 0.927263 0.609922
Si Si2 0.817868 0.574771 0.494725
Si Si3 0.060409 0.570497 0.740947
Si Si4 0.223965 0.429968 0.303852
Si Si5 0.107239 0.075935 0.880096
Si Si6 0.813966 0.074573 0.836200
Si Si7 0.135502 0.430884 0.024655
Si Si8 0.631254 0.071406 0.545781
O O1 0.127392 0.750000 0.612577
O O2 0.112565 0.980086 0.685870
O O3 0.953670 0.941429 0.557777
O O4 0.170865 0.018080 0.574579
O O5 0.785090 0.750000 0.490076
O O6 0.723725 0.478778 0.512628
O O7 0.063647 0.750000 0.741722
O O8 0.126812 0.511959 0.819928
O O9 0.916349 0.528584 0.711127
O O10 0.233550 0.250000 0.308211
O O11 0.244416 0.490644 0.237804
O O12 0.313559 0.504449 0.376004
O O13 0.134481 0.250000 0.875993
O O14 0.961191 0.064273 0.859519
O O15 0.172486 0.028153 0.961462
O O16 0.782686 0.250000 0.829920
O O17 0.790049 0.997233 0.898189
O O18 0.128928 0.250000 0.026908
O O19 0.000000 0.500000 0.000000
O O20 0.623544 0.250000 0.547601
O O21 0.500000 0.000000 0.500000
#
# Coordination Sequence:
#
# PCOD9156940 Si02
#       8
#     4   4   4   4   4   4   4   4
#     4   9  17  30  46  67  92 117 147 185 226 269
#     4  10  19  33  49  68  90 114 148 186 227 273
#     4   9  16  26  41  60  85 114 144 180 220 261
#     4  10  18  31  46  63  85 111 145 185 224 267
#     4   8  15  23  32  50  77 106 142 178 212 255
#     4   9  16  25  37  55  76 104 141 180 217 260
#     4   9  15  23  33  48  72 105 141 180 217 256
#     4  12  24  37  52  68  89 118 150 189 232 275
#
# _framework density 15.556259000000001
#
# number of rings (size 3 to 8) (size 9 to 14) (size 15 to 20)
#    0.000    2.500    1.250    3.375    0.000    5.000 
#    0.000    0.000    0.000    0.000    0.000    0.000 
#    0.000    0.000    0.000    1.125    0.000   15.375 
#
# Total GULP energy -178245.354466 kJ/mol
# GULP energy per Si atom -5570.167327 kJ/mol
# Density = 1.552085 g / cm^3
# Si number density = 15.556259 Si / 1000 Ang^3
#
#
#
# Elastic Constant Matrix: (Units=GPa)
#
#
# Indices 1 2 3 4 5 6 
#
# 1 22.9770 24.9282 42.1020 0.0000 -7.2208 0.0000
# 2 24.9282 77.7839 57.3576 0.0000 -9.8230 0.0000
# 3 42.1020 57.3576 145.5285 0.0000 -37.6922 0.0000
# 4 0.0000 0.0000 0.0000 30.6105 0.0000 -6.7873
# 5 -7.2208 -9.8230 -37.6922 0.0000 21.6472 0.0000
# 6 0.0000 0.0000 0.0000 -6.7873 0.0000 16.2200
#
#
#
# Elastic Compliance Matrix: (Units=1/GPa)
#
#
# Indices 1 2 3 4 5 6 
#
# 1 0.113768 -0.014529 -0.034727 0.000000 -0.029110 0.000000
# 2 -0.014529 0.020707 -0.005063 0.000000 -0.004265 0.000000
# 3 -0.034727 -0.005063 0.027901 0.000000 0.034700 0.000000
# 4 0.000000 0.000000 0.000000 0.036010 0.000000 0.015068
# 5 -0.029110 -0.004265 0.034700 0.000000 0.094969 0.000000
# 6 0.000000 0.000000 0.000000 0.015068 0.000000 0.067958
#
#
# Mechanical properties :
#
#
# Convention : Reuss Voigt Hill
#
# Bulk Modulus (GPa) = 18.60854 55.00722 36.80788
# Shear Modulus (GPa) = 10.24880 21.82231 16.03556
#
# Velocity S-wave (km/s) = 2.56954 3.74946 3.21411
# Velocity P-wave (km/s) = 4.55976 7.36081 6.12262
#
# Compressibility (1/GPa) = 0.05373877
#
# Stress axis : x y z
#
# Youngs Moduli (GPa) = 8.78982 48.29285 35.84145
#
# Poissons Ratio (x) = 0.70166 1.24465
# Poissons Ratio (y) = 0.12771 0.18145
# Poissons Ratio (z) = 0.30524 0.24449
#
# Static dielectric constant tensor:
#      x y z
#    x 1.493680 0.000000 -0.022680 
#    y 0.000000 1.518240 0.000000 
#    z -0.022680 0.000000 1.551660 
# 
# From -- ./inp_files/42530.got.cif
#   From: 2010.05.17/outbox.cif.g08.bks.cpg/sg11_22_cif.got.tgz:42530.got - 2010.06.03 12:22:45.
