data_PCOD9156089
_publ_section_title
;
Structure prediction by ZEFSAII (Michael W. Deem and Ramdas Pophale) SiO2 
 PCOD9156089
Probable space group: P 21/M
;
_chemical_formula_sum "Si O2"
_cell_formula_units_Z 32
_cell_length_a 21.356134
_cell_length_b 14.416189
_cell_length_c 14.454340
_cell_angle_alpha 90.000000
_cell_angle_beta 158.035322
_cell_angle_gamma 90.000000
_cell_volume 1664.498963
_symmetry_space_group_name_H-M "P 21/M"
_symmetry_group_IT_number 11
_symmetry_cell_setting 'monoclinic'
loop_
_space_group_symop_operation_xyz
x,y,z
-x,1/2+y,-z
-x,-y,-z
x,1/2-y,z
loop_
_atom_site_type_symbol
_atom_site_label
_atom_site_fract_x
_atom_site_fract_y
_atom_site_fract_z
Si Si1 0.594560 0.641369 0.065162
Si Si2 0.570453 0.356619 0.347974
Si Si3 0.547814 0.448283 0.751322
Si Si4 0.610637 0.641039 0.640018
Si Si5 0.120219 0.994393 0.576052
Si Si6 0.236807 0.855426 0.218053
Si Si7 0.415400 0.640265 0.004509
Si Si8 0.854252 0.491378 0.056133
O O1 0.640433 0.750000 0.132943
O O2 0.750676 0.580342 0.247159
O O3 0.531911 0.609119 0.079299
O O4 0.445942 0.634580 0.784972
O O5 0.512786 0.250000 0.290296
O O6 0.464539 0.443457 0.239637
O O7 0.741474 0.367108 0.641390
O O8 0.419324 0.412949 0.497569
O O9 0.522816 0.393410 0.811337
O O10 0.729115 0.435018 0.953448
O O11 0.647634 0.750000 0.678885
O O12 0.429263 0.635354 0.443094
O O13 0.753436 0.584231 0.889287
O O14 0.017738 0.992255 0.340233
O O15 0.234664 0.904227 0.742285
O O16 0.000000 0.000000 0.500000
O O17 0.182351 0.750000 0.124556
O O18 0.129897 0.929183 0.014428
O O19 0.407450 0.750000 0.990756
#
# Coordination Sequence:
#
# PCOD9156089 Si02
#       8
#     4   4   4   4   4   4   4   4
#     4  10  23  42  64  88 117 161 211 249 291 358
#     4  10  17  30  57  86 108 143 197 253 291 338
#     4  11  18  35  58  84 118 151 200 249 294 354
#     4  10  19  31  51  81 115 157 198 239 291 351
#     4  12  24  39  58  90 128 160 191 246 312 362
#     4   9  17  30  51  79 111 148 191 239 293 349
#     4  11  24  42  63  86 117 164 210 248 294 356
#     4  11  20  33  52  83 122 153 186 238 307 360
#
# _framework density 19.225003999999998
#
# number of rings (size 3 to 8) (size 9 to 14) (size 15 to 20)
#    0.000    1.500    5.000    1.500    0.000    2.000 
#    0.000    0.000    0.000    3.000    0.000    5.250 
#    0.000    0.000    0.000    0.000    0.000    0.000 
#
# Total GULP energy -178394.300279 kJ/mol
# GULP energy per Si atom -5574.821884 kJ/mol
# Density = 1.918125 g / cm^3
# Si number density = 19.225004 Si / 1000 Ang^3
#
#
#
# Elastic Constant Matrix: (Units=GPa)
#
#
# Indices 1 2 3 4 5 6 
#
# 1 107.3616 36.1158 38.4338 0.0000 -18.9034 0.0000
# 2 36.1158 85.1865 26.6927 0.0000 -7.6965 0.0000
# 3 38.4338 26.6927 60.8866 0.0000 -29.1189 0.0000
# 4 0.0000 0.0000 0.0000 -9.8808 0.0000 -18.0712
# 5 -18.9034 -7.6965 -29.1189 0.0000 33.9274 0.0000
# 6 0.0000 0.0000 0.0000 -18.0712 0.0000 25.2446
#
#
#
# Elastic Compliance Matrix: (Units=1/GPa)
#
#
# Indices 1 2 3 4 5 6 
#
# 1 0.012841 -0.003450 -0.006015 0.000000 0.001210 0.000000
# 2 -0.003450 0.014777 -0.006135 0.000000 -0.003835 0.000000
# 3 -0.006015 -0.006135 0.035014 0.000000 0.025309 0.000000
# 4 0.000000 0.000000 0.000000 -0.043827 0.000000 -0.031373
# 5 0.001210 -0.003835 0.025309 0.000000 0.051000 0.000000
# 6 0.000000 0.000000 0.000000 -0.031373 0.000000 0.017154
#
#
# Mechanical properties :
#
#
# Convention : Reuss Voigt Hill
#
# Bulk Modulus (GPa) = 31.81343 50.65767 41.23555
# Shear Modulus (GPa) = 38.86915 20.00439 29.43677
#
# Velocity S-wave (km/s) = 4.50132 3.22924 3.91726
# Velocity P-wave (km/s) = 6.60301 6.34910 6.47730
#
# Compressibility (1/GPa) = 0.03143327
#
# Stress axis : x y z
#
# Youngs Moduli (GPa) = 77.87500 67.67046 28.56011
#
# Poissons Ratio (x) = 0.23348 0.17178
# Poissons Ratio (y) = 0.26868 0.17521
# Poissons Ratio (z) = 0.46838 0.41515
#
# Static dielectric constant tensor:
#      x y z
#    x 1.726380 0.000000 -0.032230 
#    y 0.000000 1.684770 0.000000 
#    z -0.032230 0.000000 1.653860 
# 
# From -- ./inp_files/55040.got.cif
#   From: 2010.05.17/outbox.cif.g08.bks.cpg/sg11_28_cif.got.tgz:55040.got - 2010.06.03 12:22:45.
