data_PCOD9156915
_publ_section_title
;
Structure prediction by ZEFSAII (Michael W. Deem and Ramdas Pophale) SiO2 
 PCOD9156915
Probable space group: P 21/M
;
_chemical_formula_sum "Si O2"
_cell_formula_units_Z 28
_cell_length_a 11.373849
_cell_length_b 22.824692
_cell_length_c 5.508472
_cell_angle_alpha 90.000000
_cell_angle_beta 96.303179
_cell_angle_gamma 90.000000
_cell_volume 1421.379980
_symmetry_space_group_name_H-M "P 21/M"
_symmetry_group_IT_number 11
_symmetry_cell_setting 'monoclinic'
loop_
_space_group_symop_operation_xyz
x,y,z
-x,1/2+y,-z
-x,-y,-z
x,1/2-y,z
loop_
_atom_site_type_symbol
_atom_site_label
_atom_site_fract_x
_atom_site_fract_y
_atom_site_fract_z
Si Si1 0.516206 0.920803 0.738772
Si Si2 0.226452 0.897759 0.154176
Si Si3 0.629029 0.960398 0.254622
Si Si4 0.635485 0.317741 0.137069
Si Si5 0.885836 0.184293 0.480269
Si Si6 0.832149 0.999189 0.587248
Si Si7 0.024965 0.579948 0.725672
O O1 0.571635 0.932114 0.485623
O O2 0.455708 0.856790 0.730951
O O3 0.421779 0.973069 0.769143
O O4 0.602272 0.928557 0.993540
O O5 0.152808 0.850585 0.291092
O O6 0.260102 0.957426 0.300951
O O7 0.336782 0.860814 0.082420
O O8 0.132511 0.921378 0.937397
O O9 0.766436 0.965865 0.356692
O O10 0.602032 0.250000 0.079398
O O11 0.763924 0.315538 0.296692
O O12 0.921705 0.250000 0.539482
O O13 0.983263 0.147154 0.357669
O O14 0.905417 0.953403 0.765073
O O15 0.924358 0.045544 0.496834
#
# Coordination Sequence:
#
# PCOD9156915 Si02
#       7
#     4   4   4   4   4   4   4
#     4  10  22  37  55  83 110 147 185 232 280 329
#     4  10  18  30  52  81 109 137 175 224 277 337
#     4  10  22  36  57  81 113 145 186 232 277 333
#     4  10  21  35  54  79 110 144 181 228 281 335
#     4   9  18  32  51  77 106 139 179 222 274 335
#     4  10  20  33  52  80 109 144 176 227 278 339
#     4   9  19  33  51  78 112 140 177 221 281 329
#
# _framework density 19.699166000000002
#
# number of rings (size 3 to 8) (size 9 to 14) (size 15 to 20)
#    0.000    2.286    0.000    3.429   10.000    0.571 
#    0.000    0.000    0.000    1.714    0.000    0.000 
#    0.000    0.000    0.000    0.000    0.000    0.000 
#
# Total GULP energy -155980.441635 kJ/mol
# GULP energy per Si atom -5570.730058 kJ/mol
# Density = 1.965433 g / cm^3
# Si number density = 19.699166 Si / 1000 Ang^3
#
#
#
# Elastic Constant Matrix: (Units=GPa)
#
#
# Indices 1 2 3 4 5 6 
#
# 1 31.4353 41.1487 3.8378 0.0000 5.0530 0.0000
# 2 41.1487 135.7498 35.0675 0.0000 -2.4362 0.0000
# 3 3.8378 35.0675 55.7878 0.0000 2.5275 0.0000
# 4 0.0000 0.0000 0.0000 22.8821 0.0000 -1.3608
# 5 5.0530 -2.4362 2.5275 0.0000 22.8858 0.0000
# 6 0.0000 0.0000 0.0000 -1.3608 0.0000 22.8259
#
#
#
# Elastic Compliance Matrix: (Units=1/GPa)
#
#
# Indices 1 2 3 4 5 6 
#
# 1 0.061543 -0.021568 0.010093 0.000000 -0.016999 0.000000
# 2 -0.021568 0.016408 -0.009171 0.000000 0.007521 0.000000
# 3 0.010093 -0.009171 0.023257 0.000000 -0.005773 0.000000
# 4 0.000000 0.000000 0.000000 0.043858 0.000000 0.002615
# 5 -0.016999 0.007521 -0.005773 0.000000 0.048887 0.000000
# 6 0.000000 0.000000 0.000000 0.002615 0.000000 0.043966
#
#
# Mechanical properties :
#
#
# Convention : Reuss Voigt Hill
#
# Bulk Modulus (GPa) = 16.68937 42.56456 29.62697
# Shear Modulus (GPa) = 16.71223 23.24668 19.97946
#
# Velocity S-wave (km/s) = 2.91584 3.43896 3.18815
# Velocity P-wave (km/s) = 4.45272 6.11742 5.35021
#
# Compressibility (1/GPa) = 0.05991836
#
# Stress axis : x y z
#
# Youngs Moduli (GPa) = 16.24870 60.94523 42.99768
#
# Poissons Ratio (x) = 1.31444 -0.43400
# Poissons Ratio (y) = 0.35045 0.39433
# Poissons Ratio (z) = -0.16401 0.55893
#
# Static dielectric constant tensor:
#      x y z
#    x 1.751790 0.000000 -0.029690 
#    y 0.000000 1.695660 0.000000 
#    z -0.029690 0.000000 1.817190 
# 
# From -- ./inp_files/4877.got.cif
#   From: 2010.05.17/outbox.cif.g08.bks.cpg/sg11_3_cif.got.tgz:4877.got - 2010.06.03 12:22:45.
