data_PCOD9156802
_publ_section_title
;
Structure prediction by ZEFSAII (Michael W. Deem and Ramdas Pophale) SiO2 
 PCOD9156802
Probable space group: P 21/M
;
_chemical_formula_sum "Si O2"
_cell_formula_units_Z 28
_cell_length_a 11.628452
_cell_length_b 22.618394
_cell_length_c 5.135067
_cell_angle_alpha 90.000000
_cell_angle_beta 99.754549
_cell_angle_gamma 90.000000
_cell_volume 1331.083163
_symmetry_space_group_name_H-M "P 21/M"
_symmetry_group_IT_number 11
_symmetry_cell_setting 'monoclinic'
loop_
_space_group_symop_operation_xyz
x,y,z
-x,1/2+y,-z
-x,-y,-z
x,1/2-y,z
loop_
_atom_site_type_symbol
_atom_site_label
_atom_site_fract_x
_atom_site_fract_y
_atom_site_fract_z
Si Si1 0.236640 0.816056 0.243313
Si Si2 0.000013 0.317907 0.114493
Si Si3 0.610729 0.679618 0.443040
Si Si4 0.519142 0.075539 0.808853
Si Si5 0.750930 0.678923 0.990677
Si Si6 0.361248 0.526114 0.645824
Si Si7 0.203101 0.882056 0.733264
O O1 0.281631 0.750000 0.214094
O O2 0.259730 0.840585 0.535264
O O3 0.263066 0.862868 0.027212
O O4 0.095260 0.812869 0.153485
O O5 0.011751 0.250000 0.224592
O O6 0.122254 0.341101 0.056133
O O7 0.930787 0.361846 0.281070
O O8 0.587418 0.750000 0.436497
O O9 0.503465 0.641840 0.294705
O O10 0.653118 0.659894 0.744684
O O11 0.713707 0.668184 0.271968
O O12 0.602910 0.042234 0.633836
O O13 0.395245 0.040954 0.718449
O O14 0.558219 0.062886 0.117922
O O15 0.756159 0.750000 0.968363
O O16 0.233624 0.551538 0.663779
#
# Coordination Sequence:
#
# PCOD9156802 Si02
#       7
#     4   4   4   4   4   4   4
#     4   9  17  28  44  70 106 139 163 199 245 295
#     4   8  17  29  47  74 106 138 168 203 246 307
#     4  10  20  35  53  78 104 131 167 216 259 292
#     4  10  21  39  58  75  99 130 176 216 250 303
#     4   9  18  30  51  76 103 137 172 200 249 308
#     4  10  21  37  58  77  95 135 176 208 252 307
#     4  10  18  30  49  74 103 131 170 211 248 295
#
# _framework density 21.035499000000002
#
# number of rings (size 3 to 8) (size 9 to 14) (size 15 to 20)
#    0.857    1.714    0.000    2.571    2.000    0.000 
#    0.000    5.714    0.000    1.714    0.000    0.000 
#    0.000    0.000    0.000    0.000    0.000    0.000 
#
# Total GULP energy -155914.453952 kJ/mol
# GULP energy per Si atom -5568.373355 kJ/mol
# Density = 2.098762 g / cm^3
# Si number density = 21.035499 Si / 1000 Ang^3
#
#
#
# Elastic Constant Matrix: (Units=GPa)
#
#
# Indices 1 2 3 4 5 6 
#
# 1 36.2516 -3.6763 -15.8934 0.0000 -1.9184 0.0000
# 2 -3.6763 38.9472 -3.7475 0.0000 5.7861 0.0000
# 3 -15.8934 -3.7475 72.8017 0.0000 -8.1366 0.0000
# 4 0.0000 0.0000 0.0000 20.2314 0.0000 -3.0680
# 5 -1.9184 5.7861 -8.1366 0.0000 16.6114 0.0000
# 6 0.0000 0.0000 0.0000 -3.0680 0.0000 15.7831
#
#
#
# Elastic Compliance Matrix: (Units=1/GPa)
#
#
# Indices 1 2 3 4 5 6 
#
# 1 0.031616 0.002767 0.007770 0.000000 0.006493 0.000000
# 2 0.002767 0.027328 0.001040 0.000000 -0.008690 0.000000
# 3 0.007770 0.001040 0.016446 0.000000 0.008591 0.000000
# 4 0.000000 0.000000 0.000000 0.050929 0.000000 0.009900
# 5 0.006493 -0.008690 0.008591 0.000000 0.068184 0.000000
# 6 0.000000 0.000000 0.000000 0.009900 0.000000 0.065283
#
#
# Mechanical properties :
#
#
# Convention : Reuss Voigt Hill
#
# Bulk Modulus (GPa) = 10.14774 11.26290 10.70532
# Shear Modulus (GPa) = 18.55422 21.94637 20.25030
#
# Velocity S-wave (km/s) = 2.97314 3.23352 3.10606
# Velocity P-wave (km/s) = 4.07685 4.39394 4.23836
#
# Compressibility (1/GPa) = 0.09854414
#
# Stress axis : x y z
#
# Youngs Moduli (GPa) = 31.62967 36.59250 60.80525
#
# Poissons Ratio (x) = -0.10126 -0.47247
# Poissons Ratio (y) = -0.08753 -0.06321
# Poissons Ratio (z) = -0.24577 -0.03804
#
# Static dielectric constant tensor:
#      x y z
#    x 1.827870 0.000000 0.014470 
#    y 0.000000 1.787070 0.000000 
#    z 0.014470 0.000000 1.735280 
# 
# From -- ./inp_files/5266.got.cif
#   From: 2010.05.17/outbox.cif.g08.bks.cpg/sg11_3_cif.got.tgz:5266.got - 2010.06.03 12:22:45.
