data_PCOD9156921
_publ_section_title
;
Structure prediction by ZEFSAII (Michael W. Deem and Ramdas Pophale) SiO2 
 PCOD9156921
Probable space group: P 21/M
;
_chemical_formula_sum "Si O2"
_cell_formula_units_Z 32
_cell_length_a 29.800321
_cell_length_b 7.756023
_cell_length_c 23.211894
_cell_angle_alpha 90.000000
_cell_angle_beta 16.178349
_cell_angle_gamma 90.000000
_cell_volume 1494.843381
_symmetry_space_group_name_H-M "P 21/M"
_symmetry_group_IT_number 11
_symmetry_cell_setting 'monoclinic'
loop_
_space_group_symop_operation_xyz
x,y,z
-x,1/2+y,-z
-x,-y,-z
x,1/2-y,z
loop_
_atom_site_type_symbol
_atom_site_label
_atom_site_fract_x
_atom_site_fract_y
_atom_site_fract_z
Si Si1 0.250220 0.952487 0.294462
Si Si2 0.237791 0.959488 0.047263
Si Si3 0.468898 0.955422 0.133604
Si Si4 0.093728 0.961014 0.108602
Si Si5 0.444748 0.957268 0.632032
Si Si6 0.747203 0.542055 0.490331
Si Si7 0.928768 0.437816 0.646447
Si Si8 0.405249 0.457195 0.437850
O O1 0.211545 0.750000 0.347040
O O2 0.348163 0.007982 0.230407
O O3 0.087266 0.058998 0.490900
O O4 0.360427 0.976205 0.101192
O O5 0.220467 0.750000 0.071677
O O6 0.119523 0.018623 0.142656
O O7 0.201092 0.034678 0.155120
O O8 0.417715 0.989476 0.805969
O O9 0.482515 0.750000 0.115685
O O10 0.389887 0.004191 0.292293
O O11 0.091760 0.750000 0.110014
O O12 0.922899 0.020026 0.294564
O O13 0.260199 0.015400 0.871774
O O14 0.440455 0.750000 0.643684
O O15 0.570638 0.021299 0.526131
O O16 0.500000 0.000000 0.500000
O O17 0.752778 0.750000 0.480229
O O18 0.709477 0.477226 0.471928
O O19 0.863730 0.250000 0.714213
O O20 0.000000 0.500000 0.500000
O O21 0.377631 0.250000 0.475567
#
# Coordination Sequence:
#
# PCOD9156921 Si02
#       8
#     4   4   4   4   4   4   4   4
#     4  10  21  37  52  68  95 134 180 219 264 324
#     4   8  15  29  47  67  95 130 167 207 254 307
#     4  10  21  35  52  74 101 132 167 219 276 320
#     4   8  15  29  51  77  99 127 169 210 244 294
#     4   9  17  33  55  77 105 136 169 204 244 297
#     4  10  18  30  53  78  99 129 172 212 254 307
#     4  11  22  33  49  72 101 132 172 224 276 321
#     4   8  16  30  50  76 101 130 169 209 247 302
#
# _framework density 21.406925000000001
#
# number of rings (size 3 to 8) (size 9 to 14) (size 15 to 20)
#    0.000    2.750    0.000    3.375    1.750    2.500 
#    0.000    1.875    0.000    6.000    0.000    0.000 
#    0.000    0.000    0.000    0.000    0.000    0.000 
#
# Total GULP energy -178338.016255 kJ/mol
# GULP energy per Si atom -5573.063008 kJ/mol
# Density = 2.135820 g / cm^3
# Si number density = 21.406925 Si / 1000 Ang^3
#
#
#
# Elastic Constant Matrix: (Units=GPa)
#
#
# Indices 1 2 3 4 5 6 
#
# 1 129.0283 4.5037 41.7462 0.0000 17.5250 0.0000
# 2 4.5037 30.4437 -2.1488 0.0000 -1.0259 0.0000
# 3 41.7462 -2.1488 46.5539 0.0000 16.8782 0.0000
# 4 0.0000 0.0000 0.0000 12.5655 0.0000 7.2103
# 5 17.5250 -1.0259 16.8782 0.0000 42.5542 0.0000
# 6 0.0000 0.0000 0.0000 7.2103 0.0000 14.8070
#
#
#
# Elastic Compliance Matrix: (Units=1/GPa)
#
#
# Indices 1 2 3 4 5 6 
#
# 1 0.011103 -0.002359 -0.009795 0.000000 -0.000744 0.000000
# 2 -0.002359 0.033458 0.003521 0.000000 0.000381 0.000000
# 3 -0.009795 0.003521 0.033793 0.000000 -0.009284 0.000000
# 4 0.000000 0.000000 0.000000 0.110443 0.000000 -0.053781
# 5 -0.000744 0.000381 -0.009284 0.000000 0.027498 0.000000
# 6 0.000000 0.000000 0.000000 -0.053781 0.000000 0.093724
#
#
# Mechanical properties :
#
#
# Convention : Reuss Voigt Hill
#
# Bulk Modulus (GPa) = 16.36987 32.69201 24.53094
# Shear Modulus (GPa) = 14.38240 24.78032 19.58136
#
# Velocity S-wave (km/s) = 2.59483 3.40602 3.02772
# Velocity P-wave (km/s) = 4.07936 5.54733 4.86898
#
# Compressibility (1/GPa) = 0.06108784
#
# Stress axis : x y z
#
# Youngs Moduli (GPa) = 90.06671 29.88830 29.59208
#
# Poissons Ratio (x) = 0.07051 0.28986
# Poissons Ratio (y) = 0.21247 -0.10421
# Poissons Ratio (z) = 0.88223 -0.10525
#
# Static dielectric constant tensor:
#      x y z
#    x 1.868490 0.000000 0.012100 
#    y 0.000000 1.802870 0.000000 
#    z 0.012100 0.000000 1.796660 
# 
# From -- ./inp_files/67003.got.cif
#   From: 2010.05.17/outbox.cif.g08.bks.cpg/sg11_34_cif.got.tgz:67003.got - 2010.06.03 12:22:45.
