data_PCOD9156350
_publ_section_title
;
Structure prediction by ZEFSAII (Michael W. Deem and Ramdas Pophale) SiO2 
 PCOD9156350
Probable space group: P 21/M
;
_chemical_formula_sum "Si O2"
_cell_formula_units_Z 32
_cell_length_a 17.689404
_cell_length_b 8.617869
_cell_length_c 13.907255
_cell_angle_alpha 90.000000
_cell_angle_beta 101.749872
_cell_angle_gamma 90.000000
_cell_volume 2075.666480
_symmetry_space_group_name_H-M "P 21/M"
_symmetry_group_IT_number 11
_symmetry_cell_setting 'monoclinic'
loop_
_space_group_symop_operation_xyz
x,y,z
-x,1/2+y,-z
-x,-y,-z
x,1/2-y,z
loop_
_atom_site_type_symbol
_atom_site_label
_atom_site_fract_x
_atom_site_fract_y
_atom_site_fract_z
Si Si1 0.318023 0.063890 0.872060
Si Si2 0.412152 0.063036 0.080292
Si Si3 0.324827 0.064708 0.255100
Si Si4 0.561123 0.063403 0.228329
Si Si5 0.166844 0.564372 0.152966
Si Si6 0.473743 0.935121 0.390857
Si Si7 0.166473 0.563116 0.926437
Si Si8 0.995237 0.935870 0.890376
O O1 0.320749 0.250000 0.870051
O O2 0.356475 0.997186 0.785784
O O3 0.232517 0.010667 0.878404
O O4 0.372013 0.003458 0.974089
O O5 0.416294 0.250000 0.072945
O O6 0.358161 0.027876 0.157421
O O7 0.496925 0.007843 0.133072
O O8 0.325739 0.250000 0.267266
O O9 0.238208 0.001599 0.231727
O O10 0.386785 0.990351 0.343064
O O11 0.560284 0.250000 0.230670
O O12 0.529404 0.001271 0.321307
O O13 0.168113 0.750000 0.153938
O O14 0.084076 0.505739 0.169594
O O15 0.174627 0.514777 0.041631
O O16 0.476967 0.750000 0.390591
O O17 0.500000 0.000000 0.500000
O O18 0.174019 0.750000 0.926595
O O19 0.079377 0.523278 0.870067
O O20 0.989363 0.750000 0.890874
O O21 0.000000 0.000000 0.000000
#
# Coordination Sequence:
#
# PCOD9156350 Si02
#       8
#     4   4   4   4   4   4   4   4
#     4  11  19  28  43  65  91 124 161 196 231 273
#     4   8  16  28  42  62  88 120 155 190 229 268
#     4  10  18  31  49  71  95 124 158 195 236 279
#     4  10  20  34  48  66  91 121 155 193 234 278
#     4  10  18  28  43  65  91 122 161 199 236 279
#     4  11  22  38  56  74  94 120 152 192 239 287
#     4   9  18  29  40  59  88 125 163 196 235 276
#     4   9  17  28  41  58  84 120 161 201 238 278
#
# _framework density 15.416736
#
# number of rings (size 3 to 8) (size 9 to 14) (size 15 to 20)
#    0.000    2.250    1.250    4.875    0.000    2.500 
#    0.000    1.250    0.000    0.000    0.000    0.000 
#    0.000    1.000    0.000    3.750    0.000    5.750 
#
# Total GULP energy -178357.961687 kJ/mol
# GULP energy per Si atom -5573.686303 kJ/mol
# Density = 1.538165 g / cm^3
# Si number density = 15.416736 Si / 1000 Ang^3
#
#
#
# Elastic Constant Matrix: (Units=GPa)
#
#
# Indices 1 2 3 4 5 6 
#
# 1 148.9951 52.0577 57.6495 0.0000 -1.2899 0.0000
# 2 52.0577 66.6038 28.0198 0.0000 2.0611 0.0000
# 3 57.6495 28.0198 53.4576 0.0000 5.5784 0.0000
# 4 0.0000 0.0000 0.0000 17.3177 0.0000 0.3887
# 5 -1.2899 2.0611 5.5784 0.0000 13.8956 0.0000
# 6 0.0000 0.0000 0.0000 0.3887 0.0000 28.0558
#
#
#
# Elastic Compliance Matrix: (Units=1/GPa)
#
#
# Indices 1 2 3 4 5 6 
#
# 1 0.013511 -0.005567 -0.012389 0.000000 0.007053 0.000000
# 2 -0.005567 0.021576 -0.005133 0.000000 -0.001656 0.000000
# 3 -0.012389 -0.005133 0.036319 0.000000 -0.014969 0.000000
# 4 0.000000 0.000000 0.000000 0.057762 0.000000 -0.000800
# 5 0.007053 -0.001656 -0.014969 0.000000 0.078875 0.000000
# 6 0.000000 0.000000 0.000000 -0.000800 0.000000 0.035654
#
#
# Mechanical properties :
#
#
# Convention : Reuss Voigt Hill
#
# Bulk Modulus (GPa) = 39.63659 60.50117 50.06888
# Shear Modulus (GPa) = 16.76252 20.60912 18.68582
#
# Velocity S-wave (km/s) = 3.30099 3.66020 3.48522
# Velocity P-wave (km/s) = 6.34781 7.56252 6.98163
#
# Compressibility (1/GPa) = 0.02522921
#
# Stress axis : x y z
#
# Youngs Moduli (GPa) = 74.01252 46.34831 27.53360
#
# Poissons Ratio (x) = 0.25801 0.34111
# Poissons Ratio (y) = 0.41201 0.14133
# Poissons Ratio (z) = 0.91694 0.23790
#
# Static dielectric constant tensor:
#      x y z
#    x 1.546840 0.000000 0.005160 
#    y 0.000000 1.513100 0.000000 
#    z 0.005160 0.000000 1.484690 
# 
# From -- ./inp_files/51315.got.cif
#   From: 2010.05.17/outbox.cif.g08.bks.cpg/sg11_26_cif.got.tgz:51315.got - 2010.06.03 12:22:45.
