data_PCOD9156796
_publ_section_title
;
Structure prediction by ZEFSAII (Michael W. Deem and Ramdas Pophale) SiO2 
 PCOD9156796
Probable space group: P 21/M
;
_chemical_formula_sum "Si O2"
_cell_formula_units_Z 32
_cell_length_a 20.206620
_cell_length_b 8.801978
_cell_length_c 28.438649
_cell_angle_alpha 90.000000
_cell_angle_beta 158.534334
_cell_angle_gamma 90.000000
_cell_volume 1850.960239
_symmetry_space_group_name_H-M "P 21/M"
_symmetry_group_IT_number 11
_symmetry_cell_setting 'monoclinic'
loop_
_space_group_symop_operation_xyz
x,y,z
-x,1/2+y,-z
-x,-y,-z
x,1/2-y,z
loop_
_atom_site_type_symbol
_atom_site_label
_atom_site_fract_x
_atom_site_fract_y
_atom_site_fract_z
Si Si1 0.158796 0.932756 0.886793
Si Si2 0.284784 0.934661 0.071442
Si Si3 0.413942 0.067976 0.658813
Si Si4 0.949237 0.567273 0.915581
Si Si5 0.309438 0.066430 0.889736
Si Si6 0.940104 0.425077 0.606383
Si Si7 0.439171 0.932257 0.347990
Si Si8 0.205404 0.573927 0.381882
O O1 0.161942 0.750000 0.884955
O O2 0.258633 0.981794 0.000493
O O3 0.253842 0.005101 0.904221
O O4 0.950206 0.987894 0.749713
O O5 0.291685 0.750000 0.075857
O O6 0.108156 0.976282 0.984750
O O7 0.461779 0.989151 0.216406
O O8 0.413180 0.250000 0.659460
O O9 0.506708 0.025457 0.670226
O O10 0.208293 0.012223 0.521879
O O11 0.942454 0.750000 0.914178
O O12 0.755979 0.503306 0.771844
O O13 0.000000 0.500000 0.000000
O O14 0.311897 0.250000 0.892183
O O15 0.145720 0.018494 0.746411
O O16 0.500000 0.000000 0.000000
O O17 0.942156 0.250000 0.592930
O O18 0.867487 0.430495 0.612291
O O19 0.432467 0.750000 0.346425
O O20 0.599031 0.995781 0.486595
O O21 0.218508 0.750000 0.376528
#
# Coordination Sequence:
#
# PCOD9156796 Si02
#       8
#     4   4   4   4   4   4   4   4
#     4  10  19  34  55  76 102 137 172 205 252 308
#     4   9  19  34  50  71 102 138 173 212 257 306
#     4   9  16  29  48  70  98 132 169 209 249 296
#     4  11  20  33  49  70 101 135 174 221 267 307
#     4  10  20  35  56  82 110 133 163 205 251 300
#     4   8  16  29  46  73 103 127 156 202 249 291
#     4  10  18  30  49  73  98 128 173 221 266 311
#     4   9  17  31  49  71 100 131 167 214 262 303
#
# _framework density 17.288323999999999
#
# number of rings (size 3 to 8) (size 9 to 14) (size 15 to 20)
#    0.000    2.500    1.250    2.625    0.000    4.000 
#    0.000    4.375    0.000    0.750    0.000    0.000 
#    0.000    0.000    0.000    0.000    0.000    0.000 
#
# Total GULP energy -178393.531540 kJ/mol
# GULP energy per Si atom -5574.797861 kJ/mol
# Density = 1.724897 g / cm^3
# Si number density = 17.288324 Si / 1000 Ang^3
#
#
#
# Elastic Constant Matrix: (Units=GPa)
#
#
# Indices 1 2 3 4 5 6 
#
# 1 50.7031 20.9714 59.6144 0.0000 1.9525 0.0000
# 2 20.9714 48.1285 42.9123 0.0000 2.1941 0.0000
# 3 59.6144 42.9123 179.3922 0.0000 9.5790 0.0000
# 4 0.0000 0.0000 0.0000 32.6963 0.0000 6.0361
# 5 1.9525 2.1941 9.5790 0.0000 26.8100 0.0000
# 6 0.0000 0.0000 0.0000 6.0361 0.0000 15.1078
#
#
#
# Elastic Compliance Matrix: (Units=1/GPa)
#
#
# Indices 1 2 3 4 5 6 
#
# 1 0.033730 -0.005975 -0.009863 0.000000 0.001556 0.000000
# 2 -0.005975 0.027469 -0.004576 0.000000 -0.000178 0.000000
# 3 -0.009863 -0.004576 0.010081 0.000000 -0.002509 0.000000
# 4 0.000000 0.000000 0.000000 0.033020 0.000000 -0.013193
# 5 0.001556 -0.000178 -0.002509 0.000000 0.038097 0.000000
# 6 0.000000 0.000000 0.000000 -0.013193 0.000000 0.071462
#
#
# Mechanical properties :
#
#
# Convention : Reuss Voigt Hill
#
# Bulk Modulus (GPa) = 32.83738 58.35780 45.59759
# Shear Modulus (GPa) = 18.87950 25.23784 22.05867
#
# Velocity S-wave (km/s) = 3.30818 3.82490 3.57589
# Velocity P-wave (km/s) = 5.79891 7.30311 6.59404
#
# Compressibility (1/GPa) = 0.03045310
#
# Stress axis : x y z
#
# Youngs Moduli (GPa) = 29.64692 36.40445 99.20081
#
# Poissons Ratio (x) = 0.21750 0.97842
# Poissons Ratio (y) = 0.17713 0.45394
# Poissons Ratio (z) = 0.29241 0.16659
#
# Static dielectric constant tensor:
#      x y z
#    x 1.567190 0.000000 -0.004270 
#    y 0.000000 1.583630 0.000000 
#    z -0.004270 0.000000 1.605490 
# 
# From -- ./inp_files/64426.got.cif
#   From: 2010.05.17/outbox.cif.g08.bks.cpg/sg11_33_cif.got.tgz:64426.got - 2010.06.03 12:22:45.
