data_PCOD9156158
_publ_section_title
;
Structure prediction by ZEFSAII (Michael W. Deem and Ramdas Pophale) SiO2 
 PCOD9156158
Probable space group: P 21/M
;
_chemical_formula_sum "Si O2"
_cell_formula_units_Z 32
_cell_length_a 7.794737
_cell_length_b 14.972949
_cell_length_c 15.015163
_cell_angle_alpha 90.000000
_cell_angle_beta 56.489635
_cell_angle_gamma 90.000000
_cell_volume 1461.145421
_symmetry_space_group_name_H-M "P 21/M"
_symmetry_group_IT_number 11
_symmetry_cell_setting 'monoclinic'
loop_
_space_group_symop_operation_xyz
x,y,z
-x,1/2+y,-z
-x,-y,-z
x,1/2-y,z
loop_
_atom_site_type_symbol
_atom_site_label
_atom_site_fract_x
_atom_site_fract_y
_atom_site_fract_z
Si Si1 0.295195 0.531463 0.817992
Si Si2 0.231729 0.007771 0.351816
Si Si3 0.115894 0.644326 0.510540
Si Si4 0.694452 0.882323 0.906594
Si Si5 0.221592 0.847472 0.002856
Si Si6 0.125269 0.652312 0.713842
Si Si7 0.346303 0.348659 0.881280
Si Si8 0.222641 0.923841 0.180960
O O1 0.543894 0.541595 0.742737
O O2 0.200285 0.581094 0.930829
O O3 0.202864 0.574756 0.756232
O O4 0.264449 0.426868 0.842804
O O5 0.102137 0.090223 0.428204
O O6 0.252605 0.923311 0.412298
O O7 0.114595 0.965545 0.298758
O O8 0.106855 0.750000 0.486556
O O9 0.184389 0.642622 0.594052
O O10 0.468821 0.846926 0.949600
O O11 0.877098 0.848077 0.792094
O O12 0.693299 0.988756 0.894415
O O13 0.747179 0.857675 0.992885
O O14 0.155202 0.750000 0.990899
O O15 0.128970 0.868356 0.126940
O O16 0.198702 0.750000 0.724948
O O17 0.321583 0.250000 0.852784
O O18 0.587355 0.368971 0.831873
#
# Coordination Sequence:
#
# PCOD9156158 Si02
#       8
#     4   4   4   4   4   4   4   4
#     4  11  22  37  55  84 119 153 194 229 279 339
#     4  10  21  38  63  83 112 144 187 244 297 337
#     4  10  22  40  62  88 109 140 192 243 295 348
#     4  11  17  34  55  80 115 150 189 231 280 333
#     4  11  19  32  56  86 119 152 189 232 278 338
#     4  11  23  37  56  84 115 153 193 237 283 338
#     4  10  19  33  55  83 116 155 197 232 277 339
#     4  10  17  33  56  85 114 143 187 232 287 334
#
# _framework density 21.900625000000002
#
# number of rings (size 3 to 8) (size 9 to 14) (size 15 to 20)
#    0.000    1.500    5.000    3.375    0.000    5.500 
#    0.000    0.000    0.000    3.750    0.000    0.000 
#    0.000    0.000    0.000    0.000    0.000    0.000 
#
# Total GULP energy -178637.426792 kJ/mol
# GULP energy per Si atom -5582.419587 kJ/mol
# Density = 2.185078 g / cm^3
# Si number density = 21.900625 Si / 1000 Ang^3
#
#
#
# Elastic Constant Matrix: (Units=GPa)
#
#
# Indices 1 2 3 4 5 6 
#
# 1 71.3565 26.8543 5.0606 0.0000 5.9502 0.0000
# 2 26.8543 181.8407 12.1222 0.0000 23.4193 0.0000
# 3 5.0606 12.1222 57.0017 0.0000 13.3725 0.0000
# 4 0.0000 0.0000 0.0000 6.7413 0.0000 3.8663
# 5 5.9502 23.4193 13.3725 0.0000 25.4957 0.0000
# 6 0.0000 0.0000 0.0000 3.8663 0.0000 20.1666
#
#
#
# Elastic Compliance Matrix: (Units=1/GPa)
#
#
# Indices 1 2 3 4 5 6 
#
# 1 0.014917 -0.001991 -0.000585 0.000000 -0.001346 0.000000
# 2 -0.001991 0.006503 0.000098 0.000000 -0.005560 0.000000
# 3 -0.000585 0.000098 0.020028 0.000000 -0.010458 0.000000
# 4 0.000000 0.000000 0.000000 0.166665 0.000000 -0.031953
# 5 -0.001346 -0.005560 -0.010458 0.000000 0.050129 0.000000
# 6 0.000000 0.000000 0.000000 -0.031953 0.000000 0.055713
#
#
# Mechanical properties :
#
#
# Convention : Reuss Voigt Hill
#
# Bulk Modulus (GPa) = 27.40290 44.25256 35.82773
# Shear Modulus (GPa) = 15.10235 28.22483 21.66359
#
# Velocity S-wave (km/s) = 2.62884 3.59384 3.14853
# Velocity P-wave (km/s) = 4.66412 6.12134 5.44173
#
# Compressibility (1/GPa) = 0.03649249
#
# Stress axis : x y z
#
# Youngs Moduli (GPa) = 67.03752 153.77886 49.93034
#
# Poissons Ratio (x) = 0.30611 0.02922
# Poissons Ratio (y) = 0.13345 -0.00490
# Poissons Ratio (z) = 0.03923 -0.01510
#
# Static dielectric constant tensor:
#      x y z
#    x 1.835080 0.000000 -0.006720 
#    y 0.000000 1.847690 0.000000 
#    z -0.006720 0.000000 1.824560 
# 
# From -- ./inp_files/47599.got.cif
#   From: 2010.05.17/outbox.cif.g08.bks.cpg/sg11_24_cif.got.tgz:47599.got - 2010.06.03 12:22:45.
