data_PCOD9156593
_publ_section_title
;
Structure prediction by ZEFSAII (Michael W. Deem and Ramdas Pophale) SiO2 
 PCOD9156593
Probable space group: P 21/M
;
_chemical_formula_sum "Si O2"
_cell_formula_units_Z 24
_cell_length_a 10.478711
_cell_length_b 8.506951
_cell_length_c 20.914131
_cell_angle_alpha 90.000000
_cell_angle_beta 131.127247
_cell_angle_gamma 90.000000
_cell_volume 1404.304080
_symmetry_space_group_name_H-M "P 21/M"
_symmetry_group_IT_number 11
_symmetry_cell_setting 'monoclinic'
loop_
_space_group_symop_operation_xyz
x,y,z
-x,1/2+y,-z
-x,-y,-z
x,1/2-y,z
loop_
_atom_site_type_symbol
_atom_site_label
_atom_site_fract_x
_atom_site_fract_y
_atom_site_fract_z
Si Si1 0.493866 0.061843 0.782959
Si Si2 0.814326 0.440687 0.230419
Si Si3 0.255116 0.440736 0.595857
Si Si4 0.951094 0.562025 0.585270
Si Si5 0.182684 0.436484 0.040685
Si Si6 0.309444 0.938657 0.946780
O O1 0.502681 0.250000 0.790321
O O2 0.427423 0.018845 0.689851
O O3 0.349116 0.003350 0.784713
O O4 0.671930 0.991502 0.862364
O O5 0.807680 0.250000 0.230862
O O6 0.797048 0.487593 0.151054
O O7 0.983228 0.495170 0.324056
O O8 0.238025 0.250000 0.593497
O O9 0.214079 0.490991 0.509423
O O10 0.107778 0.516896 0.590664
O O11 0.937880 0.750000 0.585732
O O12 0.179506 0.250000 0.038306
O O13 0.234899 0.498370 0.988049
O O14 0.000000 0.500000 0.000000
O O15 0.313588 0.750000 0.950650
O O16 0.500000 0.000000 0.000000
#
# Coordination Sequence:
#
# PCOD9156593 Si02
#       6
#     4   4   4   4   4   4
#     4  10  18  29  47  71  99 131 167 206 250 300
#     4   9  17  28  46  71 100 133 168 203 244 293
#     4   8  14  23  38  62  93 127 160 196 241 290
#     4   8  13  23  38  61  94 128 160 196 238 287
#     4  12  25  40  55  73  99 133 172 216 262 308
#     4  11  21  34  53  78 105 137 173 210 252 301
#
# _framework density 17.090316000000001
#
# number of rings (size 3 to 8) (size 9 to 14) (size 15 to 20)
#    0.000    2.333    1.667    2.500    0.000    1.333 
#    0.000    0.000    0.000    0.000    0.000    1.167 
#    0.000    0.000    0.000    0.000    0.000    0.000 
#
# Total GULP energy -133633.064373 kJ/mol
# GULP energy per Si atom -5568.044349 kJ/mol
# Density = 1.705142 g / cm^3
# Si number density = 17.090316 Si / 1000 Ang^3
#
#
#
# Elastic Constant Matrix: (Units=GPa)
#
#
# Indices 1 2 3 4 5 6 
#
# 1 66.4134 18.3849 62.7662 0.0000 1.4322 0.0000
# 2 18.3849 38.0355 38.2935 0.0000 -2.4499 0.0000
# 3 62.7662 38.2935 212.8463 0.0000 -14.7782 0.0000
# 4 0.0000 0.0000 0.0000 20.0083 0.0000 1.9850
# 5 1.4322 -2.4499 -14.7782 0.0000 14.6232 0.0000
# 6 0.0000 0.0000 0.0000 1.9850 0.0000 19.4226
#
#
#
# Elastic Compliance Matrix: (Units=1/GPa)
#
#
# Indices 1 2 3 4 5 6 
#
# 1 0.022798 -0.005127 -0.006469 0.000000 -0.009629 0.000000
# 2 -0.005127 0.033263 -0.004356 0.000000 0.001672 0.000000
# 3 -0.006469 -0.004356 0.007940 0.000000 0.007928 0.000000
# 4 0.000000 0.000000 0.000000 0.050491 0.000000 -0.005160
# 5 -0.009629 0.001672 0.007928 0.000000 0.077620 0.000000
# 6 0.000000 0.000000 0.000000 -0.005160 0.000000 0.052014
#
#
# Mechanical properties :
#
#
# Convention : Reuss Voigt Hill
#
# Bulk Modulus (GPa) = 31.15628 61.79826 46.47727
# Shear Modulus (GPa) = 17.43803 24.00087 20.71945
#
# Velocity S-wave (km/s) = 3.19775 3.75154 3.48566
# Velocity P-wave (km/s) = 5.64837 7.41645 6.59196
#
# Compressibility (1/GPa) = 0.03209625
#
# Stress axis : x y z
#
# Youngs Moduli (GPa) = 43.86362 30.06338 125.94291
#
# Poissons Ratio (x) = 0.15413 0.81473
# Poissons Ratio (y) = 0.22489 0.54866
# Poissons Ratio (z) = 0.28376 0.13097
#
# Static dielectric constant tensor:
#      x y z
#    x 1.514570 0.000000 -0.023740 
#    y 0.000000 1.574350 0.000000 
#    z -0.023740 0.000000 1.674770 
# 
# From -- ./inp_files/61885.got.cif
#   From: 2010.05.17/outbox.cif.g08.bks.cpg/sg11_31_cif.got.tgz:61885.got - 2010.06.03 12:22:45.
