data_PCOD9156190
_publ_section_title
;
Structure prediction by ZEFSAII (Michael W. Deem and Ramdas Pophale) SiO2 
 PCOD9156190
Probable space group: P 21/M
;
_chemical_formula_sum "Si O2"
_cell_formula_units_Z 24
_cell_length_a 11.994740
_cell_length_b 16.789289
_cell_length_c 7.710394
_cell_angle_alpha 90.000000
_cell_angle_beta 37.260005
_cell_angle_gamma 90.000000
_cell_volume 940.082108
_symmetry_space_group_name_H-M "P 21/M"
_symmetry_group_IT_number 11
_symmetry_cell_setting 'monoclinic'
loop_
_space_group_symop_operation_xyz
x,y,z
-x,1/2+y,-z
-x,-y,-z
x,1/2-y,z
loop_
_atom_site_type_symbol
_atom_site_label
_atom_site_fract_x
_atom_site_fract_y
_atom_site_fract_z
Si Si1 0.680604 0.160677 0.868772
Si Si2 0.699004 0.629875 0.497402
Si Si3 0.701124 0.839289 0.085122
Si Si4 0.402641 0.956821 0.451662
Si Si5 0.036427 0.945725 0.623289
Si Si6 0.894873 0.101660 0.946892
O O1 0.733715 0.250000 0.750620
O O2 0.761171 0.092956 0.641467
O O3 0.781479 0.135142 0.924493
O O4 0.464613 0.161560 0.181158
O O5 0.673999 0.656004 0.328039
O O6 0.672784 0.534712 0.548178
O O7 0.911072 0.646595 0.280297
O O8 0.665320 0.750000 0.071240
O O9 0.564647 0.904093 0.172585
O O10 0.904362 0.869256 0.790823
O O11 0.500000 0.000000 0.500000
O O12 0.243511 0.898551 0.720515
O O13 0.949459 0.007464 0.868244
O O14 0.000000 0.000000 0.500000
#
# Coordination Sequence:
#
# PCOD9156190 Si02
#       6
#     4   4   4   4   4   4
#     4  11  23  40  59  87 125 160 195 247 308 361
#     4  11  22  37  65  91 118 154 206 252 296 359
#     4  11  21  37  62  92 124 155 194 251 312 359
#     4  10  17  35  60  90 117 150 196 244 292 356
#     4  10  21  39  62  86 114 162 207 243 288 357
#     4  11  21  38  65  90 117 156 207 247 296 356
#
# _framework density 25.529685000000001
#
# number of rings (size 3 to 8) (size 9 to 14) (size 15 to 20)
#    0.000    1.333    6.667    2.500    0.000    2.000 
#    0.000    0.000    0.000    4.000    0.000    0.000 
#    0.000    0.000    0.000    0.000    0.000    0.000 
#
# Total GULP energy -134247.561148 kJ/mol
# GULP energy per Si atom -5593.648381 kJ/mol
# Density = 2.547158 g / cm^3
# Si number density = 25.529685 Si / 1000 Ang^3
#
#
#
# Elastic Constant Matrix: (Units=GPa)
#
#
# Indices 1 2 3 4 5 6 
#
# 1 64.8894 -0.4000 21.8611 0.0000 -0.9347 0.0000
# 2 -0.4000 124.6597 13.6817 0.0000 -0.5994 0.0000
# 3 21.8611 13.6817 140.0747 0.0000 -22.4540 0.0000
# 4 0.0000 0.0000 0.0000 32.3741 0.0000 4.4776
# 5 -0.9347 -0.5994 -22.4540 0.0000 49.3965 0.0000
# 6 0.0000 0.0000 0.0000 4.4776 0.0000 14.0314
#
#
#
# Elastic Compliance Matrix: (Units=1/GPa)
#
#
# Indices 1 2 3 4 5 6 
#
# 1 0.016319 0.000347 -0.002730 0.000000 -0.000928 0.000000
# 2 0.000347 0.008120 -0.000896 0.000000 -0.000302 0.000000
# 3 -0.002730 -0.000896 0.008243 0.000000 0.003685 0.000000
# 4 0.000000 0.000000 0.000000 0.032315 0.000000 -0.010312
# 5 -0.000928 -0.000302 0.003685 0.000000 0.021898 0.000000
# 6 0.000000 0.000000 0.000000 -0.010312 0.000000 0.074559
#
#
# Mechanical properties :
#
#
# Convention : Reuss Voigt Hill
#
# Bulk Modulus (GPa) = 38.27524 44.43435 41.35480
# Shear Modulus (GPa) = 28.29349 38.79248 33.54299
#
# Velocity S-wave (km/s) = 3.33266 3.90231 3.62868
# Velocity P-wave (km/s) = 5.46204 6.14384 5.81294
#
# Compressibility (1/GPa) = 0.02612655
#
# Stress axis : x y z
#
# Youngs Moduli (GPa) = 61.27750 123.15556 121.31262
#
# Poissons Ratio (x) = -0.04279 0.33113
# Poissons Ratio (y) = -0.02129 0.10867
# Poissons Ratio (z) = 0.16726 0.11032
#
# Static dielectric constant tensor:
#      x y z
#    x 2.195740 0.000000 -0.039780 
#    y 0.000000 1.981390 0.000000 
#    z -0.039780 0.000000 2.231880 
# 
# From -- ./inp_files/41895.got.cif
#   From: 2010.05.17/outbox.cif.g08.bks.cpg/sg11_21_cif.got.tgz:41895.got - 2010.06.03 12:22:45.
