data_PCOD9156984
_publ_section_title
;
Structure prediction by ZEFSAII (Michael W. Deem and Ramdas Pophale) SiO2 
 PCOD9156984
Probable space group: P 21/M
;
_chemical_formula_sum "Si O2"
_cell_formula_units_Z 28
_cell_length_a 13.735624
_cell_length_b 18.343149
_cell_length_c 5.836010
_cell_angle_alpha 90.000000
_cell_angle_beta 68.067415
_cell_angle_gamma 90.000000
_cell_volume 1363.987160
_symmetry_space_group_name_H-M "P 21/M"
_symmetry_group_IT_number 11
_symmetry_cell_setting 'monoclinic'
loop_
_space_group_symop_operation_xyz
x,y,z
-x,1/2+y,-z
-x,-y,-z
x,1/2-y,z
loop_
_atom_site_type_symbol
_atom_site_label
_atom_site_fract_x
_atom_site_fract_y
_atom_site_fract_z
Si Si1 0.699462 0.329112 0.279119
Si Si2 0.100428 0.429643 0.657228
Si Si3 0.600825 0.083604 0.749141
Si Si4 0.039937 0.064677 0.217118
Si Si5 0.516397 0.668007 0.806109
Si Si6 0.242239 0.531682 0.008332
Si Si7 0.656880 0.558080 0.450440
O O1 0.751152 0.250000 0.235342
O O2 0.644895 0.349076 0.565259
O O3 0.600903 0.327322 0.192540
O O4 0.768046 0.398410 0.148626
O O5 0.053059 0.397710 0.458148
O O6 0.227282 0.428645 0.540817
O O7 0.063466 0.514579 0.697737
O O8 0.060667 0.400149 0.944825
O O9 0.591122 0.010864 0.607021
O O10 0.498660 0.111964 0.970878
O O11 0.694429 0.060396 0.833606
O O12 0.132441 0.004637 0.151162
O O13 0.550370 0.750000 0.836282
O O14 0.589712 0.629772 0.554245
O O15 0.312713 0.469478 0.827233
#
# Coordination Sequence:
#
# PCOD9156984 Si02
#       7
#     4   4   4   4   4   4   4
#     4   9  19  33  47  67  97 132 170 210 258 312
#     4   9  17  29  50  76 107 134 162 210 260 311
#     4  10  18  31  50  72  95 127 167 216 258 302
#     4   9  16  30  49  77 108 132 162 207 265 309
#     4  10  21  34  47  66  98 136 173 207 254 311
#     4   9  18  30  49  73  99 126 165 211 259 307
#     4  10  19  31  48  74 100 128 169 215 259 304
#
# _framework density 20.528051999999999
#
# number of rings (size 3 to 8) (size 9 to 14) (size 15 to 20)
#    0.000    2.571    1.429    0.857    0.000    6.857 
#    0.000    0.000    0.000    0.857    0.000    0.000 
#    0.000    0.000    0.000    0.000    0.000    0.000 
#
# Total GULP energy -155880.703207 kJ/mol
# GULP energy per Si atom -5567.167972 kJ/mol
# Density = 2.048133 g / cm^3
# Si number density = 20.528052 Si / 1000 Ang^3
#
#
#
# Elastic Constant Matrix: (Units=GPa)
#
#
# Indices 1 2 3 4 5 6 
#
# 1 40.9374 19.5426 6.7767 0.0000 5.4840 0.0000
# 2 19.5426 37.3408 7.7972 0.0000 -17.1223 0.0000
# 3 6.7767 7.7972 89.5715 0.0000 9.5395 0.0000
# 4 0.0000 0.0000 0.0000 1.1279 0.0000 5.5628
# 5 5.4840 -17.1223 9.5395 0.0000 36.2340 0.0000
# 6 0.0000 0.0000 0.0000 5.5628 0.0000 10.3380
#
#
#
# Elastic Compliance Matrix: (Units=1/GPa)
#
#
# Indices 1 2 3 4 5 6 
#
# 1 0.043169 -0.033550 0.002098 0.000000 -0.022940 0.000000
# 2 -0.033550 0.062423 -0.006768 0.000000 0.036357 0.000000
# 3 0.002098 -0.006768 0.012314 0.000000 -0.006758 0.000000
# 4 0.000000 0.000000 0.000000 -0.536078 0.000000 0.288462
# 5 -0.022940 0.036357 -0.006758 0.000000 0.050030 0.000000
# 6 0.000000 0.000000 0.000000 0.288462 0.000000 -0.058490
#
#
# Mechanical properties :
#
#
# Convention : Reuss Voigt Hill
#
# Bulk Modulus (GPa) = 24.11548 26.23141 25.17345
# Shear Modulus (GPa) = -14.86463 18.45554 1.79545
#
# Velocity S-wave (km/s) = -2.69385 3.00165 0.93623
# Velocity P-wave (km/s) = 1.44820 4.98190 3.66855
#
# Compressibility (1/GPa) = 0.04146714
#
# Stress axis : x y z
#
# Youngs Moduli (GPa) = 23.16471 16.01966 81.20575
#
# Poissons Ratio (x) = 0.53745 -0.17033
# Poissons Ratio (y) = 0.77717 0.54958
# Poissons Ratio (z) = -0.04859 0.10842
#
# Static dielectric constant tensor:
#      x y z
#    x 1.768480 0.000000 0.057010 
#    y 0.000000 1.714530 0.000000 
#    z 0.057010 0.000000 1.869520 
# 
# From -- ./inp_files/6967.got.cif
#   From: 2010.05.17/outbox.cif.g08.bks.cpg/sg11_4_cif.got.tgz:6967.got - 2010.06.03 12:22:45.
