data_PCOD9156456
_publ_section_title
;
Structure prediction by ZEFSAII (Michael W. Deem and Ramdas Pophale) SiO2 
 PCOD9156456
Probable space group: P 21/M
;
_chemical_formula_sum "Si O2"
_cell_formula_units_Z 24
_cell_length_a 14.136969
_cell_length_b 9.013075
_cell_length_c 26.722142
_cell_angle_alpha 90.000000
_cell_angle_beta 155.126904
_cell_angle_gamma 90.000000
_cell_volume 1432.121944
_symmetry_space_group_name_H-M "P 21/M"
_symmetry_group_IT_number 11
_symmetry_cell_setting 'monoclinic'
loop_
_space_group_symop_operation_xyz
x,y,z
-x,1/2+y,-z
-x,-y,-z
x,1/2-y,z
loop_
_atom_site_type_symbol
_atom_site_label
_atom_site_fract_x
_atom_site_fract_y
_atom_site_fract_z
Si Si1 0.636048 0.571975 0.254961
Si Si2 0.741950 0.426769 0.763894
Si Si3 0.106540 0.927192 0.001217
Si Si4 0.047571 0.578079 0.393275
Si Si5 0.441189 0.073006 0.524364
Si Si6 0.645806 0.078140 0.361632
O O1 0.661705 0.750000 0.274686
O O2 0.371405 0.539344 0.123267
O O3 0.719722 0.485601 0.344106
O O4 0.792061 0.532216 0.282481
O O5 0.771167 0.250000 0.780117
O O6 0.628152 0.467270 0.656271
O O7 0.560456 0.478591 0.718067
O O8 0.969031 0.509254 0.888113
O O9 0.080246 0.750000 0.992027
O O10 0.000000 0.000000 0.000000
O O11 0.052671 0.750000 0.379254
O O12 0.201393 0.483167 0.430223
O O13 0.169666 0.571147 0.506116
O O14 0.438937 0.250000 0.519072
O O15 0.500000 0.000000 0.500000
O O16 0.575754 0.250000 0.323148
#
# Coordination Sequence:
#
# PCOD9156456 Si02
#       6
#     4   4   4   4   4   4
#     4  10  20  32  47  69 104 143 173 208 253 300
#     4  10  20  34  51  74 104 136 173 214 256 302
#     4  11  21  32  49  73 105 145 182 213 248 295
#     4   9  19  34  50  73 103 134 169 210 259 311
#     4  10  21  37  59  82 102 128 164 215 270 315
#     4  10  18  28  47  72 100 136 174 210 250 301
#
# _framework density 16.75835
#
# number of rings (size 3 to 8) (size 9 to 14) (size 15 to 20)
#    0.000    2.000    1.667    2.500    0.000    4.000 
#    0.000    0.000    0.000    1.000    0.000    0.000 
#    0.000    0.000    0.000    0.000    0.000    0.000 
#
# Total GULP energy -133891.818865 kJ/mol
# GULP energy per Si atom -5578.825786 kJ/mol
# Density = 1.672021 g / cm^3
# Si number density = 16.758350 Si / 1000 Ang^3
#
#
#
# Elastic Constant Matrix: (Units=GPa)
#
#
# Indices 1 2 3 4 5 6 
#
# 1 119.9724 50.7838 51.1697 0.0000 6.6476 0.0000
# 2 50.7838 53.7976 38.2341 0.0000 3.6636 0.0000
# 3 51.1697 38.2341 76.9122 0.0000 15.8134 0.0000
# 4 0.0000 0.0000 0.0000 23.9474 0.0000 -1.5409
# 5 6.6476 3.6636 15.8134 0.0000 20.7879 0.0000
# 6 0.0000 0.0000 0.0000 -1.5409 0.0000 28.0077
#
#
#
# Elastic Compliance Matrix: (Units=1/GPa)
#
#
# Indices 1 2 3 4 5 6 
#
# 1 0.014831 -0.010720 -0.004684 0.000000 0.000710 0.000000
# 2 -0.010720 0.037346 -0.012784 0.000000 0.006571 0.000000
# 3 -0.004684 -0.012784 0.025726 0.000000 -0.015819 0.000000
# 4 0.000000 0.000000 0.000000 0.041906 0.000000 0.002306
# 5 0.000710 0.006571 -0.015819 0.000000 0.058753 0.000000
# 6 0.000000 0.000000 0.000000 0.002306 0.000000 0.035831
#
#
# Mechanical properties :
#
#
# Convention : Reuss Voigt Hill
#
# Bulk Modulus (GPa) = 46.45472 59.00639 52.73055
# Shear Modulus (GPa) = 17.98905 21.91491 19.95198
#
# Velocity S-wave (km/s) = 3.27989 3.62014 3.45421
# Velocity P-wave (km/s) = 6.49031 7.26364 6.88783
#
# Compressibility (1/GPa) = 0.02152634
#
# Stress axis : x y z
#
# Youngs Moduli (GPa) = 67.42414 26.77683 38.87103
#
# Poissons Ratio (x) = 0.28704 0.18209
# Poissons Ratio (y) = 0.72277 0.49694
# Poissons Ratio (z) = 0.31584 0.34232
#
# Static dielectric constant tensor:
#      x y z
#    x 1.547850 0.000000 0.010970 
#    y 0.000000 1.566260 0.000000 
#    z 0.010970 0.000000 1.601320 
# 
# From -- ./inp_files/36890.got.cif
#   From: 2010.05.17/outbox.cif.g08.bks.cpg/sg11_19_cif.got.tgz:36890.got - 2010.06.03 12:22:45.
