data_PCOD9156432
_publ_section_title
;
Structure prediction by ZEFSAII (Michael W. Deem and Ramdas Pophale) SiO2 
 PCOD9156432
Probable space group: P 21/M
;
_chemical_formula_sum "Si O2"
_cell_formula_units_Z 28
_cell_length_a 8.212073
_cell_length_b 12.790350
_cell_length_c 14.613976
_cell_angle_alpha 90.000000
_cell_angle_beta 108.399922
_cell_angle_gamma 90.000000
_cell_volume 1456.509374
_symmetry_space_group_name_H-M "P 21/M"
_symmetry_group_IT_number 11
_symmetry_cell_setting 'monoclinic'
loop_
_space_group_symop_operation_xyz
x,y,z
-x,1/2+y,-z
-x,-y,-z
x,1/2-y,z
loop_
_atom_site_type_symbol
_atom_site_label
_atom_site_fract_x
_atom_site_fract_y
_atom_site_fract_z
Si Si1 0.642802 0.024348 0.133765
Si Si2 0.875832 0.874531 0.701714
Si Si3 0.797287 0.126207 0.338521
Si Si4 0.115031 0.479505 0.109037
Si Si5 0.490760 0.480936 0.391053
Si Si6 0.593983 0.126431 0.785792
Si Si7 0.673713 0.869391 0.995698
O O1 0.723970 0.095780 0.225693
O O2 0.529182 0.938513 0.168238
O O3 0.748044 0.949858 0.083886
O O4 0.525809 0.099386 0.050124
O O5 0.885540 0.750000 0.712065
O O6 0.944481 0.927659 0.807181
O O7 0.678238 0.909686 0.656593
O O8 0.001462 0.904300 0.638812
O O9 0.787602 0.250000 0.353061
O O10 0.668696 0.069064 0.385726
O O11 0.217036 0.584515 0.154653
O O12 0.250256 0.395744 0.090187
O O13 0.000000 0.500000 0.000000
O O14 0.500000 0.500000 0.500000
O O15 0.454049 0.584372 0.323756
O O16 0.577115 0.250000 0.791801
O O17 0.699924 0.750000 0.025153
#
# Coordination Sequence:
#
# PCOD9156432 Si02
#       7
#     4   4   4   4   4   4   4
#     4   9  18  31  47  73 107 140 184 233 275 326
#     4  10  21  37  58  86 116 147 190 235 276 336
#     4  10  20  36  59  83 111 147 182 224 283 340
#     4  10  20  33  49  75 112 150 191 234 277 326
#     4  10  22  39  61  85 112 144 183 236 289 342
#     4   9  19  34  52  75 106 146 188 232 285 342
#     4  10  18  28  46  70 100 144 191 230 272 322
#
# _framework density 19.224043000000002
#
# number of rings (size 3 to 8) (size 9 to 14) (size 15 to 20)
#    0.000    2.286    0.000    3.429    0.000    2.857 
#    0.000    3.571    0.000    7.714    0.000    0.000 
#    0.000    0.000    0.000    0.000    0.000    0.000 
#
# Total GULP energy -155955.627833 kJ/mol
# GULP energy per Si atom -5569.843851 kJ/mol
# Density = 1.918029 g / cm^3
# Si number density = 19.224043 Si / 1000 Ang^3
#
#
#
# Elastic Constant Matrix: (Units=GPa)
#
#
# Indices 1 2 3 4 5 6 
#
# 1 92.0995 20.8566 22.9242 0.0000 -23.0820 0.0000
# 2 20.8566 56.1822 5.1693 0.0000 4.5309 0.0000
# 3 22.9242 5.1693 92.0245 0.0000 -18.3655 0.0000
# 4 0.0000 0.0000 0.0000 8.7314 0.0000 -4.1037
# 5 -23.0820 4.5309 -18.3655 0.0000 24.6421 0.0000
# 6 0.0000 0.0000 0.0000 -4.1037 0.0000 15.8790
#
#
#
# Elastic Compliance Matrix: (Units=1/GPa)
#
#
# Indices 1 2 3 4 5 6 
#
# 1 0.016934 -0.007617 -0.000406 0.000000 0.016960 0.000000
# 2 -0.007617 0.021803 -0.001822 0.000000 -0.012502 0.000000
# 3 -0.000406 -0.001822 0.012994 0.000000 0.009639 0.000000
# 4 0.000000 0.000000 0.000000 0.130364 0.000000 0.033691
# 5 0.016960 -0.012502 0.009639 0.000000 0.065950 0.000000
# 6 0.000000 0.000000 0.000000 0.033691 0.000000 0.071683
#
#
# Mechanical properties :
#
#
# Convention : Reuss Voigt Hill
#
# Bulk Modulus (GPa) = 31.21028 37.57849 34.39438
# Shear Modulus (GPa) = 14.28171 22.60758 18.44464
#
# Velocity S-wave (km/s) = 2.72859 3.43301 3.10087
# Velocity P-wave (km/s) = 5.11832 5.94173 5.54533
#
# Compressibility (1/GPa) = 0.03204073
#
# Stress axis : x y z
#
# Youngs Moduli (GPa) = 59.05148 45.86561 76.95969
#
# Poissons Ratio (x) = 0.34936 0.03123
# Poissons Ratio (y) = 0.44980 0.14024
# Poissons Ratio (z) = 0.02397 0.08358
#
# Static dielectric constant tensor:
#      x y z
#    x 1.904850 0.000000 -0.035970 
#    y 0.000000 1.628330 0.000000 
#    z -0.035970 0.000000 1.684000 
# 
# From -- ./inp_files/47008.got.cif
#   From: 2010.05.17/outbox.cif.g08.bks.cpg/sg11_24_cif.got.tgz:47008.got - 2010.06.03 12:22:45.
