data_PCOD9156591
_publ_section_title
;
Structure prediction by ZEFSAII (Michael W. Deem and Ramdas Pophale) SiO2 
 PCOD9156591
Probable space group: P 21/M
;
_chemical_formula_sum "Si O2"
_cell_formula_units_Z 28
_cell_length_a 18.533991
_cell_length_b 9.130609
_cell_length_c 16.838405
_cell_angle_alpha 90.000000
_cell_angle_beta 36.249552
_cell_angle_gamma 90.000000
_cell_volume 1684.922688
_symmetry_space_group_name_H-M "P 21/M"
_symmetry_group_IT_number 11
_symmetry_cell_setting 'monoclinic'
loop_
_space_group_symop_operation_xyz
x,y,z
-x,1/2+y,-z
-x,-y,-z
x,1/2-y,z
loop_
_atom_site_type_symbol
_atom_site_label
_atom_site_fract_x
_atom_site_fract_y
_atom_site_fract_z
Si Si1 0.761529 0.924277 0.966714
Si Si2 0.485882 0.923664 0.269986
Si Si3 0.822929 0.922085 0.208991
Si Si4 0.590055 0.074194 0.483200
Si Si5 0.898661 0.422037 0.982362
Si Si6 0.398924 0.081678 0.196003
Si Si7 0.319419 0.918842 0.115617
O O1 0.780857 0.750000 0.947707
O O2 0.753873 0.990199 0.885198
O O3 0.628349 0.952230 0.124695
O O4 0.858954 0.004752 0.935520
O O5 0.466752 0.750000 0.275306
O O6 0.453280 0.960785 0.389083
O O7 0.406317 0.009705 0.275925
O O8 0.791633 0.750000 0.230275
O O9 0.722881 0.008443 0.347883
O O10 0.832407 0.993268 0.113211
O O11 0.956986 0.934681 0.128733
O O12 0.589392 0.250000 0.474502
O O13 0.500000 0.000000 0.500000
O O14 0.866542 0.250000 0.012191
O O15 0.359852 0.250000 0.233897
O O16 0.321549 0.992004 0.200258
O O17 0.539210 0.079104 0.039605
O O18 0.280495 0.750000 0.152799
#
# Coordination Sequence:
#
# PCOD9156591 Si02
#       7
#     4   4   4   4   4   4   4
#     4  10  18  29  47  71  99 127 159 199 240 284
#     4   9  19  32  45  66  96 129 160 193 236 284
#     4  10  21  36  52  71  96 126 162 202 243 287
#     4  11  22  35  52  73  99 130 164 200 240 287
#     4  10  20  34  52  72  95 125 161 201 245 290
#     4   9  16  26  42  64  90 123 160 195 233 279
#     4   9  16  26  41  63  94 127 157 192 235 283
#
# _framework density 16.617972999999999
#
# number of rings (size 3 to 8) (size 9 to 14) (size 15 to 20)
#    0.000    2.286    0.000    3.429    0.000    8.000 
#    0.000    0.000    0.000    0.000    0.000    1.000 
#    0.000    0.000    0.000    0.000    0.000    0.000 
#
# Total GULP energy -156222.855561 kJ/mol
# GULP energy per Si atom -5579.387699 kJ/mol
# Density = 1.658015 g / cm^3
# Si number density = 16.617973 Si / 1000 Ang^3
#
#
#
# Elastic Constant Matrix: (Units=GPa)
#
#
# Indices 1 2 3 4 5 6 
#
# 1 115.2267 73.7560 26.1216 0.0000 33.6064 0.0000
# 2 73.7560 109.2719 36.8279 0.0000 21.5815 0.0000
# 3 26.1216 36.8279 47.4874 0.0000 18.5371 0.0000
# 4 0.0000 0.0000 0.0000 22.7186 0.0000 4.4371
# 5 33.6064 21.5815 18.5371 0.0000 21.3612 0.0000
# 6 0.0000 0.0000 0.0000 4.4371 0.0000 35.2076
#
#
#
# Elastic Compliance Matrix: (Units=1/GPa)
#
#
# Indices 1 2 3 4 5 6 
#
# 1 0.025225 -0.013607 0.010287 0.000000 -0.034864 0.000000
# 2 -0.013607 0.020322 -0.013032 0.000000 0.012185 0.000000
# 3 0.010287 -0.013032 0.040354 0.000000 -0.038037 0.000000
# 4 0.000000 0.000000 0.000000 0.045128 0.000000 -0.005687
# 5 -0.034864 0.012185 -0.038037 0.000000 0.122360 0.000000
# 6 0.000000 0.000000 0.000000 -0.005687 0.000000 0.029120
#
#
# Mechanical properties :
#
#
# Convention : Reuss Voigt Hill
#
# Bulk Modulus (GPa) = 18.79841 60.59969 39.69905
# Shear Modulus (GPa) = 15.01756 24.87618 19.94687
#
# Velocity S-wave (km/s) = 3.00941 3.87323 3.46832
# Velocity P-wave (km/s) = 4.83860 7.51985 6.32298
#
# Compressibility (1/GPa) = 0.05319599
#
# Stress axis : x y z
#
# Youngs Moduli (GPa) = 39.64357 49.20876 24.78071
#
# Poissons Ratio (x) = 0.66961 -0.25492
# Poissons Ratio (y) = 0.53945 0.32293
# Poissons Ratio (z) = -0.40781 0.64127
#
# Static dielectric constant tensor:
#      x y z
#    x 1.550380 0.000000 -0.002060 
#    y 0.000000 1.554190 0.000000 
#    z -0.002060 0.000000 1.539350 
# 
# From -- ./inp_files/48906.got.cif
#   From: 2010.05.17/outbox.cif.g08.bks.cpg/sg11_25_cif.got.tgz:48906.got - 2010.06.03 12:22:45.
