data_PCOD9156269
_publ_section_title
;
Structure prediction by ZEFSAII (Michael W. Deem and Ramdas Pophale) SiO2 
 PCOD9156269
Probable space group: P 21/M
;
_chemical_formula_sum "Si O2"
_cell_formula_units_Z 32
_cell_length_a 16.610400
_cell_length_b 8.633918
_cell_length_c 16.448355
_cell_angle_alpha 90.000000
_cell_angle_beta 109.758242
_cell_angle_gamma 90.000000
_cell_volume 2220.030276
_symmetry_space_group_name_H-M "P 21/M"
_symmetry_group_IT_number 11
_symmetry_cell_setting 'monoclinic'
loop_
_space_group_symop_operation_xyz
x,y,z
-x,1/2+y,-z
-x,-y,-z
x,1/2-y,z
loop_
_atom_site_type_symbol
_atom_site_label
_atom_site_fract_x
_atom_site_fract_y
_atom_site_fract_z
Si Si1 0.866996 0.434995 0.969272
Si Si2 0.015067 0.934011 0.313754
Si Si3 0.838872 0.436071 0.327982
Si Si4 0.680223 0.437435 0.161410
Si Si5 0.305740 0.436046 0.017143
Si Si6 0.974956 0.565391 0.861223
Si Si7 0.088515 0.434774 0.492473
Si Si8 0.506773 0.936300 0.910964
O O1 0.869197 0.250000 0.960009
O O2 0.773768 0.490277 0.963621
O O3 0.902116 0.514170 0.899682
O O4 0.935173 0.475068 0.063805
O O5 0.011790 0.750000 0.321827
O O6 0.031980 0.982266 0.227281
O O7 0.085702 0.001975 0.400004
O O8 0.923168 0.003269 0.309790
O O9 0.843866 0.250000 0.333650
O O10 0.754937 0.481720 0.248862
O O11 0.841656 0.503469 0.420162
O O12 0.683088 0.250000 0.153322
O O13 0.584416 0.481339 0.158754
O O14 0.695312 0.509826 0.077504
O O15 0.299002 0.250000 0.017347
O O16 0.398661 0.484389 0.085416
O O17 0.973010 0.750000 0.848600
O O18 0.086873 0.250000 0.491967
O O19 0.000000 0.500000 0.500000
O O20 0.508241 0.750000 0.913800
O O21 0.500000 0.000000 0.000000
#
# Coordination Sequence:
#
# PCOD9156269 Si02
#       8
#     4   4   4   4   4   4   4   4
#     4  10  20  32  45  61  83 110 140 174 210 246
#     4  11  20  30  44  61  83 111 141 171 206 248
#     4  10  18  28  42  61  84 111 142 174 208 245
#     4   9  17  28  42  59  83 113 143 174 207 246
#     4  10  18  27  42  61  83 111 143 176 208 245
#     4  10  20  33  46  61  82 108 140 176 210 243
#     4  10  18  29  43  59  81 108 138 172 207 244
#     4   8  15  27  40  57  80 108 140 172 206 242
#
# _framework density 14.414218
#
# number of rings (size 3 to 8) (size 9 to 14) (size 15 to 20)
#    0.000    2.250    0.000    6.000    0.000    6.000 
#    0.000    0.000    0.000    0.000    0.000    0.000 
#    0.000    1.000    0.000    2.750    0.000    4.000 
#
# Total GULP energy -178314.988585 kJ/mol
# GULP energy per Si atom -5572.343393 kJ/mol
# Density = 1.438141 g / cm^3
# Si number density = 14.414218 Si / 1000 Ang^3
#
#
#
# Elastic Constant Matrix: (Units=GPa)
#
#
# Indices 1 2 3 4 5 6 
#
# 1 94.5095 20.4798 37.5422 0.0000 9.7251 0.0000
# 2 20.4798 58.6882 32.5794 0.0000 3.7892 0.0000
# 3 37.5422 32.5794 93.8943 0.0000 8.8690 0.0000
# 4 0.0000 0.0000 0.0000 23.1244 0.0000 -3.0807
# 5 9.7251 3.7892 8.8690 0.0000 19.4782 0.0000
# 6 0.0000 0.0000 0.0000 -3.0807 0.0000 16.3296
#
#
#
# Elastic Compliance Matrix: (Units=1/GPa)
#
#
# Indices 1 2 3 4 5 6 
#
# 1 0.013097 -0.001996 -0.004141 0.000000 -0.004265 0.000000
# 2 -0.001996 0.021421 -0.006620 0.000000 -0.000156 0.000000
# 3 -0.004141 -0.006620 0.014928 0.000000 -0.003442 0.000000
# 4 0.000000 0.000000 0.000000 0.044359 0.000000 0.008369
# 5 -0.004265 -0.000156 -0.003442 0.000000 0.055067 0.000000
# 6 0.000000 0.000000 0.000000 0.008369 0.000000 0.062817
#
#
# Mechanical properties :
#
#
# Convention : Reuss Voigt Hill
#
# Bulk Modulus (GPa) = 41.78504 47.58832 44.68668
# Shear Modulus (GPa) = 20.39310 22.21913 21.30611
#
# Velocity S-wave (km/s) = 3.76545 3.93042 3.84882
# Velocity P-wave (km/s) = 6.92506 7.32694 7.12884
#
# Compressibility (1/GPa) = 0.02393201
#
# Stress axis : x y z
#
# Youngs Moduli (GPa) = 76.35067 46.68398 66.98782
#
# Poissons Ratio (x) = 0.09319 0.27742
# Poissons Ratio (y) = 0.15241 0.44343
# Poissons Ratio (z) = 0.31619 0.30903
#
# Static dielectric constant tensor:
#      x y z
#    x 1.486390 0.000000 0.025490 
#    y 0.000000 1.484200 0.000000 
#    z 0.025490 0.000000 1.478170 
# 
# From -- ./inp_files/51386.got.cif
#   From: 2010.05.17/outbox.cif.g08.bks.cpg/sg11_26_cif.got.tgz:51386.got - 2010.06.03 12:22:45.
