data_PCOD9156085
_publ_section_title
;
Structure prediction by ZEFSAII (Michael W. Deem and Ramdas Pophale) SiO2 
 PCOD9156085
Probable space group: P 21/M
;
_chemical_formula_sum "Si O2"
_cell_formula_units_Z 20
_cell_length_a 9.698711
_cell_length_b 18.091520
_cell_length_c 9.577151
_cell_angle_alpha 90.000000
_cell_angle_beta 43.876591
_cell_angle_gamma 90.000000
_cell_volume 1164.731799
_symmetry_space_group_name_H-M "P 21/M"
_symmetry_group_IT_number 11
_symmetry_cell_setting 'monoclinic'
loop_
_space_group_symop_operation_xyz
x,y,z
-x,1/2+y,-z
-x,-y,-z
x,1/2-y,z
loop_
_atom_site_type_symbol
_atom_site_label
_atom_site_fract_x
_atom_site_fract_y
_atom_site_fract_z
Si Si1 0.240582 0.444185 0.246779
Si Si2 0.919011 0.054095 0.867540
Si Si3 0.326391 0.473157 0.727358
Si Si4 0.561127 0.410132 0.791030
Si Si5 0.934527 0.335712 0.618033
O O1 0.111120 0.488721 0.225271
O O2 0.332516 0.508990 0.275884
O O3 0.109640 0.385538 0.424463
O O4 0.420443 0.407297 0.029842
O O5 0.890002 0.128849 0.802166
O O6 0.135454 0.051825 0.778631
O O7 0.758413 0.035944 0.104847
O O8 0.500000 0.500000 0.500000
O O9 0.421985 0.411016 0.757736
O O10 0.735921 0.351156 0.672646
O O11 0.983482 0.250000 0.587356
#
# Coordination Sequence:
#
# PCOD9156085 Si02
#       5
#     4   4   4   4   4
#     4   9  17  33  53  74  99 129 167 211 251 292
#     4   9  19  32  51  78 100 126 170 211 246 296
#     4  10  17  30  55  77  95 122 163 213 253 285
#     4   9  18  32  53  76  97 126 171 214 244 291
#     4  11  21  33  50  74 106 138 165 203 258 311
#
# _framework density 17.171334999999999
#
# number of rings (size 3 to 8) (size 9 to 14) (size 15 to 20)
#    0.000    2.400    0.000    6.000    0.000    0.800 
#    0.000    1.000    0.000   15.600    0.000    0.000 
#    0.000    0.000    0.000    0.000    0.000    0.000 
#
# Total GULP energy -111513.120589 kJ/mol
# GULP energy per Si atom -5575.656029 kJ/mol
# Density = 1.713225 g / cm^3
# Si number density = 17.171335 Si / 1000 Ang^3
#
#
#
# Elastic Constant Matrix: (Units=GPa)
#
#
# Indices 1 2 3 4 5 6 
#
# 1 111.2692 22.2183 23.1350 0.0000 -7.5371 0.0000
# 2 22.2183 74.9836 37.7275 0.0000 -1.7578 0.0000
# 3 23.1350 37.7275 96.4954 0.0000 -14.5247 0.0000
# 4 0.0000 0.0000 0.0000 10.5080 0.0000 0.3105
# 5 -7.5371 -1.7578 -14.5247 0.0000 23.3834 0.0000
# 6 0.0000 0.0000 0.0000 0.3105 0.0000 11.7195
#
#
#
# Elastic Compliance Matrix: (Units=1/GPa)
#
#
# Indices 1 2 3 4 5 6 
#
# 1 0.009834 -0.002301 -0.001111 0.000000 0.002307 0.000000
# 2 -0.002301 0.017343 -0.006778 0.000000 -0.003648 0.000000
# 3 -0.001111 -0.006778 0.014505 0.000000 0.008142 0.000000
# 4 0.000000 0.000000 0.000000 0.095240 0.000000 -0.002523
# 5 0.002307 -0.003648 0.008142 0.000000 0.048292 0.000000
# 6 0.000000 0.000000 0.000000 -0.002523 0.000000 0.085395
#
#
# Mechanical properties :
#
#
# Convention : Reuss Voigt Hill
#
# Bulk Modulus (GPa) = 46.94358 49.87885 48.41121
# Shear Modulus (GPa) = 16.77349 22.43335 19.60342
#
# Velocity S-wave (km/s) = 3.12882 3.61839 3.38248
# Velocity P-wave (km/s) = 6.36006 6.82406 6.59614
#
# Compressibility (1/GPa) = 0.02130217
#
# Stress axis : x y z
#
# Youngs Moduli (GPa) = 101.68926 57.66053 68.94055
#
# Poissons Ratio (x) = 0.13267 0.07659
# Poissons Ratio (y) = 0.23397 0.46729
# Poissons Ratio (z) = 0.11297 0.39083
#
# Static dielectric constant tensor:
#      x y z
#    x 1.619480 0.000000 0.004300 
#    y 0.000000 1.549000 0.000000 
#    z 0.004300 0.000000 1.613000 
# 
# From -- ./inp_files/13054.got.cif
#   From: 2010.05.17/outbox.cif.g08.bks.cpg/sg11_7_cif.got.tgz:13054.got - 2010.06.03 12:22:45.
