data_PCOD9156357
_publ_section_title
;
Structure prediction by ZEFSAII (Michael W. Deem and Ramdas Pophale) SiO2 
 PCOD9156357
Probable space group: P 21/M
;
_chemical_formula_sum "Si O2"
_cell_formula_units_Z 24
_cell_length_a 22.377121
_cell_length_b 8.269855
_cell_length_c 12.592049
_cell_angle_alpha 90.000000
_cell_angle_beta 141.306057
_cell_angle_gamma 90.000000
_cell_volume 1456.766000
_symmetry_space_group_name_H-M "P 21/M"
_symmetry_group_IT_number 11
_symmetry_cell_setting 'monoclinic'
loop_
_space_group_symop_operation_xyz
x,y,z
-x,1/2+y,-z
-x,-y,-z
x,1/2-y,z
loop_
_atom_site_type_symbol
_atom_site_label
_atom_site_fract_x
_atom_site_fract_y
_atom_site_fract_z
Si Si1 0.168408 0.554572 0.917257
Si Si2 0.651542 0.445142 0.709553
Si Si3 0.969342 0.945107 0.575228
Si Si4 0.556761 0.443232 0.975887
Si Si5 0.769347 0.555897 0.231642
Si Si6 0.490067 0.055317 0.654443
O O1 0.167709 0.750000 0.919576
O O2 0.209526 0.506447 0.858509
O O3 0.058030 0.497802 0.770686
O O4 0.243407 0.497897 0.109963
O O5 0.651354 0.250000 0.709138
O O6 0.607398 0.502481 0.537605
O O7 0.576850 0.499548 0.697779
O O8 0.969031 0.750000 0.579279
O O9 0.859072 0.998280 0.429885
O O10 0.000000 0.000000 0.500000
O O11 0.554714 0.250000 0.969966
O O12 0.508729 0.503897 0.799354
O O13 0.500000 0.500000 0.000000
O O14 0.666906 0.497109 0.128114
O O15 0.769267 0.750000 0.227892
O O16 0.492605 0.250000 0.659086
#
# Coordination Sequence:
#
# PCOD9156357 Si02
#       6
#     4   4   4   4   4   4
#     4   9  15  27  44  65  94 125 151 182 224 269
#     4   9  16  27  45  67  91 121 151 180 222 271
#     4   8  15  25  40  62  90 120 150 181 220 268
#     4  11  22  36  50  66  89 121 157 192 230 269
#     4  10  18  28  43  66  92 121 154 188 224 268
#     4   9  18  31  44  63  90 119 150 185 226 269
#
# _framework density 16.474848000000001
#
# number of rings (size 3 to 8) (size 9 to 14) (size 15 to 20)
#    0.000    2.667    1.667    1.000    0.000    2.667 
#    0.000    0.000    0.000    0.000    0.000    1.167 
#    0.000    0.000    0.000    0.000    0.000    0.000 
#
# Total GULP energy -133608.099437 kJ/mol
# GULP energy per Si atom -5567.004143 kJ/mol
# Density = 1.643735 g / cm^3
# Si number density = 16.474848 Si / 1000 Ang^3
#
#
#
# Elastic Constant Matrix: (Units=GPa)
#
#
# Indices 1 2 3 4 5 6 
#
# 1 65.7567 4.5951 68.3035 0.0000 6.3791 0.0000
# 2 4.5951 5.1434 19.6357 0.0000 1.4631 0.0000
# 3 68.3035 19.6357 199.4739 0.0000 23.2401 0.0000
# 4 0.0000 0.0000 0.0000 20.3232 0.0000 -0.8997
# 5 6.3791 1.4631 23.2401 0.0000 19.2657 0.0000
# 6 0.0000 0.0000 0.0000 -0.8997 0.0000 16.8291
#
#
#
# Elastic Compliance Matrix: (Units=1/GPa)
#
#
# Indices 1 2 3 4 5 6 
#
# 1 0.024582 0.017118 -0.010475 0.000000 0.003196 0.000000
# 2 0.017118 0.327431 -0.040183 0.000000 0.017938 0.000000
# 3 -0.010475 -0.040183 0.013725 0.000000 -0.010036 0.000000
# 4 0.000000 0.000000 0.000000 0.049322 0.000000 0.002637
# 5 0.003196 0.017938 -0.010036 0.000000 0.061592 0.000000
# 6 0.000000 0.000000 0.000000 0.002637 0.000000 0.059562
#
#
# Mechanical properties :
#
#
# Convention : Reuss Voigt Hill
#
# Bulk Modulus (GPa) = 3.34831 50.60474 26.97652
# Shear Modulus (GPa) = 7.11395 23.13957 15.12676
#
# Velocity S-wave (km/s) = 2.08025 3.75178 3.03342
# Velocity P-wave (km/s) = 2.79405 7.03924 5.35526
#
# Compressibility (1/GPa) = 0.29865854
#
# Stress axis : x y z
#
# Youngs Moduli (GPa) = 40.68074 3.05408 72.86128
#
# Poissons Ratio (x) = -0.05228 0.76320
# Poissons Ratio (y) = -0.69639 2.92779
# Poissons Ratio (z) = 0.42612 0.12272
#
# Static dielectric constant tensor:
#      x y z
#    x 1.510210 0.000000 0.027590 
#    y 0.000000 1.564240 0.000000 
#    z 0.027590 0.000000 1.622220 
# 
# From -- ./inp_files/36987.got.cif
#   From: 2010.05.17/outbox.cif.g08.bks.cpg/sg11_19_cif.got.tgz:36987.got - 2010.06.03 12:22:45.
