data_PCOD9156075
_publ_section_title
;
Structure prediction by ZEFSAII (Michael W. Deem and Ramdas Pophale) SiO2 
 PCOD9156075
Probable space group: P 21/M
;
_chemical_formula_sum "Si O2"
_cell_formula_units_Z 28
_cell_length_a 9.674434
_cell_length_b 13.625737
_cell_length_c 7.912305
_cell_angle_alpha 90.000000
_cell_angle_beta 83.206762
_cell_angle_gamma 90.000000
_cell_volume 1035.687799
_symmetry_space_group_name_H-M "P 21/M"
_symmetry_group_IT_number 11
_symmetry_cell_setting 'monoclinic'
loop_
_space_group_symop_operation_xyz
x,y,z
-x,1/2+y,-z
-x,-y,-z
x,1/2-y,z
loop_
_atom_site_type_symbol
_atom_site_label
_atom_site_fract_x
_atom_site_fract_y
_atom_site_fract_z
Si Si1 0.454910 0.636015 0.945864
Si Si2 0.789583 0.140390 0.229525
Si Si3 0.905413 0.864561 0.365977
Si Si4 0.658220 0.926192 0.623596
Si Si5 0.056102 0.477261 0.180908
Si Si6 0.416275 0.862513 0.421239
Si Si7 0.277324 0.132480 0.947441
O O1 0.423313 0.750000 0.979017
O O2 0.306292 0.593601 0.906324
O O3 0.564386 0.629505 0.775293
O O4 0.559674 0.601120 0.077859
O O5 0.828914 0.250000 0.169706
O O6 0.930134 0.089683 0.265102
O O7 0.686132 0.143829 0.401698
O O8 0.936167 0.750000 0.378628
O O9 0.813712 0.898772 0.539371
O O10 0.042552 0.926164 0.297571
O O11 0.806707 0.880580 0.214472
O O12 0.565789 0.897167 0.470419
O O13 0.645962 0.042229 0.662910
O O14 0.195729 0.419765 0.113631
O O15 0.000000 0.500000 0.000000
O O16 0.423640 0.750000 0.353439
O O17 0.275804 0.250000 0.977058
#
# Coordination Sequence:
#
# PCOD9156075 Si02
#       7
#     4   4   4   4   4   4   4
#     4   9  18  33  54  82 109 137 173 216 264 318
#     4   9  16  30  53  77 101 133 177 218 254 306
#     4  10  19  32  51  75 103 140 181 221 261 313
#     4  10  17  30  53  78 104 135 176 219 263 312
#     4  10  19  32  50  75 102 137 180 218 255 308
#     4   9  17  28  49  78 105 132 173 220 261 308
#     4   9  19  35  54  78 109 140 175 217 264 316
#
# _framework density 27.035173
#
# number of rings (size 3 to 8) (size 9 to 14) (size 15 to 20)
#    0.000    2.571    1.429    2.571    0.000    0.571 
#    0.000    3.571    0.000    0.857    0.000    0.000 
#    0.000    0.000    0.000    0.000    0.000    0.000 
#
# Total GULP energy -156531.086673 kJ/mol
# GULP energy per Si atom -5590.395953 kJ/mol
# Density = 2.697364 g / cm^3
# Si number density = 27.035173 Si / 1000 Ang^3
#
#
#
# Elastic Constant Matrix: (Units=GPa)
#
#
# Indices 1 2 3 4 5 6 
#
# 1 143.2532 42.9332 15.4556 0.0000 -21.4261 0.0000
# 2 42.9332 155.8288 41.5992 0.0000 -22.8536 0.0000
# 3 15.4556 41.5992 113.4860 0.0000 -20.2433 0.0000
# 4 0.0000 0.0000 0.0000 27.1853 0.0000 -0.2352
# 5 -21.4261 -22.8536 -20.2433 0.0000 42.6802 0.0000
# 6 0.0000 0.0000 0.0000 -0.2352 0.0000 21.5856
#
#
#
# Elastic Compliance Matrix: (Units=1/GPa)
#
#
# Indices 1 2 3 4 5 6 
#
# 1 0.007963 -0.001770 0.000118 0.000000 0.003106 0.000000
# 2 -0.001770 0.007829 -0.002228 0.000000 0.002247 0.000000
# 3 0.000118 -0.002228 0.010280 0.000000 0.003742 0.000000
# 4 0.000000 0.000000 0.000000 0.036788 0.000000 0.000401
# 5 0.003106 0.002247 0.003742 0.000000 0.027967 0.000000
# 6 0.000000 0.000000 0.000000 0.000401 0.000000 0.046332
#
#
# Mechanical properties :
#
#
# Convention : Reuss Voigt Hill
#
# Bulk Modulus (GPa) = 54.60724 68.06045 61.33385
# Shear Modulus (GPa) = 33.10767 39.12888 36.11827
#
# Velocity S-wave (km/s) = 3.50325 3.80851 3.65906
# Velocity P-wave (km/s) = 6.05030 6.67601 6.37084
#
# Compressibility (1/GPa) = 0.01831259
#
# Stress axis : x y z
#
# Youngs Moduli (GPa) = 125.58268 127.72573 97.27869
#
# Poissons Ratio (x) = 0.22607 -0.01151
# Poissons Ratio (y) = 0.22228 0.21674
# Poissons Ratio (z) = -0.01486 0.28458
#
# Static dielectric constant tensor:
#      x y z
#    x 2.272040 0.000000 0.127690 
#    y 0.000000 2.140500 0.000000 
#    z 0.127690 0.000000 2.195430 
# 
# From -- ./inp_files/31655.got.cif
#   From: 2010.05.17/outbox.cif.g08.bks.cpg/sg11_16_cif.got.tgz:31655.got - 2010.06.03 12:22:45.
