data_PCOD9156142
_publ_section_title
;
Structure prediction by ZEFSAII (Michael W. Deem and Ramdas Pophale) SiO2 
 PCOD9156142
Probable space group: P 21/M
;
_chemical_formula_sum "Si O2"
_cell_formula_units_Z 32
_cell_length_a 11.253938
_cell_length_b 20.954952
_cell_length_c 13.965629
_cell_angle_alpha 90.000000
_cell_angle_beta 148.207912
_cell_angle_gamma 90.000000
_cell_volume 1735.118478
_symmetry_space_group_name_H-M "P 21/M"
_symmetry_group_IT_number 11
_symmetry_cell_setting 'monoclinic'
loop_
_space_group_symop_operation_xyz
x,y,z
-x,1/2+y,-z
-x,-y,-z
x,1/2-y,z
loop_
_atom_site_type_symbol
_atom_site_label
_atom_site_fract_x
_atom_site_fract_y
_atom_site_fract_z
Si Si1 0.744229 0.047286 0.011407
Si Si2 0.964752 0.892271 0.941686
Si Si3 0.249445 0.063432 0.669436
Si Si4 0.479381 0.562501 0.555766
Si Si5 0.042717 0.523393 0.368211
Si Si6 0.277890 0.674605 0.288457
Si Si7 0.336187 0.320004 0.601852
Si Si8 0.067829 0.821724 0.826921
O O1 0.908122 0.002921 0.184923
O O2 0.767074 0.118390 0.073761
O O3 0.851150 0.058567 0.978873
O O4 0.486438 0.025779 0.839888
O O5 0.720469 0.924188 0.769694
O O6 0.966194 0.835857 0.862613
O O7 0.050009 0.861306 0.098326
O O8 0.320141 0.129877 0.673544
O O9 0.116837 0.068417 0.677666
O O10 0.097425 0.031946 0.482483
O O11 0.500000 0.500000 0.500000
O O12 0.280228 0.549283 0.494195
O O13 0.404297 0.626564 0.447253
O O14 0.254388 0.750000 0.300177
O O15 0.433758 0.674283 0.300070
O O16 0.320025 0.250000 0.631765
O O17 0.134861 0.327851 0.387450
O O18 0.159942 0.750000 0.885146
#
# Coordination Sequence:
#
# PCOD9156142 Si02
#       8
#     4   4   4   4   4   4   4   4
#     4  10  19  34  57  85 113 140 185 235 287 333
#     4  10  20  32  57  85 116 144 185 232 289 340
#     4  11  21  38  59  80 111 145 190 235 280 341
#     4  12  23  39  59  85 123 154 192 238 291 351
#     4  11  24  39  54  81 113 154 189 230 282 337
#     4  11  22  36  59  89 118 151 192 239 293 346
#     4  10  17  32  58  84 110 141 181 236 287 331
#     4   9  16  29  54  85 113 137 176 231 287 331
#
# _framework density 18.442544000000002
#
# number of rings (size 3 to 8) (size 9 to 14) (size 15 to 20)
#    0.750    0.750    5.000    1.500    0.000    2.500 
#    0.000    0.625    0.000    0.000    0.000    0.000 
#    0.000    0.000    0.000    0.000    0.000    0.000 
#
# Total GULP energy -178316.827168 kJ/mol
# GULP energy per Si atom -5572.400849 kJ/mol
# Density = 1.840057 g / cm^3
# Si number density = 18.442544 Si / 1000 Ang^3
#
#
#
# Elastic Constant Matrix: (Units=GPa)
#
#
# Indices 1 2 3 4 5 6 
#
# 1 63.0616 13.1748 0.0155 0.0000 12.2165 0.0000
# 2 13.1748 50.4177 5.8617 0.0000 -13.5271 0.0000
# 3 0.0155 5.8617 69.4509 0.0000 2.0649 0.0000
# 4 0.0000 0.0000 0.0000 25.4000 0.0000 -0.8886
# 5 12.2165 -13.5271 2.0649 0.0000 14.8191 0.0000
# 6 0.0000 0.0000 0.0000 -0.8886 0.0000 14.6177
#
#
#
# Elastic Compliance Matrix: (Units=1/GPa)
#
#
# Indices 1 2 3 4 5 6 
#
# 1 0.027178 -0.017909 0.002669 0.000000 -0.039125 0.000000
# 2 -0.017909 0.038682 -0.004769 0.000000 0.050738 0.000000
# 3 0.002669 -0.004769 0.015058 0.000000 -0.008652 0.000000
# 4 0.000000 0.000000 0.000000 0.039454 0.000000 0.002398
# 5 -0.039125 0.050738 -0.008652 0.000000 0.147254 0.000000
# 6 0.000000 0.000000 0.000000 0.002398 0.000000 0.068556
#
#
# Mechanical properties :
#
#
# Convention : Reuss Voigt Hill
#
# Bulk Modulus (GPa) = 24.45132 24.55938 24.50535
# Shear Modulus (GPa) = 12.82597 21.89257 17.35927
#
# Velocity S-wave (km/s) = 2.64001 3.44912 3.07133
# Velocity P-wave (km/s) = 4.75182 5.40440 5.08858
#
# Compressibility (1/GPa) = 0.04089758
#
# Stress axis : x y z
#
# Youngs Moduli (GPa) = 36.79479 25.85191 66.41064
#
# Poissons Ratio (x) = 0.46299 -0.17723
# Poissons Ratio (y) = 0.65897 0.31673
# Poissons Ratio (z) = -0.09820 0.12330
#
# Static dielectric constant tensor:
#      x y z
#    x 1.622900 0.000000 0.015620 
#    y 0.000000 1.667970 0.000000 
#    z 0.015620 0.000000 1.711250 
# 
# From -- ./inp_files/50707.got.cif
#   From: 2010.05.17/outbox.cif.g08.bks.cpg/sg11_26_cif.got.tgz:50707.got - 2010.06.03 12:22:45.
