data_PCOD9156636
_publ_section_title
;
Structure prediction by ZEFSAII (Michael W. Deem and Ramdas Pophale) SiO2 
 PCOD9156636
Probable space group: P 21/M
;
_chemical_formula_sum "Si O2"
_cell_formula_units_Z 32
_cell_length_a 16.253226
_cell_length_b 7.697917
_cell_length_c 16.480744
_cell_angle_alpha 90.000000
_cell_angle_beta 53.950146
_cell_angle_gamma 90.000000
_cell_volume 1667.141469
_symmetry_space_group_name_H-M "P 21/M"
_symmetry_group_IT_number 11
_symmetry_cell_setting 'monoclinic'
loop_
_space_group_symop_operation_xyz
x,y,z
-x,1/2+y,-z
-x,-y,-z
x,1/2-y,z
loop_
_atom_site_type_symbol
_atom_site_label
_atom_site_fract_x
_atom_site_fract_y
_atom_site_fract_z
Si Si1 0.845806 0.454526 0.922777
Si Si2 0.437179 0.048266 0.162179
Si Si3 0.174717 0.961274 0.882659
Si Si4 0.636991 0.952877 0.966331
Si Si5 0.383745 0.961455 0.674343
Si Si6 0.724697 0.040523 0.423537
Si Si7 0.585389 0.957116 0.645647
Si Si8 0.929786 0.459716 0.219262
O O1 0.825819 0.250000 0.939236
O O2 0.752723 0.530556 0.926347
O O3 0.957897 0.483038 0.822543
O O4 0.846155 0.525548 0.014918
O O5 0.405706 0.250000 0.183156
O O6 0.385215 0.974154 0.110925
O O7 0.412062 0.971120 0.264514
O O8 0.558156 0.038738 0.074820
O O9 0.169128 0.750000 0.886829
O O10 0.288217 0.007055 0.787067
O O11 0.098543 0.020601 0.855751
O O12 0.608783 0.750000 0.981971
O O13 0.387475 0.750000 0.669224
O O14 0.353757 0.020759 0.601268
O O15 0.488758 0.026698 0.650840
O O16 0.725042 0.250000 0.420939
O O17 0.837031 0.982564 0.330735
O O18 0.684764 0.985613 0.533935
O O19 0.568876 0.750000 0.662586
O O20 0.928338 0.250000 0.219245
#
# Coordination Sequence:
#
# PCOD9156636 Si02
#       8
#     4   4   4   4   4   4   4   4
#     4  11  20  30  49  74  98 126 161 199 238 284
#     4   9  19  35  53  74  99 126 156 192 237 285
#     4   8  15  28  46  68  96 129 161 193 232 280
#     4  10  20  34  52  74 100 127 155 191 236 287
#     4   8  14  26  44  67  96 128 157 186 227 278
#     4   9  18  31  46  66  95 129 162 196 233 275
#     4  10  18  29  49  72  95 125 159 195 234 279
#     4   9  18  33  49  66  94 131 166 200 238 278
#
# _framework density 19.194533
#
# number of rings (size 3 to 8) (size 9 to 14) (size 15 to 20)
#    0.000    2.750    0.000    3.750    0.000    3.500 
#    0.000    0.625    0.000    4.500    0.000    0.000 
#    0.000    0.000    0.000    0.000    0.000    0.000 
#
# Total GULP energy -178520.779798 kJ/mol
# GULP energy per Si atom -5578.774369 kJ/mol
# Density = 1.915085 g / cm^3
# Si number density = 19.194533 Si / 1000 Ang^3
#
#
#
# Elastic Constant Matrix: (Units=GPa)
#
#
# Indices 1 2 3 4 5 6 
#
# 1 105.2378 -2.8903 63.0789 0.0000 -8.4303 0.0000
# 2 -2.8903 31.5124 -2.6089 0.0000 6.1331 0.0000
# 3 63.0789 -2.6089 135.4386 0.0000 14.5825 0.0000
# 4 0.0000 0.0000 0.0000 13.3101 0.0000 -7.1060
# 5 -8.4303 6.1331 14.5825 0.0000 15.8819 0.0000
# 6 0.0000 0.0000 0.0000 -7.1060 0.0000 11.6245
#
#
#
# Elastic Compliance Matrix: (Units=1/GPa)
#
#
# Indices 1 2 3 4 5 6 
#
# 1 0.017023 -0.003065 -0.010085 0.000000 0.019479 0.000000
# 2 -0.003065 0.035532 0.004177 0.000000 -0.019184 0.000000
# 3 -0.010085 0.004177 0.014327 0.000000 -0.020121 0.000000
# 4 0.000000 0.000000 0.000000 0.111529 0.000000 0.068177
# 5 0.019479 -0.019184 -0.020121 0.000000 0.099188 0.000000
# 6 0.000000 0.000000 0.000000 0.068177 0.000000 0.127701
#
#
# Mechanical properties :
#
#
# Convention : Reuss Voigt Hill
#
# Bulk Modulus (GPa) = 20.43403 43.03869 31.73636
# Shear Modulus (GPa) = 11.37508 22.47058 16.92283
#
# Velocity S-wave (km/s) = 2.43702 3.42523 2.97248
# Velocity P-wave (km/s) = 4.31134 6.17365 5.32455
#
# Compressibility (1/GPa) = 0.04893798
#
# Stress axis : x y z
#
# Youngs Moduli (GPa) = 58.74309 28.14370 69.79760
#
# Poissons Ratio (x) = 0.08625 0.70389
# Poissons Ratio (y) = 0.18003 -0.29156
# Poissons Ratio (z) = 0.59241 -0.11756
#
# Static dielectric constant tensor:
#      x y z
#    x 1.663170 0.000000 0.016910 
#    y 0.000000 1.717400 0.000000 
#    z 0.016910 0.000000 1.677470 
# 
# From -- ./inp_files/51653.got.cif
#   From: 2010.05.17/outbox.cif.g08.bks.cpg/sg11_26_cif.got.tgz:51653.got - 2010.06.03 12:22:45.
