data_PCOD9156973
_publ_section_title
;
Structure prediction by ZEFSAII (Michael W. Deem and Ramdas Pophale) SiO2 
 PCOD9156973
Probable space group: P 21/M
;
_chemical_formula_sum "Si O2"
_cell_formula_units_Z 28
_cell_length_a 29.374544
_cell_length_b 7.461486
_cell_length_c 10.375104
_cell_angle_alpha 90.000000
_cell_angle_beta 144.676714
_cell_angle_gamma 90.000000
_cell_volume 1314.797737
_symmetry_space_group_name_H-M "P 21/M"
_symmetry_group_IT_number 11
_symmetry_cell_setting 'monoclinic'
loop_
_space_group_symop_operation_xyz
x,y,z
-x,1/2+y,-z
-x,-y,-z
x,1/2-y,z
loop_
_atom_site_type_symbol
_atom_site_label
_atom_site_fract_x
_atom_site_fract_y
_atom_site_fract_z
Si Si1 0.596671 0.536779 0.496308
Si Si2 0.974745 0.038131 0.089712
Si Si3 0.808346 0.958272 0.628255
Si Si4 0.420896 0.464389 0.100684
Si Si5 0.637077 0.530530 0.308470
Si Si6 0.140596 0.030304 0.537488
Si Si7 0.703491 0.969393 0.972055
O O1 0.608154 0.750000 0.515625
O O2 0.509197 0.506458 0.347408
O O3 0.602993 0.466070 0.365371
O O4 0.663229 0.468509 0.747267
O O5 0.969467 0.250000 0.094787
O O6 0.049957 0.971110 0.344429
O O7 0.886080 0.968569 0.895955
O O8 0.000000 0.000000 0.000000
O O9 0.791999 0.750000 0.565878
O O10 0.728072 0.027991 0.503354
O O11 0.829989 0.031700 0.536591
O O12 0.413297 0.250000 0.079691
O O13 0.353504 0.527702 0.042506
O O14 0.407018 0.530231 0.922773
O O15 0.633515 0.750000 0.301937
O O16 0.138507 0.250000 0.530363
O O17 0.207137 0.975612 0.792215
O O18 0.703198 0.750000 0.971245
#
# Coordination Sequence:
#
# PCOD9156973 Si02
#       7
#     4   4   4   4   4   4   4
#     4  10  20  31  45  68  93 113 147 195 231 257
#     4   9  16  25  42  68  94 116 144 183 223 261
#     4   9  15  27  46  64  86 116 151 183 216 261
#     4  10  18  31  50  65  85 120 156 182 221 276
#     4   9  17  30  48  67  88 120 154 184 220 269
#     4   8  13  24  43  64  84 112 148 177 207 258
#     4   9  16  28  47  67  87 117 153 185 216 265
#
# _framework density 21.296052
#
# number of rings (size 3 to 8) (size 9 to 14) (size 15 to 20)
#    0.000    2.857    1.429    2.143    0.000    0.000 
#    0.000    1.429    0.000    5.143    0.000    0.000 
#    0.000    0.000    0.000    0.000    0.000    0.571 
#
# Total GULP energy -156145.054741 kJ/mol
# GULP energy per Si atom -5576.609098 kJ/mol
# Density = 2.124758 g / cm^3
# Si number density = 21.296052 Si / 1000 Ang^3
#
#
#
# Elastic Constant Matrix: (Units=GPa)
#
#
# Indices 1 2 3 4 5 6 
#
# 1 18.9070 -2.0272 12.0409 0.0000 1.5820 0.0000
# 2 -2.0272 57.5734 -4.6182 0.0000 -7.8036 0.0000
# 3 12.0409 -4.6182 126.2997 0.0000 16.3034 0.0000
# 4 0.0000 0.0000 0.0000 9.7547 0.0000 11.6159
# 5 1.5820 -7.8036 16.3034 0.0000 35.9852 0.0000
# 6 0.0000 0.0000 0.0000 11.6159 0.0000 2.6384
#
#
#
# Elastic Compliance Matrix: (Units=1/GPa)
#
#
# Indices 1 2 3 4 5 6 
#
# 1 0.056451 0.001597 -0.005361 0.000000 0.000294 0.000000
# 2 0.001597 0.017943 0.000011 0.000000 0.003816 0.000000
# 3 -0.005361 0.000011 0.008920 0.000000 -0.003803 0.000000
# 4 0.000000 0.000000 0.000000 -0.024163 0.000000 0.106380
# 5 0.000294 0.003816 -0.003803 0.000000 0.030327 0.000000
# 6 0.000000 0.000000 0.000000 0.106380 0.000000 -0.089335
#
#
# Mechanical properties :
#
#
# Convention : Reuss Voigt Hill
#
# Bulk Modulus (GPa) = 13.19090 23.73011 18.46051
# Shear Modulus (GPa) = 151.88749 22.83463 87.36106
#
# Velocity S-wave (km/s) = 8.45439 3.27807 6.41180
# Velocity P-wave (km/s) = 10.07521 5.04924 7.96883
#
# Compressibility (1/GPa) = 0.07580983
#
# Stress axis : x y z
#
# Youngs Moduli (GPa) = 17.71433 55.73053 112.10568
#
# Poissons Ratio (x) = -0.08903 0.60104
# Poissons Ratio (y) = -0.02830 -0.00126
# Poissons Ratio (z) = 0.09497 -0.00063
#
# Static dielectric constant tensor:
#      x y z
#    x 1.733850 0.000000 0.008690 
#    y 0.000000 1.810820 0.000000 
#    z 0.008690 0.000000 1.795400 
# 
# From -- ./inp_files/26358.got.cif
#   From: 2010.05.17/outbox.cif.g08.bks.cpg/sg11_14_cif.got.tgz:26358.got - 2010.06.03 12:22:45.
