data_PCOD9156060
_publ_section_title
;
Structure prediction by ZEFSAII (Michael W. Deem and Ramdas Pophale) SiO2 
 PCOD9156060
Probable space group: P 21/M
;
_chemical_formula_sum "Si O2"
_cell_formula_units_Z 32
_cell_length_a 9.833556
_cell_length_b 18.299207
_cell_length_c 9.851507
_cell_angle_alpha 90.000000
_cell_angle_beta 114.226271
_cell_angle_gamma 90.000000
_cell_volume 1616.620276
_symmetry_space_group_name_H-M "P 21/M"
_symmetry_group_IT_number 11
_symmetry_cell_setting 'monoclinic'
loop_
_space_group_symop_operation_xyz
x,y,z
-x,1/2+y,-z
-x,-y,-z
x,1/2-y,z
loop_
_atom_site_type_symbol
_atom_site_label
_atom_site_fract_x
_atom_site_fract_y
_atom_site_fract_z
Si Si1 0.761682 0.336316 0.997138
Si Si2 0.476356 0.665680 0.452133
Si Si3 0.545093 0.058138 0.804211
Si Si4 0.256588 0.992326 0.609685
Si Si5 0.310887 0.445319 0.336017
Si Si6 0.057279 0.169447 0.283745
Si Si7 0.867175 0.167336 0.743107
Si Si8 0.997718 0.110095 0.535967
O O1 0.713513 0.250000 0.965413
O O2 0.629455 0.395511 0.954043
O O3 0.840422 0.357431 0.885706
O O4 0.890204 0.340164 0.160360
O O5 0.527916 0.750000 0.471010
O O6 0.502894 0.622757 0.321446
O O7 0.559312 0.615589 0.595706
O O8 0.297975 0.667068 0.390580
O O9 0.395245 0.011123 0.762979
O O10 0.654796 0.001540 0.770392
O O11 0.308153 0.007309 0.474601
O O12 0.125062 0.049594 0.582425
O O13 0.165400 0.917618 0.579836
O O14 0.160631 0.396913 0.273994
O O15 0.109811 0.250000 0.259999
O O16 0.051528 0.166881 0.444857
O O17 0.920086 0.250000 0.775534
O O18 0.975519 0.128590 0.683770
#
# Coordination Sequence:
#
# PCOD9156060 Si02
#       8
#     4   4   4   4   4   4   4   4
#     4   9  19  35  53  72  98 133 172 210 247 294
#     4   9  16  27  47  74 101 129 165 208 251 293
#     4  10  17  30  50  73  98 130 170 210 249 292
#     4   9  18  29  46  71 100 128 158 200 248 296
#     4  10  18  29  49  75 103 128 162 212 256 293
#     4  10  21  35  50  72 102 134 166 204 252 302
#     4   9  16  28  49  72  92 121 161 200 238 285
#     4  10  18  31  49  72 100 129 158 197 249 300
#
# _framework density 19.794383
#
# number of rings (size 3 to 8) (size 9 to 14) (size 15 to 20)
#    0.000    2.500    0.000    5.625    0.000    0.500 
#    0.000    2.500    0.000    1.500    0.000    7.000 
#    0.000    0.000    0.000    0.000    0.000    0.000 
#
# Total GULP energy -178146.906364 kJ/mol
# GULP energy per Si atom -5567.090824 kJ/mol
# Density = 1.974933 g / cm^3
# Si number density = 19.794383 Si / 1000 Ang^3
#
#
#
# Elastic Constant Matrix: (Units=GPa)
#
#
# Indices 1 2 3 4 5 6 
#
# 1 48.6778 6.3513 -1.2397 0.0000 1.3838 0.0000
# 2 6.3513 86.4156 6.4210 0.0000 1.6362 0.0000
# 3 -1.2397 6.4210 29.6341 0.0000 5.7735 0.0000
# 4 0.0000 0.0000 0.0000 22.0423 0.0000 1.3131
# 5 1.3838 1.6362 5.7735 0.0000 17.5527 0.0000
# 6 0.0000 0.0000 0.0000 1.3131 0.0000 5.0336
#
#
#
# Elastic Compliance Matrix: (Units=1/GPa)
#
#
# Indices 1 2 3 4 5 6 
#
# 1 0.020853 -0.001614 0.001617 0.000000 -0.002025 0.000000
# 2 -0.001614 0.011888 -0.002620 0.000000 -0.000119 0.000000
# 3 0.001617 -0.002620 0.036710 0.000000 -0.011958 0.000000
# 4 0.000000 0.000000 0.000000 0.046083 0.000000 -0.012021
# 5 -0.002025 -0.000119 -0.011958 0.000000 0.061075 0.000000
# 6 0.000000 0.000000 0.000000 -0.012021 0.000000 0.201799
#
#
# Mechanical properties :
#
#
# Convention : Reuss Voigt Hill
#
# Bulk Modulus (GPa) = 15.57278 20.86586 18.21932
# Shear Modulus (GPa) = 12.34421 19.13873 15.74147
#
# Velocity S-wave (km/s) = 2.49995 3.11284 2.82308
# Velocity P-wave (km/s) = 4.02708 4.84602 4.45540
#
# Compressibility (1/GPa) = 0.06421462
#
# Stress axis : x y z
#
# Youngs Moduli (GPa) = 47.95556 84.12148 27.24060
#
# Poissons Ratio (x) = 0.13581 -0.04404
# Poissons Ratio (y) = 0.07742 0.07137
# Poissons Ratio (z) = -0.07753 0.22041
#
# Static dielectric constant tensor:
#      x y z
#    x 1.739630 0.000000 0.006770 
#    y 0.000000 1.745130 0.000000 
#    z 0.006770 0.000000 1.721560 
# 
# From -- ./inp_files/36008.got.cif
#   From: 2010.05.17/outbox.cif.g08.bks.cpg/sg11_19_cif.got.tgz:36008.got - 2010.06.03 12:22:45.
