data_PCOD9156270
_publ_section_title
;
Structure prediction by ZEFSAII (Michael W. Deem and Ramdas Pophale) SiO2 
 PCOD9156270
Probable space group: P 21/M
;
_chemical_formula_sum "Si O2"
_cell_formula_units_Z 32
_cell_length_a 12.308511
_cell_length_b 9.022259
_cell_length_c 23.333622
_cell_angle_alpha 90.000000
_cell_angle_beta 128.621884
_cell_angle_gamma 90.000000
_cell_volume 2024.467714
_symmetry_space_group_name_H-M "P 21/M"
_symmetry_group_IT_number 11
_symmetry_cell_setting 'monoclinic'
loop_
_space_group_symop_operation_xyz
x,y,z
-x,1/2+y,-z
-x,-y,-z
x,1/2-y,z
loop_
_atom_site_type_symbol
_atom_site_label
_atom_site_fract_x
_atom_site_fract_y
_atom_site_fract_z
Si Si1 0.414838 0.076622 0.751434
Si Si2 0.426488 0.573592 0.530070
Si Si3 0.663806 0.577849 0.891767
Si Si4 0.840718 0.074727 0.384850
Si Si5 0.580273 0.078403 0.685096
Si Si6 0.175540 0.421027 0.178427
Si Si7 0.837303 0.574623 0.508562
Si Si8 0.916571 0.072069 0.025532
O O1 0.395146 0.250000 0.756993
O O2 0.492441 0.065111 0.715114
O O3 0.518495 0.002302 0.831168
O O4 0.269518 0.992964 0.695389
O O5 0.500000 0.500000 0.500000
O O6 0.423790 0.750000 0.524368
O O7 0.510864 0.523036 0.614318
O O8 0.271950 0.508550 0.487570
O O9 0.645572 0.750000 0.900333
O O10 0.746580 0.572823 0.857915
O O11 0.763236 0.495907 0.970007
O O12 0.815196 0.250000 0.384437
O O13 0.001919 0.054958 0.420876
O O14 0.823049 0.992057 0.439914
O O15 0.576806 0.250000 0.666064
O O16 0.735889 0.025399 0.751297
O O17 0.183497 0.250000 0.200340
O O18 0.015159 0.460247 0.112551
O O19 0.806218 0.750000 0.496458
O O20 0.912216 0.250000 0.017207
O O21 0.000000 0.000000 0.000000
#
# Coordination Sequence:
#
# PCOD9156270 Si02
#       8
#     4   4   4   4   4   4   4   4
#     4  10  18  27  42  62  88 117 148 186 222 264
#     4  12  24  37  53  68  89 118 150 190 234 278
#     4   9  16  24  35  52  78 109 145 180 216 261
#     4  10  19  30  48  69  92 119 147 186 228 268
#     4  10  19  30  44  63  85 110 146 187 224 268
#     4   8  15  25  37  53  75 106 141 179 218 259
#     4  10  20  34  49  69  92 115 149 186 226 274
#     4   9  15  23  34  50  74 104 141 178 215 257
#
# _framework density 15.806623999999999
#
# number of rings (size 3 to 8) (size 9 to 14) (size 15 to 20)
#    0.000    2.250    1.250    4.125    0.000    6.000 
#    0.000    0.000    0.000    0.000    0.000    0.000 
#    0.000    0.000    0.000    1.125    0.000   15.125 
#
# Total GULP energy -178363.151177 kJ/mol
# GULP energy per Si atom -5573.848474 kJ/mol
# Density = 1.577065 g / cm^3
# Si number density = 15.806624 Si / 1000 Ang^3
#
#
#
# Elastic Constant Matrix: (Units=GPa)
#
#
# Indices 1 2 3 4 5 6 
#
# 1 52.3007 45.6663 27.2345 0.0000 14.9249 0.0000
# 2 45.6663 129.9029 59.6919 0.0000 25.2828 0.0000
# 3 27.2345 59.6919 86.8845 0.0000 41.6150 0.0000
# 4 0.0000 0.0000 0.0000 30.8176 0.0000 7.4375
# 5 14.9249 25.2828 41.6150 0.0000 24.2327 0.0000
# 6 0.0000 0.0000 0.0000 7.4375 0.0000 17.4355
#
#
#
# Elastic Compliance Matrix: (Units=1/GPa)
#
#
# Indices 1 2 3 4 5 6 
#
# 1 0.029762 -0.009789 0.007236 0.000000 -0.020544 0.000000
# 2 -0.009789 0.014801 -0.014603 0.000000 0.015665 0.000000
# 3 0.007236 -0.014603 0.079516 0.000000 -0.125775 0.000000
# 4 0.000000 0.000000 0.000000 0.036173 0.000000 -0.015430
# 5 -0.020544 0.015665 -0.125775 0.000000 0.253569 0.000000
# 6 0.000000 0.000000 0.000000 -0.015430 0.000000 0.063937
#
#
# Mechanical properties :
#
#
# Convention : Reuss Voigt Hill
#
# Bulk Modulus (GPa) = 11.14000 59.36371 35.25185
# Shear Modulus (GPa) = 9.22521 23.59685 16.41103
#
# Velocity S-wave (km/s) = 2.41846 3.86793 3.22567
# Velocity P-wave (km/s) = 3.85507 7.58852 6.01860
#
# Compressibility (1/GPa) = 0.08976663
#
# Stress axis : x y z
#
# Youngs Moduli (GPa) = 33.59971 67.56352 12.57604
#
# Poissons Ratio (x) = 0.66141 -0.09100
# Poissons Ratio (y) = 0.32892 0.18365
# Poissons Ratio (z) = -0.24313 0.98664
#
# Static dielectric constant tensor:
#      x y z
#    x 1.510170 0.000000 0.032240 
#    y 0.000000 1.526950 0.000000 
#    z 0.032240 0.000000 1.548130 
# 
# From -- ./inp_files/42498.got.cif
#   From: 2010.05.17/outbox.cif.g08.bks.cpg/sg11_22_cif.got.tgz:42498.got - 2010.06.03 12:22:45.
