data_PCOD9156596
_publ_section_title
;
Structure prediction by ZEFSAII (Michael W. Deem and Ramdas Pophale) SiO2 
 PCOD9156596
Probable space group: P 21/M
;
_chemical_formula_sum "Si O2"
_cell_formula_units_Z 32
_cell_length_a 12.110150
_cell_length_b 8.664468
_cell_length_c 22.162954
_cell_angle_alpha 90.000000
_cell_angle_beta 128.658998
_cell_angle_gamma 90.000000
_cell_volume 1815.942358
_symmetry_space_group_name_H-M "P 21/M"
_symmetry_group_IT_number 11
_symmetry_cell_setting 'monoclinic'
loop_
_space_group_symop_operation_xyz
x,y,z
-x,1/2+y,-z
-x,-y,-z
x,1/2-y,z
loop_
_atom_site_type_symbol
_atom_site_label
_atom_site_fract_x
_atom_site_fract_y
_atom_site_fract_z
Si Si1 0.534555 0.928092 0.828821
Si Si2 0.148664 0.563896 0.281574
Si Si3 0.438891 0.433493 0.917362
Si Si4 0.378583 0.565305 0.262879
Si Si5 0.791790 0.071834 0.329840
Si Si6 0.861633 0.064441 0.226009
Si Si7 0.344075 0.563762 0.460326
Si Si8 0.323564 0.562635 0.588626
O O1 0.574413 0.750000 0.849987
O O2 0.371832 0.930085 0.748869
O O3 0.531828 0.012890 0.891698
O O4 0.623787 0.006955 0.806489
O O5 0.133637 0.750000 0.277287
O O6 0.241896 0.521719 0.255240
O O7 0.238858 0.516504 0.371266
O O8 0.996640 0.487274 0.234611
O O9 0.433955 0.250000 0.918126
O O10 0.282152 0.498751 0.851081
O O11 0.500000 0.500000 0.000000
O O12 0.393033 0.750000 0.269157
O O13 0.518508 0.493912 0.341546
O O14 0.837383 0.250000 0.351673
O O15 0.873770 0.004863 0.300079
O O16 0.780740 0.004384 0.393588
O O17 0.850201 0.250000 0.224544
O O18 0.500000 0.500000 0.500000
O O19 0.352405 0.750000 0.462633
O O20 0.293051 0.515541 0.509644
O O21 0.323348 0.750000 0.591740
#
# Coordination Sequence:
#
# PCOD9156596 Si02
#       8
#     4   4   4   4   4   4   4   4
#     4   9  17  31  51  78 108 135 172 215 254 304
#     4  10  21  34  47  70 106 143 179 224 273 321
#     4  11  21  36  60  88 115 140 168 206 254 304
#     4  10  18  29  47  72 103 137 176 223 269 311
#     4   7  13  27  46  68  93 123 164 214 258 302
#     4  10  20  35  54  76 104 139 180 219 258 313
#     4  10  19  31  47  69  99 135 177 228 276 320
#     4   9  16  28  48  69  93 129 173 224 277 319
#
# _framework density 17.621704999999999
#
# number of rings (size 3 to 8) (size 9 to 14) (size 15 to 20)
#    0.000    2.500    1.250    3.750    0.000    1.500 
#    0.000    1.250    0.000    0.750    0.000    0.000 
#    0.000    0.000    0.000    0.000    0.000    0.000 
#
# Total GULP energy -178361.200828 kJ/mol
# GULP energy per Si atom -5573.787526 kJ/mol
# Density = 1.758160 g / cm^3
# Si number density = 17.621705 Si / 1000 Ang^3
#
#
#
# Elastic Constant Matrix: (Units=GPa)
#
#
# Indices 1 2 3 4 5 6 
#
# 1 111.8632 31.9402 52.9320 0.0000 -26.2010 0.0000
# 2 31.9402 48.1741 28.4907 0.0000 -11.7616 0.0000
# 3 52.9320 28.4907 89.1365 0.0000 -28.5515 0.0000
# 4 0.0000 0.0000 0.0000 20.0011 0.0000 -3.3623
# 5 -26.2010 -11.7616 -28.5515 0.0000 26.8413 0.0000
# 6 0.0000 0.0000 0.0000 -3.3623 0.0000 25.4883
#
#
#
# Elastic Compliance Matrix: (Units=1/GPa)
#
#
# Indices 1 2 3 4 5 6 
#
# 1 0.014127 -0.004984 -0.004669 0.000000 0.006639 0.000000
# 2 -0.004984 0.027615 -0.005384 0.000000 0.001509 0.000000
# 3 -0.004669 -0.005384 0.020472 0.000000 0.014859 0.000000
# 4 0.000000 0.000000 0.000000 0.051131 0.000000 0.006745
# 5 0.006639 0.001509 0.014859 0.000000 0.060204 0.000000
# 6 0.000000 0.000000 0.000000 0.006745 0.000000 0.040124
#
#
# Mechanical properties :
#
#
# Convention : Reuss Voigt Hill
#
# Bulk Modulus (GPa) = 31.11406 52.87773 41.99590
# Shear Modulus (GPa) = 19.64946 23.52020 21.58483
#
# Velocity S-wave (km/s) = 3.34289 3.65736 3.50365
# Velocity P-wave (km/s) = 5.70919 6.92151 6.34438
#
# Compressibility (1/GPa) = 0.03213981
#
# Stress axis : x y z
#
# Youngs Moduli (GPa) = 70.78565 36.21252 48.84734
#
# Poissons Ratio (x) = 0.18048 0.22809
# Poissons Ratio (y) = 0.35280 0.26297
# Poissons Ratio (z) = 0.33053 0.19495
#
# Static dielectric constant tensor:
#      x y z
#    x 1.616990 0.000000 -0.038040 
#    y 0.000000 1.669710 0.000000 
#    z -0.038040 0.000000 1.595870 
# 
# From -- ./inp_files/42565.got.cif
#   From: 2010.05.17/outbox.cif.g08.bks.cpg/sg11_22_cif.got.tgz:42565.got - 2010.06.03 12:22:45.
