data_PCOD9156548
_publ_section_title
;
Structure prediction by ZEFSAII (Michael W. Deem and Ramdas Pophale) SiO2 
 PCOD9156548
Probable space group: P 21/M
;
_chemical_formula_sum "Si O2"
_cell_formula_units_Z 24
_cell_length_a 5.623753
_cell_length_b 14.678596
_cell_length_c 14.065946
_cell_angle_alpha 90.000000
_cell_angle_beta 52.746680
_cell_angle_gamma 90.000000
_cell_volume 924.218642
_symmetry_space_group_name_H-M "P 21/M"
_symmetry_group_IT_number 11
_symmetry_cell_setting 'monoclinic'
loop_
_space_group_symop_operation_xyz
x,y,z
-x,1/2+y,-z
-x,-y,-z
x,1/2-y,z
loop_
_atom_site_type_symbol
_atom_site_label
_atom_site_fract_x
_atom_site_fract_y
_atom_site_fract_z
Si Si1 0.102319 0.911346 0.917588
Si Si2 0.351281 0.359807 0.106698
Si Si3 0.523344 0.849712 0.125128
Si Si4 0.993155 0.147322 0.455589
Si Si5 0.641133 0.646705 0.297428
Si Si6 0.838482 0.533342 0.405140
O O1 0.443593 0.890649 0.856172
O O2 0.972969 0.901977 0.841704
O O3 0.882883 0.840536 0.023170
O O4 0.000000 0.000000 0.000000
O O5 0.324436 0.250000 0.115581
O O6 0.543510 0.386916 0.963988
O O7 0.383984 0.750000 0.169557
O O8 0.512120 0.895910 0.230740
O O9 0.096902 0.250000 0.403416
O O10 0.641570 0.155157 0.564598
O O11 0.122880 0.110596 0.523613
O O12 0.023256 0.059113 0.380410
O O13 0.742912 0.750000 0.253807
O O14 0.875248 0.583823 0.295470
O O15 0.500000 0.500000 0.500000
#
# Coordination Sequence:
#
# PCOD9156548 Si02
#       6
#     4   4   4   4   4   4
#     4  10  18  29  46  69  98 125 158 197 231 278
#     4   9  17  30  45  65  94 125 156 188 233 287
#     4   8  17  28  43  67  97 127 152 182 235 295
#     4   9  17  28  43  65  92 124 158 195 235 279
#     4   9  16  28  44  68  96 124 150 183 236 287
#     4   9  17  28  43  64  94 121 156 194 232 280
#
# _framework density 25.967884000000002
#
# number of rings (size 3 to 8) (size 9 to 14) (size 15 to 20)
#    1.000    2.000    0.000    2.000    0.000    2.000 
#    0.000    3.333    0.000    0.000    0.000    3.500 
#    0.000    0.000    0.000    0.000    0.000    0.000 
#
# Total GULP energy -133643.810460 kJ/mol
# GULP energy per Si atom -5568.492103 kJ/mol
# Density = 2.590878 g / cm^3
# Si number density = 25.967884 Si / 1000 Ang^3
#
#
#
# Elastic Constant Matrix: (Units=GPa)
#
#
# Indices 1 2 3 4 5 6 
#
# 1 165.3266 42.6090 8.6713 0.0000 17.0518 0.0000
# 2 42.6090 174.7470 8.0390 0.0000 8.7607 0.0000
# 3 8.6713 8.0390 55.3958 0.0000 -0.9154 0.0000
# 4 0.0000 0.0000 0.0000 26.1365 0.0000 6.1673
# 5 17.0518 8.7607 -0.9154 0.0000 16.5954 0.0000
# 6 0.0000 0.0000 0.0000 6.1673 0.0000 29.6087
#
#
#
# Elastic Compliance Matrix: (Units=1/GPa)
#
#
# Indices 1 2 3 4 5 6 
#
# 1 0.007142 -0.001359 -0.001031 0.000000 -0.006678 0.000000
# 2 -0.001359 0.006182 -0.000716 0.000000 -0.001907 0.000000
# 3 -0.001031 -0.000716 0.018358 0.000000 0.002450 0.000000
# 4 0.000000 0.000000 0.000000 0.040238 0.000000 -0.008381
# 5 -0.006678 -0.001907 0.002450 0.000000 0.068261 0.000000
# 6 0.000000 0.000000 0.000000 -0.008381 0.000000 0.035520
#
#
# Mechanical properties :
#
#
# Convention : Reuss Voigt Hill
#
# Bulk Modulus (GPa) = 39.26251 57.12311 48.19281
# Shear Modulus (GPa) = 26.26014 36.87813 31.56913
#
# Velocity S-wave (km/s) = 3.18347 3.77257 3.49047
# Velocity P-wave (km/s) = 5.35398 6.40482 5.90283
#
# Compressibility (1/GPa) = 0.02546959
#
# Stress axis : x y z
#
# Youngs Moduli (GPa) = 140.02216 161.74692 54.47314
#
# Poissons Ratio (x) = 0.21984 0.05616
# Poissons Ratio (y) = 0.19032 0.03900
# Poissons Ratio (z) = 0.14437 0.11580
#
# Static dielectric constant tensor:
#      x y z
#    x 2.143700 0.000000 0.041040 
#    y 0.000000 2.148490 0.000000 
#    z 0.041040 0.000000 2.069980 
# 
# From -- ./inp_files/56865.got.cif
#   From: 2010.05.17/outbox.cif.g08.bks.cpg/sg11_29_cif.got.tgz:56865.got - 2010.06.03 12:22:45.
