data_PCOD9156434
_publ_section_title
;
Structure prediction by ZEFSAII (Michael W. Deem and Ramdas Pophale) SiO2 
 PCOD9156434
Probable space group: P 21/M
;
_chemical_formula_sum "Si O2"
_cell_formula_units_Z 32
_cell_length_a 14.504237
_cell_length_b 8.672275
_cell_length_c 15.278909
_cell_angle_alpha 90.000000
_cell_angle_beta 88.117350
_cell_angle_gamma 90.000000
_cell_volume 1920.816075
_symmetry_space_group_name_H-M "P 21/M"
_symmetry_group_IT_number 11
_symmetry_cell_setting 'monoclinic'
loop_
_space_group_symop_operation_xyz
x,y,z
-x,1/2+y,-z
-x,-y,-z
x,1/2-y,z
loop_
_atom_site_type_symbol
_atom_site_label
_atom_site_fract_x
_atom_site_fract_y
_atom_site_fract_z
Si Si1 0.389983 0.066104 0.259528
Si Si2 0.519192 0.065393 0.094500
Si Si3 0.328117 0.934491 0.780063
Si Si4 0.696359 0.067908 0.471816
Si Si5 0.782714 0.066867 0.659650
Si Si6 0.459137 0.432344 0.624160
Si Si7 0.985419 0.063254 0.598862
Si Si8 0.173951 0.066397 0.682211
O O1 0.397422 0.250000 0.264871
O O2 0.443766 0.014959 0.169840
O O3 0.284119 0.014840 0.269220
O O4 0.445603 0.995456 0.340129
O O5 0.513538 0.250000 0.090100
O O6 0.620588 0.027561 0.130794
O O7 0.500000 0.000000 0.000000
O O8 0.337177 0.750000 0.766004
O O9 0.388949 0.023278 0.705630
O O10 0.223955 0.985286 0.762826
O O11 0.700744 0.250000 0.452585
O O12 0.734504 0.042680 0.567057
O O13 0.592737 0.011365 0.455724
O O14 0.764446 0.979622 0.403817
O O15 0.783312 0.250000 0.677498
O O16 0.887838 0.013582 0.643254
O O17 0.464767 0.250000 0.610730
O O18 0.983806 0.250000 0.592082
O O19 0.070694 0.019349 0.658693
O O20 0.000000 0.000000 0.500000
O O21 0.176804 0.250000 0.694458
#
# Coordination Sequence:
#
# PCOD9156434 Si02
#       8
#     4   4   4   4   4   4   4   4
#     4  10  21  36  50  69  97 126 158 196 239 291
#     4   9  19  34  54  79 102 125 152 187 235 294
#     4   9  17  30  47  71 102 129 157 194 238 288
#     4  10  18  29  45  64  91 127 166 206 245 282
#     4  10  21  34  47  66  93 129 169 207 247 287
#     4  10  18  29  46  66  91 125 164 200 238 283
#     4  10  20  33  48  69  96 128 173 218 252 287
#     4  10  18  28  46  70  96 128 168 210 248 284
#
# _framework density 16.659586999999998
#
# number of rings (size 3 to 8) (size 9 to 14) (size 15 to 20)
#    0.000    2.250    1.250    4.875    0.000    5.500 
#    0.000    0.000    0.000    0.000    0.000    0.875 
#    0.000    0.000    0.000    0.000    0.000    0.000 
#
# Total GULP energy -178399.206852 kJ/mol
# GULP energy per Si atom -5574.975214 kJ/mol
# Density = 1.662167 g / cm^3
# Si number density = 16.659587 Si / 1000 Ang^3
#
#
#
# Elastic Constant Matrix: (Units=GPa)
#
#
# Indices 1 2 3 4 5 6 
#
# 1 149.4895 28.1440 49.0265 0.0000 6.9196 0.0000
# 2 28.1440 33.6017 23.6948 0.0000 6.2600 0.0000
# 3 49.0265 23.6948 67.3021 0.0000 13.8767 0.0000
# 4 0.0000 0.0000 0.0000 21.1260 0.0000 1.7715
# 5 6.9196 6.2600 13.8767 0.0000 20.1294 0.0000
# 6 0.0000 0.0000 0.0000 1.7715 0.0000 22.3681
#
#
#
# Elastic Compliance Matrix: (Units=1/GPa)
#
#
# Indices 1 2 3 4 5 6 
#
# 1 0.009237 -0.004091 -0.005708 0.000000 0.002032 0.000000
# 2 -0.004091 0.041573 -0.010819 0.000000 -0.004064 0.000000
# 3 -0.005708 -0.010819 0.025327 0.000000 -0.012133 0.000000
# 4 0.000000 0.000000 0.000000 0.047651 0.000000 -0.003774
# 5 0.002032 -0.004064 -0.012133 0.000000 0.058608 0.000000
# 6 0.000000 0.000000 0.000000 -0.003774 0.000000 0.045005
#
#
# Mechanical properties :
#
#
# Convention : Reuss Voigt Hill
#
# Bulk Modulus (GPa) = 28.65076 50.23600 39.44338
# Shear Modulus (GPa) = 17.83992 22.69324 20.26658
#
# Velocity S-wave (km/s) = 3.27593 3.69477 3.49164
# Velocity P-wave (km/s) = 5.61641 6.95856 6.32320
#
# Compressibility (1/GPa) = 0.03490309
#
# Stress axis : x y z
#
# Youngs Moduli (GPa) = 108.25509 24.05426 39.48398
#
# Poissons Ratio (x) = 0.09840 0.22536
# Poissons Ratio (y) = 0.44283 0.42716
# Poissons Ratio (z) = 0.61789 0.26023
#
# Static dielectric constant tensor:
#      x y z
#    x 1.619770 0.000000 -0.002720 
#    y 0.000000 1.560840 0.000000 
#    z -0.002720 0.000000 1.558330 
# 
# From -- ./inp_files/51190.got.cif
#   From: 2010.05.17/outbox.cif.g08.bks.cpg/sg11_26_cif.got.tgz:51190.got - 2010.06.03 12:22:45.
