data_PCOD9156007
_publ_section_title
;
Structure prediction by ZEFSAII (Michael W. Deem and Ramdas Pophale) SiO2 
 PCOD9156007
Probable space group: P 21/M
;
_chemical_formula_sum "Si O2"
_cell_formula_units_Z 32
_cell_length_a 12.964520
_cell_length_b 8.526873
_cell_length_c 24.458732
_cell_angle_alpha 90.000000
_cell_angle_beta 46.466200
_cell_angle_gamma 90.000000
_cell_volume 1960.194264
_symmetry_space_group_name_H-M "P 21/M"
_symmetry_group_IT_number 11
_symmetry_cell_setting 'monoclinic'
loop_
_space_group_symop_operation_xyz
x,y,z
-x,1/2+y,-z
-x,-y,-z
x,1/2-y,z
loop_
_atom_site_type_symbol
_atom_site_label
_atom_site_fract_x
_atom_site_fract_y
_atom_site_fract_z
Si Si1 0.562337 0.438165 0.419978
Si Si2 0.391221 0.936629 0.993422
Si Si3 0.389052 0.938410 0.163879
Si Si4 0.668103 0.439734 0.579586
Si Si5 0.951459 0.439368 0.410606
Si Si6 0.828697 0.561692 0.848847
Si Si7 0.114522 0.559114 0.689682
Si Si8 0.738398 0.060872 0.674616
O O1 0.500000 0.500000 0.500000
O O2 0.561877 0.250000 0.422119
O O3 0.462294 0.495216 0.407672
O O4 0.726039 0.492353 0.354664
O O5 0.395827 0.750000 0.991189
O O6 0.458091 0.002891 0.913365
O O7 0.500000 0.000000 0.000000
O O8 0.239417 0.994589 0.070814
O O9 0.385024 0.750000 0.161832
O O10 0.348189 0.989251 0.239899
O O11 0.270369 0.005501 0.165503
O O12 0.661788 0.250000 0.580131
O O13 0.815973 0.486916 0.496284
O O14 0.673587 0.491546 0.640570
O O15 0.958654 0.250000 0.408473
O O16 0.925500 0.490255 0.357411
O O17 0.099610 0.504523 0.378471
O O18 0.821941 0.750000 0.853279
O O19 0.988908 0.510446 0.776370
O O20 0.114869 0.750000 0.689261
O O21 0.739442 0.250000 0.673955
#
# Coordination Sequence:
#
# PCOD9156007 Si02
#       8
#     4   4   4   4   4   4   4   4
#     4  11  21  36  54  73  96 127 168 209 249 292
#     4  10  18  28  43  66  95 126 157 192 233 284
#     4  10  18  29  44  67  97 129 160 192 234 286
#     4  10  21  37  51  69  99 133 167 208 250 285
#     4  10  18  32  51  69  98 133 165 201 244 293
#     4  10  17  29  47  67  94 127 158 193 239 288
#     4   9  18  31  49  72  97 128 161 200 246 288
#     4  10  21  33  48  72 102 131 166 207 242 286
#
# _framework density 16.324912999999999
#
# number of rings (size 3 to 8) (size 9 to 14) (size 15 to 20)
#    0.000    2.000    2.500    4.125    0.000    1.500 
#    0.000    2.500    0.000    0.000    0.000    0.875 
#    0.000    0.000    0.000    0.000    0.000    0.000 
#
# Total GULP energy -178499.100742 kJ/mol
# GULP energy per Si atom -5578.096898 kJ/mol
# Density = 1.628776 g / cm^3
# Si number density = 16.324913 Si / 1000 Ang^3
#
#
#
# Elastic Constant Matrix: (Units=GPa)
#
#
# Indices 1 2 3 4 5 6 
#
# 1 112.6490 17.8369 71.4494 0.0000 -2.1319 0.0000
# 2 17.8369 36.8636 27.9111 0.0000 -2.0983 0.0000
# 3 71.4494 27.9111 145.0184 0.0000 -19.0422 0.0000
# 4 0.0000 0.0000 0.0000 17.9540 0.0000 -1.9482
# 5 -2.1319 -2.0983 -19.0422 0.0000 14.8182 0.0000
# 6 0.0000 0.0000 0.0000 -1.9482 0.0000 21.4027
#
#
#
# Elastic Compliance Matrix: (Units=1/GPa)
#
#
# Indices 1 2 3 4 5 6 
#
# 1 0.013725 -0.001387 -0.007533 0.000000 -0.007902 0.000000
# 2 -0.001387 0.032097 -0.005923 0.000000 -0.003266 0.000000
# 3 -0.007533 -0.005923 0.013828 0.000000 0.015847 0.000000
# 4 0.000000 0.000000 0.000000 0.056253 0.000000 0.005121
# 5 -0.007902 -0.003266 0.015847 0.000000 0.086250 0.000000
# 6 0.000000 0.000000 0.000000 0.005121 0.000000 0.047189
#
#
# Mechanical properties :
#
#
# Convention : Reuss Voigt Hill
#
# Bulk Modulus (GPa) = 33.37366 58.76956 46.07161
# Shear Modulus (GPa) = 17.30007 22.65721 19.97864
#
# Velocity S-wave (km/s) = 3.25889 3.72948 3.50210
# Velocity P-wave (km/s) = 5.88628 7.39077 6.68101
#
# Compressibility (1/GPa) = 0.02996375
#
# Stress axis : x y z
#
# Youngs Moduli (GPa) = 72.85939 31.15565 72.31795
#
# Poissons Ratio (x) = 0.04323 0.54476
# Poissons Ratio (y) = 0.10109 0.42833
# Poissons Ratio (z) = 0.54883 0.18453
#
# Static dielectric constant tensor:
#      x y z
#    x 1.513800 0.000000 -0.002520 
#    y 0.000000 1.556910 0.000000 
#    z -0.002520 0.000000 1.583640 
# 
# From -- ./inp_files/68297.got.cif
#   From: 2010.05.17/outbox.cif.g08.bks.cpg/sg11_35_cif.got.tgz:68297.got - 2010.06.03 12:22:45.
