data_PCOD9156991
_publ_section_title
;
Structure prediction by ZEFSAII (Michael W. Deem and Ramdas Pophale) SiO2 
 PCOD9156991
Probable space group: P 21/M
;
_chemical_formula_sum "Si O2"
_cell_formula_units_Z 24
_cell_length_a 18.842993
_cell_length_b 8.562063
_cell_length_c 24.920395
_cell_angle_alpha 90.000000
_cell_angle_beta 19.249565
_cell_angle_gamma 90.000000
_cell_volume 1325.502070
_symmetry_space_group_name_H-M "P 21/M"
_symmetry_group_IT_number 11
_symmetry_cell_setting 'monoclinic'
loop_
_space_group_symop_operation_xyz
x,y,z
-x,1/2+y,-z
-x,-y,-z
x,1/2-y,z
loop_
_atom_site_type_symbol
_atom_site_label
_atom_site_fract_x
_atom_site_fract_y
_atom_site_fract_z
Si Si1 0.321939 0.435844 0.508122
Si Si2 0.849251 0.437846 0.655891
Si Si3 0.999845 0.437961 0.171105
Si Si4 0.810733 0.437332 0.512335
Si Si5 0.512206 0.560461 0.161149
Si Si6 0.661699 0.936254 0.338497
O O1 0.324987 0.250000 0.510484
O O2 0.147406 0.503380 0.674697
O O3 0.255574 0.489448 0.496533
O O4 0.554517 0.501677 0.360564
O O5 0.860655 0.250000 0.649939
O O6 0.610923 0.484893 0.805893
O O7 0.000000 0.500000 0.500000
O O8 0.955724 0.507879 0.633055
O O9 0.993473 0.250000 0.174634
O O10 0.892133 0.500962 0.193256
O O11 0.244006 0.492809 0.005736
O O12 0.808815 0.250000 0.509935
O O13 0.637201 0.485877 0.681828
O O14 0.516182 0.750000 0.158499
O O15 0.659900 0.750000 0.340321
O O16 0.500000 0.000000 0.500000
#
# Coordination Sequence:
#
# PCOD9156991 Si02
#       6
#     4   4   4   4   4   4
#     4  11  21  34  51  75 101 131 167 206 246 295
#     4   9  16  30  50  74 100 132 168 204 242 293
#     4  10  18  33  54  76 100 131 164 203 248 294
#     4  10  19  34  53  76 101 131 167 208 250 294
#     4   8  17  32  53  76 101 129 164 204 247 293
#     4  10  18  31  50  73  98 130 166 203 242 293
#
# _framework density 18.106345999999998
#
# number of rings (size 3 to 8) (size 9 to 14) (size 15 to 20)
#    0.000    2.333    0.000    7.500    0.000    0.000 
#    0.000   11.667    0.000    0.000    0.000    0.000 
#    0.000    0.000    0.000    0.000    0.000    0.000 
#
# Total GULP energy -133776.701115 kJ/mol
# GULP energy per Si atom -5574.029213 kJ/mol
# Density = 1.806514 g / cm^3
# Si number density = 18.106346 Si / 1000 Ang^3
#
#
#
# Elastic Constant Matrix: (Units=GPa)
#
#
# Indices 1 2 3 4 5 6 
#
# 1 169.1015 46.0447 58.2336 0.0000 -44.8509 0.0000
# 2 46.0447 106.2166 25.2380 0.0000 -16.7760 0.0000
# 3 58.2336 25.2380 82.1546 0.0000 -41.6366 0.0000
# 4 0.0000 0.0000 0.0000 17.1012 0.0000 -7.1681
# 5 -44.8509 -16.7760 -41.6366 0.0000 36.7029 0.0000
# 6 0.0000 0.0000 0.0000 -7.1681 0.0000 28.2879
#
#
#
# Elastic Compliance Matrix: (Units=1/GPa)
#
#
# Indices 1 2 3 4 5 6 
#
# 1 0.009371 -0.002331 -0.001559 0.000000 0.008617 0.000000
# 2 -0.002331 0.010842 -0.001436 0.000000 0.000478 0.000000
# 3 -0.001559 -0.001436 0.029220 0.000000 0.030586 0.000000
# 4 0.000000 0.000000 0.000000 0.065425 0.000000 0.016578
# 5 0.008617 0.000478 0.030586 0.000000 0.072691 0.000000
# 6 0.000000 0.000000 0.000000 0.016578 0.000000 0.039552
#
#
# Mechanical properties :
#
#
# Convention : Reuss Voigt Hill
#
# Bulk Modulus (GPa) = 25.78645 68.50061 47.14353
# Shear Modulus (GPa) = 19.94587 31.61548 25.78068
#
# Velocity S-wave (km/s) = 3.32263 4.18317 3.77748
# Velocity P-wave (km/s) = 5.38446 7.82601 6.71710
#
# Compressibility (1/GPa) = 0.03878005
#
# Stress axis : x y z
#
# Youngs Moduli (GPa) = 106.71666 92.23510 34.22369
#
# Poissons Ratio (x) = 0.21497 0.05335
# Poissons Ratio (y) = 0.24873 0.04915
# Poissons Ratio (z) = 0.16637 0.13247
#
# Static dielectric constant tensor:
#      x y z
#    x 1.682560 0.000000 -0.018050 
#    y 0.000000 1.549830 0.000000 
#    z -0.018050 0.000000 1.651490 
# 
# From -- ./inp_files/61896.got.cif
#   From: 2010.05.17/outbox.cif.g08.bks.cpg/sg11_31_cif.got.tgz:61896.got - 2010.06.03 12:22:45.
