data_PCOD9156829
_publ_section_title
;
Structure prediction by ZEFSAII (Michael W. Deem and Ramdas Pophale) SiO2 
 PCOD9156829
Probable space group: P 21/M
;
_chemical_formula_sum "Si O2"
_cell_formula_units_Z 32
_cell_length_a 12.313982
_cell_length_b 17.323649
_cell_length_c 15.761442
_cell_angle_alpha 90.000000
_cell_angle_beta 152.283105
_cell_angle_gamma 90.000000
_cell_volume 1563.806726
_symmetry_space_group_name_H-M "P 21/M"
_symmetry_group_IT_number 11
_symmetry_cell_setting 'monoclinic'
loop_
_space_group_symop_operation_xyz
x,y,z
-x,1/2+y,-z
-x,-y,-z
x,1/2-y,z
loop_
_atom_site_type_symbol
_atom_site_label
_atom_site_fract_x
_atom_site_fract_y
_atom_site_fract_z
Si Si1 0.231611 0.162553 0.829504
Si Si2 0.936675 0.947087 0.538585
Si Si3 0.230995 0.963014 0.060229
Si Si4 0.706012 0.163171 0.247417
Si Si5 0.616224 0.421834 0.350687
Si Si6 0.237549 0.841531 0.400475
Si Si7 0.553303 0.656920 0.197621
Si Si8 0.726404 0.033252 0.707234
O O1 0.173312 0.250000 0.762367
O O2 0.354114 0.128892 0.830796
O O3 0.998100 0.134379 0.712003
O O4 0.434780 0.164877 0.038839
O O5 0.763816 0.875773 0.400391
O O6 0.171455 0.902563 0.724743
O O7 0.789745 0.006876 0.491989
O O8 0.000000 0.000000 0.500000
O O9 0.328922 0.890300 0.075341
O O10 0.283180 0.955301 0.197621
O O11 0.395764 0.037056 0.153892
O O12 0.960542 0.981728 0.856483
O O13 0.796948 0.250000 0.297147
O O14 0.731901 0.135978 0.362445
O O15 0.562880 0.375007 0.398858
O O16 0.248365 0.750000 0.400735
O O17 0.236645 0.884026 0.311021
O O18 0.522783 0.750000 0.177877
O O19 0.500000 0.000000 0.500000
#
# Coordination Sequence:
#
# PCOD9156829 Si02
#       8
#     4   4   4   4   4   4   4   4
#     4   9  19  33  52  84 124 158 195 250 308 364
#     4   9  18  30  49  77 114 160 208 243 295 368
#     4  10  23  42  68  92 123 169 209 258 329 386
#     4  10  18  30  49  78 120 163 205 250 300 363
#     4  10  19  35  54  85 117 155 206 257 311 376
#     4  11  22  38  64  94 123 162 213 266 316 373
#     4  10  20  38  60  88 128 169 212 261 316 386
#     4  11  23  45  69  91 125 161 212 270 323 380
#
# _framework density 20.462886000000001
#
# number of rings (size 3 to 8) (size 9 to 14) (size 15 to 20)
#    0.000    2.000    1.250    3.000    0.000    2.500 
#    0.000    8.125    0.000    0.000    0.000    0.000 
#    0.000    0.000    0.000    0.000    0.000    0.000 
#
# Total GULP energy -178216.651370 kJ/mol
# GULP energy per Si atom -5569.270355 kJ/mol
# Density = 2.041631 g / cm^3
# Si number density = 20.462886 Si / 1000 Ang^3
#
#
#
# Elastic Constant Matrix: (Units=GPa)
#
#
# Indices 1 2 3 4 5 6 
#
# 1 58.9462 46.1320 4.6081 0.0000 2.6493 0.0000
# 2 46.1320 118.4901 46.7315 0.0000 4.7162 0.0000
# 3 4.6081 46.7315 71.0569 0.0000 8.4231 0.0000
# 4 0.0000 0.0000 0.0000 21.9748 0.0000 2.0873
# 5 2.6493 4.7162 8.4231 0.0000 26.6587 0.0000
# 6 0.0000 0.0000 0.0000 2.0873 0.0000 36.6473
#
#
#
# Elastic Compliance Matrix: (Units=1/GPa)
#
#
# Indices 1 2 3 4 5 6 
#
# 1 0.026858 -0.013216 0.007261 0.000000 -0.002625 0.000000
# 2 -0.013216 0.017902 -0.011113 0.000000 0.001658 0.000000
# 3 0.007261 -0.011113 0.021571 0.000000 -0.005571 0.000000
# 4 0.000000 0.000000 0.000000 0.045754 0.000000 -0.002606
# 5 -0.002625 0.001658 -0.005571 0.000000 0.039239 0.000000
# 6 0.000000 0.000000 0.000000 -0.002606 0.000000 0.027436
#
#
# Mechanical properties :
#
#
# Convention : Reuss Voigt Hill
#
# Bulk Modulus (GPa) = 31.06004 49.27072 40.16538
# Shear Modulus (GPa) = 22.35869 27.12426 24.74148
#
# Velocity S-wave (km/s) = 3.30911 3.64474 3.48097
# Velocity P-wave (km/s) = 5.46003 6.46858 5.98558
#
# Compressibility (1/GPa) = 0.03219571
#
# Stress axis : x y z
#
# Youngs Moduli (GPa) = 37.23303 55.86078 46.35815
#
# Poissons Ratio (x) = 0.73825 -0.33661
# Poissons Ratio (y) = 0.49207 0.51516
# Poissons Ratio (z) = -0.27035 0.62076
#
# Static dielectric constant tensor:
#      x y z
#    x 1.793560 0.000000 0.019060 
#    y 0.000000 1.743290 0.000000 
#    z 0.019060 0.000000 1.771710 
# 
# From -- ./inp_files/50706.got.cif
#   From: 2010.05.17/outbox.cif.g08.bks.cpg/sg11_26_cif.got.tgz:50706.got - 2010.06.03 12:22:45.
