data_PCOD9156254
_publ_section_title
;
Structure prediction by ZEFSAII (Michael W. Deem and Ramdas Pophale) SiO2 
 PCOD9156254
Probable space group: P 21/M
;
_chemical_formula_sum "Si O2"
_cell_formula_units_Z 32
_cell_length_a 19.350207
_cell_length_b 8.710463
_cell_length_c 27.575057
_cell_angle_alpha 90.000000
_cell_angle_beta 151.953249
_cell_angle_gamma 90.000000
_cell_volume 2185.336787
_symmetry_space_group_name_H-M "P 21/M"
_symmetry_group_IT_number 11
_symmetry_cell_setting 'monoclinic'
loop_
_space_group_symop_operation_xyz
x,y,z
-x,1/2+y,-z
-x,-y,-z
x,1/2-y,z
loop_
_atom_site_type_symbol
_atom_site_label
_atom_site_fract_x
_atom_site_fract_y
_atom_site_fract_z
Si Si1 0.272259 0.935145 0.851799
Si Si2 0.245427 0.065386 0.987578
Si Si3 0.282847 0.566228 0.395249
Si Si4 0.489171 0.064861 0.068711
Si Si5 0.028131 0.565390 0.770292
Si Si6 0.879935 0.066228 0.992340
Si Si7 0.399909 0.433577 0.368345
Si Si8 0.194776 0.933578 0.163216
O O1 0.276499 0.750000 0.855994
O O2 0.346968 0.982889 0.846977
O O3 0.111576 0.979819 0.771838
O O4 0.381246 0.000063 0.960422
O O5 0.234363 0.250000 0.980941
O O6 0.407670 0.020116 0.067928
O O7 0.126649 0.000010 0.875556
O O8 0.208180 0.001111 0.017117
O O9 0.272630 0.750000 0.386110
O O10 0.134977 0.498900 0.326038
O O11 0.309248 0.500559 0.357723
O O12 0.429827 0.525612 0.516461
O O13 0.485129 0.250000 0.064638
O O14 0.025904 0.750000 0.772509
O O15 0.886906 0.250000 0.000396
O O16 0.810272 0.025612 0.896903
O O17 0.045325 0.000570 0.093802
O O18 0.387099 0.250000 0.360735
O O19 0.331887 0.500006 0.277296
O O20 0.191973 0.750000 0.165618
#
# Coordination Sequence:
#
# PCOD9156254 Si02
#       8
#     4   4   4   4   4   4   4   4
#     4   8  14  24  37  54  77 106 138 168 199 236
#     4  10  18  27  41  60  84 113 142 173 205 239
#     4  10  20  32  45  62  84 109 138 170 203 243
#     4   8  14  24  37  54  77 106 138 168 199 236
#     4  10  18  27  41  60  84 113 142 173 205 239
#     4  10  20  32  45  62  84 109 138 170 203 243
#     4  10  20  33  48  63  81 107 137 171 208 244
#     4  10  20  33  48  63  81 107 137 171 208 244
#
# _framework density 14.643053
#
# number of rings (size 3 to 8) (size 9 to 14) (size 15 to 20)
#    0.000    2.500    0.000    3.000    0.000    4.000 
#    0.000    0.000    0.000    0.000    0.000    0.000 
#    0.000    1.000    0.000    2.250    0.000    4.000 
#
# Total GULP energy -178206.988611 kJ/mol
# GULP energy per Si atom -5568.968394 kJ/mol
# Density = 1.460972 g / cm^3
# Si number density = 14.643053 Si / 1000 Ang^3
#
#
#
# Elastic Constant Matrix: (Units=GPa)
#
#
# Indices 1 2 3 4 5 6 
#
# 1 149.0626 34.6694 50.6000 0.0000 23.1097 0.0000
# 2 34.6694 34.7398 24.6376 0.0000 3.2505 0.0000
# 3 50.6000 24.6376 62.9283 0.0000 5.0825 0.0000
# 4 0.0000 0.0000 0.0000 19.4353 0.0000 -2.9026
# 5 23.1097 3.2505 5.0825 0.0000 19.8190 0.0000
# 6 0.0000 0.0000 0.0000 -2.9026 0.0000 10.5805
#
#
#
# Elastic Compliance Matrix: (Units=1/GPa)
#
#
# Indices 1 2 3 4 5 6 
#
# 1 0.012149 -0.006617 -0.006251 0.000000 -0.011478 0.000000
# 2 -0.006617 0.043585 -0.012039 0.000000 0.003655 0.000000
# 3 -0.006251 -0.012039 0.025409 0.000000 0.002748 0.000000
# 4 0.000000 0.000000 0.000000 0.053651 0.000000 0.014718
# 5 -0.011478 0.003655 0.002748 0.000000 0.062536 0.000000
# 6 0.000000 0.000000 0.000000 0.014718 0.000000 0.098552
#
#
# Mechanical properties :
#
#
# Convention : Reuss Voigt Hill
#
# Bulk Modulus (GPa) = 31.91917 51.83829 41.87873
# Shear Modulus (GPa) = 14.03943 19.08852 16.56398
#
# Velocity S-wave (km/s) = 3.09977 3.61444 3.36696
# Velocity P-wave (km/s) = 5.88701 7.27304 6.61642
#
# Compressibility (1/GPa) = 0.03132914
#
# Stress axis : x y z
#
# Youngs Moduli (GPa) = 82.31078 22.94356 39.35592
#
# Poissons Ratio (x) = 0.15182 0.24602
# Poissons Ratio (y) = 0.54466 0.47380
# Poissons Ratio (z) = 0.51454 0.27621
#
# Static dielectric constant tensor:
#      x y z
#    x 1.520210 0.000000 0.017300 
#    y 0.000000 1.492930 0.000000 
#    z 0.017300 0.000000 1.467460 
# 
# From -- ./inp_files/52947.got.cif
#   From: 2010.05.17/outbox.cif.g08.bks.cpg/sg11_27_cif.got.tgz:52947.got - 2010.06.03 12:22:45.
