data_PCOD9156156
_publ_section_title
;
Structure prediction by ZEFSAII (Michael W. Deem and Ramdas Pophale) SiO2 
 PCOD9156156
Probable space group: P 21/M
;
_chemical_formula_sum "Si O2"
_cell_formula_units_Z 20
_cell_length_a 8.365269
_cell_length_b 17.189333
_cell_length_c 7.581191
_cell_angle_alpha 90.000000
_cell_angle_beta 50.853541
_cell_angle_gamma 90.000000
_cell_volume 845.429977
_symmetry_space_group_name_H-M "P 21/M"
_symmetry_group_IT_number 11
_symmetry_cell_setting 'monoclinic'
loop_
_space_group_symop_operation_xyz
x,y,z
-x,1/2+y,-z
-x,-y,-z
x,1/2-y,z
loop_
_atom_site_type_symbol
_atom_site_label
_atom_site_fract_x
_atom_site_fract_y
_atom_site_fract_z
Si Si1 0.465391 0.909737 0.189009
Si Si2 0.914745 0.390137 0.722847
Si Si3 0.908402 0.947489 0.907420
Si Si4 0.766970 0.160857 0.206594
Si Si5 0.620553 0.919909 0.673999
O O1 0.255736 0.861969 0.299454
O O2 0.387799 0.987490 0.342033
O O3 0.536635 0.911621 0.932077
O O4 0.696343 0.903793 0.106835
O O5 0.152461 0.385079 0.503732
O O6 0.871750 0.348617 0.939313
O O7 0.876856 0.484329 0.783652
O O8 0.081008 0.882783 0.766407
O O9 0.000000 0.000000 0.000000
O O10 0.738498 0.250000 0.270880
O O11 0.546291 0.119497 0.337410
#
# Coordination Sequence:
#
# PCOD9156156 Si02
#       5
#     4   4   4   4   4
#     4  10  17  33  55  87 106 128 172 226 275 307
#     4  10  19  33  60  81 104 136 185 227 264 315
#     4  10  17  34  52  80 110 138 174 218 270 309
#     4  10  22  38  51  73 112 147 178 218 270 326
#     4  10  18  33  57  81 106 135 174 227 267 317
#
# _framework density 23.656604000000002
#
# number of rings (size 3 to 8) (size 9 to 14) (size 15 to 20)
#    0.000    2.000    8.000    0.600    0.000    1.600 
#    0.000    4.000    0.000    0.000    0.000    0.000 
#    0.000    0.000    0.000    0.000    0.000    0.000 
#
# Total GULP energy -111390.788793 kJ/mol
# GULP energy per Si atom -5569.539440 kJ/mol
# Density = 2.360276 g / cm^3
# Si number density = 23.656604 Si / 1000 Ang^3
#
#
#
# Elastic Constant Matrix: (Units=GPa)
#
#
# Indices 1 2 3 4 5 6 
#
# 1 142.7876 15.9235 39.7857 0.0000 -52.8434 0.0000
# 2 15.9235 45.6852 0.3787 0.0000 2.1804 0.0000
# 3 39.7857 0.3787 114.9400 0.0000 -27.4297 0.0000
# 4 0.0000 0.0000 0.0000 4.8141 0.0000 0.8031
# 5 -52.8434 2.1804 -27.4297 0.0000 47.2479 0.0000
# 6 0.0000 0.0000 0.0000 0.8031 0.0000 14.9877
#
#
#
# Elastic Compliance Matrix: (Units=1/GPa)
#
#
# Indices 1 2 3 4 5 6 
#
# 1 0.013233 -0.005290 -0.001129 0.000000 0.014389 0.000000
# 2 -0.005290 0.024065 0.000087 0.000000 -0.006976 0.000000
# 3 -0.001129 0.000087 0.010202 0.000000 0.004656 0.000000
# 4 0.000000 0.000000 0.000000 0.209596 0.000000 -0.011231
# 5 0.014389 -0.006976 0.004656 0.000000 0.040282 0.000000
# 6 0.000000 0.000000 0.000000 -0.011231 0.000000 0.067323
#
#
# Mechanical properties :
#
#
# Convention : Reuss Voigt Hill
#
# Bulk Modulus (GPa) = 28.70642 46.17651 37.44147
# Shear Modulus (GPa) = 12.85422 29.89828 21.37625
#
# Velocity S-wave (km/s) = 2.33355 3.55892 3.00926
# Velocity P-wave (km/s) = 4.40699 6.03736 5.28542
#
# Compressibility (1/GPa) = 0.03483541
#
# Stress axis : x y z
#
# Youngs Moduli (GPa) = 75.56882 41.55437 98.02162
#
# Poissons Ratio (x) = 0.21981 0.11070
# Poissons Ratio (y) = 0.39973 -0.00851
# Poissons Ratio (z) = 0.08534 -0.00361
#
# Static dielectric constant tensor:
#      x y z
#    x 2.036680 0.000000 0.018600 
#    y 0.000000 1.892400 0.000000 
#    z 0.018600 0.000000 2.025690 
# 
# From -- ./inp_files/13072.got.cif
#   From: 2010.05.17/outbox.cif.g08.bks.cpg/sg11_7_cif.got.tgz:13072.got - 2010.06.03 12:22:45.
