data_PCOD9156406
_publ_section_title
;
Structure prediction by ZEFSAII (Michael W. Deem and Ramdas Pophale) SiO2 
 PCOD9156406
Probable space group: P 21/M
;
_chemical_formula_sum "Si O2"
_cell_formula_units_Z 28
_cell_length_a 11.460156
_cell_length_b 8.695678
_cell_length_c 21.985112
_cell_angle_alpha 90.000000
_cell_angle_beta 129.733714
_cell_angle_gamma 90.000000
_cell_volume 1684.854124
_symmetry_space_group_name_H-M "P 21/M"
_symmetry_group_IT_number 11
_symmetry_cell_setting 'monoclinic'
loop_
_space_group_symop_operation_xyz
x,y,z
-x,1/2+y,-z
-x,-y,-z
x,1/2-y,z
loop_
_atom_site_type_symbol
_atom_site_label
_atom_site_fract_x
_atom_site_fract_y
_atom_site_fract_z
Si Si1 0.984420 0.432511 0.396611
Si Si2 0.338651 0.065905 0.925519
Si Si3 0.526602 0.065930 0.273898
Si Si4 0.867916 0.066251 0.038725
Si Si5 0.228138 0.434114 0.567648
Si Si6 0.206561 0.064922 0.114854
Si Si7 0.738206 0.933715 0.237666
O O1 0.974649 0.250000 0.383912
O O2 0.876368 0.480608 0.417130
O O3 0.907738 0.517662 0.314538
O O4 0.153143 0.470540 0.477291
O O5 0.345358 0.250000 0.929303
O O6 0.300281 0.018894 0.843667
O O7 0.212509 0.007930 0.930467
O O8 0.500000 0.000000 0.000000
O O9 0.538525 0.250000 0.282961
O O10 0.352480 0.023035 0.203328
O O11 0.604453 0.988824 0.358627
O O12 0.622680 0.011216 0.246975
O O13 0.857406 0.250000 0.039340
O O14 0.045153 0.022398 0.090719
O O15 0.788159 0.010960 0.949882
O O16 0.215176 0.250000 0.572067
O O17 0.207658 0.250000 0.107213
O O18 0.723244 0.750000 0.238276
#
# Coordination Sequence:
#
# PCOD9156406 Si02
#       7
#     4   4   4   4   4   4   4
#     4   9  16  26  41  61  87 120 153 184 223 270
#     4  11  23  36  50  70  95 124 157 192 231 275
#     4  10  18  28  45  68  94 123 153 186 226 271
#     4  10  20  34  52  71  92 122 157 193 234 274
#     4   9  16  25  39  62  91 119 149 185 224 269
#     4   9  19  34  50  70  95 122 155 193 231 275
#     4  10  20  31  44  65  93 123 155 189 226 271
#
# _framework density 16.618649000000001
#
# number of rings (size 3 to 8) (size 9 to 14) (size 15 to 20)
#    0.000    2.286    0.000    5.143    0.000    8.000 
#    0.000    0.000    0.000    0.000    0.000    1.000 
#    0.000    0.000    0.000    0.000    0.000    0.000 
#
# Total GULP energy -156078.880010 kJ/mol
# GULP energy per Si atom -5574.245715 kJ/mol
# Density = 1.658082 g / cm^3
# Si number density = 16.618649 Si / 1000 Ang^3
#
#
#
# Elastic Constant Matrix: (Units=GPa)
#
#
# Indices 1 2 3 4 5 6 
#
# 1 38.4632 9.8768 33.7111 0.0000 2.6884 0.0000
# 2 9.8768 24.8846 22.1395 0.0000 1.1157 0.0000
# 3 33.7111 22.1395 146.0296 0.0000 16.8864 0.0000
# 4 0.0000 0.0000 0.0000 28.7537 0.0000 0.5022
# 5 2.6884 1.1157 16.8864 0.0000 22.1005 0.0000
# 6 0.0000 0.0000 0.0000 0.5022 0.0000 19.7664
#
#
#
# Elastic Compliance Matrix: (Units=1/GPa)
#
#
# Indices 1 2 3 4 5 6 
#
# 1 0.033799 -0.007382 -0.006857 0.000000 0.001500 0.000000
# 2 -0.007382 0.048288 -0.005966 0.000000 0.003019 0.000000
# 3 -0.006857 -0.005966 0.010096 0.000000 -0.006579 0.000000
# 4 0.000000 0.000000 0.000000 0.034794 0.000000 -0.000884
# 5 0.001500 0.003019 -0.006579 0.000000 0.049940 0.000000
# 6 0.000000 0.000000 0.000000 -0.000884 0.000000 0.050613
#
#
# Mechanical properties :
#
#
# Convention : Reuss Voigt Hill
#
# Bulk Modulus (GPa) = 19.31474 37.87025 28.59250
# Shear Modulus (GPa) = 17.53173 23.70079 20.61626
#
# Velocity S-wave (km/s) = 3.25151 3.78054 3.52596
# Velocity P-wave (km/s) = 5.07385 6.47255 5.81541
#
# Compressibility (1/GPa) = 0.05177392
#
# Stress axis : x y z
#
# Youngs Moduli (GPa) = 29.58633 20.70916 99.04823
#
# Poissons Ratio (x) = 0.15287 0.67917
# Poissons Ratio (y) = 0.21840 0.59090
# Poissons Ratio (z) = 0.20287 0.12355
#
# Static dielectric constant tensor:
#      x y z
#    x 1.537510 0.000000 0.031490 
#    y 0.000000 1.555740 0.000000 
#    z 0.031490 0.000000 1.606330 
# 
# From -- ./inp_files/53195.got.cif
#   From: 2010.05.17/outbox.cif.g08.bks.cpg/sg11_27_cif.got.tgz:53195.got - 2010.06.03 12:22:45.
