data_PCOD9156873
_publ_section_title
;
Structure prediction by ZEFSAII (Michael W. Deem and Ramdas Pophale) SiO2 
 PCOD9156873
Probable space group: P 21/M
;
_chemical_formula_sum "Si O2"
_cell_formula_units_Z 32
_cell_length_a 12.054244
_cell_length_b 8.823837
_cell_length_c 17.404280
_cell_angle_alpha 90.000000
_cell_angle_beta 83.635426
_cell_angle_gamma 90.000000
_cell_volume 1839.791149
_symmetry_space_group_name_H-M "P 21/M"
_symmetry_group_IT_number 11
_symmetry_cell_setting 'monoclinic'
loop_
_space_group_symop_operation_xyz
x,y,z
-x,1/2+y,-z
-x,-y,-z
x,1/2-y,z
loop_
_atom_site_type_symbol
_atom_site_label
_atom_site_fract_x
_atom_site_fract_y
_atom_site_fract_z
Si Si1 0.114776 0.568260 0.958098
Si Si2 0.452513 0.929150 0.177091
Si Si3 0.746432 0.067711 0.905799
Si Si4 0.529673 0.569529 0.578994
Si Si5 0.908442 0.929517 0.763563
Si Si6 0.630234 0.068978 0.266084
Si Si7 0.861441 0.930117 0.212375
Si Si8 0.705004 0.930936 0.682170
O O1 0.104443 0.750000 0.952863
O O2 0.136226 0.497955 0.873676
O O3 0.212675 0.533466 0.011672
O O4 0.000000 0.500000 0.000000
O O5 0.474477 0.750000 0.173406
O O6 0.380597 0.973969 0.107362
O O7 0.563744 0.014943 0.194849
O O8 0.365089 0.971418 0.251494
O O9 0.756354 0.250000 0.893535
O O10 0.832428 0.987745 0.840530
O O11 0.500000 0.500000 0.500000
O O12 0.522890 0.750000 0.571985
O O13 0.443897 0.525497 0.653797
O O14 0.652825 0.533096 0.603443
O O15 0.926369 0.750000 0.771229
O O16 0.833619 0.955510 0.693156
O O17 0.025478 0.013835 0.756003
O O18 0.639801 0.250000 0.263457
O O19 0.750415 0.993224 0.260255
O O20 0.859514 0.750000 0.209005
O O21 0.682333 0.750000 0.698306
#
# Coordination Sequence:
#
# PCOD9156873 Si02
#       8
#     4   4   4   4   4   4   4   4
#     4  11  21  34  51  74 104 139 177 221 265 310
#     4   9  16  29  50  75 100 130 167 214 262 304
#     4   9  18  31  49  73 102 131 170 220 264 306
#     4   9  18  33  56  84 111 134 163 204 251 304
#     4  10  18  30  51  74 100 136 176 216 260 305
#     4  10  21  38  55  75 104 138 174 211 253 311
#     4  12  24  36  51  74 104 138 177 221 265 313
#     4   8  16  30  48  75 106 136 170 208 249 300
#
# _framework density 17.393279
#
# number of rings (size 3 to 8) (size 9 to 14) (size 15 to 20)
#    0.000    2.250    1.250    3.375    0.000    4.000 
#    0.000    0.625    0.000    0.750    0.000    0.000 
#    0.000    0.000    0.000    0.000    0.000    0.000 
#
# Total GULP energy -178392.873219 kJ/mol
# GULP energy per Si atom -5574.777288 kJ/mol
# Density = 1.735369 g / cm^3
# Si number density = 17.393279 Si / 1000 Ang^3
#
#
#
# Elastic Constant Matrix: (Units=GPa)
#
#
# Indices 1 2 3 4 5 6 
#
# 1 114.4115 46.0269 52.4381 0.0000 24.0625 0.0000
# 2 46.0269 59.9255 32.9338 0.0000 11.2126 0.0000
# 3 52.4381 32.9338 82.7201 0.0000 29.5713 0.0000
# 4 0.0000 0.0000 0.0000 24.1505 0.0000 3.2087
# 5 24.0625 11.2126 29.5713 0.0000 26.1139 0.0000
# 6 0.0000 0.0000 0.0000 3.2087 0.0000 30.0060
#
#
#
# Elastic Compliance Matrix: (Units=1/GPa)
#
#
# Indices 1 2 3 4 5 6 
#
# 1 0.015238 -0.008252 -0.004404 0.000000 -0.005510 0.000000
# 2 -0.008252 0.025840 -0.006399 0.000000 0.003755 0.000000
# 3 -0.004404 -0.006399 0.025195 0.000000 -0.021725 0.000000
# 4 0.000000 0.000000 0.000000 0.042004 0.000000 -0.004492
# 5 -0.005510 0.003755 -0.021725 0.000000 0.066360 0.000000
# 6 0.000000 0.000000 0.000000 -0.004492 0.000000 0.033807
#
#
# Mechanical properties :
#
#
# Convention : Reuss Voigt Hill
#
# Bulk Modulus (GPa) = 35.50927 57.76164 46.63545
# Shear Modulus (GPa) = 19.53582 24.43129 21.98356
#
# Velocity S-wave (km/s) = 3.35503 3.75192 3.55901
# Velocity P-wave (km/s) = 5.95551 7.21460 6.61508
#
# Compressibility (1/GPa) = 0.02816166
#
# Stress axis : x y z
#
# Youngs Moduli (GPa) = 65.62727 38.70029 39.69070
#
# Poissons Ratio (x) = 0.31936 0.17481
# Poissons Ratio (y) = 0.54156 0.25398
# Poissons Ratio (z) = 0.28904 0.24764
#
# Static dielectric constant tensor:
#      x y z
#    x 1.621150 0.000000 0.035520 
#    y 0.000000 1.572910 0.000000 
#    z 0.035520 0.000000 1.584710 
# 
# From -- ./inp_files/58694.got.cif
#   From: 2010.05.17/outbox.cif.g08.bks.cpg/sg11_30_cif.got.tgz:58694.got - 2010.06.03 12:22:45.
