data_PCOD9156613
_publ_section_title
;
Structure prediction by ZEFSAII (Michael W. Deem and Ramdas Pophale) SiO2 
 PCOD9156613
Probable space group: P 21/M
;
_chemical_formula_sum "Si O2"
_cell_formula_units_Z 32
_cell_length_a 27.774668
_cell_length_b 8.627801
_cell_length_c 19.784441
_cell_angle_alpha 90.000000
_cell_angle_beta 24.469523
_cell_angle_gamma 90.000000
_cell_volume 1963.778370
_symmetry_space_group_name_H-M "P 21/M"
_symmetry_group_IT_number 11
_symmetry_cell_setting 'monoclinic'
loop_
_space_group_symop_operation_xyz
x,y,z
-x,1/2+y,-z
-x,-y,-z
x,1/2-y,z
loop_
_atom_site_type_symbol
_atom_site_label
_atom_site_fract_x
_atom_site_fract_y
_atom_site_fract_z
Si Si1 0.988709 0.561832 0.349569
Si Si2 0.407064 0.436902 0.780145
Si Si3 0.011526 0.937496 0.168548
Si Si4 0.879836 0.563959 0.622179
Si Si5 0.768555 0.064745 0.889918
Si Si6 0.270646 0.435926 0.818402
Si Si7 0.105066 0.063998 0.820080
Si Si8 0.662173 0.064080 0.410794
O O1 0.990028 0.750000 0.347193
O O2 0.974685 0.509541 0.290554
O O3 0.890879 0.516452 0.529394
O O4 0.115292 0.513026 0.216797
O O5 0.402162 0.250000 0.790519
O O6 0.342031 0.506119 0.927713
O O7 0.337056 0.483994 0.801865
O O8 0.540827 0.483771 0.599968
O O9 0.020814 0.750000 0.157255
O O10 0.924484 0.979740 0.219439
O O11 0.138693 0.004067 0.990067
O O12 0.879188 0.750000 0.626593
O O13 0.000000 0.500000 0.500000
O O14 0.781657 0.498659 0.797107
O O15 0.770391 0.250000 0.885530
O O16 0.270872 0.250000 0.814455
O O17 0.330713 0.502555 0.674842
O O18 0.106472 0.250000 0.823637
O O19 0.226073 0.998380 0.692353
O O20 0.000000 0.000000 0.000000
O O21 0.666567 0.250000 0.403276
#
# Coordination Sequence:
#
# PCOD9156613 Si02
#       8
#     4   4   4   4   4   4   4   4
#     4   8  15  28  46  70  97 129 164 195 241 299
#     4  10  22  36  50  73 101 133 170 210 252 298
#     4  10  19  33  52  73  99 132 166 204 253 299
#     4   9  16  27  44  68 100 133 165 200 240 296
#     4  10  18  29  48  72 100 135 166 197 245 303
#     4  11  21  33  51  75 100 127 168 211 252 300
#     4  11  22  35  54  75  98 129 169 214 255 297
#     4  11  23  38  53  69  98 136 172 210 254 300
#
# _framework density 16.295117000000001
#
# number of rings (size 3 to 8) (size 9 to 14) (size 15 to 20)
#    0.000    2.000    2.500    3.000    0.000    2.000 
#    0.000    0.625    0.000    0.000    0.000    0.875 
#    0.000    0.000    0.000    0.000    0.000    0.000 
#
# Total GULP energy -178487.567708 kJ/mol
# GULP energy per Si atom -5577.736491 kJ/mol
# Density = 1.625803 g / cm^3
# Si number density = 16.295117 Si / 1000 Ang^3
#
#
#
# Elastic Constant Matrix: (Units=GPa)
#
#
# Indices 1 2 3 4 5 6 
#
# 1 62.6058 21.9319 62.6744 0.0000 26.0347 0.0000
# 2 21.9319 30.5600 32.0988 0.0000 6.8269 0.0000
# 3 62.6744 32.0988 135.1651 0.0000 28.1738 0.0000
# 4 0.0000 0.0000 0.0000 24.6131 0.0000 1.9790
# 5 26.0347 6.8269 28.1738 0.0000 35.0766 0.0000
# 6 0.0000 0.0000 0.0000 1.9790 0.0000 18.4654
#
#
#
# Elastic Compliance Matrix: (Units=1/GPa)
#
#
# Indices 1 2 3 4 5 6 
#
# 1 0.038979 -0.011875 -0.011657 0.000000 -0.017257 0.000000
# 2 -0.011875 0.047216 -0.006760 0.000000 0.005054 0.000000
# 3 -0.011657 -0.006760 0.014811 0.000000 -0.001928 0.000000
# 4 0.000000 0.000000 0.000000 0.040982 0.000000 -0.004392
# 5 -0.017257 0.005054 -0.001928 0.000000 0.041883 0.000000
# 6 0.000000 0.000000 0.000000 -0.004392 0.000000 0.054626
#
#
# Mechanical properties :
#
#
# Convention : Reuss Voigt Hill
#
# Bulk Modulus (GPa) = 24.73889 51.30458 38.02174
# Shear Modulus (GPa) = 15.99719 23.07275 19.53497
#
# Velocity S-wave (km/s) = 3.13663 3.76697 3.46616
# Velocity P-wave (km/s) = 5.32285 7.10444 6.27717
#
# Compressibility (1/GPa) = 0.04042218
#
# Stress axis : x y z
#
# Youngs Moduli (GPa) = 25.65474 21.17921 67.51779
#
# Poissons Ratio (x) = 0.25150 0.78706
# Poissons Ratio (y) = 0.30465 0.45642
# Poissons Ratio (z) = 0.29906 0.14317
#
# Static dielectric constant tensor:
#      x y z
#    x 1.552240 0.000000 0.025510 
#    y 0.000000 1.549310 0.000000 
#    z 0.025510 0.000000 1.543560 
# 
# From -- ./inp_files/67391.got.cif
#   From: 2010.05.17/outbox.cif.g08.bks.cpg/sg11_34_cif.got.tgz:67391.got - 2010.06.03 12:22:45.
