data_PCOD9156065
_publ_section_title
;
Structure prediction by ZEFSAII (Michael W. Deem and Ramdas Pophale) SiO2 
 PCOD9156065
Probable space group: P 21/M
;
_chemical_formula_sum "Si O2"
_cell_formula_units_Z 32
_cell_length_a 22.531957
_cell_length_b 7.664674
_cell_length_c 27.983900
_cell_angle_alpha 90.000000
_cell_angle_beta 160.407711
_cell_angle_gamma 90.000000
_cell_volume 1620.565143
_symmetry_space_group_name_H-M "P 21/M"
_symmetry_group_IT_number 11
_symmetry_cell_setting 'monoclinic'
loop_
_space_group_symop_operation_xyz
x,y,z
-x,1/2+y,-z
-x,-y,-z
x,1/2-y,z
loop_
_atom_site_type_symbol
_atom_site_label
_atom_site_fract_x
_atom_site_fract_y
_atom_site_fract_z
Si Si1 0.379242 0.541306 0.453361
Si Si2 0.198517 0.957583 0.669066
Si Si3 0.575535 0.036066 0.406204
Si Si4 0.050713 0.958035 0.651726
Si Si5 0.665887 0.547176 0.325904
Si Si6 0.980598 0.040676 0.702244
Si Si7 0.345079 0.049020 0.145803
Si Si8 0.022081 0.464284 0.840422
O O1 0.500000 0.500000 0.500000
O O2 0.369320 0.750000 0.449330
O O3 0.452655 0.480605 0.560457
O O4 0.175913 0.480415 0.295358
O O5 0.226074 0.750000 0.689013
O O6 0.190774 0.021317 0.718139
O O7 0.325282 0.034358 0.724805
O O8 0.000000 0.000000 0.500000
O O9 0.574906 0.250000 0.403911
O O10 0.431710 0.971628 0.259296
O O11 0.775028 0.981416 0.543085
O O12 0.041635 0.750000 0.637783
O O13 0.853376 0.025176 0.488292
O O14 0.081943 0.991221 0.730984
O O15 0.653580 0.750000 0.330014
O O16 0.501120 0.454223 0.224944
O O17 0.976494 0.250000 0.700657
O O18 0.051988 0.981280 0.807913
O O19 0.301381 0.250000 0.124034
O O20 0.171703 0.970670 0.989884
O O21 0.027202 0.250000 0.844471
#
# Coordination Sequence:
#
# PCOD9156065 Si02
#       8
#     4   4   4   4   4   4   4   4
#     4   9  17  33  52  72  98 126 157 192 227 272
#     4   9  17  28  41  62  93 126 161 201 245 289
#     4   8  15  27  47  71  92 119 158 192 223 275
#     4   9  17  27  41  65  94 120 152 198 242 276
#     4  10  19  29  42  66  98 126 155 198 246 285
#     4   9  15  27  46  68  90 118 156 196 234 278
#     4  10  17  30  51  71  91 125 161 192 237 285
#     4   8  17  31  49  72  98 122 154 196 233 277
#
# _framework density 19.746198
#
# number of rings (size 3 to 8) (size 9 to 14) (size 15 to 20)
#    0.000    3.000    1.250    3.000    0.000    2.500 
#    0.000    5.000    0.000    0.750    0.000    0.000 
#    0.000    0.000    0.000    0.000    0.000    0.000 
#
# Total GULP energy -178284.174906 kJ/mol
# GULP energy per Si atom -5571.380466 kJ/mol
# Density = 1.970125 g / cm^3
# Si number density = 19.746198 Si / 1000 Ang^3
#
#
#
# Elastic Constant Matrix: (Units=GPa)
#
#
# Indices 1 2 3 4 5 6 
#
# 1 155.6823 -6.5092 57.9170 0.0000 -15.2077 0.0000
# 2 -6.5092 35.3563 3.1264 0.0000 -3.7828 0.0000
# 3 57.9170 3.1264 94.2048 0.0000 -28.0502 0.0000
# 4 0.0000 0.0000 0.0000 3.3540 0.0000 2.9915
# 5 -15.2077 -3.7828 -28.0502 0.0000 23.0987 0.0000
# 6 0.0000 0.0000 0.0000 2.9915 0.0000 24.3047
#
#
#
# Elastic Compliance Matrix: (Units=1/GPa)
#
#
# Indices 1 2 3 4 5 6 
#
# 1 0.008479 0.001964 -0.005514 0.000000 -0.000792 0.000000
# 2 0.001964 0.029272 -0.000574 0.000000 0.005390 0.000000
# 3 -0.005514 -0.000574 0.020230 0.000000 0.020843 0.000000
# 4 0.000000 0.000000 0.000000 0.334924 0.000000 -0.041223
# 5 -0.000792 0.005390 0.020843 0.000000 0.068964 0.000000
# 6 0.000000 0.000000 0.000000 -0.041223 0.000000 0.046218
#
#
# Mechanical properties :
#
#
# Convention : Reuss Voigt Hill
#
# Bulk Modulus (GPa) = 20.10705 43.81242 31.95973
# Shear Modulus (GPa) = 9.38237 25.53210 17.45723
#
# Velocity S-wave (km/s) = 2.18215 3.59975 2.97658
# Velocity P-wave (km/s) = 4.06865 6.28598 5.29469
#
# Compressibility (1/GPa) = 0.04973381
#
# Stress axis : x y z
#
# Youngs Moduli (GPa) = 117.93193 34.16180 49.43079
#
# Poissons Ratio (x) = -0.06709 0.27257
# Poissons Ratio (y) = -0.23161 0.02838
# Poissons Ratio (z) = 0.65029 0.01961
#
# Static dielectric constant tensor:
#      x y z
#    x 1.727500 0.000000 -0.026820 
#    y 0.000000 1.737720 0.000000 
#    z -0.026820 0.000000 1.683770 
# 
# From -- ./inp_files/72072.got.cif
#   From: 2010.05.17/outbox.cif.g08.bks.cpg/sg11_37_cif.got.tgz:72072.got - 2010.06.03 12:22:45.
