data_PCOD9156638
_publ_section_title
;
Structure prediction by ZEFSAII (Michael W. Deem and Ramdas Pophale) SiO2 
 PCOD9156638
Probable space group: P 21/M
;
_chemical_formula_sum "Si O2"
_cell_formula_units_Z 32
_cell_length_a 12.097868
_cell_length_b 8.827231
_cell_length_c 22.021831
_cell_angle_alpha 90.000000
_cell_angle_beta 51.546907
_cell_angle_gamma 90.000000
_cell_volume 1841.678032
_symmetry_space_group_name_H-M "P 21/M"
_symmetry_group_IT_number 11
_symmetry_cell_setting 'monoclinic'
loop_
_space_group_symop_operation_xyz
x,y,z
-x,1/2+y,-z
-x,-y,-z
x,1/2-y,z
loop_
_atom_site_type_symbol
_atom_site_label
_atom_site_fract_x
_atom_site_fract_y
_atom_site_fract_z
Si Si1 0.346578 0.430940 0.036969
Si Si2 0.332833 0.933108 0.912111
Si Si3 0.219330 0.924590 0.826097
Si Si4 0.449990 0.431956 0.580423
Si Si5 0.857655 0.931280 0.268924
Si Si6 0.375082 0.569120 0.237501
Si Si7 0.545541 0.574614 0.668382
Si Si8 0.840247 0.432294 0.792808
O O1 0.356884 0.250000 0.030263
O O2 0.243008 0.483923 0.125410
O O3 0.500000 0.500000 0.000000
O O4 0.297429 0.497764 0.989210
O O5 0.335493 0.750000 0.913248
O O6 0.228695 0.979558 0.892418
O O7 0.489034 0.992479 0.840915
O O8 0.173493 0.750000 0.841575
O O9 0.383099 0.929787 0.748019
O O10 0.135572 0.012995 0.803034
O O11 0.500000 0.500000 0.500000
O O12 0.453574 0.250000 0.577204
O O13 0.289257 0.482812 0.650798
O O14 0.543599 0.491250 0.604671
O O15 0.852163 0.750000 0.269409
O O16 0.996293 0.976888 0.258483
O O17 0.397700 0.750000 0.230933
O O18 0.367266 0.506048 0.308304
O O19 0.238612 0.535483 0.243322
O O20 0.585278 0.750000 0.648310
O O21 0.829906 0.250000 0.806188
#
# Coordination Sequence:
#
# PCOD9156638 Si02
#       8
#     4   4   4   4   4   4   4   4
#     4  12  23  34  50  73 101 134 175 220 265 310
#     4  10  19  32  50  72 100 131 172 222 267 306
#     4   8  16  30  49  72  98 130 166 212 259 302
#     4  10  19  33  56  84 110 136 168 207 255 307
#     4   9  19  35  54  76 104 137 171 208 252 310
#     4  10  18  29  49  74 101 134 172 213 259 306
#     4   9  17  30  49  75 106 134 167 212 255 298
#     4  10  21  36  52  73 103 138 174 214 260 307
#
# _framework density 17.375458999999999
#
# number of rings (size 3 to 8) (size 9 to 14) (size 15 to 20)
#    0.000    2.250    1.250    3.375    0.000    5.000 
#    0.000    0.625    0.000    0.750    0.000    0.000 
#    0.000    0.000    0.000    0.000    0.000    0.000 
#
# Total GULP energy -178473.327038 kJ/mol
# GULP energy per Si atom -5577.291470 kJ/mol
# Density = 1.733591 g / cm^3
# Si number density = 17.375459 Si / 1000 Ang^3
#
#
#
# Elastic Constant Matrix: (Units=GPa)
#
#
# Indices 1 2 3 4 5 6 
#
# 1 128.6949 49.8887 57.5690 0.0000 25.2056 0.0000
# 2 49.8887 66.6994 38.7021 0.0000 15.2892 0.0000
# 3 57.5690 38.7021 78.3251 0.0000 29.9667 0.0000
# 4 0.0000 0.0000 0.0000 24.9398 0.0000 9.8215
# 5 25.2056 15.2892 29.9667 0.0000 30.5778 0.0000
# 6 0.0000 0.0000 0.0000 9.8215 0.0000 24.1527
#
#
#
# Elastic Compliance Matrix: (Units=1/GPa)
#
#
# Indices 1 2 3 4 5 6 
#
# 1 0.013113 -0.005890 -0.005950 0.000000 -0.002033 0.000000
# 2 -0.005890 0.023670 -0.007513 0.000000 0.000383 0.000000
# 3 -0.005950 -0.007513 0.028061 0.000000 -0.018838 0.000000
# 4 0.000000 0.000000 0.000000 0.047742 0.000000 -0.019414
# 5 -0.002033 0.000383 -0.018838 0.000000 0.052650 0.000000
# 6 0.000000 0.000000 0.000000 -0.019414 0.000000 0.049298
#
#
# Mechanical properties :
#
#
# Convention : Reuss Voigt Hill
#
# Bulk Modulus (GPa) = 38.25954 62.89324 50.57639
# Shear Modulus (GPa) = 19.08746 24.43802 21.76274
#
# Velocity S-wave (km/s) = 3.31800 3.75436 3.54291
# Velocity P-wave (km/s) = 6.06184 7.42083 6.77550
#
# Compressibility (1/GPa) = 0.02613727
#
# Stress axis : x y z
#
# Youngs Moduli (GPa) = 76.25794 42.24813 35.63710
#
# Poissons Ratio (x) = 0.24883 0.21205
# Poissons Ratio (y) = 0.44913 0.26775
# Poissons Ratio (z) = 0.45375 0.31742
#
# Static dielectric constant tensor:
#      x y z
#    x 1.609210 0.000000 0.004520 
#    y 0.000000 1.585550 0.000000 
#    z 0.004520 0.000000 1.571280 
# 
# From -- ./inp_files/42520.got.cif
#   From: 2010.05.17/outbox.cif.g08.bks.cpg/sg11_22_cif.got.tgz:42520.got - 2010.06.03 12:22:45.
