data_PCOD9156135
_publ_section_title
;
Structure prediction by ZEFSAII (Michael W. Deem and Ramdas Pophale) SiO2 
 PCOD9156135
Probable space group: P 21/M
;
_chemical_formula_sum "Si O2"
_cell_formula_units_Z 32
_cell_length_a 11.690975
_cell_length_b 15.294383
_cell_length_c 18.628541
_cell_angle_alpha 90.000000
_cell_angle_beta 28.827674
_cell_angle_gamma 90.000000
_cell_volume 1606.082738
_symmetry_space_group_name_H-M "P 21/M"
_symmetry_group_IT_number 11
_symmetry_cell_setting 'monoclinic'
loop_
_space_group_symop_operation_xyz
x,y,z
-x,1/2+y,-z
-x,-y,-z
x,1/2-y,z
loop_
_atom_site_type_symbol
_atom_site_label
_atom_site_fract_x
_atom_site_fract_y
_atom_site_fract_z
Si Si1 0.354792 0.349400 0.067972
Si Si2 0.683438 0.579182 0.758371
Si Si3 0.126804 0.915596 0.266944
Si Si4 0.376124 0.849475 0.649339
Si Si5 0.262659 0.347889 0.429080
Si Si6 0.032547 0.349022 0.011723
Si Si7 0.184247 0.973400 0.981129
Si Si8 0.924758 0.024964 0.255512
O O1 0.331045 0.250000 0.055403
O O2 0.319991 0.353494 0.173435
O O3 0.149745 0.410869 0.148051
O O4 0.616793 0.385161 0.903232
O O5 0.840005 0.499620 0.700536
O O6 0.750983 0.608974 0.641431
O O7 0.416740 0.544438 0.898211
O O8 0.988464 0.847850 0.392447
O O9 0.959742 0.948617 0.293991
O O10 0.448261 0.750000 0.588390
O O11 0.556933 0.885736 0.610204
O O12 0.128358 0.841425 0.828902
O O13 0.309902 0.915141 0.621257
O O14 0.352640 0.250000 0.366990
O O15 0.118275 0.250000 0.948094
O O16 0.863636 0.391197 0.043821
O O17 0.206899 0.431966 0.929483
O O18 0.964810 0.982135 0.155781
#
# Coordination Sequence:
#
# PCOD9156135 Si02
#       8
#     4   4   4   4   4   4   4   4
#     4  11  21  35  58  84 114 146 185 236 280 330
#     4  11  20  38  57  81 107 148 191 226 277 335
#     4  11  22  38  54  80 116 146 182 226 280 338
#     4   9  18  32  54  80 107 140 184 231 271 327
#     4  11  23  38  56  81 111 144 188 230 275 335
#     4   9  18  30  50  83 113 145 183 231 288 328
#     4  10  17  32  55  79 113 141 182 240 273 330
#     4  10  19  36  55  81 110 142 188 226 283 333
#
# _framework density 19.924254000000001
#
# number of rings (size 3 to 8) (size 9 to 14) (size 15 to 20)
#    0.000    1.750    3.750    2.250    0.000    1.500 
#    0.000    0.000    0.000    0.000    0.000    0.000 
#    0.000    0.000    0.000    0.000    0.000    0.000 
#
# Total GULP energy -178202.580466 kJ/mol
# GULP energy per Si atom -5568.830640 kJ/mol
# Density = 1.987891 g / cm^3
# Si number density = 19.924254 Si / 1000 Ang^3
#
#
#
# Elastic Constant Matrix: (Units=GPa)
#
#
# Indices 1 2 3 4 5 6 
#
# 1 60.6579 6.8982 9.3381 0.0000 10.9648 0.0000
# 2 6.8982 81.2375 10.5127 0.0000 18.1431 0.0000
# 3 9.3381 10.5127 50.4145 0.0000 13.9761 0.0000
# 4 0.0000 0.0000 0.0000 17.1014 0.0000 -0.0880
# 5 10.9648 18.1431 13.9761 0.0000 12.6426 0.0000
# 6 0.0000 0.0000 0.0000 -0.0880 0.0000 15.1628
#
#
#
# Elastic Compliance Matrix: (Units=1/GPa)
#
#
# Indices 1 2 3 4 5 6 
#
# 1 0.020335 0.003711 0.002632 0.000000 -0.025871 0.000000
# 2 0.003711 0.019690 0.005670 0.000000 -0.037743 0.000000
# 3 0.002632 0.005670 0.030358 0.000000 -0.043980 0.000000
# 4 0.000000 0.000000 0.000000 0.058477 0.000000 0.000339
# 5 -0.025871 -0.037743 -0.043980 0.000000 0.204319 0.000000
# 6 0.000000 0.000000 0.000000 0.000339 0.000000 0.065953
#
#
# Mechanical properties :
#
#
# Convention : Reuss Voigt Hill
#
# Bulk Modulus (GPa) = 10.59229 27.31199 18.95214
# Shear Modulus (GPa) = 12.29780 20.01874 16.15827
#
# Velocity S-wave (km/s) = 2.48710 3.17321 2.85087
# Velocity P-wave (km/s) = 3.68448 5.21184 4.51324
#
# Compressibility (1/GPa) = 0.09440828
#
# Stress axis : x y z
#
# Youngs Moduli (GPa) = 49.17551 50.78686 32.94017
#
# Poissons Ratio (x) = -0.18845 -0.08669
# Poissons Ratio (y) = -0.18247 -0.18678
# Poissons Ratio (z) = -0.12941 -0.28797
#
# Static dielectric constant tensor:
#      x y z
#    x 1.740100 0.000000 -0.000680 
#    y 0.000000 1.764180 0.000000 
#    z -0.000680 0.000000 1.712670 
# 
# From -- ./inp_files/41740.got.cif
#   From: 2010.05.17/outbox.cif.g08.bks.cpg/sg11_21_cif.got.tgz:41740.got - 2010.06.03 12:22:45.
