data_PCOD9156360
_publ_section_title
;
Structure prediction by ZEFSAII (Michael W. Deem and Ramdas Pophale) SiO2 
 PCOD9156360
Probable space group: P 21/M
;
_chemical_formula_sum "Si O2"
_cell_formula_units_Z 24
_cell_length_a 14.600454
_cell_length_b 8.670870
_cell_length_c 27.503819
_cell_angle_alpha 90.000000
_cell_angle_beta 154.673938
_cell_angle_gamma 90.000000
_cell_volume 1489.468775
_symmetry_space_group_name_H-M "P 21/M"
_symmetry_group_IT_number 11
_symmetry_cell_setting 'monoclinic'
loop_
_space_group_symop_operation_xyz
x,y,z
-x,1/2+y,-z
-x,-y,-z
x,1/2-y,z
loop_
_atom_site_type_symbol
_atom_site_label
_atom_site_fract_x
_atom_site_fract_y
_atom_site_fract_z
Si Si1 0.024283 0.066437 0.432674
Si Si2 0.666318 0.064348 0.341902
Si Si3 0.820716 0.933385 0.242443
Si Si4 0.653691 0.935552 0.964449
Si Si5 0.738504 0.434250 0.104172
Si Si6 0.217160 0.435902 0.082101
O O1 0.023821 0.250000 0.425290
O O2 0.824643 0.027391 0.372727
O O3 0.985573 0.983032 0.363170
O O4 0.232997 0.013235 0.562314
O O5 0.671288 0.250000 0.350057
O O6 0.427537 0.015172 0.213256
O O7 0.802860 0.750000 0.230264
O O8 0.589147 0.001866 0.147272
O O9 0.871686 0.003106 0.213799
O O10 0.645058 0.750000 0.963667
O O11 0.747042 0.980736 0.956976
O O12 0.787179 0.002474 0.073877
O O13 0.733973 0.250000 0.102142
O O14 0.500000 0.500000 0.000000
O O15 0.212028 0.250000 0.080846
O O16 0.000000 0.500000 0.000000
#
# Coordination Sequence:
#
# PCOD9156360 Si02
#       6
#     4   4   4   4   4   4
#     4  10  18  30  48  70  97 127 159 197 242 290
#     4   9  18  33  47  67  96 127 161 199 243 284
#     4  11  19  28  45  70  97 129 160 192 238 294
#     4  10  18  32  47  65  95 128 160 202 243 281
#     4  10  18  28  43  66  94 125 158 195 237 290
#     4  10  21  35  51  70  97 130 166 205 240 280
#
# _framework density 16.113126999999999
#
# number of rings (size 3 to 8) (size 9 to 14) (size 15 to 20)
#    0.000    2.000    1.667    6.000    0.000    2.667 
#    0.000    0.000    0.000    0.000    0.000    1.167 
#    0.000    0.000    0.000    0.000    0.000    0.000 
#
# Total GULP energy -133861.902026 kJ/mol
# GULP energy per Si atom -5577.579251 kJ/mol
# Density = 1.607645 g / cm^3
# Si number density = 16.113127 Si / 1000 Ang^3
#
#
#
# Elastic Constant Matrix: (Units=GPa)
#
#
# Indices 1 2 3 4 5 6 
#
# 1 94.5995 41.1300 69.5591 0.0000 -25.6480 0.0000
# 2 41.1300 84.1165 38.5980 0.0000 -17.9472 0.0000
# 3 69.5591 38.5980 105.8630 0.0000 -23.6038 0.0000
# 4 0.0000 0.0000 0.0000 25.9624 0.0000 -5.8066
# 5 -25.6480 -17.9472 -23.6038 0.0000 32.9019 0.0000
# 6 0.0000 0.0000 0.0000 -5.8066 0.0000 24.2194
#
#
#
# Elastic Compliance Matrix: (Units=1/GPa)
#
#
# Indices 1 2 3 4 5 6 
#
# 1 0.023311 -0.004301 -0.012166 0.000000 0.007097 0.000000
# 2 -0.004301 0.015744 -0.002080 0.000000 0.003743 0.000000
# 3 -0.012166 -0.002080 0.018845 0.000000 0.002901 0.000000
# 4 0.000000 0.000000 0.000000 0.040700 0.000000 0.009758
# 5 0.007097 0.003743 0.002901 0.000000 0.040049 0.000000
# 6 0.000000 0.000000 0.000000 0.009758 0.000000 0.043629
#
#
# Mechanical properties :
#
#
# Convention : Reuss Voigt Hill
#
# Bulk Modulus (GPa) = 48.06181 64.79481 56.42831
# Shear Modulus (GPa) = 22.09379 25.63620 23.86500
#
# Velocity S-wave (km/s) = 3.70694 3.99308 3.85267
# Velocity P-wave (km/s) = 6.94366 7.84597 7.40857
#
# Compressibility (1/GPa) = 0.02080654
#
# Stress axis : x y z
#
# Youngs Moduli (GPa) = 42.89800 63.51466 53.06373
#
# Poissons Ratio (x) = 0.27320 0.64558
# Poissons Ratio (y) = 0.18452 0.11035
# Poissons Ratio (z) = 0.52190 0.13208
#
# Static dielectric constant tensor:
#      x y z
#    x 1.546650 0.000000 -0.039940 
#    y 0.000000 1.540830 0.000000 
#    z -0.039940 0.000000 1.540950 
# 
# From -- ./inp_files/37238.got.cif
#   From: 2010.05.17/outbox.cif.g08.bks.cpg/sg11_19_cif.got.tgz:37238.got - 2010.06.03 12:22:45.
