data_PCOD9156364
_publ_section_title
;
Structure prediction by ZEFSAII (Michael W. Deem and Ramdas Pophale) SiO2 
 PCOD9156364
Probable space group: P 21/M
;
_chemical_formula_sum "Si O2"
_cell_formula_units_Z 32
_cell_length_a 29.555405
_cell_length_b 7.439625
_cell_length_c 23.047164
_cell_angle_alpha 90.000000
_cell_angle_beta 18.679074
_cell_angle_gamma 90.000000
_cell_volume 1622.996838
_symmetry_space_group_name_H-M "P 21/M"
_symmetry_group_IT_number 11
_symmetry_cell_setting 'monoclinic'
loop_
_space_group_symop_operation_xyz
x,y,z
-x,1/2+y,-z
-x,-y,-z
x,1/2-y,z
loop_
_atom_site_type_symbol
_atom_site_label
_atom_site_fract_x
_atom_site_fract_y
_atom_site_fract_z
Si Si1 0.423322 0.464259 0.653358
Si Si2 0.922429 0.034820 0.155145
Si Si3 0.066433 0.468816 0.220140
Si Si4 0.360418 0.468816 0.926152
Si Si5 0.927109 0.464550 0.502362
Si Si6 0.100796 0.029731 0.048893
Si Si7 0.786053 0.964554 0.784478
Si Si8 0.400170 0.970264 0.450144
O O1 0.500000 0.500000 0.500000
O O2 0.413139 0.250000 0.673724
O O3 0.516423 0.530939 0.593809
O O4 0.263115 0.530935 0.847122
O O5 0.915173 0.250000 0.169657
O O6 0.761301 0.968038 0.352328
O O7 0.011444 0.968041 0.102184
O O8 0.000000 0.000000 0.000000
O O9 0.067226 0.250000 0.218169
O O10 0.948705 0.527333 0.410126
O O11 0.046460 0.527068 0.178357
O O12 0.221363 0.520290 0.057270
O O13 0.361980 0.250000 0.923412
O O14 0.503902 0.527071 0.720911
O O15 0.333632 0.527330 0.025195
O O16 0.938491 0.250000 0.486338
O O17 0.795159 0.500006 0.704843
O O18 0.066957 0.534603 0.366084
O O19 0.099752 0.250000 0.049198
O O20 0.788146 0.750000 0.787028
O O21 0.397649 0.750000 0.453402
#
# Coordination Sequence:
#
# PCOD9156364 Si02
#       8
#     4   4   4   4   4   4   4   4
#     4  10  18  28  44  62  81 106 134 166 205 250
#     4  10  20  32  46  64  85 108 136 174 213 248
#     4   8  12  21  38  59  80 104 137 171 199 233
#     4   8  12  21  38  59  80 104 137 171 199 233
#     4   8  13  20  33  54  79 105 130 159 196 236
#     4   9  16  27  43  63  83 106 138 173 206 241
#     4   8  13  20  33  54  79 105 130 159 196 236
#     4   9  16  27  43  63  83 106 138 173 206 241
#
# _framework density 19.716614
#
# number of rings (size 3 to 8) (size 9 to 14) (size 15 to 20)
#    0.000    3.250    1.250    2.250    0.000    0.000 
#    0.000    0.000    0.000    3.000    0.000    0.875 
#    0.000    0.000    0.000    0.000    0.000    0.000 
#
# Total GULP energy -178260.686765 kJ/mol
# GULP energy per Si atom -5570.646461 kJ/mol
# Density = 1.967174 g / cm^3
# Si number density = 19.716614 Si / 1000 Ang^3
#
#
#
# Elastic Constant Matrix: (Units=GPa)
#
#
# Indices 1 2 3 4 5 6 
#
# 1 153.7212 5.5140 121.4063 0.0000 29.0136 0.0000
# 2 5.5140 58.5642 4.3649 0.0000 -3.1948 0.0000
# 3 121.4063 4.3649 177.6394 0.0000 37.1138 0.0000
# 4 0.0000 0.0000 0.0000 8.5520 0.0000 12.4881
# 5 29.0136 -3.1948 37.1138 0.0000 43.7873 0.0000
# 6 0.0000 0.0000 0.0000 12.4881 0.0000 4.0289
#
#
#
# Elastic Compliance Matrix: (Units=1/GPa)
#
#
# Indices 1 2 3 4 5 6 
#
# 1 0.014239 -0.000724 -0.009396 0.000000 -0.001524 0.000000
# 2 -0.000724 0.017281 -0.000357 0.000000 0.002043 0.000000
# 3 -0.009396 -0.000357 0.013081 0.000000 -0.004888 0.000000
# 4 0.000000 0.000000 0.000000 -0.033160 0.000000 0.102784
# 5 -0.001524 0.002043 -0.004888 0.000000 0.028139 0.000000
# 6 0.000000 0.000000 0.000000 0.102784 0.000000 -0.070388
#
#
# Mechanical properties :
#
#
# Convention : Reuss Voigt Hill
#
# Bulk Modulus (GPa) = 42.28450 72.49948 57.39199
# Shear Modulus (GPa) = -2535.74371 28.51628 -1253.61372
#
# Velocity S-wave (km/s) = -35.90107 3.80716 -25.24275
# Velocity P-wave (km/s) = 41.19494 7.49510 28.64303
#
# Compressibility (1/GPa) = 0.02364933
#
# Stress axis : x y z
#
# Youngs Moduli (GPa) = 70.22784 57.86555 76.44899
#
# Poissons Ratio (x) = 0.04187 0.71828
# Poissons Ratio (y) = 0.05081 0.02729
# Poissons Ratio (z) = 0.65983 0.02065
#
# Static dielectric constant tensor:
#      x y z
#    x 1.670000 0.000000 0.016460 
#    y 0.000000 1.765690 0.000000 
#    z 0.016460 0.000000 1.675970 
# 
# From -- ./inp_files/61431.got.cif
#   From: 2010.05.17/outbox.cif.g08.bks.cpg/sg11_31_cif.got.tgz:61431.got - 2010.06.03 12:22:45.
