data_PCOD9156343
_publ_section_title
;
Structure prediction by ZEFSAII (Michael W. Deem and Ramdas Pophale) SiO2 
 PCOD9156343
Probable space group: P 21/M
;
_chemical_formula_sum "Si O2"
_cell_formula_units_Z 32
_cell_length_a 23.955664
_cell_length_b 8.646289
_cell_length_c 11.459083
_cell_angle_alpha 90.000000
_cell_angle_beta 55.693654
_cell_angle_gamma 90.000000
_cell_volume 1960.589781
_symmetry_space_group_name_H-M "P 21/M"
_symmetry_group_IT_number 11
_symmetry_cell_setting 'monoclinic'
loop_
_space_group_symop_operation_xyz
x,y,z
-x,1/2+y,-z
-x,-y,-z
x,1/2-y,z
loop_
_atom_site_type_symbol
_atom_site_label
_atom_site_fract_x
_atom_site_fract_y
_atom_site_fract_z
Si Si1 0.098617 0.563593 0.818436
Si Si2 0.233796 0.935198 0.533316
Si Si3 0.658886 0.064784 0.901214
Si Si4 0.485297 0.936219 0.887688
Si Si5 0.796129 0.935233 0.689150
Si Si6 0.935950 0.935104 0.645050
Si Si7 0.966789 0.065090 0.859920
Si Si8 0.629646 0.935700 0.676103
O O1 0.093068 0.750000 0.815899
O O2 0.173915 0.519464 0.691692
O O3 0.042786 0.490274 0.799031
O O4 0.077634 0.519586 0.974571
O O5 0.239517 0.750000 0.524438
O O6 0.211742 0.992219 0.430350
O O7 0.307351 0.006027 0.473608
O O8 0.665898 0.250000 0.897735
O O9 0.730914 0.987982 0.840831
O O10 0.642707 0.012929 0.787256
O O11 0.591494 0.016173 0.052064
O O12 0.484011 0.750000 0.896069
O O13 0.552206 0.977793 0.734822
O O14 0.500000 0.000000 0.000000
O O15 0.794913 0.750000 0.678852
O O16 0.866117 0.984158 0.665810
O O17 0.938491 0.750000 0.639239
O O18 0.940408 0.992100 0.772302
O O19 0.000000 0.000000 0.500000
O O20 0.966188 0.250000 0.850571
O O21 0.633843 0.750000 0.682926
#
# Coordination Sequence:
#
# PCOD9156343 Si02
#       8
#     4   4   4   4   4   4   4   4
#     4   9  19  34  50  68  91 117 145 181 222 263
#     4  10  18  28  43  63  88 117 148 179 213 255
#     4   9  15  24  38  55  77 109 146 178 211 252
#     4   8  14  22  33  51  76 107 141 175 209 248
#     4  10  20  31  42  61  88 116 147 181 217 257
#     4  11  23  36  50  68  91 118 148 183 221 263
#     4  10  20  34  52  71  89 113 147 184 222 264
#     4   9  15  23  35  54  82 112 142 176 212 251
#
# _framework density 16.321619999999999
#
# number of rings (size 3 to 8) (size 9 to 14) (size 15 to 20)
#    0.000    2.500    0.000    4.500    0.000    6.500 
#    0.000    0.000    0.000    0.000    0.000    0.000 
#    0.000    1.000    0.000    2.250    0.000    6.625 
#
# Total GULP energy -178206.616274 kJ/mol
# GULP energy per Si atom -5568.956759 kJ/mol
# Density = 1.628447 g / cm^3
# Si number density = 16.321620 Si / 1000 Ang^3
#
#
#
# Elastic Constant Matrix: (Units=GPa)
#
#
# Indices 1 2 3 4 5 6 
#
# 1 77.9124 16.1258 50.3541 0.0000 -34.3327 0.0000
# 2 16.1258 21.8824 14.9902 0.0000 -8.2470 0.0000
# 3 50.3541 14.9902 81.1654 0.0000 -37.8730 0.0000
# 4 0.0000 0.0000 0.0000 18.3715 0.0000 -3.0330
# 5 -34.3327 -8.2470 -37.8730 0.0000 37.9105 0.0000
# 6 0.0000 0.0000 0.0000 -3.0330 0.0000 21.0771
#
#
#
# Elastic Compliance Matrix: (Units=1/GPa)
#
#
# Indices 1 2 3 4 5 6 
#
# 1 0.025720 -0.008317 -0.008234 0.000000 0.013257 0.000000
# 2 -0.008317 0.055220 -0.005522 0.000000 -0.001036 0.000000
# 3 -0.008234 -0.005522 0.026990 0.000000 0.018305 0.000000
# 4 0.000000 0.000000 0.000000 0.055757 0.000000 0.008023
# 5 0.013257 -0.001036 0.018305 0.000000 0.056446 0.000000
# 6 0.000000 0.000000 0.000000 0.008023 0.000000 0.048599
#
#
# Mechanical properties :
#
#
# Convention : Reuss Voigt Hill
#
# Bulk Modulus (GPa) = 15.67796 38.21116 26.94456
# Shear Modulus (GPa) = 14.96378 22.10450 18.53414
#
# Velocity S-wave (km/s) = 3.03117 3.68408 3.37346
# Velocity P-wave (km/s) = 4.67730 6.44661 5.63187
#
# Compressibility (1/GPa) = 0.06378383
#
# Stress axis : x y z
#
# Youngs Moduli (GPa) = 38.88035 18.10932 37.05024
#
# Poissons Ratio (x) = 0.15061 0.30509
# Poissons Ratio (y) = 0.32335 0.20460
# Poissons Ratio (z) = 0.32015 0.10001
#
# Static dielectric constant tensor:
#      x y z
#    x 1.556390 0.000000 -0.056050 
#    y 0.000000 1.548450 0.000000 
#    z -0.056050 0.000000 1.580290 
# 
# From -- ./inp_files/42455.got.cif
#   From: 2010.05.17/outbox.cif.g08.bks.cpg/sg11_22_cif.got.tgz:42455.got - 2010.06.03 12:22:45.
