data_PCOD9156872
_publ_section_title
;
Structure prediction by ZEFSAII (Michael W. Deem and Ramdas Pophale) SiO2 
 PCOD9156872
Probable space group: P 21/M
;
_chemical_formula_sum "Si O2"
_cell_formula_units_Z 26
_cell_length_a 8.487657
_cell_length_b 19.521046
_cell_length_c 11.225234
_cell_angle_alpha 90.000000
_cell_angle_beta 41.253859
_cell_angle_gamma 90.000000
_cell_volume 1226.402182
_symmetry_space_group_name_H-M "P 21/M"
_symmetry_group_IT_number 11
_symmetry_cell_setting 'monoclinic'
loop_
_space_group_symop_operation_xyz
x,y,z
-x,1/2+y,-z
-x,-y,-z
x,1/2-y,z
loop_
_atom_site_type_symbol
_atom_site_label
_atom_site_fract_x
_atom_site_fract_y
_atom_site_fract_z
Si Si1 0.260891 0.977396 0.499326
Si Si2 0.023170 0.750000 0.680195
Si Si3 0.567352 0.401567 0.051486
Si Si4 0.471127 0.750000 0.937680
Si Si5 0.268947 0.022037 0.869546
Si Si6 0.935706 0.096989 0.626889
Si Si7 0.166335 0.750000 0.347405
Si Si8 0.901252 0.892623 0.835466
O O1 0.544272 0.968360 0.342790
O O2 0.172770 0.933062 0.433865
O O3 0.108880 0.947027 0.693500
O O4 0.170006 0.054142 0.526410
O O5 0.020603 0.818727 0.757988
O O6 0.210768 0.750000 0.464666
O O7 0.757460 0.750000 0.772455
O O8 0.614694 0.461537 0.117169
O O9 0.297267 0.402050 0.155392
O O10 0.614336 0.322881 0.065517
O O11 0.743022 0.415292 0.840614
O O12 0.383656 0.750000 0.127456
O O13 0.240505 0.090697 0.964009
O O14 0.000000 0.000000 0.000000
O O15 0.968681 0.178449 0.598483
#
# Coordination Sequence:
#
# PCOD9156872 Si02
#       8
#     4   2   4   2   4   4   2   4
#     4  11  21  34  59  83 112 149 191 233 290 331
#     4  10  20  32  59  89 116 141 178 237 300 338
#     4  10  18  38  59  86 117 145 190 236 288 337
#     4   8  20  30  55  87 119 143 179 237 288 345
#     4  12  26  40  55  82 117 159 198 236 279 337
#     4  10  18  32  59  91 113 145 181 242 287 343
#     4  10  18  30  50  92 125 134 177 236 306 337
#     4  11  21  39  62  88 115 144 192 239 291 343
#
# _framework density 21.200223000000001
#
# number of rings (size 3 to 8) (size 9 to 14) (size 15 to 20)
#    0.000    1.538    4.615    2.308    2.154    0.615 
#    0.000    0.769    0.000    0.000    0.000    0.000 
#    0.000    0.000    0.000    0.000    0.000    0.000 
#
# Total GULP energy -145179.068443 kJ/mol
# GULP energy per Si atom -5583.810325 kJ/mol
# Density = 2.115197 g / cm^3
# Si number density = 21.200223 Si / 1000 Ang^3
#
#
#
# Elastic Constant Matrix: (Units=GPa)
#
#
# Indices 1 2 3 4 5 6 
#
# 1 25.3860 9.7029 9.6626 0.0000 -18.5634 0.0000
# 2 9.7029 115.9135 23.6460 0.0000 0.0812 0.0000
# 3 9.6626 23.6460 127.4946 0.0000 -13.0865 0.0000
# 4 0.0000 0.0000 0.0000 24.0557 0.0000 -2.5078
# 5 -18.5634 0.0812 -13.0865 0.0000 27.9889 0.0000
# 6 0.0000 0.0000 0.0000 -2.5078 0.0000 4.3631
#
#
#
# Elastic Compliance Matrix: (Units=1/GPa)
#
#
# Indices 1 2 3 4 5 6 
#
# 1 0.081673 -0.007019 0.000708 0.000000 0.054520 0.000000
# 2 -0.007019 0.009589 -0.001814 0.000000 -0.005532 0.000000
# 3 0.000708 -0.001814 0.008587 0.000000 0.004490 0.000000
# 4 0.000000 0.000000 0.000000 0.044220 0.000000 0.025416
# 5 0.054520 -0.005532 0.004490 0.000000 0.074004 0.000000
# 6 0.000000 0.000000 0.000000 0.025416 0.000000 0.243803
#
#
# Mechanical properties :
#
#
# Convention : Reuss Voigt Hill
#
# Bulk Modulus (GPa) = 11.96201 39.42411 25.69306
# Shear Modulus (GPa) = 9.88157 26.33371 18.10764
#
# Velocity S-wave (km/s) = 2.16129 3.52823 2.92571
# Velocity P-wave (km/s) = 3.44716 5.93585 4.85372
#
# Compressibility (1/GPa) = 0.08359802
#
# Stress axis : x y z
#
# Youngs Moduli (GPa) = 12.24397 104.28985 116.45331
#
# Poissons Ratio (x) = 0.73204 -0.08247
# Poissons Ratio (y) = 0.08594 0.21127
# Poissons Ratio (z) = -0.00867 0.18920
#
# Static dielectric constant tensor:
#      x y z
#    x 1.760060 0.000000 0.027640 
#    y 0.000000 1.789540 0.000000 
#    z 0.027640 0.000000 1.814950 
# 
# From -- ./inp_files/19324.got.cif
#   From: 2010.05.17/outbox.cif.g08.bks.cpg/sg11_10_cif.got.tgz:19324.got - 2010.06.03 12:22:45.
