data_PCOD9156618
_publ_section_title
;
Structure prediction by ZEFSAII (Michael W. Deem and Ramdas Pophale) SiO2 
 PCOD9156618
Probable space group: P 21/M
;
_chemical_formula_sum "Si O2"
_cell_formula_units_Z 32
_cell_length_a 5.151983
_cell_length_b 15.157992
_cell_length_c 20.607726
_cell_angle_alpha 90.000000
_cell_angle_beta 95.778643
_cell_angle_gamma 90.000000
_cell_volume 1601.155786
_symmetry_space_group_name_H-M "P 21/M"
_symmetry_group_IT_number 11
_symmetry_cell_setting 'monoclinic'
loop_
_space_group_symop_operation_xyz
x,y,z
-x,1/2+y,-z
-x,-y,-z
x,1/2-y,z
loop_
_atom_site_type_symbol
_atom_site_label
_atom_site_fract_x
_atom_site_fract_y
_atom_site_fract_z
Si Si1 0.058436 0.470601 0.206437
Si Si2 0.913981 0.459208 0.930142
Si Si3 0.691104 0.357821 0.541967
Si Si4 0.785412 0.141978 0.397175
Si Si5 0.401612 0.150472 0.896952
Si Si6 0.255778 0.355484 0.320696
Si Si7 0.428667 0.075048 0.760766
Si Si8 0.222225 0.356745 0.619067
O O1 0.080011 0.470808 0.129213
O O2 0.151343 0.386497 0.248842
O O3 0.271576 0.544023 0.234064
O O4 0.767887 0.497992 0.220080
O O5 0.629839 0.415001 0.925996
O O6 0.124531 0.385598 0.914177
O O7 0.000000 0.500000 0.000000
O O8 0.689986 0.250000 0.540114
O O9 0.740435 0.387214 0.469667
O O10 0.418899 0.384857 0.566773
O O11 0.930883 0.385101 0.593615
O O12 0.788083 0.250000 0.398103
O O13 0.543575 0.112596 0.346614
O O14 0.053449 0.113409 0.370790
O O15 0.447912 0.250000 0.919661
O O16 0.406068 0.144844 0.818714
O O17 0.261438 0.250000 0.322856
O O18 0.326788 0.108804 0.689818
O O19 0.224256 0.250000 0.621327
#
# Coordination Sequence:
#
# PCOD9156618 Si02
#       8
#     4   4   4   4   4   4   4   4
#     4  10  21  36  55  77 103 138 172 209 262 320
#     4  10  21  38  60  84 117 153 180 215 271 330
#     4   9  17  28  45  71  99 129 169 214 261 311
#     4   9  17  30  50  73  96 127 170 220 266 308
#     4  10  20  36  59  87 114 146 192 228 254 307
#     4  10  19  33  54  75  95 125 173 225 264 306
#     4  10  20  34  53  76 107 142 172 212 263 314
#     4  10  18  29  48  73 101 132 170 215 257 302
#
# _framework density 19.985562000000002
#
# number of rings (size 3 to 8) (size 9 to 14) (size 15 to 20)
#    0.000    2.250    0.000    3.375    0.000    3.000 
#    0.000    5.000    0.000   16.500    0.000    0.000 
#    0.000    0.000    0.000    0.000    0.000    0.000 
#
# Total GULP energy -178729.149527 kJ/mol
# GULP energy per Si atom -5585.285923 kJ/mol
# Density = 1.994007 g / cm^3
# Si number density = 19.985562 Si / 1000 Ang^3
#
#
#
# Elastic Constant Matrix: (Units=GPa)
#
#
# Indices 1 2 3 4 5 6 
#
# 1 58.3141 -4.4380 -18.9576 0.0000 0.8135 0.0000
# 2 -4.4380 21.6455 10.6594 0.0000 0.5510 0.0000
# 3 -18.9576 10.6594 78.0012 0.0000 13.6395 0.0000
# 4 0.0000 0.0000 0.0000 13.5662 0.0000 6.3498
# 5 0.8135 0.5510 13.6395 0.0000 26.6080 0.0000
# 6 0.0000 0.0000 0.0000 6.3498 0.0000 11.6060
#
#
#
# Elastic Compliance Matrix: (Units=1/GPa)
#
#
# Indices 1 2 3 4 5 6 
#
# 1 0.018914 0.001526 0.004937 0.000000 -0.003141 0.000000
# 2 0.001526 0.049831 -0.006866 0.000000 0.002441 0.000000
# 3 0.004937 -0.006866 0.016433 0.000000 -0.008433 0.000000
# 4 0.000000 0.000000 0.000000 0.099087 0.000000 -0.054212
# 5 -0.003141 0.002441 -0.008433 0.000000 0.041951 0.000000
# 6 0.000000 0.000000 0.000000 -0.054212 0.000000 0.115823
#
#
# Mechanical properties :
#
#
# Convention : Reuss Voigt Hill
#
# Bulk Modulus (GPa) = 11.85198 14.72091 13.28645
# Shear Modulus (GPa) = 13.47833 21.73586 17.60710
#
# Velocity S-wave (km/s) = 2.59975 3.30142 2.97137
# Velocity P-wave (km/s) = 3.86713 4.68127 4.29354
#
# Compressibility (1/GPa) = 0.08437407
#
# Stress axis : x y z
#
# Youngs Moduli (GPa) = 52.87190 20.06798 60.85282
#
# Poissons Ratio (x) = -0.03063 -0.30046
# Poissons Ratio (y) = -0.08070 0.41779
# Poissons Ratio (z) = -0.26105 0.13778
#
# Static dielectric constant tensor:
#      x y z
#    x 1.685940 0.000000 -0.004970 
#    y 0.000000 1.719120 0.000000 
#    z -0.004970 0.000000 1.679330 
# 
# From -- ./inp_files/57061.got.cif
#   From: 2010.05.17/outbox.cif.g08.bks.cpg/sg11_29_cif.got.tgz:57061.got - 2010.06.03 12:22:45.
