data_PCOD9156263
_publ_section_title
;
Structure prediction by ZEFSAII (Michael W. Deem and Ramdas Pophale) SiO2 
 PCOD9156263
Probable space group: P 21/M
;
_chemical_formula_sum "Si O2"
_cell_formula_units_Z 28
_cell_length_a 22.505215
_cell_length_b 7.739034
_cell_length_c 11.743815
_cell_angle_alpha 90.000000
_cell_angle_beta 130.738602
_cell_angle_gamma 90.000000
_cell_volume 1549.792101
_symmetry_space_group_name_H-M "P 21/M"
_symmetry_group_IT_number 11
_symmetry_cell_setting 'monoclinic'
loop_
_space_group_symop_operation_xyz
x,y,z
-x,1/2+y,-z
-x,-y,-z
x,1/2-y,z
loop_
_atom_site_type_symbol
_atom_site_label
_atom_site_fract_x
_atom_site_fract_y
_atom_site_fract_z
Si Si1 0.952192 0.951663 0.616802
Si Si2 0.106386 0.048481 0.696037
Si Si3 0.429644 0.538440 0.274007
Si Si4 0.402244 0.049036 0.503266
Si Si5 0.922746 0.958498 0.831647
Si Si6 0.235252 0.460261 0.243294
Si Si7 0.261260 0.545992 0.011239
O O1 0.930298 0.750000 0.594400
O O2 0.910030 0.024210 0.450946
O O3 0.931449 0.026768 0.713660
O O4 0.044930 0.964391 0.706630
O O5 0.084562 0.250000 0.666747
O O6 0.194752 0.032821 0.848836
O O7 0.430186 0.750000 0.282363
O O8 0.516162 0.479988 0.342585
O O9 0.416820 0.466604 0.385384
O O10 0.351428 0.486351 0.108630
O O11 0.398166 0.250000 0.530911
O O12 0.314670 0.975813 0.405874
O O13 0.917615 0.750000 0.820263
O O14 0.844149 0.020266 0.796205
O O15 0.000000 0.000000 0.000000
O O16 0.236892 0.250000 0.246700
O O17 0.239592 0.512987 0.116488
O O18 0.259619 0.750000 0.989670
#
# Coordination Sequence:
#
# PCOD9156263 Si02
#       7
#     4   4   4   4   4   4   4
#     4   9  19  34  48  62  83 110 139 173 211 247
#     4  10  19  31  47  64  82 107 141 177 210 245
#     4   8  14  23  36  56  82 110 136 164 202 245
#     4   8  13  23  38  56  80 108 137 168 201 240
#     4  10  20  32  45  63  86 111 138 168 204 246
#     4   9  17  28  43  63  86 112 142 173 205 246
#     4  10  18  27  41  63  90 115 139 169 207 249
#
# _framework density 18.066939999999999
#
# number of rings (size 3 to 8) (size 9 to 14) (size 15 to 20)
#    0.000    2.857    0.000    1.714    0.000    4.571 
#    0.000    0.000    0.000    0.000    0.000    1.000 
#    0.000    0.000    0.000    0.000    0.000    0.000 
#
# Total GULP energy -155888.118247 kJ/mol
# GULP energy per Si atom -5567.432795 kJ/mol
# Density = 1.802582 g / cm^3
# Si number density = 18.066940 Si / 1000 Ang^3
#
#
#
# Elastic Constant Matrix: (Units=GPa)
#
#
# Indices 1 2 3 4 5 6 
#
# 1 93.9649 -0.6116 60.5091 0.0000 26.9566 0.0000
# 2 -0.6116 29.1933 -2.1755 0.0000 -2.6462 0.0000
# 3 60.5091 -2.1755 112.7142 0.0000 33.0692 0.0000
# 4 0.0000 0.0000 0.0000 14.6495 0.0000 0.8132
# 5 26.9566 -2.6462 33.0692 0.0000 33.5618 0.0000
# 6 0.0000 0.0000 0.0000 0.8132 0.0000 9.6621
#
#
#
# Elastic Compliance Matrix: (Units=1/GPa)
#
#
# Indices 1 2 3 4 5 6 
#
# 1 0.017280 -0.000793 -0.007317 0.000000 -0.006733 0.000000
# 2 -0.000793 0.034540 0.000150 0.000000 0.003213 0.000000
# 3 -0.007317 0.000150 0.015579 0.000000 -0.009461 0.000000
# 4 0.000000 0.000000 0.000000 0.068582 0.000000 -0.005772
# 5 -0.006733 0.003213 -0.009461 0.000000 0.044779 0.000000
# 6 0.000000 0.000000 0.000000 -0.005772 0.000000 0.103983
#
#
# Mechanical properties :
#
#
# Convention : Reuss Voigt Hill
#
# Bulk Modulus (GPa) = 19.42546 39.03515 29.23031
# Shear Modulus (GPa) = 15.73203 23.45138 19.59171
#
# Velocity S-wave (km/s) = 2.95407 3.60672 3.29659
# Velocity P-wave (km/s) = 4.73399 6.24479 5.54112
#
# Compressibility (1/GPa) = 0.05147882
#
# Stress axis : x y z
#
# Youngs Moduli (GPa) = 57.86992 28.95176 64.19052
#
# Poissons Ratio (x) = 0.02297 0.46966
# Poissons Ratio (y) = 0.04592 -0.00963
# Poissons Ratio (z) = 0.42341 -0.00434
#
# Static dielectric constant tensor:
#      x y z
#    x 1.625240 0.000000 0.039420 
#    y 0.000000 1.679080 0.000000 
#    z 0.039420 0.000000 1.649580 
# 
# From -- ./inp_files/42327.got.cif
#   From: 2010.05.17/outbox.cif.g08.bks.cpg/sg11_22_cif.got.tgz:42327.got - 2010.06.03 12:22:45.
