data_PCOD9156147
_publ_section_title
;
Structure prediction by ZEFSAII (Michael W. Deem and Ramdas Pophale) SiO2 
 PCOD9156147
Probable space group: P 21/M
;
_chemical_formula_sum "Si O2"
_cell_formula_units_Z 32
_cell_length_a 12.403389
_cell_length_b 19.302056
_cell_length_c 20.256938
_cell_angle_alpha 90.000000
_cell_angle_beta 156.227723
_cell_angle_gamma 90.000000
_cell_volume 1954.939259
_symmetry_space_group_name_H-M "P 21/M"
_symmetry_group_IT_number 11
_symmetry_cell_setting 'monoclinic'
loop_
_space_group_symop_operation_xyz
x,y,z
-x,1/2+y,-z
-x,-y,-z
x,1/2-y,z
loop_
_atom_site_type_symbol
_atom_site_label
_atom_site_fract_x
_atom_site_fract_y
_atom_site_fract_z
Si Si1 0.832958 0.597215 0.447994
Si Si2 0.292176 0.934057 0.607441
Si Si3 0.712706 0.074973 0.686997
Si Si4 0.086130 0.426817 0.015761
Si Si5 0.915389 0.832065 0.775207
Si Si6 0.219034 0.332398 0.445670
Si Si7 0.280154 0.667631 0.098877
Si Si8 0.583343 0.072496 0.468421
O O1 0.759573 0.516478 0.415912
O O2 0.894967 0.630187 0.553917
O O3 0.569285 0.635415 0.273547
O O4 0.077489 0.602067 0.534295
O O5 0.596701 0.919603 0.799837
O O6 0.269009 0.914382 0.517430
O O7 0.516067 0.136845 0.599415
O O8 0.752463 0.078061 0.630555
O O9 0.545847 0.004354 0.606827
O O10 0.973769 0.074109 0.878433
O O11 0.000000 0.500000 0.000000
O O12 0.929067 0.368132 0.968564
O O13 0.858535 0.750000 0.748749
O O14 0.939046 0.848063 0.710787
O O15 0.665162 0.875354 0.662189
O O16 0.169145 0.847134 0.963159
O O17 0.228764 0.250000 0.460804
O O18 0.287134 0.750000 0.112773
#
# Coordination Sequence:
#
# PCOD9156147 Si02
#       8
#     4   4   4   4   4   4   4   4
#     4  11  22  36  52  79 110 152 181 217 272 332
#     4  11  22  36  54  77 115 143 179 224 278 326
#     4  10  19  28  55  83 105 137 180 221 276 315
#     4  12  18  34  55  83 108 142 177 232 274 308
#     4   9  19  31  53  82 107 137 179 230 270 312
#     4  10  18  34  54  78 108 141 182 222 265 319
#     4  11  20  34  56  83 108 140 188 225 264 324
#     4  10  17  33  51  79 111 139 173 225 271 325
#
# _framework density 16.368794999999999
#
# number of rings (size 3 to 8) (size 9 to 14) (size 15 to 20)
#    0.000    1.500    6.250    0.375    0.000    0.000 
#    0.000    3.750    0.000    3.000    0.000    0.000 
#    0.000    0.000    0.000    0.000    0.000    0.000 
#
# Total GULP energy -178515.640096 kJ/mol
# GULP energy per Si atom -5578.613753 kJ/mol
# Density = 1.633154 g / cm^3
# Si number density = 16.368795 Si / 1000 Ang^3
#
#
#
# Elastic Constant Matrix: (Units=GPa)
#
#
# Indices 1 2 3 4 5 6 
#
# 1 163.2782 44.4715 78.6048 0.0000 -7.3817 0.0000
# 2 44.4715 57.6521 27.5565 0.0000 -0.2950 0.0000
# 3 78.6048 27.5565 88.0904 0.0000 -5.4130 0.0000
# 4 0.0000 0.0000 0.0000 16.3740 0.0000 -0.4054
# 5 -7.3817 -0.2950 -5.4130 0.0000 31.5049 0.0000
# 6 0.0000 0.0000 0.0000 -0.4054 0.0000 23.3693
#
#
#
# Elastic Compliance Matrix: (Units=1/GPa)
#
#
# Indices 1 2 3 4 5 6 
#
# 1 0.011798 -0.004818 -0.008948 0.000000 0.001182 0.000000
# 2 -0.004818 0.022388 -0.002791 0.000000 -0.001399 0.000000
# 3 -0.008948 -0.002791 0.020293 0.000000 0.001364 0.000000
# 4 0.000000 0.000000 0.000000 0.061099 0.000000 0.001060
# 5 0.001182 -0.001399 0.001364 0.000000 0.032239 0.000000
# 6 0.000000 0.000000 0.000000 0.001060 0.000000 0.042810
#
#
# Mechanical properties :
#
#
# Convention : Reuss Voigt Hill
#
# Bulk Modulus (GPa) = 46.80079 67.80961 57.30520
# Shear Modulus (GPa) = 21.65813 24.80884 23.23348
#
# Velocity S-wave (km/s) = 3.64144 3.89732 3.77155
# Velocity P-wave (km/s) = 6.80688 7.85927 7.35193
#
# Compressibility (1/GPa) = 0.02136716
#
# Stress axis : x y z
#
# Youngs Moduli (GPa) = 84.76299 44.66615 49.27846
#
# Poissons Ratio (x) = 0.21518 0.44092
# Poissons Ratio (y) = 0.40835 0.13752
# Poissons Ratio (z) = 0.75842 0.12465
#
# Static dielectric constant tensor:
#      x y z
#    x 1.564100 0.000000 -0.039020 
#    y 0.000000 1.547260 0.000000 
#    z -0.039020 0.000000 1.530620 
# 
# From -- ./inp_files/64922.got.cif
#   From: 2010.05.17/outbox.cif.g08.bks.cpg/sg11_33_cif.got.tgz:64922.got - 2010.06.03 12:22:45.
