data_PCOD9156172
_publ_section_title
;
Structure prediction by ZEFSAII (Michael W. Deem and Ramdas Pophale) SiO2 
 PCOD9156172
Probable space group: P 21/M
;
_chemical_formula_sum "Si O2"
_cell_formula_units_Z 24
_cell_length_a 8.176589
_cell_length_b 16.831680
_cell_length_c 18.343619
_cell_angle_alpha 90.000000
_cell_angle_beta 31.406372
_cell_angle_gamma 90.000000
_cell_volume 1315.556559
_symmetry_space_group_name_H-M "P 21/M"
_symmetry_group_IT_number 11
_symmetry_cell_setting 'monoclinic'
loop_
_space_group_symop_operation_xyz
x,y,z
-x,1/2+y,-z
-x,-y,-z
x,1/2-y,z
loop_
_atom_site_type_symbol
_atom_site_label
_atom_site_fract_x
_atom_site_fract_y
_atom_site_fract_z
Si Si1 0.475764 0.510773 0.173575
Si Si2 0.755800 0.060947 0.937743
Si Si3 0.785620 0.448172 0.423702
Si Si4 0.597395 0.661079 0.030518
Si Si5 0.258974 0.840883 0.692695
Si Si6 0.544701 0.501060 0.319549
O O1 0.576492 0.595320 0.101562
O O2 0.511860 0.507121 0.245884
O O3 0.115381 0.492638 0.291037
O O4 0.680540 0.444969 0.052167
O O5 0.669577 0.140590 0.927961
O O6 0.106220 0.031136 0.792487
O O7 0.500000 0.000000 0.000000
O O8 0.500000 0.500000 0.500000
O O9 0.794537 0.369847 0.370287
O O10 0.700344 0.445810 0.541614
O O11 0.562171 0.750000 0.072030
O O12 0.928704 0.655070 0.861898
O O13 0.371889 0.750000 0.652888
O O14 0.473924 0.908848 0.647960
#
# Coordination Sequence:
#
# PCOD9156172 Si02
#       6
#     4   4   4   4   4   4
#     4  11  20  35  58  82 112 142 180 226 277 326
#     4  10  17  34  55  78 103 142 186 216 259 322
#     4  10  20  37  57  80 105 146 189 216 263 337
#     4  10  19  34  56  82 108 144 189 232 268 312
#     4  10  19  35  56  81 108 145 187 229 268 317
#     4  11  21  35  57  85 111 145 180 224 276 333
#
# _framework density 18.243228999999999
#
# number of rings (size 3 to 8) (size 9 to 14) (size 15 to 20)
#    0.000    1.667    5.000    4.000    0.000    0.000 
#    0.000   10.833    0.000    0.000    0.000    0.000 
#    0.000    0.000    0.000    0.000    0.000    0.000 
#
# Total GULP energy -133757.628080 kJ/mol
# GULP energy per Si atom -5573.234503 kJ/mol
# Density = 1.820171 g / cm^3
# Si number density = 18.243229 Si / 1000 Ang^3
#
#
#
# Elastic Constant Matrix: (Units=GPa)
#
#
# Indices 1 2 3 4 5 6 
#
# 1 67.3732 33.6172 22.4803 0.0000 30.8183 0.0000
# 2 33.6172 95.7610 27.3744 0.0000 18.0939 0.0000
# 3 22.4803 27.3744 94.2614 0.0000 18.8480 0.0000
# 4 0.0000 0.0000 0.0000 20.3087 0.0000 1.5519
# 5 30.8183 18.0939 18.8480 0.0000 47.2671 0.0000
# 6 0.0000 0.0000 0.0000 1.5519 0.0000 13.2967
#
#
#
# Elastic Compliance Matrix: (Units=1/GPa)
#
#
# Indices 1 2 3 4 5 6 
#
# 1 0.024047 -0.005558 -0.001533 0.000000 -0.012939 0.000000
# 2 -0.005558 0.013168 -0.002407 0.000000 -0.000457 0.000000
# 3 -0.001533 -0.002407 0.012268 0.000000 -0.002970 0.000000
# 4 0.000000 0.000000 0.000000 0.049683 0.000000 -0.005798
# 5 -0.012939 -0.000457 -0.002970 0.000000 0.030952 0.000000
# 6 0.000000 0.000000 0.000000 -0.005798 0.000000 0.075883
#
#
# Mechanical properties :
#
#
# Convention : Reuss Voigt Hill
#
# Bulk Modulus (GPa) = 32.80362 47.14881 39.97621
# Shear Modulus (GPa) = 21.26206 27.76943 24.51574
#
# Velocity S-wave (km/s) = 3.41761 3.90574 3.66980
# Velocity P-wave (km/s) = 5.79601 6.80003 6.31800
#
# Compressibility (1/GPa) = 0.03048444
#
# Stress axis : x y z
#
# Youngs Moduli (GPa) = 41.58586 75.93915 81.51593
#
# Poissons Ratio (x) = 0.42211 0.12499
# Poissons Ratio (y) = 0.23115 0.19623
# Poissons Ratio (z) = 0.06377 0.18280
#
# Static dielectric constant tensor:
#      x y z
#    x 1.677640 0.000000 0.034660 
#    y 0.000000 1.647510 0.000000 
#    z 0.034660 0.000000 1.672760 
# 
# From -- ./inp_files/13188.got.cif
#   From: 2010.05.17/outbox.cif.g08.bks.cpg/sg11_7_cif.got.tgz:13188.got - 2010.06.03 12:22:45.
