data_PCOD9157095
_publ_section_title
;
Structure prediction by ZEFSAII (Michael W. Deem and Ramdas Pophale) SiO2 
 PCOD9157095
Probable space group: P 21/M
;
_chemical_formula_sum "Si O2"
_cell_formula_units_Z 28
_cell_length_a 11.614368
_cell_length_b 16.030304
_cell_length_c 8.702908
_cell_angle_alpha 90.000000
_cell_angle_beta 80.045895
_cell_angle_gamma 90.000000
_cell_volume 1595.932023
_symmetry_space_group_name_H-M "P 21/M"
_symmetry_group_IT_number 11
_symmetry_cell_setting 'monoclinic'
loop_
_space_group_symop_operation_xyz
x,y,z
-x,1/2+y,-z
-x,-y,-z
x,1/2-y,z
loop_
_atom_site_type_symbol
_atom_site_label
_atom_site_fract_x
_atom_site_fract_y
_atom_site_fract_z
Si Si1 0.983003 0.078139 0.888720
Si Si2 0.362421 0.000334 0.008359
Si Si3 0.207479 0.153976 0.955696
Si Si4 0.833700 0.341304 0.432801
Si Si5 0.887754 0.841460 0.671405
Si Si6 0.760627 0.343170 0.098351
Si Si7 0.187232 0.515138 0.329165
O O1 0.927317 0.043361 0.744120
O O2 0.106833 0.124902 0.860044
O O3 0.883456 0.137133 0.985014
O O4 0.000000 0.000000 0.000000
O O5 0.324615 0.918063 0.924760
O O6 0.308954 0.084260 0.942907
O O7 0.293382 0.990940 0.185161
O O8 0.500000 0.000000 0.000000
O O9 0.243773 0.250000 0.920603
O O10 0.145792 0.151945 0.139661
O O11 0.805953 0.250000 0.507221
O O12 0.782387 0.345460 0.274629
O O13 0.792785 0.416241 0.547624
O O14 0.973479 0.345766 0.380164
O O15 0.847597 0.750000 0.627305
O O16 0.834409 0.922343 0.603857
O O17 0.720976 0.250000 0.064098
#
# Coordination Sequence:
#
# PCOD9157095 Si02
#       7
#     4   4   4   4   4   4   4
#     4  11  16  30  51  81 108 135 166 209 266 325
#     4  10  22  38  54  75 101 137 188 227 259 300
#     4  10  18  31  53  76 104 136 169 213 265 316
#     4  10  19  31  49  79 109 136 166 205 264 325
#     4   9  16  28  47  73 104 136 166 198 251 322
#     4  10  19  33  56  78 105 140 173 212 263 322
#     4  10  20  31  52  77 108 136 170 218 262 300
#
# _framework density 17.544606999999999
#
# number of rings (size 3 to 8) (size 9 to 14) (size 15 to 20)
#    0.000    2.000    5.714    0.857    0.000    3.429 
#    0.000    0.714    0.000    0.000    0.000    0.000 
#    0.000    0.000    0.000    0.000    0.000    0.000 
#
# Total GULP energy -156143.715546 kJ/mol
# GULP energy per Si atom -5576.561269 kJ/mol
# Density = 1.750467 g / cm^3
# Si number density = 17.544607 Si / 1000 Ang^3
#
#
#
# Elastic Constant Matrix: (Units=GPa)
#
#
# Indices 1 2 3 4 5 6 
#
# 1 98.1431 62.7388 9.2541 0.0000 -7.2419 0.0000
# 2 62.7388 193.1553 35.5409 0.0000 0.6419 0.0000
# 3 9.2541 35.5409 20.4274 0.0000 0.2250 0.0000
# 4 0.0000 0.0000 0.0000 24.9400 0.0000 4.0675
# 5 -7.2419 0.6419 0.2250 0.0000 7.3806 0.0000
# 6 0.0000 0.0000 0.0000 4.0675 0.0000 10.6144
#
#
#
# Elastic Compliance Matrix: (Units=1/GPa)
#
#
# Indices 1 2 3 4 5 6 
#
# 1 0.014306 -0.005108 0.002248 0.000000 0.014413 0.000000
# 2 -0.005108 0.009440 -0.014050 0.000000 -0.005405 0.000000
# 3 0.002248 -0.014050 0.072367 0.000000 0.001222 0.000000
# 4 0.000000 0.000000 0.000000 0.042769 0.000000 -0.016389
# 5 0.014413 -0.005405 0.001222 0.000000 0.150064 0.000000
# 6 0.000000 0.000000 0.000000 -0.016389 0.000000 0.100492
#
#
# Mechanical properties :
#
#
# Convention : Reuss Voigt Hill
#
# Bulk Modulus (GPa) = 16.05334 58.53261 37.29298
# Shear Modulus (GPa) = 11.26069 22.19982 16.73025
#
# Velocity S-wave (km/s) = 2.53619 3.56101 3.09137
# Velocity P-wave (km/s) = 4.21263 7.09524 5.83475
#
# Compressibility (1/GPa) = 0.06229232
#
# Stress axis : x y z
#
# Youngs Moduli (GPa) = 69.89913 105.93688 13.81850
#
# Poissons Ratio (x) = 0.54117 -0.03106
# Poissons Ratio (y) = 0.35707 0.19415
# Poissons Ratio (z) = -0.15713 1.48839
#
# Static dielectric constant tensor:
#      x y z
#    x 1.565240 0.000000 0.007710 
#    y 0.000000 1.649970 0.000000 
#    z 0.007710 0.000000 1.595660 
# 
# From -- ./inp_files/17665.got.cif
#   From: 2010.05.17/outbox.cif.g08.bks.cpg/sg11_9_cif.got.tgz:17665.got - 2010.06.03 12:22:45.
