data_PCOD9157608
_publ_section_title
;
Structure prediction by ZEFSAII (Michael W. Deem and Ramdas Pophale) SiO2 
 PCOD9157608
Probable space group: P 21/M
;
_chemical_formula_sum "Si O2"
_cell_formula_units_Z 20
_cell_length_a 8.651653
_cell_length_b 18.193518
_cell_length_c 11.480321
_cell_angle_alpha 90.000000
_cell_angle_beta 38.053289
_cell_angle_gamma 90.000000
_cell_volume 1113.854057
_symmetry_space_group_name_H-M "P 21/M"
_symmetry_group_IT_number 11
_symmetry_cell_setting 'monoclinic'
loop_
_space_group_symop_operation_xyz
x,y,z
-x,1/2+y,-z
-x,-y,-z
x,1/2-y,z
loop_
_atom_site_type_symbol
_atom_site_label
_atom_site_fract_x
_atom_site_fract_y
_atom_site_fract_z
Si Si1 0.257682 0.163406 0.677644
Si Si2 0.127144 0.061846 0.536258
Si Si3 0.914468 0.920849 0.005706
Si Si4 0.698647 0.434729 0.417886
Si Si5 0.584957 0.478218 0.818958
O O1 0.247130 0.250000 0.671542
O O2 0.199716 0.122132 0.589759
O O3 0.085732 0.133400 0.884545
O O4 0.527771 0.132341 0.557904
O O5 0.837896 0.070767 0.673052
O O6 0.132242 0.981046 0.594614
O O7 0.326425 0.048360 0.313537
O O8 0.643991 0.935904 0.107449
O O9 0.123386 0.903317 0.786917
O O10 0.000000 0.000000 0.000000
O O11 0.500000 0.500000 0.500000
O O12 0.500000 0.500000 0.000000
#
# Coordination Sequence:
#
# PCOD9157608 Si02
#       5
#     4   4   4   4   4
#     4  11  23  39  59  88 122 158 196 255 311 355
#     4  10  20  36  59  89 116 154 201 245 297 354
#     4  12  19  35  63  90 116 152 204 247 294 357
#     4  10  18  34  58  86 112 149 197 246 284 348
#     4  11  20  33  61  93 114 149 201 252 289 345
#
# _framework density 17.955673999999998
#
# number of rings (size 3 to 8) (size 9 to 14) (size 15 to 20)
#    0.000    1.200    8.000    1.200    0.000    0.800 
#    0.000    1.000    0.000    1.200    0.000    0.000 
#    0.000    0.000    0.000    0.000    0.000    0.000 
#
# Total GULP energy -111340.287546 kJ/mol
# GULP energy per Si atom -5567.014377 kJ/mol
# Density = 1.791481 g / cm^3
# Si number density = 17.955674 Si / 1000 Ang^3
#
#
#
# Elastic Constant Matrix: (Units=GPa)
#
#
# Indices 1 2 3 4 5 6 
#
# 1 74.6599 32.1737 29.8763 0.0000 4.4013 0.0000
# 2 32.1737 114.6704 38.4692 0.0000 16.6223 0.0000
# 3 29.8763 38.4692 141.9500 0.0000 22.4887 0.0000
# 4 0.0000 0.0000 0.0000 18.3040 0.0000 4.2582
# 5 4.4013 16.6223 22.4887 0.0000 40.5154 0.0000
# 6 0.0000 0.0000 0.0000 4.2582 0.0000 15.1559
#
#
#
# Elastic Compliance Matrix: (Units=1/GPa)
#
#
# Indices 1 2 3 4 5 6 
#
# 1 0.015975 -0.003814 -0.002524 0.000000 0.001230 0.000000
# 2 -0.003814 0.010787 -0.001628 0.000000 -0.003108 0.000000
# 3 -0.002524 -0.001628 0.008626 0.000000 -0.003846 0.000000
# 4 0.000000 0.000000 0.000000 0.058454 0.000000 -0.016423
# 5 0.001230 -0.003108 -0.003846 0.000000 0.027958 0.000000
# 6 0.000000 0.000000 0.000000 -0.016423 0.000000 0.070595
#
#
# Mechanical properties :
#
#
# Convention : Reuss Voigt Hill
#
# Bulk Modulus (GPa) = 51.39487 59.14653 55.27070
# Shear Modulus (GPa) = 23.27604 30.17915 26.72759
#
# Velocity S-wave (km/s) = 3.60433 4.10415 3.86234
# Velocity P-wave (km/s) = 6.78284 7.44786 7.12311
#
# Compressibility (1/GPa) = 0.01945720
#
# Stress axis : x y z
#
# Youngs Moduli (GPa) = 62.59811 92.69997 115.92194
#
# Poissons Ratio (x) = 0.35355 0.29253
# Poissons Ratio (y) = 0.23874 0.18877
# Poissons Ratio (z) = 0.15797 0.15096
#
# Static dielectric constant tensor:
#      x y z
#    x 1.715420 0.000000 0.010710 
#    y 0.000000 1.563300 0.000000 
#    z 0.010710 0.000000 1.719510 
# 
# From -- ./inp_files/32021.got.cif
#   From: 2010.05.17/outbox.cif.g08.bks.cpg/sg11_17_cif.got.tgz:32021.got - 2010.06.03 12:22:45.
