data_PCOD9157921
_publ_section_title
;
Structure prediction by ZEFSAII (Michael W. Deem and Ramdas Pophale) SiO2 
 PCOD9157921
Probable space group: P 21/M
;
_chemical_formula_sum "Si O2"
_cell_formula_units_Z 32
_cell_length_a 19.929082
_cell_length_b 8.083836
_cell_length_c 11.133743
_cell_angle_alpha 90.000000
_cell_angle_beta 60.090061
_cell_angle_gamma 90.000000
_cell_volume 1554.783868
_symmetry_space_group_name_H-M "P 21/M"
_symmetry_group_IT_number 11
_symmetry_cell_setting 'monoclinic'
loop_
_space_group_symop_operation_xyz
x,y,z
-x,1/2+y,-z
-x,-y,-z
x,1/2-y,z
loop_
_atom_site_type_symbol
_atom_site_label
_atom_site_fract_x
_atom_site_fract_y
_atom_site_fract_z
Si Si1 0.742160 0.050544 0.027573
Si Si2 0.746695 0.049827 0.549344
Si Si3 0.411578 0.052251 0.207411
Si Si4 0.120241 0.557689 0.728374
Si Si5 0.889974 0.937160 0.007111
Si Si6 0.415748 0.551732 0.929536
Si Si7 0.161454 0.950508 0.299167
Si Si8 0.015877 0.940627 0.296715
O O1 0.743008 0.250000 0.042736
O O2 0.654032 0.990943 0.091980
O O3 0.798318 0.970699 0.074998
O O4 0.784143 0.012401 0.863253
O O5 0.748667 0.250000 0.549505
O O6 0.796043 0.996305 0.390153
O O7 0.795247 0.988515 0.621679
O O8 0.658643 0.996496 0.644040
O O9 0.414871 0.250000 0.195888
O O10 0.496901 0.990212 0.170000
O O11 0.396947 0.985053 0.085939
O O12 0.125484 0.750000 0.755573
O O13 0.089513 0.466847 0.873305
O O14 0.061244 0.537193 0.669835
O O15 0.909188 0.750000 0.955336
O O16 0.932608 0.051269 0.871951
O O17 0.416412 0.750000 0.916072
O O18 0.156173 0.750000 0.310771
O O19 0.074675 0.009207 0.345166
O O20 0.996689 0.750000 0.338886
#
# Coordination Sequence:
#
# PCOD9157921 Si02
#       8
#     4   4   4   4   4   4   4   4
#     4   9  16  31  55  77 104 137 171 210 257 310
#     4  10  20  36  54  72 104 146 178 208 253 314
#     4  10  19  29  48  80 111 139 173 212 250 300
#     4  11  23  37  54  75 100 137 182 217 256 310
#     4  11  22  36  55  78 105 131 169 222 267 306
#     4   9  17  31  51  76 109 143 171 206 257 307
#     4   8  15  30  52  75 100 135 168 200 252 309
#     4  10  20  36  57  78 103 133 169 215 265 311
#
# _framework density 20.581638999999999
#
# number of rings (size 3 to 8) (size 9 to 14) (size 15 to 20)
#    0.000    2.250    1.250    3.375    0.000    2.500 
#    0.000    0.625    0.000    0.750    0.000    0.000 
#    0.000    0.000    0.000    0.000    0.000    0.000 
#
# Total GULP energy -178613.341652 kJ/mol
# GULP energy per Si atom -5581.666927 kJ/mol
# Density = 2.053479 g / cm^3
# Si number density = 20.581639 Si / 1000 Ang^3
#
#
#
# Elastic Constant Matrix: (Units=GPa)
#
#
# Indices 1 2 3 4 5 6 
#
# 1 80.3237 1.2361 14.5310 0.0000 -24.9074 0.0000
# 2 1.2361 17.0051 -2.5340 0.0000 3.7095 0.0000
# 3 14.5310 -2.5340 54.4983 0.0000 -23.2981 0.0000
# 4 0.0000 0.0000 0.0000 14.9784 0.0000 -4.3144
# 5 -24.9074 3.7095 -23.2981 0.0000 31.9860 0.0000
# 6 0.0000 0.0000 0.0000 -4.3144 0.0000 24.1851
#
#
#
# Elastic Compliance Matrix: (Units=1/GPa)
#
#
# Indices 1 2 3 4 5 6 
#
# 1 0.016794 -0.004196 0.001635 0.000000 0.014755 0.000000
# 2 -0.004196 0.061383 -0.000678 0.000000 -0.010880 0.000000
# 3 0.001635 -0.000678 0.026807 0.000000 0.020877 0.000000
# 4 0.000000 0.000000 0.000000 0.070379 0.000000 0.012555
# 5 0.014755 -0.010880 0.020877 0.000000 0.059222 0.000000
# 6 0.000000 0.000000 0.000000 0.012555 0.000000 0.043587
#
#
# Mechanical properties :
#
#
# Convention : Reuss Voigt Hill
#
# Bulk Modulus (GPa) = 10.15175 19.81034 14.98105
# Shear Modulus (GPa) = 15.74874 23.46950 19.60912
#
# Velocity S-wave (km/s) = 2.76920 3.38052 3.09001
# Velocity P-wave (km/s) = 3.89458 4.98832 4.47499
#
# Compressibility (1/GPa) = 0.09850514
#
# Stress axis : x y z
#
# Youngs Moduli (GPa) = 59.54623 16.29108 37.30385
#
# Poissons Ratio (x) = 0.06835 -0.06098
# Poissons Ratio (y) = 0.24984 0.02531
# Poissons Ratio (z) = -0.09734 0.01105
#
# Static dielectric constant tensor:
#      x y z
#    x 1.779460 0.000000 -0.030080 
#    y 0.000000 1.717170 0.000000 
#    z -0.030080 0.000000 1.735600 
# 
# From -- ./inp_files/42783.got.cif
#   From: 2010.05.17/outbox.cif.g08.bks.cpg/sg11_22_cif.got.tgz:42783.got - 2010.06.03 12:22:45.
