data_PCOD9157980
_publ_section_title
;
Structure prediction by ZEFSAII (Michael W. Deem and Ramdas Pophale) SiO2 
 PCOD9157980
Probable space group: P 21/M
;
_chemical_formula_sum "Si O2"
_cell_formula_units_Z 32
_cell_length_a 32.214020
_cell_length_b 7.712502
_cell_length_c 15.559589
_cell_angle_alpha 90.000000
_cell_angle_beta 28.446378
_cell_angle_gamma 90.000000
_cell_volume 1841.415593
_symmetry_space_group_name_H-M "P 21/M"
_symmetry_group_IT_number 11
_symmetry_cell_setting 'monoclinic'
loop_
_space_group_symop_operation_xyz
x,y,z
-x,1/2+y,-z
-x,-y,-z
x,1/2-y,z
loop_
_atom_site_type_symbol
_atom_site_label
_atom_site_fract_x
_atom_site_fract_y
_atom_site_fract_z
Si Si1 0.080324 0.541751 0.465190
Si Si2 0.425980 0.454627 0.438328
Si Si3 0.110292 0.542098 0.215543
Si Si4 0.552414 0.453087 0.790558
Si Si5 0.615310 0.038430 0.154172
Si Si6 0.365077 0.950636 0.188397
Si Si7 0.746682 0.037315 0.762071
Si Si8 0.700135 0.040334 0.178638
O O1 0.086557 0.750000 0.450793
O O2 0.101125 0.476145 0.330562
O O3 0.155740 0.481095 0.391988
O O4 0.980320 0.498145 0.666404
O O5 0.436460 0.250000 0.407154
O O6 0.410532 0.529616 0.371966
O O7 0.518087 0.521930 0.308447
O O8 0.350455 0.486468 0.644202
O O9 0.116952 0.750000 0.209014
O O10 0.199888 0.479199 0.010592
O O11 0.537061 0.250000 0.836946
O O12 0.613217 0.523904 0.756758
O O13 0.457696 0.540866 0.969921
O O14 0.614818 0.250000 0.156627
O O15 0.648924 0.980936 0.186199
O O16 0.682635 0.986862 0.956884
O O17 0.340750 0.750000 0.245912
O O18 0.293397 0.026851 0.254696
O O19 0.745126 0.250000 0.762806
O O20 0.700575 0.250000 0.176097
#
# Coordination Sequence:
#
# PCOD9157980 Si02
#       8
#     4   4   4   4   4   4   4   4
#     4   9  16  27  47  68  88 117 152 185 219 268
#     4  11  21  32  47  65  90 126 160 194 228 262
#     4   9  17  29  44  64  91 121 148 183 229 267
#     4  10  19  30  45  68  93 120 153 190 229 270
#     4   9  16  28  46  65  90 123 158 187 218 262
#     4   9  17  30  49  68  91 120 152 189 228 271
#     4   9  14  26  48  70  90 120 154 181 220 271
#     4  10  19  32  48  65  89 124 161 193 224 266
#
# _framework density 17.377935999999998
#
# number of rings (size 3 to 8) (size 9 to 14) (size 15 to 20)
#    0.000    2.500    2.500    1.125    0.000    1.000 
#    0.000    1.250    0.000    0.000    0.000    0.875 
#    0.000    0.000    0.000    0.000    0.000    0.000 
#
# Total GULP energy -178438.388837 kJ/mol
# GULP energy per Si atom -5576.199651 kJ/mol
# Density = 1.733838 g / cm^3
# Si number density = 17.377936 Si / 1000 Ang^3
#
#
#
# Elastic Constant Matrix: (Units=GPa)
#
#
# Indices 1 2 3 4 5 6 
#
# 1 149.6005 1.2228 75.7601 0.0000 -12.6721 0.0000
# 2 1.2228 28.6072 -0.5160 0.0000 -1.2413 0.0000
# 3 75.7601 -0.5160 103.0123 0.0000 -8.1496 0.0000
# 4 0.0000 0.0000 0.0000 17.9523 0.0000 -0.9837
# 5 -12.6721 -1.2413 -8.1496 0.0000 24.0116 0.0000
# 6 0.0000 0.0000 0.0000 -0.9837 0.0000 8.4587
#
#
#
# Elastic Compliance Matrix: (Units=1/GPa)
#
#
# Indices 1 2 3 4 5 6 
#
# 1 0.010879 -0.000471 -0.007759 0.000000 0.003083 0.000000
# 2 -0.000471 0.035066 0.000664 0.000000 0.001789 0.000000
# 3 -0.007759 0.000664 0.015513 0.000000 0.001204 0.000000
# 4 0.000000 0.000000 0.000000 0.056060 0.000000 0.006520
# 5 0.003083 0.001789 0.001204 0.000000 0.043775 0.000000
# 6 0.000000 0.000000 0.000000 0.006520 0.000000 0.118980
#
#
# Mechanical properties :
#
#
# Convention : Reuss Voigt Hill
#
# Bulk Modulus (GPa) = 21.58700 48.23930 34.91315
# Shear Modulus (GPa) = 16.08505 23.73474 19.90989
#
# Velocity S-wave (km/s) = 3.04567 3.69968 3.38849
# Velocity P-wave (km/s) = 4.98169 6.78744 5.95343
#
# Compressibility (1/GPa) = 0.04632417
#
# Stress axis : x y z
#
# Youngs Moduli (GPa) = 91.92070 28.51768 64.46315
#
# Poissons Ratio (x) = 0.01344 0.50019
# Poissons Ratio (y) = 0.04331 -0.04279
# Poissons Ratio (z) = 0.71324 -0.01893
#
# Static dielectric constant tensor:
#      x y z
#    x 1.614190 0.000000 -0.019000 
#    y 0.000000 1.650430 0.000000 
#    z -0.019000 0.000000 1.565080 
# 
# From -- ./inp_files/56459.got.cif
#   From: 2010.05.17/outbox.cif.g08.bks.cpg/sg11_29_cif.got.tgz:56459.got - 2010.06.03 12:22:45.
