data_PCOD9157326
_publ_section_title
;
Structure prediction by ZEFSAII (Michael W. Deem and Ramdas Pophale) SiO2 
 PCOD9157326
Probable space group: P 21/M
;
_chemical_formula_sum "Si O2"
_cell_formula_units_Z 32
_cell_length_a 24.762714
_cell_length_b 13.969615
_cell_length_c 10.247560
_cell_angle_alpha 90.000000
_cell_angle_beta 151.777377
_cell_angle_gamma 90.000000
_cell_volume 1676.375385
_symmetry_space_group_name_H-M "P 21/M"
_symmetry_group_IT_number 11
_symmetry_cell_setting 'monoclinic'
loop_
_space_group_symop_operation_xyz
x,y,z
-x,1/2+y,-z
-x,-y,-z
x,1/2-y,z
loop_
_atom_site_type_symbol
_atom_site_label
_atom_site_fract_x
_atom_site_fract_y
_atom_site_fract_z
Si Si1 0.601033 0.465011 0.122881
Si Si2 0.472970 0.137465 0.630360
Si Si3 0.063733 0.135663 0.225677
Si Si4 0.607867 0.856617 0.953176
Si Si5 0.382111 0.860423 0.310833
Si Si6 0.164779 0.521617 0.247670
Si Si7 0.234934 0.022896 0.106425
Si Si8 0.828744 0.640097 0.263544
O O1 0.631283 0.556476 0.097924
O O2 0.713580 0.439907 0.442791
O O3 0.500000 0.500000 0.000000
O O4 0.547625 0.384042 0.917235
O O5 0.451189 0.250000 0.566639
O O6 0.552053 0.103799 0.678079
O O7 0.352820 0.082470 0.380128
O O8 0.076736 0.250000 0.233551
O O9 0.109422 0.112815 0.469483
O O10 0.129591 0.071326 0.259019
O O11 0.933337 0.100407 0.942353
O O12 0.627310 0.750000 0.051888
O O13 0.694080 0.863565 0.014954
O O14 0.478652 0.863142 0.628492
O O15 0.349742 0.750000 0.220348
O O16 0.277448 0.924767 0.131067
O O17 0.177232 0.493922 0.122701
O O18 0.157520 0.076891 0.835251
O O19 0.858813 0.750000 0.299438
#
# Coordination Sequence:
#
# PCOD9157326 Si02
#       8
#     4   4   4   4   4   4   4   4
#     4  12  22  37  55  89 128 163 199 245 311 377
#     4  11  22  34  54  89 129 168 204 247 306 371
#     4  10  24  47  67  86 119 165 216 266 307 367
#     4  10  18  32  55  82 114 158 208 244 289 363
#     4  10  20  34  55  87 126 171 205 241 311 375
#     4  11  25  41  66  94 121 163 213 254 317 369
#     4  12  21  37  62  92 129 155 201 268 309 364
#     4  10  20  36  64  90 110 154 208 254 305 356
#
# _framework density 19.088802999999999
#
# number of rings (size 3 to 8) (size 9 to 14) (size 15 to 20)
#    0.000    1.250    5.000    1.500    0.000    3.000 
#    0.000    0.000    0.000    0.000    0.000    0.000 
#    0.000    0.000    0.000    0.000    0.000    0.000 
#
# Total GULP energy -178721.988208 kJ/mol
# GULP energy per Si atom -5585.062131 kJ/mol
# Density = 1.904536 g / cm^3
# Si number density = 19.088803 Si / 1000 Ang^3
#
#
#
# Elastic Constant Matrix: (Units=GPa)
#
#
# Indices 1 2 3 4 5 6 
#
# 1 77.0444 12.8145 15.9038 0.0000 -3.4250 0.0000
# 2 12.8145 47.8999 8.5272 0.0000 -2.1613 0.0000
# 3 15.9038 8.5272 57.0352 0.0000 4.5150 0.0000
# 4 0.0000 0.0000 0.0000 13.7192 0.0000 18.6401
# 5 -3.4250 -2.1613 4.5150 0.0000 23.0927 0.0000
# 6 0.0000 0.0000 0.0000 18.6401 0.0000 -77.5954
#
#
#
# Elastic Compliance Matrix: (Units=1/GPa)
#
#
# Indices 1 2 3 4 5 6 
#
# 1 0.014379 -0.003062 -0.003756 0.000000 0.002580 0.000000
# 2 -0.003062 0.022264 -0.002645 0.000000 0.002147 0.000000
# 3 -0.003756 -0.002645 0.019339 0.000000 -0.004586 0.000000
# 4 0.000000 0.000000 0.000000 0.054954 0.000000 0.013201
# 5 0.002580 0.002147 -0.004586 0.000000 0.044784 0.000000
# 6 0.000000 0.000000 0.000000 0.013201 0.000000 -0.009716
#
#
# Mechanical properties :
#
#
# Convention : Reuss Voigt Hill
#
# Bulk Modulus (GPa) = 26.98587 28.49672 27.74130
# Shear Modulus (GPa) = 28.20399 1.49224 14.84812
#
# Velocity S-wave (km/s) = 3.84802 0.88512 2.79201
# Velocity P-wave (km/s) = 5.82329 4.00069 4.99581
#
# Compressibility (1/GPa) = 0.03705643
#
# Stress axis : x y z
#
# Youngs Moduli (GPa) = 69.54693 44.91626 51.70960
#
# Poissons Ratio (x) = 0.13752 0.19422
# Poissons Ratio (y) = 0.21293 0.13676
# Poissons Ratio (z) = 0.26121 0.11879
#
# Static dielectric constant tensor:
#      x y z
#    x 1.673160 0.000000 -0.013650 
#    y 0.000000 1.675740 0.000000 
#    z -0.013650 0.000000 1.677040 
# 
# From -- ./inp_files/18031.got.cif
#   From: 2010.05.17/outbox.cif.g08.bks.cpg/sg11_10_cif.got.tgz:18031.got - 2010.06.03 12:22:45.
