data_PCOD9157528
_publ_section_title
;
Structure prediction by ZEFSAII (Michael W. Deem and Ramdas Pophale) SiO2 
 PCOD9157528
Probable space group: P 21/M
;
_chemical_formula_sum "Si O2"
_cell_formula_units_Z 28
_cell_length_a 14.915363
_cell_length_b 21.313607
_cell_length_c 9.040618
_cell_angle_alpha 90.000000
_cell_angle_beta 155.156360
_cell_angle_gamma 90.000000
_cell_volume 1207.498014
_symmetry_space_group_name_H-M "P 21/M"
_symmetry_group_IT_number 11
_symmetry_cell_setting 'monoclinic'
loop_
_space_group_symop_operation_xyz
x,y,z
-x,1/2+y,-z
-x,-y,-z
x,1/2-y,z
loop_
_atom_site_type_symbol
_atom_site_label
_atom_site_fract_x
_atom_site_fract_y
_atom_site_fract_z
Si Si1 0.244787 0.326053 0.480382
Si Si2 0.165647 0.825126 0.347303
Si Si3 0.465964 0.409144 0.578720
Si Si4 0.948064 0.179397 0.500964
Si Si5 0.193154 0.483509 0.964108
Si Si6 0.463107 0.321033 0.299540
Si Si7 0.910227 0.909298 0.488718
O O1 0.282239 0.250000 0.552780
O O2 0.420200 0.364752 0.649753
O O3 0.215137 0.363291 0.589441
O O4 0.027184 0.334312 0.057379
O O5 0.172381 0.750000 0.379843
O O6 0.390901 0.844930 0.616322
O O7 0.123016 0.848943 0.448872
O O8 0.252505 0.444844 0.198228
O O9 0.627231 0.467136 0.819942
O O10 0.512788 0.363871 0.511762
O O11 0.866294 0.250000 0.357980
O O12 0.901289 0.135517 0.292508
O O13 0.208504 0.183567 0.894504
O O14 0.173235 0.438580 0.791380
O O15 0.992231 0.528502 0.692497
O O16 0.535876 0.250000 0.439091
#
# Coordination Sequence:
#
# PCOD9157528 Si02
#       7
#     4   4   4   4   4   4   4
#     4  11  22  38  65  96 128 161 205 270 331 375
#     4   9  18  33  58  92 120 159 209 248 314 390
#     4  11  21  42  64  92 122 168 221 262 302 383
#     4  10  19  37  62  89 126 167 207 266 324 378
#     4  10  24  41  64  85 125 178 216 257 309 372
#     4  10  18  33  63  92 120 159 210 271 318 365
#     4  11  22  42  60  91 129 168 207 262 323 381
#
# _framework density 23.188444
#
# number of rings (size 3 to 8) (size 9 to 14) (size 15 to 20)
#    0.000    1.714    2.857    1.714    0.000    1.143 
#    2.571    7.857    0.000    0.000    0.000    0.000 
#    0.000    0.000    0.000    0.000    0.000    0.000 
#
# Total GULP energy -156207.205257 kJ/mol
# GULP energy per Si atom -5578.828759 kJ/mol
# Density = 2.313567 g / cm^3
# Si number density = 23.188444 Si / 1000 Ang^3
#
#
#
# Elastic Constant Matrix: (Units=GPa)
#
#
# Indices 1 2 3 4 5 6 
#
# 1 137.9024 38.8608 -4.1189 0.0000 8.5551 0.0000
# 2 38.8608 148.8290 13.0437 0.0000 -9.3758 0.0000
# 3 -4.1189 13.0437 30.1362 0.0000 -1.7058 0.0000
# 4 0.0000 0.0000 0.0000 16.8846 0.0000 -5.3835
# 5 8.5551 -9.3758 -1.7058 0.0000 19.6894 0.0000
# 6 0.0000 0.0000 0.0000 -5.3835 0.0000 39.6334
#
#
#
# Elastic Compliance Matrix: (Units=1/GPa)
#
#
# Indices 1 2 3 4 5 6 
#
# 1 0.008353 -0.002656 0.002024 0.000000 -0.004719 0.000000
# 2 -0.002656 0.008019 -0.003570 0.000000 0.004663 0.000000
# 3 0.002024 -0.003570 0.035030 0.000000 0.000455 0.000000
# 4 0.000000 0.000000 0.000000 0.061907 0.000000 0.008409
# 5 -0.004719 0.004663 0.000455 0.000000 0.055099 0.000000
# 6 0.000000 0.000000 0.000000 0.008409 0.000000 0.026373
#
#
# Mechanical properties :
#
#
# Convention : Reuss Voigt Hill
#
# Bulk Modulus (GPa) = 23.25621 45.82654 34.54137
# Shear Modulus (GPa) = 22.98659 33.18028 28.08343
#
# Velocity S-wave (km/s) = 3.15190 3.78682 3.48386
# Velocity P-wave (km/s) = 4.82669 6.23904 5.57775
#
# Compressibility (1/GPa) = 0.04299927
#
# Stress axis : x y z
#
# Youngs Moduli (GPa) = 119.71632 124.70053 28.54678
#
# Poissons Ratio (x) = 0.33117 -0.05778
# Poissons Ratio (y) = 0.31793 0.10191
# Poissons Ratio (z) = -0.24231 0.44517
#
# Static dielectric constant tensor:
#      x y z
#    x 1.846740 0.000000 0.035400 
#    y 0.000000 1.916080 0.000000 
#    z 0.035400 0.000000 2.011560 
# 
# From -- ./inp_files/23234.got.cif
#   From: 2010.05.17/outbox.cif.g08.bks.cpg/sg11_12_cif.got.tgz:23234.got - 2010.06.03 12:22:45.
