data_PCOD9157694
_publ_section_title
;
Structure prediction by ZEFSAII (Michael W. Deem and Ramdas Pophale) SiO2 
 PCOD9157694
Probable space group: P 21/M
;
_chemical_formula_sum "Si O2"
_cell_formula_units_Z 28
_cell_length_a 14.773973
_cell_length_b 17.420283
_cell_length_c 9.129612
_cell_angle_alpha 90.000000
_cell_angle_beta 40.625973
_cell_angle_gamma 90.000000
_cell_volume 1529.906027
_symmetry_space_group_name_H-M "P 21/M"
_symmetry_group_IT_number 11
_symmetry_cell_setting 'monoclinic'
loop_
_space_group_symop_operation_xyz
x,y,z
-x,1/2+y,-z
-x,-y,-z
x,1/2-y,z
loop_
_atom_site_type_symbol
_atom_site_label
_atom_site_fract_x
_atom_site_fract_y
_atom_site_fract_z
Si Si1 0.487620 0.575820 0.911500
Si Si2 0.173465 0.430546 0.856381
Si Si3 0.136577 0.567460 0.679578
Si Si4 0.219540 0.159138 0.508094
Si Si5 0.130969 0.459670 0.413886
Si Si6 0.611058 0.339321 0.702335
Si Si7 0.627645 0.951209 0.122987
O O1 0.632413 0.619191 0.709815
O O2 0.431916 0.537412 0.830519
O O3 0.500000 0.500000 0.000000
O O4 0.394219 0.633897 0.120664
O O5 0.163812 0.512429 0.784971
O O6 0.185122 0.367398 0.714783
O O7 0.302128 0.434435 0.808354
O O8 0.027687 0.416875 0.118754
O O9 0.175005 0.517512 0.489442
O O10 0.240081 0.638674 0.548169
O O11 0.225746 0.250000 0.484928
O O12 0.111781 0.119714 0.526480
O O13 0.000000 0.500000 0.500000
O O14 0.248111 0.446212 0.148634
O O15 0.580564 0.250000 0.727725
O O16 0.492900 0.390498 0.767606
#
# Coordination Sequence:
#
# PCOD9157694 Si02
#       7
#     4   4   4   4   4   4   4
#     4  10  18  35  61  87 111 152 208 252 294 351
#     4  10  22  38  61  89 117 160 204 243 295 364
#     4  10  21  39  60  87 118 157 202 249 297 359
#     4  11  23  39  59  88 129 163 194 247 316 369
#     4  11  19  36  65  89 112 153 211 253 287 349
#     4  11  22  36  58  89 123 155 196 255 316 355
#     4  11  20  36  64  91 114 152 208 257 287 356
#
# _framework density 18.301777999999999
#
# number of rings (size 3 to 8) (size 9 to 14) (size 15 to 20)
#    0.000    1.429    5.714    3.000    0.000    3.429 
#    0.000    0.714    0.000    0.857    0.000    0.000 
#    0.000    0.000    0.000    0.000    0.000    0.000 
#
# Total GULP energy -156110.264825 kJ/mol
# GULP energy per Si atom -5575.366601 kJ/mol
# Density = 1.826012 g / cm^3
# Si number density = 18.301778 Si / 1000 Ang^3
#
#
#
# Elastic Constant Matrix: (Units=GPa)
#
#
# Indices 1 2 3 4 5 6 
#
# 1 95.3363 54.8357 17.2440 0.0000 -4.3282 0.0000
# 2 54.8357 111.0653 24.4721 0.0000 -8.7276 0.0000
# 3 17.2440 24.4721 68.7967 0.0000 -6.1234 0.0000
# 4 0.0000 0.0000 0.0000 17.8300 0.0000 -1.6356
# 5 -4.3282 -8.7276 -6.1234 0.0000 21.8948 0.0000
# 6 0.0000 0.0000 0.0000 -1.6356 0.0000 13.9567
#
#
#
# Elastic Compliance Matrix: (Units=1/GPa)
#
#
# Indices 1 2 3 4 5 6 
#
# 1 0.014741 -0.007028 -0.001215 0.000000 -0.000227 0.000000
# 2 -0.007028 0.013316 -0.002693 0.000000 0.003165 0.000000
# 3 -0.001215 -0.002693 0.016082 0.000000 0.003184 0.000000
# 4 0.000000 0.000000 0.000000 0.056695 0.000000 0.006644
# 5 -0.000227 0.003165 0.003184 0.000000 0.047780 0.000000
# 6 0.000000 0.000000 0.000000 0.006644 0.000000 0.072429
#
#
# Mechanical properties :
#
#
# Convention : Reuss Voigt Hill
#
# Bulk Modulus (GPa) = 44.91269 52.03354 48.47311
# Shear Modulus (GPa) = 19.97303 22.64605 21.30954
#
# Velocity S-wave (km/s) = 3.30709 3.52144 3.41595
# Velocity P-wave (km/s) = 6.25906 6.71019 6.48855
#
# Compressibility (1/GPa) = 0.02226542
#
# Stress axis : x y z
#
# Youngs Moduli (GPa) = 67.83732 75.09822 62.18302
#
# Poissons Ratio (x) = 0.52781 0.07556
# Poissons Ratio (y) = 0.47678 0.16748
# Poissons Ratio (z) = 0.08243 0.20226
#
# Static dielectric constant tensor:
#      x y z
#    x 1.680750 0.000000 -0.001700 
#    y 0.000000 1.613630 0.000000 
#    z -0.001700 0.000000 1.669650 
# 
# From -- ./inp_files/22702.got.cif
#   From: 2010.05.17/outbox.cif.g08.bks.cpg/sg11_12_cif.got.tgz:22702.got - 2010.06.03 12:22:45.
