data_PCOD9157500
_publ_section_title
;
Structure prediction by ZEFSAII (Michael W. Deem and Ramdas Pophale) SiO2 
 PCOD9157500
Probable space group: P 21/M
;
_chemical_formula_sum "Si O2"
_cell_formula_units_Z 26
_cell_length_a 6.938336
_cell_length_b 11.953774
_cell_length_c 13.876768
_cell_angle_alpha 90.000000
_cell_angle_beta 71.190864
_cell_angle_gamma 90.000000
_cell_volume 1089.467338
_symmetry_space_group_name_H-M "P 21/M"
_symmetry_group_IT_number 11
_symmetry_cell_setting 'monoclinic'
loop_
_space_group_symop_operation_xyz
x,y,z
-x,1/2+y,-z
-x,-y,-z
x,1/2-y,z
loop_
_atom_site_type_symbol
_atom_site_label
_atom_site_fract_x
_atom_site_fract_y
_atom_site_fract_z
Si Si1 0.097070 0.750000 0.204890
Si Si2 0.913654 0.119744 0.331341
Si Si3 0.436521 0.250000 0.869434
Si Si4 0.690536 0.996396 0.077212
Si Si5 0.513463 0.878622 0.721480
Si Si6 0.675752 0.250000 0.645798
Si Si7 0.074843 0.510298 0.138725
Si Si8 0.699530 0.018367 0.532402
O O1 0.331496 0.750000 0.129456
O O2 0.130230 0.750000 0.314137
O O3 0.006815 0.633037 0.186039
O O4 0.947297 0.250000 0.352774
O O5 0.698786 0.117306 0.306066
O O6 0.880832 0.035399 0.426452
O O7 0.077006 0.071306 0.229616
O O8 0.328008 0.362819 0.916567
O O9 0.479974 0.250000 0.747678
O O10 0.899019 0.034768 0.096599
O O11 0.523864 0.049198 0.175792
O O12 0.725376 0.024760 0.959518
O O13 0.552188 0.750000 0.739707
O O14 0.681058 0.927848 0.620722
O O15 0.676778 0.138911 0.584796
O O16 0.500000 0.000000 0.500000
#
# Coordination Sequence:
#
# PCOD9157500 Si02
#       8
#     2   4   2   4   4   2   4   4
#     4  10  23  41  58  81 128 167 192 246 298 385
#     4   9  18  32  53  80 112 153 190 246 299 350
#     4  10  21  37  61  83 115 164 199 245 298 357
#     4  10  20  36  62  88 118 155 204 264 288 354
#     4   9  17  30  50  86 120 145 189 249 311 336
#     4  10  20  38  59  82 119 157 195 239 302 356
#     4  10  22  37  57  91 121 156 205 244 306 354
#     4  10  18  33  58  86 115 153 198 253 294 347
#
# _framework density 23.864871000000001
#
# number of rings (size 3 to 8) (size 9 to 14) (size 15 to 20)
#    0.462    1.846    2.308    0.462    3.231    0.615 
#    1.385    0.769    0.000    0.923    0.000    0.000 
#    0.000    0.000    0.000    0.000    0.000    0.000 
#
# Total GULP energy -145226.281177 kJ/mol
# GULP energy per Si atom -5585.626199 kJ/mol
# Density = 2.381055 g / cm^3
# Si number density = 23.864871 Si / 1000 Ang^3
#
#
#
# Elastic Constant Matrix: (Units=GPa)
#
#
# Indices 1 2 3 4 5 6 
#
# 1 69.0590 -9.6013 22.2861 0.0000 -8.5389 0.0000
# 2 -9.6013 134.0284 72.2710 0.0000 8.6894 0.0000
# 3 22.2861 72.2710 184.6964 0.0000 2.1909 0.0000
# 4 0.0000 0.0000 0.0000 37.8570 0.0000 1.7812
# 5 -8.5389 8.6894 2.1909 0.0000 33.9789 0.0000
# 6 0.0000 0.0000 0.0000 1.7812 0.0000 14.0105
#
#
#
# Elastic Compliance Matrix: (Units=1/GPa)
#
#
# Indices 1 2 3 4 5 6 
#
# 1 0.016251 0.002547 -0.003001 0.000000 0.003626 0.000000
# 2 0.002547 0.010020 -0.004209 0.000000 -0.001651 0.000000
# 3 -0.003001 -0.004209 0.007425 0.000000 -0.000157 0.000000
# 4 0.000000 0.000000 0.000000 0.026574 0.000000 -0.003378
# 5 0.003626 -0.001651 -0.000157 0.000000 0.030773 0.000000
# 6 0.000000 0.000000 0.000000 -0.003378 0.000000 0.071804
#
#
# Mechanical properties :
#
#
# Convention : Reuss Voigt Hill
#
# Bulk Modulus (GPa) = 41.03067 61.96615 51.49841
# Shear Modulus (GPa) = 27.73214 37.35783 32.54498
#
# Velocity S-wave (km/s) = 3.41258 3.96079 3.69686
# Velocity P-wave (km/s) = 5.72345 6.85120 6.31256
#
# Compressibility (1/GPa) = 0.02437201
#
# Stress axis : x y z
#
# Youngs Moduli (GPa) = 61.53404 99.80116 134.68038
#
# Poissons Ratio (x) = -0.25420 0.40412
# Poissons Ratio (y) = -0.15673 0.56680
# Poissons Ratio (z) = 0.18464 0.42001
#
# Static dielectric constant tensor:
#      x y z
#    x 1.850790 0.000000 0.027600 
#    y 0.000000 1.797140 0.000000 
#    z 0.027600 0.000000 1.915430 
# 
# From -- ./inp_files/46907.got.cif
#   From: 2010.05.17/outbox.cif.g08.bks.cpg/sg11_24_cif.got.tgz:46907.got - 2010.06.03 12:22:45.
