data_PCOD9157042
_publ_section_title
;
Structure prediction by ZEFSAII (Michael W. Deem and Ramdas Pophale) SiO2 
 PCOD9157042
Probable space group: P 21/M
;
_chemical_formula_sum "Si O2"
_cell_formula_units_Z 28
_cell_length_a 10.122334
_cell_length_b 8.752746
_cell_length_c 31.776835
_cell_angle_alpha 90.000000
_cell_angle_beta 32.376882
_cell_angle_gamma 90.000000
_cell_volume 1507.591957
_symmetry_space_group_name_H-M "P 21/M"
_symmetry_group_IT_number 11
_symmetry_cell_setting 'monoclinic'
loop_
_space_group_symop_operation_xyz
x,y,z
-x,1/2+y,-z
-x,-y,-z
x,1/2-y,z
loop_
_atom_site_type_symbol
_atom_site_label
_atom_site_fract_x
_atom_site_fract_y
_atom_site_fract_z
Si Si1 0.187679 0.066325 0.484000
Si Si2 0.974353 0.933390 0.082285
Si Si3 0.794216 0.433367 0.652958
Si Si4 0.555514 0.932410 0.797437
Si Si5 0.507805 0.434050 0.091461
Si Si6 0.415207 0.933643 0.685370
Si Si7 0.910425 0.068168 0.851493
O O1 0.179062 0.250000 0.484658
O O2 0.454732 0.021875 0.393997
O O3 0.062965 0.022078 0.561799
O O4 0.000000 0.000000 0.500000
O O5 0.934915 0.750000 0.089391
O O6 0.052069 0.967198 0.109385
O O7 0.206171 0.978575 0.991040
O O8 0.722191 0.017740 0.139574
O O9 0.770946 0.250000 0.658419
O O10 0.736336 0.493472 0.714783
O O11 0.588347 0.501456 0.676376
O O12 0.575742 0.750000 0.789366
O O13 0.593556 0.980046 0.835576
O O14 0.499869 0.250000 0.090677
O O15 0.339868 0.502149 0.100146
O O16 0.411076 0.750000 0.689715
O O17 0.143393 0.998161 0.764339
O O18 0.911743 0.250000 0.846724
#
# Coordination Sequence:
#
# PCOD9157042 Si02
#       7
#     4   4   4   4   4   4   4
#     4   8  16  28  46  74 105 137 171 212 261 310
#     4  10  21  38  58  79 106 138 178 226 270 317
#     4  10  18  31  51  77 109 140 175 218 263 312
#     4  11  22  35  55  81 108 142 182 220 265 318
#     4  10  23  40  55  76 107 144 183 222 266 317
#     4  10  18  31  52  78 108 140 175 216 263 313
#     4  11  22  35  55  82 109 141 179 219 268 321
#
# _framework density 18.572665000000001
#
# number of rings (size 3 to 8) (size 9 to 14) (size 15 to 20)
#    0.000    2.000    1.429    2.571    0.000    3.429 
#    0.000    0.000    0.000    0.857    0.000    0.000 
#    0.000    0.000    0.000    0.000    0.000    0.000 
#
# Total GULP energy -156222.295666 kJ/mol
# GULP energy per Si atom -5579.367702 kJ/mol
# Density = 1.853039 g / cm^3
# Si number density = 18.572665 Si / 1000 Ang^3
#
#
#
# Elastic Constant Matrix: (Units=GPa)
#
#
# Indices 1 2 3 4 5 6 
#
# 1 23.0998 9.4613 -12.6602 0.0000 8.9188 0.0000
# 2 9.4613 17.8231 14.8265 0.0000 8.6988 0.0000
# 3 -12.6602 14.8265 97.5351 0.0000 14.5487 0.0000
# 4 0.0000 0.0000 0.0000 20.7794 0.0000 2.6039
# 5 8.9188 8.6988 14.5487 0.0000 16.4233 0.0000
# 6 0.0000 0.0000 0.0000 2.6039 0.0000 17.3801
#
#
#
# Elastic Compliance Matrix: (Units=1/GPa)
#
#
# Indices 1 2 3 4 5 6 
#
# 1 0.100531 -0.051530 0.028754 0.000000 -0.052773 0.000000
# 2 -0.051530 0.105673 -0.021406 0.000000 -0.009025 0.000000
# 3 0.028754 -0.021406 0.020599 0.000000 -0.022525 0.000000
# 4 0.000000 0.000000 0.000000 0.049045 0.000000 -0.007348
# 5 -0.052773 -0.009025 -0.022525 0.000000 0.114282 0.000000
# 6 0.000000 0.000000 0.000000 -0.007348 0.000000 0.058638
#
#
# Mechanical properties :
#
#
# Convention : Reuss Voigt Hill
#
# Bulk Modulus (GPa) = 7.22335 17.96813 12.59574
# Shear Modulus (GPa) = 8.57223 19.37192 13.97208
#
# Velocity S-wave (km/s) = 2.15070 3.23311 2.74577
# Velocity P-wave (km/s) = 3.17255 4.86136 4.10475
#
# Compressibility (1/GPa) = 0.13843996
#
# Stress axis : x y z
#
# Youngs Moduli (GPa) = 9.94718 9.46313 48.54612
#
# Poissons Ratio (x) = 0.48763 -1.39590
# Poissons Ratio (y) = 0.51257 1.03918
# Poissons Ratio (z) = -0.28602 0.20257
#
# Static dielectric constant tensor:
#      x y z
#    x 1.598640 0.000000 0.024810 
#    y 0.000000 1.622480 0.000000 
#    z 0.024810 0.000000 1.689490 
# 
# From -- ./inp_files/28348.got.cif
#   From: 2010.05.17/outbox.cif.g08.bks.cpg/sg11_15_cif.got.tgz:28348.got - 2010.06.03 12:22:45.
