data_PCOD9157893
_publ_section_title
;
Structure prediction by ZEFSAII (Michael W. Deem and Ramdas Pophale) SiO2 
 PCOD9157893
Probable space group: P 21/M
;
_chemical_formula_sum "Si O2"
_cell_formula_units_Z 32
_cell_length_a 28.320560
_cell_length_b 8.950218
_cell_length_c 21.440628
_cell_angle_alpha 90.000000
_cell_angle_beta 158.809175
_cell_angle_gamma 90.000000
_cell_volume 1964.497775
_symmetry_space_group_name_H-M "P 21/M"
_symmetry_group_IT_number 11
_symmetry_cell_setting 'monoclinic'
loop_
_space_group_symop_operation_xyz
x,y,z
-x,1/2+y,-z
-x,-y,-z
x,1/2-y,z
loop_
_atom_site_type_symbol
_atom_site_label
_atom_site_fract_x
_atom_site_fract_y
_atom_site_fract_z
Si Si1 0.790061 0.427102 0.249772
Si Si2 0.303225 0.072675 0.601842
Si Si3 0.003865 0.074362 0.276532
Si Si4 0.036547 0.073172 0.641290
Si Si5 0.926253 0.922682 0.058787
Si Si6 0.480114 0.071654 0.043388
Si Si7 0.770675 0.423738 0.614265
Si Si8 0.859076 0.570136 0.842817
O O1 0.764163 0.250000 0.214571
O O2 0.859125 0.484727 0.272011
O O3 0.895760 0.453142 0.435099
O O4 0.658798 0.516080 0.101995
O O5 0.327993 0.250000 0.632687
O O6 0.156874 0.048234 0.448528
O O7 0.406593 0.987945 0.771812
O O8 0.304387 0.009532 0.532925
O O9 0.986592 0.250000 0.266358
O O10 0.967381 0.983294 0.293037
O O11 0.923208 0.022490 0.116447
O O12 0.062678 0.250000 0.670178
O O13 0.899647 0.750000 0.042087
O O14 0.076542 0.928811 0.219078
O O15 0.839206 0.965798 0.891530
O O16 0.484252 0.250000 0.044145
O O17 0.500000 0.000000 0.000000
O O18 0.733505 0.250000 0.571923
O O19 0.764300 0.501816 0.673922
O O20 0.865367 0.750000 0.844879
O O21 0.000000 0.500000 0.000000
#
# Coordination Sequence:
#
# PCOD9157893 Si02
#       8
#     4   4   4   4   4   4   4   4
#     4  10  21  37  55  74  95 121 156 196 237 281
#     4  10  20  33  48  68  95 127 163 200 238 282
#     4  10  19  29  45  68  94 125 160 197 236 280
#     4  10  20  34  53  73  95 123 154 192 237 284
#     4   8  15  25  37  56  85 119 154 191 231 277
#     4  12  24  37  53  73  98 127 160 196 237 282
#     4   9  16  26  40  59  85 119 156 193 234 280
#     4   9  15  23  36  55  81 116 155 193 233 278
#
# _framework density 16.289151
#
# number of rings (size 3 to 8) (size 9 to 14) (size 15 to 20)
#    0.000    2.250    0.000    4.875    0.000    8.500 
#    0.000    0.000    0.000    0.000    0.000    0.000 
#    0.000    1.000    0.000    3.750    0.000    6.750 
#
# Total GULP energy -178445.722049 kJ/mol
# GULP energy per Si atom -5576.428814 kJ/mol
# Density = 1.625208 g / cm^3
# Si number density = 16.289151 Si / 1000 Ang^3
#
#
#
# Elastic Constant Matrix: (Units=GPa)
#
#
# Indices 1 2 3 4 5 6 
#
# 1 97.4335 61.5761 47.1281 0.0000 -32.8426 0.0000
# 2 61.5761 103.4211 48.1369 0.0000 -18.6149 0.0000
# 3 47.1281 48.1369 58.7341 0.0000 -22.2972 0.0000
# 4 0.0000 0.0000 0.0000 23.4174 0.0000 -6.0843
# 5 -32.8426 -18.6149 -22.2972 0.0000 24.7054 0.0000
# 6 0.0000 0.0000 0.0000 -6.0843 0.0000 30.8848
#
#
#
# Elastic Compliance Matrix: (Units=1/GPa)
#
#
# Indices 1 2 3 4 5 6 
#
# 1 0.026426 -0.009353 -0.004378 0.000000 0.024132 0.000000
# 2 -0.009353 0.018944 -0.011139 0.000000 -0.008213 0.000000
# 3 -0.004378 -0.011139 0.036923 0.000000 0.019111 0.000000
# 4 0.000000 0.000000 0.000000 0.045007 0.000000 0.008866
# 5 0.024132 -0.008213 0.019111 0.000000 0.083617 0.000000
# 6 0.000000 0.000000 0.000000 0.008866 0.000000 0.034125
#
#
# Mechanical properties :
#
#
# Convention : Reuss Voigt Hill
#
# Bulk Modulus (GPa) = 30.71845 63.69677 47.20761
# Shear Modulus (GPa) = 16.35947 22.65137 19.50542
#
# Velocity S-wave (km/s) = 3.17253 3.73309 3.46417
# Velocity P-wave (km/s) = 5.68499 7.60066 6.71153
#
# Compressibility (1/GPa) = 0.03255372
#
# Stress axis : x y z
#
# Youngs Moduli (GPa) = 37.84189 52.78636 27.08312
#
# Poissons Ratio (x) = 0.49369 0.11856
# Poissons Ratio (y) = 0.35392 0.30169
# Poissons Ratio (z) = 0.16566 0.58801
#
# Static dielectric constant tensor:
#      x y z
#    x 1.543140 0.000000 -0.022890 
#    y 0.000000 1.539890 0.000000 
#    z -0.022890 0.000000 1.542340 
# 
# From -- ./inp_files/58685.got.cif
#   From: 2010.05.17/outbox.cif.g08.bks.cpg/sg11_30_cif.got.tgz:58685.got - 2010.06.03 12:22:45.
