data_PCOD9157562
_publ_section_title
;
Structure prediction by ZEFSAII (Michael W. Deem and Ramdas Pophale) SiO2 
 PCOD9157562
Probable space group: P 21/M
;
_chemical_formula_sum "Si O2"
_cell_formula_units_Z 32
_cell_length_a 12.689973
_cell_length_b 7.675263
_cell_length_c 30.261355
_cell_angle_alpha 90.000000
_cell_angle_beta 146.185301
_cell_angle_gamma 90.000000
_cell_volume 1640.266281
_symmetry_space_group_name_H-M "P 21/M"
_symmetry_group_IT_number 11
_symmetry_cell_setting 'monoclinic'
loop_
_space_group_symop_operation_xyz
x,y,z
-x,1/2+y,-z
-x,-y,-z
x,1/2-y,z
loop_
_atom_site_type_symbol
_atom_site_label
_atom_site_fract_x
_atom_site_fract_y
_atom_site_fract_z
Si Si1 0.575657 0.036861 0.220831
Si Si2 0.807671 0.540824 0.487540
Si Si3 0.809047 0.959891 0.959192
Si Si4 0.695155 0.540565 0.543919
Si Si5 0.709612 0.956778 0.117082
Si Si6 0.760138 0.041156 0.373801
Si Si7 0.281864 0.451748 0.977711
Si Si8 0.919410 0.039780 0.276759
O O1 0.573204 0.250000 0.219780
O O2 0.376598 0.976625 0.131689
O O3 0.622632 0.979143 0.287036
O O4 0.749321 0.982431 0.249829
O O5 0.817988 0.750000 0.493900
O O6 0.710657 0.476760 0.498643
O O7 0.710417 0.499534 0.407013
O O8 0.025271 0.475146 0.560293
O O9 0.790697 0.750000 0.955729
O O10 0.805764 0.029251 0.008358
O O11 0.000000 0.000000 0.000000
O O12 0.500000 0.500000 0.500000
O O13 0.710123 0.750000 0.547535
O O14 0.879059 0.476590 0.634943
O O15 0.673817 0.750000 0.100844
O O16 0.758572 0.025895 0.085131
O O17 0.865996 0.987068 0.208613
O O18 0.510089 0.039574 0.062309
O O19 0.768236 0.250000 0.372956
O O20 0.222276 0.250000 0.955088
O O21 0.921069 0.250000 0.278777
#
# Coordination Sequence:
#
# PCOD9157562 Si02
#       8
#     4   4   4   4   4   4   4   4
#     4   9  16  31  55  76  97 132 176 210 247 303
#     4   9  17  31  50  75 104 133 164 206 260 305
#     4  10  20  35  54  74 101 138 173 209 255 305
#     4  10  21  36  55  76 104 141 177 212 257 313
#     4  10  19  30  51  83 108 129 169 222 260 298
#     4   9  16  29  52  78 100 127 169 214 249 297
#     4   9  18  34  53  73 104 143 173 204 261 318
#     4  10  18  34  56  76 101 138 177 212 258 312
#
# _framework density 19.509025999999999
#
# number of rings (size 3 to 8) (size 9 to 14) (size 15 to 20)
#    0.000    2.500    2.500    0.375    0.000    2.000 
#    0.000    2.500    0.000    6.000    0.000    0.000 
#    0.000    0.000    0.000    0.000    0.000    0.000 
#
# Total GULP energy -178484.805373 kJ/mol
# GULP energy per Si atom -5577.650168 kJ/mol
# Density = 1.946462 g / cm^3
# Si number density = 19.509026 Si / 1000 Ang^3
#
#
#
# Elastic Constant Matrix: (Units=GPa)
#
#
# Indices 1 2 3 4 5 6 
#
# 1 186.7618 -0.1014 98.3134 0.0000 -22.2681 0.0000
# 2 -0.1014 33.4249 -0.2286 0.0000 -1.8401 0.0000
# 3 98.3134 -0.2286 129.7638 0.0000 -15.5832 0.0000
# 4 0.0000 0.0000 0.0000 19.0237 0.0000 0.0116
# 5 -22.2681 -1.8401 -15.5832 0.0000 33.3252 0.0000
# 6 0.0000 0.0000 0.0000 0.0116 0.0000 18.1409
#
#
#
# Elastic Compliance Matrix: (Units=1/GPa)
#
#
# Indices 1 2 3 4 5 6 
#
# 1 0.009192 0.000152 -0.006596 0.000000 0.003066 0.000000
# 2 0.000152 0.030020 0.000158 0.000000 0.001833 0.000000
# 3 -0.006596 0.000158 0.012900 0.000000 0.001634 0.000000
# 4 0.000000 0.000000 0.000000 0.052566 0.000000 -0.000034
# 5 0.003066 0.001833 0.001634 0.000000 0.032921 0.000000
# 6 0.000000 0.000000 0.000000 -0.000034 0.000000 0.055124
#
#
# Mechanical properties :
#
#
# Convention : Reuss Voigt Hill
#
# Bulk Modulus (GPa) = 25.29066 60.65748 42.97407
# Shear Modulus (GPa) = 22.88579 30.89577 26.89078
#
# Velocity S-wave (km/s) = 3.42875 3.98385 3.71668
# Velocity P-wave (km/s) = 5.35414 7.23332 6.36348
#
# Compressibility (1/GPa) = 0.03954028
#
# Stress axis : x y z
#
# Youngs Moduli (GPa) = 108.78756 33.31081 77.51956
#
# Poissons Ratio (x) = -0.00505 0.51131
# Poissons Ratio (y) = -0.01649 -0.01226
# Poissons Ratio (z) = 0.71754 -0.00527
#
# Static dielectric constant tensor:
#      x y z
#    x 1.690530 0.000000 -0.036590 
#    y 0.000000 1.734370 0.000000 
#    z -0.036590 0.000000 1.665530 
# 
# From -- ./inp_files/42745.got.cif
#   From: 2010.05.17/outbox.cif.g08.bks.cpg/sg11_22_cif.got.tgz:42745.got - 2010.06.03 12:22:45.
