data_PCOD9157891
_publ_section_title
;
Structure prediction by ZEFSAII (Michael W. Deem and Ramdas Pophale) SiO2 
 PCOD9157891
Probable space group: P 21/M
;
_chemical_formula_sum "Si O2"
_cell_formula_units_Z 28
_cell_length_a 17.166133
_cell_length_b 9.042198
_cell_length_c 12.208491
_cell_angle_alpha 90.000000
_cell_angle_beta 75.344226
_cell_angle_gamma 90.000000
_cell_volume 1833.339896
_symmetry_space_group_name_H-M "P 21/M"
_symmetry_group_IT_number 11
_symmetry_cell_setting 'monoclinic'
loop_
_space_group_symop_operation_xyz
x,y,z
-x,1/2+y,-z
-x,-y,-z
x,1/2-y,z
loop_
_atom_site_type_symbol
_atom_site_label
_atom_site_fract_x
_atom_site_fract_y
_atom_site_fract_z
Si Si1 0.397869 0.578555 0.433596
Si Si2 0.770888 0.429612 0.440662
Si Si3 0.991855 0.425029 0.828114
Si Si4 0.127833 0.424886 0.966696
Si Si5 0.555143 0.421265 0.324326
Si Si6 0.271138 0.570496 0.794363
Si Si7 0.953003 0.428329 0.416145
O O1 0.396201 0.750000 0.402495
O O2 0.306941 0.516480 0.463658
O O3 0.470097 0.501424 0.343770
O O4 0.420767 0.571844 0.555047
O O5 0.766577 0.250000 0.443877
O O6 0.759829 0.471082 0.316928
O O7 0.858465 0.472275 0.451657
O O8 0.981911 0.250000 0.811989
O O9 0.066728 0.444549 0.885449
O O10 0.011111 0.510677 0.710098
O O11 0.914784 0.492580 0.917403
O O12 0.134731 0.250000 0.985118
O O13 0.212266 0.496184 0.901980
O O14 0.544385 0.250000 0.300567
O O15 0.635045 0.475949 0.233615
O O16 0.267601 0.750000 0.803159
O O17 0.957762 0.250000 0.417324
O O18 0.000000 0.500000 0.500000
#
# Coordination Sequence:
#
# PCOD9157891 Si02
#       7
#     4   4   4   4   4   4   4
#     4   8  13  23  37  53  76 109 146 176 209 256
#     4   8  15  27  43  59  80 115 151 182 219 264
#     4  10  20  33  47  65  88 116 151 186 227 272
#     4  10  19  29  45  68  91 115 148 188 225 265
#     4   8  14  22  34  55  82 111 141 174 213 255
#     4   9  15  26  42  60  86 119 150 177 215 266
#     4  11  21  34  50  66  89 118 153 193 231 266
#
# _framework density 15.272674
#
# number of rings (size 3 to 8) (size 9 to 14) (size 15 to 20)
#    0.000    2.857    1.429    3.000    0.000    1.714 
#    0.000    3.571    0.000    0.000    0.000    0.000 
#    0.000    1.143    0.000    3.429    0.000    5.286 
#
# Total GULP energy -155877.814871 kJ/mol
# GULP energy per Si atom -5567.064817 kJ/mol
# Density = 1.523791 g / cm^3
# Si number density = 15.272674 Si / 1000 Ang^3
#
#
#
# Elastic Constant Matrix: (Units=GPa)
#
#
# Indices 1 2 3 4 5 6 
#
# 1 107.9484 44.3641 67.4881 0.0000 -38.4287 0.0000
# 2 44.3641 54.8497 43.9835 0.0000 -17.1714 0.0000
# 3 67.4881 43.9835 69.1574 0.0000 -31.1857 0.0000
# 4 0.0000 0.0000 0.0000 24.1346 0.0000 -6.6452
# 5 -38.4287 -17.1714 -31.1857 0.0000 36.6120 0.0000
# 6 0.0000 0.0000 0.0000 -6.6452 0.0000 21.5904
#
#
#
# Elastic Compliance Matrix: (Units=1/GPa)
#
#
# Indices 1 2 3 4 5 6 
#
# 1 0.025615 -0.002301 -0.019315 0.000000 0.009355 0.000000
# 2 -0.002301 0.037854 -0.024213 0.000000 -0.005286 0.000000
# 3 -0.019315 -0.024213 0.055926 0.000000 0.016008 0.000000
# 4 0.000000 0.000000 0.000000 0.045271 0.000000 0.013934
# 5 0.009355 -0.005286 0.016008 0.000000 0.048289 0.000000
# 6 0.000000 0.000000 0.000000 0.013934 0.000000 0.050605
#
#
# Mechanical properties :
#
#
# Convention : Reuss Voigt Hill
#
# Bulk Modulus (GPa) = 36.05203 60.40299 48.22751
# Shear Modulus (GPa) = 13.71882 21.54206 17.63044
#
# Velocity S-wave (km/s) = 3.00035 3.75973 3.40130
# Velocity P-wave (km/s) = 5.97157 7.64742 6.86085
#
# Compressibility (1/GPa) = 0.02773769
#
# Stress axis : x y z
#
# Youngs Moduli (GPa) = 39.03979 26.41713 17.88081
#
# Poissons Ratio (x) = 0.06079 0.34536
# Poissons Ratio (y) = 0.08984 0.43294
# Poissons Ratio (z) = 0.75404 0.63963
#
# Static dielectric constant tensor:
#      x y z
#    x 1.521600 0.000000 -0.030610 
#    y 0.000000 1.515550 0.000000 
#    z -0.030610 0.000000 1.490630 
# 
# From -- ./inp_files/42138.got.cif
#   From: 2010.05.17/outbox.cif.g08.bks.cpg/sg11_22_cif.got.tgz:42138.got - 2010.06.03 12:22:45.
