data_PCOD9157423
_publ_section_title
;
Structure prediction by ZEFSAII (Michael W. Deem and Ramdas Pophale) SiO2 
 PCOD9157423
Probable space group: P 21/M
;
_chemical_formula_sum "Si O2"
_cell_formula_units_Z 32
_cell_length_a 14.677708
_cell_length_b 7.679953
_cell_length_c 12.995866
_cell_angle_alpha 90.000000
_cell_angle_beta 90.298027
_cell_angle_gamma 90.000000
_cell_volume 1464.927579
_symmetry_space_group_name_H-M "P 21/M"
_symmetry_group_IT_number 11
_symmetry_cell_setting 'monoclinic'
loop_
_space_group_symop_operation_xyz
x,y,z
-x,1/2+y,-z
-x,-y,-z
x,1/2-y,z
loop_
_atom_site_type_symbol
_atom_site_label
_atom_site_fract_x
_atom_site_fract_y
_atom_site_fract_z
Si Si1 0.961887 0.547568 0.886934
Si Si2 0.725085 0.956513 0.391066
Si Si3 0.291895 0.039749 0.951996
Si Si4 0.321926 0.463208 0.391495
Si Si5 0.237421 0.463071 0.173971
Si Si6 0.520749 0.442158 0.114529
Si Si7 0.144567 0.040361 0.790290
Si Si8 0.516922 0.462011 0.335659
O O1 0.942836 0.750000 0.895584
O O2 0.041374 0.518307 0.804234
O O3 0.865242 0.471537 0.849443
O O4 0.000000 0.500000 0.000000
O O5 0.742349 0.750000 0.394421
O O6 0.731866 0.024331 0.507812
O O7 0.794940 0.026065 0.305320
O O8 0.618422 0.978307 0.362194
O O9 0.304449 0.250000 0.944881
O O10 0.197496 0.995264 0.896240
O O11 0.369970 0.949650 0.886571
O O12 0.293448 0.988518 0.071435
O O13 0.321058 0.250000 0.391433
O O14 0.278808 0.520092 0.282896
O O15 0.428699 0.514711 0.400778
O O16 0.238263 0.250000 0.176598
O O17 0.481517 0.250000 0.121541
O O18 0.493578 0.530092 0.220217
O O19 0.500000 0.500000 0.000000
O O20 0.143602 0.250000 0.785398
O O21 0.520384 0.250000 0.334498
#
# Coordination Sequence:
#
# PCOD9157423 Si02
#       8
#     4   4   4   4   4   4   4   4
#     4  11  21  35  58  85 111 142 179 223 272 325
#     4  10  20  35  57  80 106 142 182 226 267 313
#     4  10  18  33  54  74 106 143 175 217 267 323
#     4   9  18  34  55  78 104 140 185 223 264 322
#     4   9  18  34  55  78 106 141 178 217 268 327
#     4  11  22  33  48  75 109 145 181 220 270 322
#     4  10  20  35  54  80 110 140 176 219 272 324
#     4  10  20  34  54  79 107 140 182 227 268 320
#
# _framework density 21.844082
#
# number of rings (size 3 to 8) (size 9 to 14) (size 15 to 20)
#    0.000    2.000    2.500    1.875    0.000    3.500 
#    0.000    0.625    0.000    3.750    0.000    0.000 
#    0.000    0.000    0.000    0.000    0.000    0.000 
#
# Total GULP energy -178541.735484 kJ/mol
# GULP energy per Si atom -5579.429234 kJ/mol
# Density = 2.179436 g / cm^3
# Si number density = 21.844082 Si / 1000 Ang^3
#
#
#
# Elastic Constant Matrix: (Units=GPa)
#
#
# Indices 1 2 3 4 5 6 
#
# 1 95.6269 -9.2157 35.2612 0.0000 -11.5219 0.0000
# 2 -9.2157 26.6423 1.9863 0.0000 -0.4156 0.0000
# 3 35.2612 1.9863 142.8331 0.0000 -16.2382 0.0000
# 4 0.0000 0.0000 0.0000 5.9053 0.0000 -0.7193
# 5 -11.5219 -0.4156 -16.2382 0.0000 27.5345 0.0000
# 6 0.0000 0.0000 0.0000 -0.7193 0.0000 20.8593
#
#
#
# Elastic Compliance Matrix: (Units=1/GPa)
#
#
# Indices 1 2 3 4 5 6 
#
# 1 0.012324 0.004520 -0.002692 0.000000 0.003638 0.000000
# 2 0.004520 0.039233 -0.001478 0.000000 0.001612 0.000000
# 3 -0.002692 -0.001478 0.008099 0.000000 0.003627 0.000000
# 4 0.000000 0.000000 0.000000 0.170055 0.000000 0.005864
# 5 0.003638 0.001612 0.003627 0.000000 0.040004 0.000000
# 6 0.000000 0.000000 0.000000 0.005864 0.000000 0.048143
#
#
# Mechanical properties :
#
#
# Convention : Reuss Voigt Hill
#
# Bulk Modulus (GPa) = 16.56830 35.68511 26.12670
# Shear Modulus (GPa) = 14.82471 26.66451 20.74461
#
# Velocity S-wave (km/s) = 2.60794 3.49761 3.08501
# Velocity P-wave (km/s) = 4.08286 5.71688 4.96752
#
# Compressibility (1/GPa) = 0.06035623
#
# Stress axis : x y z
#
# Youngs Moduli (GPa) = 81.14407 25.48861 123.47791
#
# Poissons Ratio (x) = -0.11522 0.33236
# Poissons Ratio (y) = -0.36679 0.18253
# Poissons Ratio (z) = 0.21841 0.03768
#
# Static dielectric constant tensor:
#      x y z
#    x 1.840810 0.000000 0.027630 
#    y 0.000000 1.838890 0.000000 
#    z 0.027630 0.000000 1.845980 
# 
# From -- ./inp_files/38154.got.cif
#   From: 2010.05.17/outbox.cif.g08.bks.cpg/sg11_20_cif.got.tgz:38154.got - 2010.06.03 12:22:45.
