data_PCOD9157259
_publ_section_title
;
Structure prediction by ZEFSAII (Michael W. Deem and Ramdas Pophale) SiO2 
 PCOD9157259
Probable space group: P 21/M
;
_chemical_formula_sum "Si O2"
_cell_formula_units_Z 32
_cell_length_a 12.925156
_cell_length_b 8.748870
_cell_length_c 22.236179
_cell_angle_alpha 90.000000
_cell_angle_beta 138.251691
_cell_angle_gamma 90.000000
_cell_volume 1674.289734
_symmetry_space_group_name_H-M "P 21/M"
_symmetry_group_IT_number 11
_symmetry_cell_setting 'monoclinic'
loop_
_space_group_symop_operation_xyz
x,y,z
-x,1/2+y,-z
-x,-y,-z
x,1/2-y,z
loop_
_atom_site_type_symbol
_atom_site_label
_atom_site_fract_x
_atom_site_fract_y
_atom_site_fract_z
Si Si1 0.632499 0.568280 0.391620
Si Si2 0.325822 0.063877 0.072202
Si Si3 0.183494 0.928612 0.640876
Si Si4 0.362901 0.928027 0.846308
Si Si5 0.990801 0.435227 0.876086
Si Si6 0.325865 0.433336 0.210409
Si Si7 0.931594 0.566611 0.224626
Si Si8 0.893230 0.433199 0.579006
O O1 0.631871 0.750000 0.392746
O O2 0.725150 0.508792 0.373065
O O3 0.459043 0.504618 0.309706
O O4 0.728682 0.502802 0.489512
O O5 0.333303 0.250000 0.074022
O O6 0.463113 0.009710 0.087576
O O7 0.354513 0.017844 0.153565
O O8 0.153391 0.020278 0.977584
O O9 0.159431 0.750000 0.615840
O O10 0.285726 0.936147 0.746210
O O11 0.021222 0.008297 0.586668
O O12 0.370276 0.750000 0.866807
O O13 0.243234 0.011196 0.838184
O O14 0.976654 0.250000 0.873381
O O15 0.004958 0.481374 0.812421
O O16 0.843278 0.511042 0.843067
O O17 0.335801 0.250000 0.216925
O O18 0.113571 0.750000 0.425603
O O19 0.040548 0.516375 0.327357
O O20 0.071103 0.250000 0.775814
#
# Coordination Sequence:
#
# PCOD9157259 Si02
#       8
#     4   4   4   4   4   4   4   4
#     4  12  23  35  54  82 111 144 185 230 282 335
#     4   9  18  35  59  85 115 147 180 227 283 334
#     4  10  18  32  53  80 116 151 183 224 275 332
#     4   9  17  32  55  82 114 152 185 222 274 329
#     4  10  21  39  60  82 111 149 189 231 280 327
#     4  11  22  39  59  83 114 146 186 231 280 333
#     4   9  20  37  56  81 115 150 187 231 274 323
#     4  10  20  35  54  79 112 150 188 227 274 329
#
# _framework density 19.112583000000001
#
# number of rings (size 3 to 8) (size 9 to 14) (size 15 to 20)
#    0.000    2.000    1.250    3.000    0.000    2.000 
#    0.000    1.875    0.000    0.000    0.000    0.000 
#    0.000    0.000    0.000    0.000    0.000    0.000 
#
# Total GULP energy -178730.769648 kJ/mol
# GULP energy per Si atom -5585.336552 kJ/mol
# Density = 1.906908 g / cm^3
# Si number density = 19.112583 Si / 1000 Ang^3
#
#
#
# Elastic Constant Matrix: (Units=GPa)
#
#
# Indices 1 2 3 4 5 6 
#
# 1 -181.1267 -48.4878 -50.5434 0.0000 -80.0320 0.0000
# 2 -48.4878 38.6201 5.7520 0.0000 -15.3673 0.0000
# 3 -50.5434 5.7520 56.3836 0.0000 -0.9873 0.0000
# 4 0.0000 0.0000 0.0000 19.5543 0.0000 9.0272
# 5 -80.0320 -15.3673 -0.9873 0.0000 -4.1538 0.0000
# 6 0.0000 0.0000 0.0000 9.0272 0.0000 27.5211
#
#
#
# Elastic Compliance Matrix: (Units=1/GPa)
#
#
# Indices 1 2 3 4 5 6 
#
# 1 0.001509 -0.004063 0.001515 0.000000 -0.014406 0.000000
# 2 -0.004063 0.021587 -0.005848 0.000000 -0.000190 0.000000
# 3 0.001515 -0.005848 0.019477 0.000000 -0.012186 0.000000
# 4 0.000000 0.000000 0.000000 0.060265 0.000000 -0.019768
# 5 -0.014406 -0.000190 -0.012186 0.000000 0.040414 0.000000
# 6 0.000000 0.000000 0.000000 -0.019768 0.000000 0.042820
#
#
# Mechanical properties :
#
#
# Convention : Reuss Voigt Hill
#
# Bulk Modulus (GPa) = 38.78683 -30.29791 4.24446
# Shear Modulus (GPa) = 23.64532 9.06138 16.35335
#
# Velocity S-wave (km/s) = 3.52114 2.17976 2.92829
# Velocity P-wave (km/s) = 6.07200 3.09057 3.69578
#
# Compressibility (1/GPa) = 0.02578195
#
# Stress axis : x y z
#
# Youngs Moduli (GPa) = 662.62163 46.32349 51.34265
#
# Poissons Ratio (x) = 0.18821 -0.07779
# Poissons Ratio (y) = 2.69227 0.30024
# Poissons Ratio (z) = -1.00393 0.27089
#
# Static dielectric constant tensor:
#      x y z
#    x 1.639280 0.000000 -0.002010 
#    y 0.000000 1.641710 0.000000 
#    z -0.002010 0.000000 1.695250 
# 
# From -- ./inp_files/64417.got.cif
#   From: 2010.05.17/outbox.cif.g08.bks.cpg/sg11_33_cif.got.tgz:64417.got - 2010.06.03 12:22:45.
