data_PCOD9157418
_publ_section_title
;
Structure prediction by ZEFSAII (Michael W. Deem and Ramdas Pophale) SiO2 
 PCOD9157418
Probable space group: P 21/M
;
_chemical_formula_sum "Si O2"
_cell_formula_units_Z 24
_cell_length_a 14.483628
_cell_length_b 18.658351
_cell_length_c 8.697761
_cell_angle_alpha 90.000000
_cell_angle_beta 155.838879
_cell_angle_gamma 90.000000
_cell_volume 962.064268
_symmetry_space_group_name_H-M "P 21/M"
_symmetry_group_IT_number 11
_symmetry_cell_setting 'monoclinic'
loop_
_space_group_symop_operation_xyz
x,y,z
-x,1/2+y,-z
-x,-y,-z
x,1/2-y,z
loop_
_atom_site_type_symbol
_atom_site_label
_atom_site_fract_x
_atom_site_fract_y
_atom_site_fract_z
Si Si1 0.079429 0.670242 0.937840
Si Si2 0.758846 0.522925 0.825037
Si Si3 0.910651 0.073078 0.294235
Si Si4 0.626791 0.165866 0.087587
Si Si5 0.581793 0.826585 0.551047
Si Si6 0.233812 0.568736 0.439788
O O1 0.987612 0.750000 0.815329
O O2 0.331142 0.677462 0.244066
O O3 0.114783 0.628235 0.149442
O O4 0.951532 0.621386 0.618286
O O5 0.701966 0.602648 0.789561
O O6 0.664779 0.490094 0.522323
O O7 0.717529 0.462751 0.890648
O O8 0.030094 0.527280 0.212715
O O9 0.830156 0.127946 0.301877
O O10 0.000000 0.000000 0.500000
O O11 0.664125 0.250000 0.184544
O O12 0.607636 0.113105 0.204221
O O13 0.440443 0.165795 0.668514
O O14 0.693543 0.750000 0.755437
#
# Coordination Sequence:
#
# PCOD9157418 Si02
#       6
#     4   4   4   4   4   4
#     4   9  19  35  56  77 107 148 186 224 273 331
#     4  10  21  36  55  84 113 143 180 232 281 319
#     4  10  18  33  53  77 110 138 181 229 262 322
#     4  10  20  35  57  81 108 149 188 223 272 335
#     4   9  20  38  56  79 111 146 188 225 267 329
#     4  10  20  34  58  84 110 140 184 227 276 332
#
# _framework density 24.946356999999999
#
# number of rings (size 3 to 8) (size 9 to 14) (size 15 to 20)
#    0.000    2.333    1.667    2.000    0.000    8.000 
#    0.000    0.000    0.000    0.000    0.000    0.000 
#    0.000    0.000    0.000    0.000    0.000    0.000 
#
# Total GULP energy -133854.892135 kJ/mol
# GULP energy per Si atom -5577.287172 kJ/mol
# Density = 2.488958 g / cm^3
# Si number density = 24.946357 Si / 1000 Ang^3
#
#
#
# Elastic Constant Matrix: (Units=GPa)
#
#
# Indices 1 2 3 4 5 6 
#
# 1 71.4341 18.7040 18.7905 0.0000 -2.1131 0.0000
# 2 18.7040 199.6254 9.3998 0.0000 4.6834 0.0000
# 3 18.7905 9.3998 18.4558 0.0000 -5.3741 0.0000
# 4 0.0000 0.0000 0.0000 40.3706 0.0000 -9.2119
# 5 -2.1131 4.6834 -5.3741 0.0000 27.2891 0.0000
# 6 0.0000 0.0000 0.0000 -9.2119 0.0000 37.6187
#
#
#
# Elastic Compliance Matrix: (Units=1/GPa)
#
#
# Indices 1 2 3 4 5 6 
#
# 1 0.019411 -0.000822 -0.020012 0.000000 -0.002297 0.000000
# 2 -0.000822 0.005224 -0.002231 0.000000 -0.001400 0.000000
# 3 -0.020012 -0.002231 0.079939 0.000000 0.014576 0.000000
# 4 0.000000 0.000000 0.000000 0.026236 0.000000 0.006425
# 5 -0.002297 -0.001400 0.014576 0.000000 0.039577 0.000000
# 6 0.000000 0.000000 0.000000 0.006425 0.000000 0.028156
#
#
# Mechanical properties :
#
#
# Convention : Reuss Voigt Hill
#
# Bulk Modulus (GPa) = 17.11084 42.58930 29.85007
# Shear Modulus (GPa) = 18.92817 37.23041 28.07929
#
# Velocity S-wave (km/s) = 2.75754 3.86737 3.35862
# Velocity P-wave (km/s) = 4.12464 6.08700 5.19924
#
# Compressibility (1/GPa) = 0.05844247
#
# Stress axis : x y z
#
# Youngs Moduli (GPa) = 51.51848 191.41196 12.50947
#
# Poissons Ratio (x) = 0.15743 0.25034
# Poissons Ratio (y) = 0.04237 0.02791
# Poissons Ratio (z) = 1.03101 0.42704
#
# Static dielectric constant tensor:
#      x y z
#    x 2.071620 0.000000 0.044760 
#    y 0.000000 1.949120 0.000000 
#    z 0.044760 0.000000 2.099140 
# 
# From -- ./inp_files/25142.got.cif
#   From: 2010.05.17/outbox.cif.g08.bks.cpg/sg11_13_cif.got.tgz:25142.got - 2010.06.03 12:22:45.
