data_PCOD9157583
_publ_section_title
;
Structure prediction by ZEFSAII (Michael W. Deem and Ramdas Pophale) SiO2 
 PCOD9157583
Probable space group: P 21/M
;
_chemical_formula_sum "Si O2"
_cell_formula_units_Z 32
_cell_length_a 9.316270
_cell_length_b 24.316667
_cell_length_c 13.732509
_cell_angle_alpha 90.000000
_cell_angle_beta 149.409122
_cell_angle_gamma 90.000000
_cell_volume 1583.186901
_symmetry_space_group_name_H-M "P 21/M"
_symmetry_group_IT_number 11
_symmetry_cell_setting 'monoclinic'
loop_
_space_group_symop_operation_xyz
x,y,z
-x,1/2+y,-z
-x,-y,-z
x,1/2-y,z
loop_
_atom_site_type_symbol
_atom_site_label
_atom_site_fract_x
_atom_site_fract_y
_atom_site_fract_z
Si Si1 0.808552 0.413855 0.272633
Si Si2 0.058142 0.350334 0.133314
Si Si3 0.788781 0.313482 0.773627
Si Si4 0.903954 0.067638 0.815799
Si Si5 0.771553 0.461718 0.049885
Si Si6 0.552140 0.588166 0.748142
Si Si7 0.387663 0.025514 0.636968
Si Si8 0.883530 0.808477 0.627582
O O1 0.671185 0.443926 0.098910
O O2 0.602573 0.401577 0.241103
O O3 0.077424 0.450462 0.459485
O O4 0.944747 0.356999 0.319671
O O5 0.375974 0.362448 0.281191
O O6 0.054058 0.310381 0.221555
O O7 0.938214 0.407924 0.107230
O O8 0.892465 0.326260 0.944324
O O9 0.869553 0.250000 0.793550
O O10 0.899666 0.368102 0.779687
O O11 0.451190 0.316000 0.577384
O O12 0.598795 0.055743 0.685117
O O13 0.021133 0.015079 0.824315
O O14 0.134922 0.067622 0.038132
O O15 0.528956 0.472158 0.827520
O O16 0.391623 0.537785 0.606181
O O17 0.962780 0.750000 0.630421
#
# Coordination Sequence:
#
# PCOD9157583 Si02
#       8
#     4   4   4   4   4   4   4   4
#     4  11  23  34  54  86 114 146 183 222 288 333
#     4  10  18  35  58  80 106 143 185 222 276 321
#     4  10  19  33  55  81 104 136 188 232 263 316
#     4  10  18  34  57  79 109 148 186 224 276 319
#     4  10  19  34  58  79 111 146 181 226 271 336
#     4  10  20  35  55  85 118 141 175 232 279 334
#     4  11  18  36  55  79 115 151 182 223 270 337
#     4  10  21  36  55  80 107 142 190 231 264 328
#
# _framework density 20.212395999999998
#
# number of rings (size 3 to 8) (size 9 to 14) (size 15 to 20)
#    0.000    1.750    5.000    1.500    0.000    3.500 
#    0.000    5.625    0.000    0.000    0.000    7.000 
#    0.000    0.000    0.000    0.000    0.000    0.000 
#
# Total GULP energy -178364.158058 kJ/mol
# GULP energy per Si atom -5573.879939 kJ/mol
# Density = 2.016639 g / cm^3
# Si number density = 20.212396 Si / 1000 Ang^3
#
#
#
# Elastic Constant Matrix: (Units=GPa)
#
#
# Indices 1 2 3 4 5 6 
#
# 1 24.3402 -16.8631 -5.0434 0.0000 12.0698 0.0000
# 2 -16.8631 108.2025 -3.1572 0.0000 -2.8327 0.0000
# 3 -5.0434 -3.1572 48.8218 0.0000 -4.0091 0.0000
# 4 0.0000 0.0000 0.0000 35.3742 0.0000 9.7181
# 5 12.0698 -2.8327 -4.0091 0.0000 13.7559 0.0000
# 6 0.0000 0.0000 0.0000 9.7181 0.0000 18.9941
#
#
#
# Elastic Compliance Matrix: (Units=1/GPa)
#
#
# Indices 1 2 3 4 5 6 
#
# 1 0.085180 0.011516 0.003690 0.000000 -0.071292 0.000000
# 2 0.011516 0.010878 0.001278 0.000000 -0.007492 0.000000
# 3 0.003690 0.001278 0.021210 0.000000 0.003207 0.000000
# 4 0.000000 0.000000 0.000000 0.032893 0.000000 -0.016829
# 5 -0.071292 -0.007492 0.003207 0.000000 0.134642 0.000000
# 6 0.000000 0.000000 0.000000 -0.016829 0.000000 0.061258
#
#
# Mechanical properties :
#
#
# Convention : Reuss Voigt Hill
#
# Bulk Modulus (GPa) = 6.65620 14.58187 10.61903
# Shear Modulus (GPa) = 13.76764 27.38673 20.57718
#
# Velocity S-wave (km/s) = 2.61271 3.68495 3.19415
# Velocity P-wave (km/s) = 3.52164 5.03340 4.34380
#
# Compressibility (1/GPa) = 0.15023592
#
# Stress axis : x y z
#
# Youngs Moduli (GPa) = 11.73985 91.92964 47.14795
#
# Poissons Ratio (x) = -1.05870 -0.17397
# Poissons Ratio (y) = -0.13520 -0.06025
# Poissons Ratio (z) = -0.04332 -0.11748
#
# Static dielectric constant tensor:
#      x y z
#    x 1.740210 0.000000 -0.018710 
#    y 0.000000 1.791050 0.000000 
#    z -0.018710 0.000000 1.726790 
# 
# From -- ./inp_files/48467.got.cif
#   From: 2010.05.17/outbox.cif.g08.bks.cpg/sg11_25_cif.got.tgz:48467.got - 2010.06.03 12:22:45.
