data_PCOD9157792
_publ_section_title
;
Structure prediction by ZEFSAII (Michael W. Deem and Ramdas Pophale) SiO2 
 PCOD9157792
Probable space group: P 21/M
;
_chemical_formula_sum "Si O2"
_cell_formula_units_Z 24
_cell_length_a 10.909700
_cell_length_b 10.860265
_cell_length_c 14.806388
_cell_angle_alpha 90.000000
_cell_angle_beta 41.290428
_cell_angle_gamma 90.000000
_cell_volume 1157.616715
_symmetry_space_group_name_H-M "P 21/M"
_symmetry_group_IT_number 11
_symmetry_cell_setting 'monoclinic'
loop_
_space_group_symop_operation_xyz
x,y,z
-x,1/2+y,-z
-x,-y,-z
x,1/2-y,z
loop_
_atom_site_type_symbol
_atom_site_label
_atom_site_fract_x
_atom_site_fract_y
_atom_site_fract_z
Si Si1 0.562625 0.615279 0.261093
Si Si2 0.324603 0.514057 0.973410
Si Si3 0.867795 0.250000 0.186249
Si Si4 0.561675 0.750000 0.631651
Si Si5 0.084309 0.481506 0.829860
Si Si6 0.454080 0.250000 0.141030
Si Si7 0.799497 0.750000 0.871887
Si Si8 0.672933 0.994940 0.473462
O O1 0.569062 0.750000 0.217920
O O2 0.568761 0.518553 0.177759
O O3 0.751184 0.593926 0.214348
O O4 0.383750 0.598462 0.423399
O O5 0.439380 0.626512 0.951782
O O6 0.283453 0.380712 0.043059
O O7 0.122030 0.568007 0.060836
O O8 0.645130 0.250000 0.299926
O O9 0.924917 0.116311 0.117001
O O10 0.986212 0.250000 0.214102
O O11 0.549396 0.750000 0.747348
O O12 0.662763 0.869324 0.535405
O O13 0.152582 0.501811 0.688662
O O14 0.253700 0.250000 0.203812
O O15 0.500000 0.000000 0.500000
#
# Coordination Sequence:
#
# PCOD9157792 Si02
#       8
#     4   4   2   2   4   2   2   4
#     4  11  21  33  54  89 129 159 196 251 306 363
#     4  11  22  41  60  88 118 162 209 252 305 360
#     4  10  18  38  60  85 120 155 202 241 312 352
#     4  12  20  37  60  91 121 158 200 255 302 365
#     4  10  22  33  56  88 124 162 194 249 304 367
#     4  12  24  41  65  91 122 162 211 249 315 364
#     4  10  24  42  63  89 123 165 201 259 305 375
#     4  10  21  33  54  88 123 160 196 246 303 366
#
# _framework density 20.732251000000002
#
# number of rings (size 3 to 8) (size 9 to 14) (size 15 to 20)
#    0.000    1.333    5.833    1.000    7.000    1.333 
#    0.000    0.000    0.000    4.000    8.667    0.000 
#    0.000    0.000    0.000    0.000    0.000    0.000 
#
# Total GULP energy -133691.596097 kJ/mol
# GULP energy per Si atom -5570.483171 kJ/mol
# Density = 2.068506 g / cm^3
# Si number density = 20.732251 Si / 1000 Ang^3
#
#
#
# Elastic Constant Matrix: (Units=GPa)
#
#
# Indices 1 2 3 4 5 6 
#
# 1 79.7303 25.0855 17.8051 0.0000 3.2104 0.0000
# 2 25.0855 88.6833 4.8798 0.0000 8.8577 0.0000
# 3 17.8051 4.8798 72.0074 0.0000 9.4106 0.0000
# 4 0.0000 0.0000 0.0000 25.9628 0.0000 -5.7319
# 5 3.2104 8.8577 9.4106 0.0000 10.7837 0.0000
# 6 0.0000 0.0000 0.0000 -5.7319 0.0000 -1.7987
#
#
#
# Elastic Compliance Matrix: (Units=1/GPa)
#
#
# Indices 1 2 3 4 5 6 
#
# 1 0.014562 -0.004142 -0.003610 0.000000 0.002217 0.000000
# 2 -0.004142 0.013481 0.001576 0.000000 -0.011216 0.000000
# 3 -0.003610 0.001576 0.016595 0.000000 -0.014702 0.000000
# 4 0.000000 0.000000 0.000000 0.022610 0.000000 -0.072050
# 5 0.002217 -0.011216 -0.014702 0.000000 0.114115 0.000000
# 6 0.000000 0.000000 0.000000 -0.072050 0.000000 -0.326351
#
#
# Mechanical properties :
#
#
# Convention : Reuss Voigt Hill
#
# Bulk Modulus (GPa) = 30.97200 37.32909 34.15055
# Shear Modulus (GPa) = -41.02569 19.83293 -10.59638
#
# Velocity S-wave (km/s) = -4.45323 3.09629 -2.26322
# Velocity P-wave (km/s) = 3.38678 5.55221 3.11101
#
# Compressibility (1/GPa) = 0.03228722
#
# Stress axis : x y z
#
# Youngs Moduli (GPa) = 68.67028 74.17725 60.26059
#
# Poissons Ratio (x) = 0.30724 0.21753
# Poissons Ratio (y) = 0.28443 -0.09500
# Poissons Ratio (z) = 0.24789 -0.11693
#
# Static dielectric constant tensor:
#      x y z
#    x 1.719580 0.000000 0.028490 
#    y 0.000000 1.723030 0.000000 
#    z 0.028490 0.000000 1.757780 
# 
# From -- ./inp_files/49768.got.cif
#   From: 2010.05.17/outbox.cif.g08.bks.cpg/sg11_25_cif.got.tgz:49768.got - 2010.06.03 12:22:45.
