data_PCOD9157557
_publ_section_title
;
Structure prediction by ZEFSAII (Michael W. Deem and Ramdas Pophale) SiO2 
 PCOD9157557
Probable space group: P 21/M
;
_chemical_formula_sum "Si O2"
_cell_formula_units_Z 28
_cell_length_a 32.477382
_cell_length_b 8.531270
_cell_length_c 9.817129
_cell_angle_alpha 90.000000
_cell_angle_beta 34.228029
_cell_angle_gamma 90.000000
_cell_volume 1530.003400
_symmetry_space_group_name_H-M "P 21/M"
_symmetry_group_IT_number 11
_symmetry_cell_setting 'monoclinic'
loop_
_space_group_symop_operation_xyz
x,y,z
-x,1/2+y,-z
-x,-y,-z
x,1/2-y,z
loop_
_atom_site_type_symbol
_atom_site_label
_atom_site_fract_x
_atom_site_fract_y
_atom_site_fract_z
Si Si1 0.194239 0.563618 0.198841
Si Si2 0.549914 0.938837 0.559045
Si Si3 0.689274 0.937527 0.334549
Si Si4 0.197249 0.935894 0.771348
Si Si5 0.765235 0.561262 0.621537
Si Si6 0.598334 0.561512 0.122959
Si Si7 0.919019 0.936525 0.697034
O O1 0.204201 0.750000 0.162234
O O2 0.198590 0.506355 0.341285
O O3 0.119478 0.514539 0.328698
O O4 0.258641 0.479674 0.936191
O O5 0.548921 0.750000 0.561186
O O6 0.607518 0.988251 0.516855
O O7 0.581163 0.990766 0.325372
O O8 0.467402 0.999967 0.790803
O O9 0.690491 0.750000 0.350868
O O10 0.726914 0.018186 0.360539
O O11 0.187468 0.750000 0.804093
O O12 0.199256 0.996645 0.612560
O O13 0.133519 0.017074 0.033485
O O14 0.768417 0.750000 0.615369
O O15 0.679521 0.512647 0.859268
O O16 0.596211 0.750000 0.128001
O O17 0.919450 0.750000 0.679711
O O18 0.000000 0.000000 0.500000
#
# Coordination Sequence:
#
# PCOD9157557 Si02
#       7
#     4   4   4   4   4   4   4
#     4  11  21  34  57  88 115 147 188 232 274 326
#     4   9  17  30  49  76 106 140 187 238 284 331
#     4  10  18  34  55  78 108 148 192 235 282 336
#     4  11  23  38  57  86 116 147 187 231 280 334
#     4  11  21  38  57  80 114 153 191 231 284 339
#     4   9  18  31  49  75 107 143 185 235 285 333
#     4  11  22  41  66  91 118 150 183 223 270 325
#
# _framework density 18.300612999999998
#
# number of rings (size 3 to 8) (size 9 to 14) (size 15 to 20)
#    0.000    1.714    1.429    6.429    0.000    2.286 
#    0.000    1.429    0.000    0.000    0.000    0.000 
#    0.000    0.000    0.000    0.000    0.000    0.000 
#
# Total GULP energy -156383.730894 kJ/mol
# GULP energy per Si atom -5585.133246 kJ/mol
# Density = 1.825896 g / cm^3
# Si number density = 18.300613 Si / 1000 Ang^3
#
#
#
# Elastic Constant Matrix: (Units=GPa)
#
#
# Indices 1 2 3 4 5 6 
#
# 1 108.6794 -3.5565 45.5789 0.0000 -4.9840 0.0000
# 2 -3.5565 39.9064 2.6665 0.0000 0.5470 0.0000
# 3 45.5789 2.6665 52.0287 0.0000 -3.4363 0.0000
# 4 0.0000 0.0000 0.0000 24.6181 0.0000 -3.0625
# 5 -4.9840 0.5470 -3.4363 0.0000 36.1050 0.0000
# 6 0.0000 0.0000 0.0000 -3.0625 0.0000 31.3778
#
#
#
# Elastic Compliance Matrix: (Units=1/GPa)
#
#
# Indices 1 2 3 4 5 6 
#
# 1 0.014754 0.002172 -0.012985 0.000000 0.000768 0.000000
# 2 0.002172 0.025474 -0.003234 0.000000 -0.000394 0.000000
# 3 -0.012985 -0.003234 0.030840 0.000000 0.001192 0.000000
# 4 0.000000 0.000000 0.000000 0.041120 0.000000 0.004013
# 5 0.000768 -0.000394 0.001192 0.000000 0.027922 0.000000
# 6 0.000000 0.000000 0.000000 0.004013 0.000000 0.032261
#
#
# Mechanical properties :
#
#
# Convention : Reuss Voigt Hill
#
# Bulk Modulus (GPa) = 23.27080 32.22139 27.74609
# Shear Modulus (GPa) = 23.27854 28.81521 26.04688
#
# Velocity S-wave (km/s) = 3.57039 3.97236 3.77673
# Velocity P-wave (km/s) = 5.45348 6.21969 5.84914
#
# Compressibility (1/GPa) = 0.04297232
#
# Stress axis : x y z
#
# Youngs Moduli (GPa) = 67.78048 39.25615 32.42528
#
# Poissons Ratio (x) = -0.08526 0.42105
# Poissons Ratio (y) = -0.14722 0.10487
# Poissons Ratio (z) = 0.88014 0.12697
#
# Static dielectric constant tensor:
#      x y z
#    x 1.634440 0.000000 -0.006410 
#    y 0.000000 1.616850 0.000000 
#    z -0.006410 0.000000 1.611240 
# 
# From -- ./inp_files/28998.got.cif
#   From: 2010.05.17/outbox.cif.g08.bks.cpg/sg11_15_cif.got.tgz:28998.got - 2010.06.03 12:22:45.
