data_PCOD9157882
_publ_section_title
;
Structure prediction by ZEFSAII (Michael W. Deem and Ramdas Pophale) SiO2 
 PCOD9157882
Probable space group: P 21/M
;
_chemical_formula_sum "Si O2"
_cell_formula_units_Z 32
_cell_length_a 18.829513
_cell_length_b 7.695265
_cell_length_c 11.900908
_cell_angle_alpha 90.000000
_cell_angle_beta 95.005921
_cell_angle_gamma 90.000000
_cell_volume 1717.841392
_symmetry_space_group_name_H-M "P 21/M"
_symmetry_group_IT_number 11
_symmetry_cell_setting 'monoclinic'
loop_
_space_group_symop_operation_xyz
x,y,z
-x,1/2+y,-z
-x,-y,-z
x,1/2-y,z
loop_
_atom_site_type_symbol
_atom_site_label
_atom_site_fract_x
_atom_site_fract_y
_atom_site_fract_z
Si Si1 0.438656 0.536726 0.130579
Si Si2 0.083923 0.959309 0.504380
Si Si3 0.018320 0.042799 0.130278
Si Si4 0.739689 0.543183 0.089308
Si Si5 0.408854 0.048703 0.867437
Si Si6 0.154066 0.545321 0.285645
Si Si7 0.712718 0.455576 0.827992
Si Si8 0.880613 0.040407 0.246857
O O1 0.439013 0.750000 0.123800
O O2 0.518059 0.478462 0.177108
O O3 0.368925 0.480141 0.189951
O O4 0.424926 0.465343 0.003264
O O5 0.088922 0.750000 0.502220
O O6 0.120908 0.028354 0.396252
O O7 0.120537 0.021089 0.624652
O O8 0.000000 0.000000 0.500000
O O9 0.022648 0.250000 0.142822
O O10 0.953552 0.977315 0.198979
O O11 0.093130 0.969713 0.182706
O O12 0.000000 0.000000 0.000000
O O13 0.730447 0.750000 0.078642
O O14 0.670762 0.472296 0.148776
O O15 0.812592 0.507743 0.163608
O O16 0.737708 0.475686 0.961231
O O17 0.404410 0.250000 0.832186
O O18 0.166242 0.750000 0.307152
O O19 0.227430 0.469393 0.246494
O O20 0.709011 0.250000 0.806045
O O21 0.883982 0.250000 0.248787
#
# Coordination Sequence:
#
# PCOD9157882 Si02
#       8
#     4   4   4   4   4   4   4   4
#     4   8  13  23  40  60  87 121 149 174 211 262
#     4  10  20  36  54  69  86 112 150 196 235 269
#     4  11  22  34  48  67  92 121 152 182 221 273
#     4  10  19  29  44  68  95 122 152 186 222 263
#     4   8  14  24  38  60  89 118 149 181 212 253
#     4  10  20  33  50  70  91 115 148 190 230 269
#     4   9  17  29  45  68  96 123 148 178 223 274
#     4  10  21  35  48  64  88 118 151 187 227 270
#
# _framework density 18.628029999999999
#
# number of rings (size 3 to 8) (size 9 to 14) (size 15 to 20)
#    0.000    2.500    1.250    1.500    0.000    5.500 
#    0.000    0.000    0.000    0.000    0.000    0.875 
#    0.000    0.000    0.000    0.000    0.000    0.000 
#
# Total GULP energy -178292.186105 kJ/mol
# GULP energy per Si atom -5571.630816 kJ/mol
# Density = 1.858563 g / cm^3
# Si number density = 18.628030 Si / 1000 Ang^3
#
#
#
# Elastic Constant Matrix: (Units=GPa)
#
#
# Indices 1 2 3 4 5 6 
#
# 1 140.9618 2.3702 29.8916 0.0000 -42.9017 0.0000
# 2 2.3702 34.9568 0.1820 0.0000 -3.7734 0.0000
# 3 29.8916 0.1820 67.2594 0.0000 -29.8943 0.0000
# 4 0.0000 0.0000 0.0000 5.7558 0.0000 -5.3708
# 5 -42.9017 -3.7734 -29.8943 0.0000 23.2867 0.0000
# 6 0.0000 0.0000 0.0000 -5.3708 0.0000 7.0082
#
#
#
# Elastic Compliance Matrix: (Units=1/GPa)
#
#
# Indices 1 2 3 4 5 6 
#
# 1 0.026498 0.006820 0.024205 0.000000 0.080997 0.000000
# 2 0.006820 0.031524 0.011035 0.000000 0.031840 0.000000
# 3 0.024205 0.011035 0.057509 0.000000 0.120210 0.000000
# 4 0.000000 0.000000 0.000000 0.609797 0.000000 0.467318
# 5 0.080997 0.031840 0.120210 0.000000 0.351645 0.000000
# 6 0.000000 0.000000 0.000000 0.467318 0.000000 0.500818
#
#
# Mechanical properties :
#
#
# Convention : Reuss Voigt Hill
#
# Bulk Modulus (GPa) = 5.00869 34.22950 19.61909
# Shear Modulus (GPa) = 3.20468 21.25908 12.23188
#
# Velocity S-wave (km/s) = 1.31304 3.38189 2.56528
# Velocity P-wave (km/s) = 2.23459 5.80213 4.39648
#
# Compressibility (1/GPa) = 0.19965292
#
# Stress axis : x y z
#
# Youngs Moduli (GPa) = 37.73875 31.72210 17.38846
#
# Poissons Ratio (x) = -0.21636 -0.42089
# Poissons Ratio (y) = -0.25739 -0.19189
# Poissons Ratio (z) = -0.91348 -0.35006
#
# Static dielectric constant tensor:
#      x y z
#    x 1.706850 0.000000 -0.043600 
#    y 0.000000 1.714600 0.000000 
#    z -0.043600 0.000000 1.617010 
# 
# From -- ./inp_files/40707.got.cif
#   From: 2010.05.17/outbox.cif.g08.bks.cpg/sg11_21_cif.got.tgz:40707.got - 2010.06.03 12:22:45.
