data_PCOD9157650
_publ_section_title
;
Structure prediction by ZEFSAII (Michael W. Deem and Ramdas Pophale) SiO2 
 PCOD9157650
Probable space group: P 21/M
;
_chemical_formula_sum "Si O2"
_cell_formula_units_Z 32
_cell_length_a 8.945083
_cell_length_b 14.397805
_cell_length_c 25.431709
_cell_angle_alpha 90.000000
_cell_angle_beta 28.019998
_cell_angle_gamma 90.000000
_cell_volume 1538.687633
_symmetry_space_group_name_H-M "P 21/M"
_symmetry_group_IT_number 11
_symmetry_cell_setting 'monoclinic'
loop_
_space_group_symop_operation_xyz
x,y,z
-x,1/2+y,-z
-x,-y,-z
x,1/2-y,z
loop_
_atom_site_type_symbol
_atom_site_label
_atom_site_fract_x
_atom_site_fract_y
_atom_site_fract_z
Si Si1 0.357230 0.645485 0.410914
Si Si2 0.489950 0.474760 0.442474
Si Si3 0.242215 0.994880 0.002171
Si Si4 0.834613 0.360573 0.645749
Si Si5 0.644397 0.644157 0.675829
Si Si6 0.514037 0.356432 0.993871
Si Si7 0.154465 0.856228 0.739815
Si Si8 0.524428 0.010015 0.183604
O O1 0.481022 0.750000 0.382344
O O2 0.498998 0.566386 0.403577
O O3 0.363975 0.626112 0.346663
O O4 0.983457 0.645434 0.542320
O O5 0.500000 0.500000 0.500000
O O6 0.783960 0.413520 0.331459
O O7 0.170089 0.413573 0.533463
O O8 0.439631 0.968198 0.888818
O O9 0.241981 0.916724 0.047575
O O10 0.409073 0.085519 0.975464
O O11 0.883582 0.011801 0.094853
O O12 0.879852 0.250000 0.639234
O O13 0.644010 0.411871 0.751461
O O14 0.550357 0.750000 0.718012
O O15 0.387190 0.607121 0.713823
O O16 0.660393 0.584261 0.723367
O O17 0.606814 0.250000 0.954950
O O18 0.197681 0.356869 0.128318
O O19 0.252798 0.750000 0.699793
#
# Coordination Sequence:
#
# PCOD9157650 Si02
#       8
#     4   4   4   4   4   4   4   4
#     4  10  21  38  61  89 118 156 202 241 282 348
#     4  12  24  36  59  90 127 159 187 241 295 356
#     4  10  24  40  62  89 119 150 205 253 299 353
#     4  11  23  40  61  87 122 162 199 236 295 361
#     4  10  18  34  63  91 115 149 198 246 290 344
#     4  10  22  42  64  85 116 159 201 246 297 353
#     4  10  20  36  62  89 115 154 199 238 289 352
#     4  11  22  39  61  91 119 154 195 254 304 345
#
# _framework density 20.796944
#
# number of rings (size 3 to 8) (size 9 to 14) (size 15 to 20)
#    0.000    1.500    3.750    1.500    1.750    2.500 
#    0.000    5.000    0.000    0.000    0.000    0.000 
#    0.000    0.000    0.000    0.000    0.000    0.000 
#
# Total GULP energy -178811.140819 kJ/mol
# GULP energy per Si atom -5587.848151 kJ/mol
# Density = 2.074961 g / cm^3
# Si number density = 20.796944 Si / 1000 Ang^3
#
#
#
# Elastic Constant Matrix: (Units=GPa)
#
#
# Indices 1 2 3 4 5 6 
#
# 1 56.6612 36.6580 2.7814 0.0000 3.9882 0.0000
# 2 36.6580 95.6308 -10.5206 0.0000 6.6567 0.0000
# 3 2.7814 -10.5206 29.0317 0.0000 14.0401 0.0000
# 4 0.0000 0.0000 0.0000 26.9713 0.0000 3.1753
# 5 3.9882 6.6567 14.0401 0.0000 16.8870 0.0000
# 6 0.0000 0.0000 0.0000 3.1753 0.0000 3.5298
#
#
#
# Elastic Compliance Matrix: (Units=1/GPa)
#
#
# Indices 1 2 3 4 5 6 
#
# 1 0.024757 -0.010957 -0.009372 0.000000 0.006264 0.000000
# 2 -0.010957 0.017644 0.015982 0.000000 -0.017655 0.000000
# 3 -0.009372 0.015982 0.072101 0.000000 -0.064032 0.000000
# 4 0.000000 0.000000 0.000000 0.041468 0.000000 -0.037304
# 5 0.006264 -0.017655 -0.064032 0.000000 0.117934 0.000000
# 6 0.000000 0.000000 0.000000 -0.037304 0.000000 0.316860
#
#
# Mechanical properties :
#
#
# Convention : Reuss Voigt Hill
#
# Bulk Modulus (GPa) = 9.45110 26.57346 18.01228
# Shear Modulus (GPa) = 7.87739 19.63796 13.75768
#
# Velocity S-wave (km/s) = 1.94833 3.07623 2.57480
# Velocity P-wave (km/s) = 3.10091 5.04212 4.18561
#
# Compressibility (1/GPa) = 0.10580783
#
# Stress axis : x y z
#
# Youngs Moduli (GPa) = 40.39307 56.67590 13.86936
#
# Poissons Ratio (x) = 0.62100 0.12998
# Poissons Ratio (y) = 0.44259 -0.22166
# Poissons Ratio (z) = 0.37856 -0.90579
#
# Static dielectric constant tensor:
#      x y z
#    x 1.747210 0.000000 -0.020330 
#    y 0.000000 1.772080 0.000000 
#    z -0.020330 0.000000 1.736610 
# 
# From -- ./inp_files/27776.got.cif
#   From: 2010.05.17/outbox.cif.g08.bks.cpg/sg11_14_cif.got.tgz:27776.got - 2010.06.03 12:22:45.
