data_PCOD9157933
_publ_section_title
;
Structure prediction by ZEFSAII (Michael W. Deem and Ramdas Pophale) SiO2 
 PCOD9157933
Probable space group: P 21/M
;
_chemical_formula_sum "Si O2"
_cell_formula_units_Z 32
_cell_length_a 15.505421
_cell_length_b 8.594834
_cell_length_c 29.319101
_cell_angle_alpha 90.000000
_cell_angle_beta 153.151924
_cell_angle_gamma 90.000000
_cell_volume 1764.619058
_symmetry_space_group_name_H-M "P 21/M"
_symmetry_group_IT_number 11
_symmetry_cell_setting 'monoclinic'
loop_
_space_group_symop_operation_xyz
x,y,z
-x,1/2+y,-z
-x,-y,-z
x,1/2-y,z
loop_
_atom_site_type_symbol
_atom_site_label
_atom_site_fract_x
_atom_site_fract_y
_atom_site_fract_z
Si Si1 0.435145 0.564483 0.580022
Si Si2 0.733078 0.933929 0.061323
Si Si3 0.023353 0.564578 0.900736
Si Si4 0.671255 0.562497 0.138655
Si Si5 0.800378 0.062848 0.925422
Si Si6 0.921343 0.060800 0.649117
Si Si7 0.372277 0.564489 0.246067
Si Si8 0.330035 0.563306 0.387868
O O1 0.435060 0.750000 0.578151
O O2 0.241003 0.507987 0.463199
O O3 0.465662 0.508809 0.645782
O O4 0.615874 0.505840 0.635369
O O5 0.761981 0.750000 0.071795
O O6 0.528323 0.983174 0.943978
O O7 0.716870 0.974312 0.107096
O O8 0.901295 0.015113 0.112863
O O9 0.992600 0.750000 0.887835
O O10 0.830142 0.482884 0.826456
O O11 0.188173 0.521485 0.015890
O O12 0.648496 0.750000 0.131507
O O13 0.860514 0.512558 0.255328
O O14 0.802082 0.250000 0.924135
O O15 0.642972 0.011410 0.814100
O O16 0.000000 0.000000 0.000000
O O17 0.919652 0.250000 0.647194
O O18 0.853545 0.018705 0.668598
O O19 0.391266 0.750000 0.256480
O O20 0.500000 0.500000 0.500000
O O21 0.334378 0.750000 0.386638
#
# Coordination Sequence:
#
# PCOD9157933 Si02
#       8
#     4   4   4   4   4   4   4   4
#     4  10  19  30  43  66  94 122 160 196 228 276
#     4  10  20  32  48  72  96 119 153 196 237 280
#     4  10  19  32  50  71  95 124 157 191 231 279
#     4   9  18  34  51  65  89 125 159 195 235 274
#     4   8  16  30  47  67  92 122 154 187 226 278
#     4   8  16  30  47  63  85 121 159 193 230 271
#     4  10  19  31  47  69  98 128 156 189 232 277
#     4   9  16  27  42  60  86 119 155 193 229 268
#
# _framework density 18.134225000000001
#
# number of rings (size 3 to 8) (size 9 to 14) (size 15 to 20)
#    0.000    2.750    0.000    2.625    1.750    1.500 
#    0.000    3.750    0.000    0.000    0.000    0.875 
#    0.000    0.000    0.000    0.000    0.000    0.000 
#
# Total GULP energy -178205.757570 kJ/mol
# GULP energy per Si atom -5568.929924 kJ/mol
# Density = 1.809295 g / cm^3
# Si number density = 18.134225 Si / 1000 Ang^3
#
#
#
# Elastic Constant Matrix: (Units=GPa)
#
#
# Indices 1 2 3 4 5 6 
#
# 1 16.3076 4.2153 1.7694 0.0000 -7.0354 0.0000
# 2 4.2153 20.6747 7.7782 0.0000 -5.1533 0.0000
# 3 1.7694 7.7782 90.0083 0.0000 -9.3558 0.0000
# 4 0.0000 0.0000 0.0000 22.3269 0.0000 -1.9340
# 5 -7.0354 -5.1533 -9.3558 0.0000 30.0724 0.0000
# 6 0.0000 0.0000 0.0000 -1.9340 0.0000 15.2829
#
#
#
# Elastic Compliance Matrix: (Units=1/GPa)
#
#
# Indices 1 2 3 4 5 6 
#
# 1 0.070511 -0.011073 0.001125 0.000000 0.014948 0.000000
# 2 -0.011073 0.053408 -0.003840 0.000000 0.005367 0.000000
# 3 0.001125 -0.003840 0.011759 0.000000 0.003263 0.000000
# 4 0.000000 0.000000 0.000000 0.045285 0.000000 0.005731
# 5 0.014948 0.005367 0.003263 0.000000 0.038685 0.000000
# 6 0.000000 0.000000 0.000000 0.005731 0.000000 0.066158
#
#
# Mechanical properties :
#
#
# Convention : Reuss Voigt Hill
#
# Bulk Modulus (GPa) = 9.25063 17.16848 13.20956
# Shear Modulus (GPa) = 14.30955 21.08496 17.69725
#
# Velocity S-wave (km/s) = 2.81212 3.41356 3.12733
# Velocity P-wave (km/s) = 3.95681 5.00245 4.51004
#
# Compressibility (1/GPa) = 0.10810076
#
# Stress axis : x y z
#
# Youngs Moduli (GPa) = 14.18228 18.72366 85.04112
#
# Poissons Ratio (x) = 0.20733 -0.09564
# Poissons Ratio (y) = 0.15704 0.32655
# Poissons Ratio (z) = -0.01595 0.07190
#
# Static dielectric constant tensor:
#      x y z
#    x 1.624180 0.000000 -0.031030 
#    y 0.000000 1.610570 0.000000 
#    z -0.031030 0.000000 1.682590 
# 
# From -- ./inp_files/71638.got.cif
#   From: 2010.05.17/outbox.cif.g08.bks.cpg/sg11_36_cif.got.tgz:71638.got - 2010.06.03 12:22:45.
