data_PCOD9157214
_publ_section_title
;
Structure prediction by ZEFSAII (Michael W. Deem and Ramdas Pophale) SiO2 
 PCOD9157214
Probable space group: P 21/M
;
_chemical_formula_sum "Si O2"
_cell_formula_units_Z 28
_cell_length_a 9.652300
_cell_length_b 10.312935
_cell_length_c 14.194730
_cell_angle_alpha 90.000000
_cell_angle_beta 107.632096
_cell_angle_gamma 90.000000
_cell_volume 1346.612870
_symmetry_space_group_name_H-M "P 21/M"
_symmetry_group_IT_number 11
_symmetry_cell_setting 'monoclinic'
loop_
_space_group_symop_operation_xyz
x,y,z
-x,1/2+y,-z
-x,-y,-z
x,1/2-y,z
loop_
_atom_site_type_symbol
_atom_site_label
_atom_site_fract_x
_atom_site_fract_y
_atom_site_fract_z
Si Si1 0.200390 0.904323 0.458301
Si Si2 0.686116 0.406580 0.881393
Si Si3 0.296674 0.481538 0.664921
Si Si4 0.393125 0.900709 0.337765
Si Si5 0.950226 0.604283 0.253988
Si Si6 0.437744 0.609019 0.860020
Si Si7 0.862769 0.398120 0.088054
O O1 0.209964 0.750000 0.479831
O O2 0.198061 0.973882 0.557897
O O3 0.337636 0.955206 0.425041
O O4 0.068000 0.924798 0.359110
O O5 0.658563 0.250000 0.880439
O O6 0.692610 0.446814 0.773042
O O7 0.550085 0.490853 0.891505
O O8 0.828821 0.432632 0.972742
O O9 0.437825 0.413182 0.650825
O O10 0.203171 0.402568 0.721519
O O11 0.365596 0.597068 0.741386
O O12 0.356041 0.750000 0.337432
O O13 0.975448 0.750000 0.223457
O O14 0.946612 0.500162 0.169798
O O15 0.509465 0.750000 0.886467
O O16 0.301394 0.602579 0.902012
O O17 0.918426 0.250000 0.106417
#
# Coordination Sequence:
#
# PCOD9157214 Si02
#       7
#     4   4   4   4   4   4   4
#     4  10  20  34  51  73 103 138 171 208 255 301
#     4   9  17  30  49  72 100 135 171 208 251 301
#     4  10  18  32  52  74 101 134 169 209 251 302
#     4   9  18  32  51  75 102 133 172 211 249 300
#     4  10  21  35  53  78 104 132 172 214 251 298
#     4   9  17  27  44  73 103 130 164 209 258 304
#     4   9  18  32  49  71 101 136 170 207 256 304
#
# _framework density 20.792909000000002
#
# number of rings (size 3 to 8) (size 9 to 14) (size 15 to 20)
#    0.000    2.571    0.000    2.143    0.000    4.571 
#    0.000    2.143    0.000    5.143    0.000    0.000 
#    0.000    0.000    0.000    0.000    0.000    0.000 
#
# Total GULP energy -156050.446371 kJ/mol
# GULP energy per Si atom -5573.230228 kJ/mol
# Density = 2.074558 g / cm^3
# Si number density = 20.792909 Si / 1000 Ang^3
#
#
#
# Elastic Constant Matrix: (Units=GPa)
#
#
# Indices 1 2 3 4 5 6 
#
# 1 43.6896 3.0620 -7.4170 0.0000 5.1589 0.0000
# 2 3.0620 66.4701 46.9909 0.0000 17.0307 0.0000
# 3 -7.4170 46.9909 119.9141 0.0000 16.5608 0.0000
# 4 0.0000 0.0000 0.0000 23.6487 0.0000 6.7085
# 5 5.1589 17.0307 16.5608 0.0000 27.2499 0.0000
# 6 0.0000 0.0000 0.0000 6.7085 0.0000 11.9149
#
#
#
# Elastic Compliance Matrix: (Units=1/GPa)
#
#
# Indices 1 2 3 4 5 6 
#
# 1 0.024131 -0.001858 0.002938 0.000000 -0.005193 0.000000
# 2 -0.001858 0.023076 -0.007876 0.000000 -0.009284 0.000000
# 3 0.002938 -0.007876 0.012013 0.000000 -0.002935 0.000000
# 4 0.000000 0.000000 0.000000 0.050323 0.000000 -0.028334
# 5 -0.005193 -0.009284 -0.002935 0.000000 0.045266 0.000000
# 6 0.000000 0.000000 0.000000 -0.028334 0.000000 0.099881
#
#
# Mechanical properties :
#
#
# Convention : Reuss Voigt Hill
#
# Bulk Modulus (GPa) = 21.91647 35.03841 28.47744
# Shear Modulus (GPa) = 17.63721 25.05857 21.34789
#
# Velocity S-wave (km/s) = 2.91560 3.47529 3.20768
# Velocity P-wave (km/s) = 4.67948 5.74380 5.23874
#
# Compressibility (1/GPa) = 0.04562779
#
# Stress axis : x y z
#
# Youngs Moduli (GPa) = 41.44077 43.33431 83.24626
#
# Poissons Ratio (x) = 0.08052 -0.24456
# Poissons Ratio (y) = 0.07700 0.65562
# Poissons Ratio (z) = -0.12174 0.34129
#
# Static dielectric constant tensor:
#      x y z
#    x 1.792450 0.000000 -0.017380 
#    y 0.000000 1.737870 0.000000 
#    z -0.017380 0.000000 1.774820 
# 
# From -- ./inp_files/47007.got.cif
#   From: 2010.05.17/outbox.cif.g08.bks.cpg/sg11_24_cif.got.tgz:47007.got - 2010.06.03 12:22:45.
