data_PCOD9157578
_publ_section_title
;
Structure prediction by ZEFSAII (Michael W. Deem and Ramdas Pophale) SiO2 
 PCOD9157578
Probable space group: P 21/M
;
_chemical_formula_sum "Si O2"
_cell_formula_units_Z 28
_cell_length_a 10.802540
_cell_length_b 19.441593
_cell_length_c 11.838572
_cell_angle_alpha 90.000000
_cell_angle_beta 31.190961
_cell_angle_gamma 90.000000
_cell_volume 1287.645466
_symmetry_space_group_name_H-M "P 21/M"
_symmetry_group_IT_number 11
_symmetry_cell_setting 'monoclinic'
loop_
_space_group_symop_operation_xyz
x,y,z
-x,1/2+y,-z
-x,-y,-z
x,1/2-y,z
loop_
_atom_site_type_symbol
_atom_site_label
_atom_site_fract_x
_atom_site_fract_y
_atom_site_fract_z
Si Si1 0.564520 0.250000 0.292245
Si Si2 0.541304 0.430176 0.614907
Si Si3 0.312270 0.170154 0.957238
Si Si4 0.180315 0.041744 0.498646
Si Si5 0.887019 0.598377 0.205839
Si Si6 0.280501 0.444974 0.176992
Si Si7 0.163821 0.628994 0.800720
Si Si8 0.060817 0.250000 0.779707
O O1 0.643811 0.184462 0.306619
O O2 0.270318 0.250000 0.515187
O O3 0.760022 0.250000 0.032021
O O4 0.506586 0.363839 0.721410
O O5 0.589748 0.495352 0.653349
O O6 0.324614 0.435361 0.697795
O O7 0.758548 0.419415 0.361283
O O8 0.356820 0.250000 0.950811
O O9 0.303089 0.117761 0.071174
O O10 0.067843 0.164501 0.075218
O O11 0.115947 0.083654 0.660486
O O12 0.242021 0.081305 0.335735
O O13 0.958490 0.989720 0.656769
O O14 0.874183 0.680839 0.206909
O O15 0.113947 0.583749 0.951052
O O16 0.500000 0.500000 0.000000
#
# Coordination Sequence:
#
# PCOD9157578 Si02
#       8
#     2   4   4   4   4   4   4   2
#     4  10  18  34  56  87 136 177 206 264 344 406
#     4  11  21  37  63  98 128 164 204 271 332 403
#     4  11  23  39  65  97 124 160 222 277 328 387
#     4  11  24  43  66  88 126 175 220 265 326 402
#     4  10  23  37  60  97 134 168 216 264 336 405
#     4  11  24  47  67  86 124 173 223 271 326 384
#     4  10  20  33  59  95 129 164 205 271 332 395
#     4  10  20  38  58  91 138 183 216 268 334 412
#
# _framework density 21.745114999999998
#
# number of rings (size 3 to 8) (size 9 to 14) (size 15 to 20)
#    0.000    1.429    5.000    0.429    4.000    1.714 
#    1.286    0.000    1.571    0.000    0.000    0.000 
#    0.000    0.000    0.000    0.000    0.000    0.000 
#
# Total GULP energy -155952.557682 kJ/mol
# GULP energy per Si atom -5569.734203 kJ/mol
# Density = 2.169562 g / cm^3
# Si number density = 21.745115 Si / 1000 Ang^3
#
#
#
# Elastic Constant Matrix: (Units=GPa)
#
#
# Indices 1 2 3 4 5 6 
#
# 1 84.1163 43.9574 48.8256 0.0000 36.7122 0.0000
# 2 43.9574 93.4022 35.5847 0.0000 24.4258 0.0000
# 3 48.8256 35.5847 122.1318 0.0000 32.7364 0.0000
# 4 0.0000 0.0000 0.0000 20.4206 0.0000 -0.0049
# 5 36.7122 24.4258 32.7364 0.0000 45.8418 0.0000
# 6 0.0000 0.0000 0.0000 -0.0049 0.0000 10.2732
#
#
#
# Elastic Compliance Matrix: (Units=1/GPa)
#
#
# Indices 1 2 3 4 5 6 
#
# 1 0.022613 -0.005941 -0.004086 0.000000 -0.012027 0.000000
# 2 -0.005941 0.014538 -0.001311 0.000000 -0.002053 0.000000
# 3 -0.004086 -0.001311 0.011302 0.000000 -0.004101 0.000000
# 4 0.000000 0.000000 0.000000 0.048970 0.000000 0.000023
# 5 -0.012027 -0.002053 -0.004101 0.000000 0.035468 0.000000
# 6 0.000000 0.000000 0.000000 0.000023 0.000000 0.097341
#
#
# Mechanical properties :
#
#
# Convention : Reuss Voigt Hill
#
# Bulk Modulus (GPa) = 38.79008 61.82064 50.30536
# Shear Modulus (GPa) = 19.12041 26.72595 22.92318
#
# Velocity S-wave (km/s) = 2.96851 3.50959 3.25033
# Velocity P-wave (km/s) = 5.44304 6.70182 6.10496
#
# Compressibility (1/GPa) = 0.02577979
#
# Stress axis : x y z
#
# Youngs Moduli (GPa) = 44.22155 68.78315 88.47720
#
# Poissons Ratio (x) = 0.40862 0.36150
# Poissons Ratio (y) = 0.26271 0.11597
# Poissons Ratio (z) = 0.18068 0.09016
#
# Static dielectric constant tensor:
#      x y z
#    x 1.791320 0.000000 -0.028100 
#    y 0.000000 1.815410 0.000000 
#    z -0.028100 0.000000 1.972470 
# 
# From -- ./inp_files/36412.got.cif
#   From: 2010.05.17/outbox.cif.g08.bks.cpg/sg11_19_cif.got.tgz:36412.got - 2010.06.03 12:22:45.
