data_PCOD9157569
_publ_section_title
;
Structure prediction by ZEFSAII (Michael W. Deem and Ramdas Pophale) SiO2 
 PCOD9157569
Probable space group: P 21/M
;
_chemical_formula_sum "Si O2"
_cell_formula_units_Z 28
_cell_length_a 17.782377
_cell_length_b 8.479801
_cell_length_c 22.962261
_cell_angle_alpha 90.000000
_cell_angle_beta 26.415898
_cell_angle_gamma 90.000000
_cell_volume 1540.411011
_symmetry_space_group_name_H-M "P 21/M"
_symmetry_group_IT_number 11
_symmetry_cell_setting 'monoclinic'
loop_
_space_group_symop_operation_xyz
x,y,z
-x,1/2+y,-z
-x,-y,-z
x,1/2-y,z
loop_
_atom_site_type_symbol
_atom_site_label
_atom_site_fract_x
_atom_site_fract_y
_atom_site_fract_z
Si Si1 0.977785 0.442162 0.182755
Si Si2 0.514331 0.440899 0.657049
Si Si3 0.635557 0.060742 0.358978
Si Si4 0.500625 0.561513 0.906513
Si Si5 0.646212 0.940492 0.109940
Si Si6 0.100449 0.940452 0.630517
Si Si7 0.765982 0.438526 0.809499
O O1 0.979276 0.250000 0.181869
O O2 0.821707 0.492019 0.250604
O O3 0.942366 0.492293 0.273751
O O4 0.161270 0.495866 0.034090
O O5 0.512399 0.250000 0.657051
O O6 0.415844 0.500616 0.668772
O O7 0.429143 0.494012 0.776258
O O8 0.710260 0.491182 0.516851
O O9 0.632307 0.250000 0.361896
O O10 0.500000 0.000000 0.500000
O O11 0.498567 0.750000 0.906038
O O12 0.464561 0.494755 0.867966
O O13 0.672965 0.504477 0.817077
O O14 0.349700 0.508233 0.055066
O O15 0.648210 0.750000 0.108967
O O16 0.096065 0.750000 0.632664
O O17 0.954810 0.003120 0.689427
O O18 0.761943 0.250000 0.810464
#
# Coordination Sequence:
#
# PCOD9157569 Si02
#       7
#     4   4   4   4   4   4   4
#     4   9  18  33  56  80 106 142 182 224 271 320
#     4  10  22  38  56  81 112 146 181 222 276 329
#     4  11  21  36  57  82 111 144 185 229 274 321
#     4  10  20  34  54  82 114 143 177 224 275 320
#     4  10  20  37  58  79 109 147 183 221 271 328
#     4  10  18  34  56  79 109 142 180 224 272 321
#     4  10  20  33  54  85 112 139 183 227 267 319
#
# _framework density 18.176967000000001
#
# number of rings (size 3 to 8) (size 9 to 14) (size 15 to 20)
#    0.000    2.000    2.857    1.286    0.000    2.857 
#    0.000    2.143    0.000    0.000    0.000    0.000 
#    0.000    0.000    0.000    0.000    0.000    0.000 
#
# Total GULP energy -156326.491790 kJ/mol
# GULP energy per Si atom -5583.088993 kJ/mol
# Density = 1.813560 g / cm^3
# Si number density = 18.176967 Si / 1000 Ang^3
#
#
#
# Elastic Constant Matrix: (Units=GPa)
#
#
# Indices 1 2 3 4 5 6 
#
# 1 186.9529 22.8297 107.1577 0.0000 -8.4456 0.0000
# 2 22.8297 12.3825 24.2018 0.0000 1.2289 0.0000
# 3 107.1577 24.2018 148.7571 0.0000 -3.9651 0.0000
# 4 0.0000 0.0000 0.0000 11.2148 0.0000 -5.0228
# 5 -8.4456 1.2289 -3.9651 0.0000 35.8536 0.0000
# 6 0.0000 0.0000 0.0000 -5.0228 0.0000 31.7992
#
#
#
# Elastic Compliance Matrix: (Units=1/GPa)
#
#
# Indices 1 2 3 4 5 6 
#
# 1 0.009523 -0.006491 -0.005755 0.000000 0.001829 0.000000
# 2 -0.006491 0.124231 -0.015737 0.000000 -0.007527 0.000000
# 3 -0.005755 -0.015737 0.013446 0.000000 0.000671 0.000000
# 4 0.000000 0.000000 0.000000 0.095956 0.000000 0.015157
# 5 0.001829 -0.007527 0.000671 0.000000 0.028654 0.000000
# 6 0.000000 0.000000 0.000000 0.015157 0.000000 0.033841
#
#
# Mechanical properties :
#
#
# Convention : Reuss Voigt Hill
#
# Bulk Modulus (GPa) = 10.96067 72.94121 41.95094
# Shear Modulus (GPa) = 12.75419 28.70040 20.72730
#
# Velocity S-wave (km/s) = 2.65178 3.97790 3.38050
# Velocity P-wave (km/s) = 3.92670 7.83031 6.19406
#
# Compressibility (1/GPa) = 0.09123527
#
# Stress axis : x y z
#
# Youngs Moduli (GPa) = 105.01011 8.04953 74.37029
#
# Poissons Ratio (x) = 0.05225 0.42801
# Poissons Ratio (y) = 0.68157 1.17034
# Poissons Ratio (z) = 0.60435 0.12667
#
# Static dielectric constant tensor:
#      x y z
#    x 1.594680 0.000000 -0.002800 
#    y 0.000000 1.616940 0.000000 
#    z -0.002800 0.000000 1.620520 
# 
# From -- ./inp_files/54536.got.cif
#   From: 2010.05.17/outbox.cif.g08.bks.cpg/sg11_28_cif.got.tgz:54536.got - 2010.06.03 12:22:45.
