data_PCOD9157866
_publ_section_title
;
Structure prediction by ZEFSAII (Michael W. Deem and Ramdas Pophale) SiO2 
 PCOD9157866
Probable space group: P 21/M
;
_chemical_formula_sum "Si O2"
_cell_formula_units_Z 32
_cell_length_a 16.527355
_cell_length_b 9.068367
_cell_length_c 22.286635
_cell_angle_alpha 90.000000
_cell_angle_beta 39.426478
_cell_angle_gamma 90.000000
_cell_volume 2121.341271
_symmetry_space_group_name_H-M "P 21/M"
_symmetry_group_IT_number 11
_symmetry_cell_setting 'monoclinic'
loop_
_space_group_symop_operation_xyz
x,y,z
-x,1/2+y,-z
-x,-y,-z
x,1/2-y,z
loop_
_atom_site_type_symbol
_atom_site_label
_atom_site_fract_x
_atom_site_fract_y
_atom_site_fract_z
Si Si1 0.029436 0.081663 0.576640
Si Si2 0.187167 0.418891 0.360609
Si Si3 0.579054 0.571986 0.695812
Si Si4 0.203868 0.424483 0.770775
Si Si5 0.058412 0.573276 0.026284
Si Si6 0.637693 0.074771 0.424206
Si Si7 0.741807 0.425564 0.496977
Si Si8 0.304875 0.073475 0.848490
O O1 0.024530 0.250000 0.600409
O O2 0.105633 0.080746 0.469386
O O3 0.890529 0.018093 0.641239
O O4 0.116344 0.982899 0.569938
O O5 0.191084 0.250000 0.337088
O O6 0.327110 0.465681 0.302290
O O7 0.573125 0.750000 0.695084
O O8 0.647088 0.507642 0.597361
O O9 0.441037 0.500458 0.780975
O O10 0.221455 0.250000 0.749760
O O11 0.275105 0.514924 0.679300
O O12 0.263431 0.454852 0.802691
O O13 0.052118 0.454274 0.861592
O O14 0.069525 0.750000 0.012480
O O15 0.196175 0.499081 0.952551
O O16 0.000000 0.500000 0.000000
O O17 0.622963 0.250000 0.427409
O O18 0.700447 0.042832 0.452841
O O19 0.500000 0.000000 0.500000
O O20 0.733969 0.250000 0.512038
O O21 0.308592 0.250000 0.854165
#
# Coordination Sequence:
#
# PCOD9157866 Si02
#       8
#     4   4   4   4   4   4   4   4
#     4   9  16  26  42  61  79 107 145 178 212 254
#     4   8  15  26  39  58  84 111 139 173 213 255
#     4  10  19  29  43  64  88 117 149 178 214 259
#     4   9  19  33  47  63  85 113 146 183 220 255
#     4   9  17  30  47  66  86 110 141 178 219 262
#     4  11  23  34  46  63  85 116 151 185 220 255
#     4  10  20  32  43  59  85 116 149 184 220 256
#     4  10  19  30  45  66  90 116 144 177 219 262
#
# _framework density 15.084796000000001
#
# number of rings (size 3 to 8) (size 9 to 14) (size 15 to 20)
#    0.000    2.500    0.000    4.500    0.000   11.500 
#    0.000    0.000    0.000    0.000    0.000    0.000 
#    0.000    1.000    0.000    3.250    0.000    4.250 
#
# Total GULP energy -178312.922161 kJ/mol
# GULP energy per Si atom -5572.278818 kJ/mol
# Density = 1.505046 g / cm^3
# Si number density = 15.084796 Si / 1000 Ang^3
#
#
#
# Elastic Constant Matrix: (Units=GPa)
#
#
# Indices 1 2 3 4 5 6 
#
# 1 91.7391 59.0700 53.6275 0.0000 -26.9733 0.0000
# 2 59.0700 74.9702 52.5903 0.0000 -14.7336 0.0000
# 3 53.6275 52.5903 92.0121 0.0000 -23.6771 0.0000
# 4 0.0000 0.0000 0.0000 25.5921 0.0000 -5.1944
# 5 -26.9733 -14.7336 -23.6771 0.0000 24.5498 0.0000
# 6 0.0000 0.0000 0.0000 -5.1944 0.0000 25.3646
#
#
#
# Elastic Compliance Matrix: (Units=1/GPa)
#
#
# Indices 1 2 3 4 5 6 
#
# 1 0.029294 -0.018009 -0.001702 0.000000 0.019737 0.000000
# 2 -0.018009 0.033376 -0.011329 0.000000 -0.010682 0.000000
# 3 -0.001702 -0.011329 0.021420 0.000000 0.011990 0.000000
# 4 0.000000 0.000000 0.000000 0.040769 0.000000 0.008349
# 5 0.019737 -0.010682 0.011990 0.000000 0.067572 0.000000
# 6 0.000000 0.000000 0.000000 0.008349 0.000000 0.041135
#
#
# Mechanical properties :
#
#
# Convention : Reuss Voigt Hill
#
# Bulk Modulus (GPa) = 45.43068 65.47744 55.45406
# Shear Modulus (GPa) = 16.50269 21.33021 18.91645
#
# Velocity S-wave (km/s) = 3.31115 3.76443 3.54504
# Velocity P-wave (km/s) = 6.69332 7.89905 7.32105
#
# Compressibility (1/GPa) = 0.02201156
#
# Stress axis : x y z
#
# Youngs Moduli (GPa) = 34.13698 29.96207 46.68428
#
# Poissons Ratio (x) = 0.53957 0.07944
# Poissons Ratio (y) = 0.61476 0.52888
# Poissons Ratio (z) = 0.05809 0.33944
#
# Static dielectric constant tensor:
#      x y z
#    x 1.504410 0.000000 -0.024100 
#    y 0.000000 1.489330 0.000000 
#    z -0.024100 0.000000 1.493430 
# 
# From -- ./inp_files/51360.got.cif
#   From: 2010.05.17/outbox.cif.g08.bks.cpg/sg11_26_cif.got.tgz:51360.got - 2010.06.03 12:22:45.
