data_PCOD9157914
_publ_section_title
;
Structure prediction by ZEFSAII (Michael W. Deem and Ramdas Pophale) SiO2 
 PCOD9157914
Probable space group: P 21/M
;
_chemical_formula_sum "Si O2"
_cell_formula_units_Z 32
_cell_length_a 14.778234
_cell_length_b 7.531881
_cell_length_c 21.366748
_cell_angle_alpha 90.000000
_cell_angle_beta 43.359395
_cell_angle_gamma 90.000000
_cell_volume 1632.866846
_symmetry_space_group_name_H-M "P 21/M"
_symmetry_group_IT_number 11
_symmetry_cell_setting 'monoclinic'
loop_
_space_group_symop_operation_xyz
x,y,z
-x,1/2+y,-z
-x,-y,-z
x,1/2-y,z
loop_
_atom_site_type_symbol
_atom_site_label
_atom_site_fract_x
_atom_site_fract_y
_atom_site_fract_z
Si Si1 0.363253 0.546692 0.172743
Si Si2 0.936005 0.040465 0.847961
Si Si3 0.649672 0.535140 0.038268
Si Si4 0.915382 0.963283 0.104616
Si Si5 0.924458 0.468982 0.716843
Si Si6 0.645260 0.958921 0.678363
Si Si7 0.353466 0.464108 0.815571
Si Si8 0.090037 0.037692 0.514886
O O1 0.365936 0.750000 0.149163
O O2 0.507542 0.468453 0.085507
O O3 0.226327 0.468663 0.217569
O O4 0.354696 0.546052 0.252935
O O5 0.963457 0.250000 0.833235
O O6 0.971731 0.972394 0.761348
O O7 0.012224 0.965463 0.869922
O O8 0.779373 0.018975 0.936354
O O9 0.643902 0.750000 0.041543
O O10 0.665560 0.476221 0.102688
O O11 0.908918 0.750000 0.113649
O O12 0.767333 0.028583 0.165781
O O13 0.000000 0.000000 0.000000
O O14 0.921528 0.250000 0.716597
O O15 0.017002 0.529569 0.613553
O O16 0.667191 0.750000 0.678653
O O17 0.763814 0.027718 0.575789
O O18 0.500413 0.982638 0.722686
O O19 0.349269 0.250000 0.818578
O O20 0.099311 0.250000 0.517796
O O21 0.000000 0.000000 0.500000
#
# Coordination Sequence:
#
# PCOD9157914 Si02
#       8
#     4   4   4   4   4   4   4   4
#     4   9  17  31  49  66  95 137 165 186 233 295
#     4  10  20  32  49  72  96 127 167 203 237 284
#     4   9  17  29  45  67  96 131 165 193 234 286
#     4  10  19  32  51  74  97 126 165 204 242 286
#     4   9  18  33  50  69  97 133 164 194 241 294
#     4  10  19  29  47  77 100 118 158 209 245 275
#     4   9  18  32  49  69  97 132 161 191 245 301
#     4  10  19  32  52  74  98 127 161 201 244 287
#
# _framework density 19.597432999999999
#
# number of rings (size 3 to 8) (size 9 to 14) (size 15 to 20)
#    0.000    2.500    2.500    1.125    0.000    3.500 
#    0.000    1.250    0.000    0.750    0.000    0.000 
#    0.000    0.000    0.000    0.000    0.000    0.125 
#
# Total GULP energy -178539.971988 kJ/mol
# GULP energy per Si atom -5579.374125 kJ/mol
# Density = 1.955283 g / cm^3
# Si number density = 19.597433 Si / 1000 Ang^3
#
#
#
# Elastic Constant Matrix: (Units=GPa)
#
#
# Indices 1 2 3 4 5 6 
#
# 1 121.1024 -3.0948 80.5672 0.0000 -2.2651 0.0000
# 2 -3.0948 49.1257 -7.2178 0.0000 1.3634 0.0000
# 3 80.5672 -7.2178 120.7305 0.0000 1.5781 0.0000
# 4 0.0000 0.0000 0.0000 11.8564 0.0000 -3.7638
# 5 -2.2651 1.3634 1.5781 0.0000 28.8780 0.0000
# 6 0.0000 0.0000 0.0000 -3.7638 0.0000 6.9816
#
#
#
# Elastic Compliance Matrix: (Units=1/GPa)
#
#
# Indices 1 2 3 4 5 6 
#
# 1 0.014952 -0.000581 -0.010035 0.000000 0.001749 0.000000
# 2 -0.000581 0.020590 0.001633 0.000000 -0.001107 0.000000
# 3 -0.010035 0.001633 0.015099 0.000000 -0.001689 0.000000
# 4 0.000000 0.000000 0.000000 0.101757 0.000000 0.054857
# 5 0.001749 -0.001107 -0.001689 0.000000 0.034910 0.000000
# 6 0.000000 0.000000 0.000000 0.054857 0.000000 0.172808
#
#
# Mechanical properties :
#
#
# Convention : Reuss Voigt Hill
#
# Bulk Modulus (GPa) = 30.60459 47.94087 39.27273
# Shear Modulus (GPa) = 12.85434 24.25681 18.55558
#
# Velocity S-wave (km/s) = 2.56387 3.52199 3.08041
# Velocity P-wave (km/s) = 4.94117 6.40743 5.72146
#
# Compressibility (1/GPa) = 0.03267484
#
# Stress axis : x y z
#
# Youngs Moduli (GPa) = 66.88245 48.56723 66.22748
#
# Poissons Ratio (x) = 0.02822 0.66461
# Poissons Ratio (y) = 0.03886 -0.10816
# Poissons Ratio (z) = 0.67118 -0.07932
#
# Static dielectric constant tensor:
#      x y z
#    x 1.698330 0.000000 -0.011900 
#    y 0.000000 1.765280 0.000000 
#    z -0.011900 0.000000 1.684090 
# 
# From -- ./inp_files/51376.got.cif
#   From: 2010.05.17/outbox.cif.g08.bks.cpg/sg11_26_cif.got.tgz:51376.got - 2010.06.03 12:22:45.
