data_PCOD9157024
_publ_section_title
;
Structure prediction by ZEFSAII (Michael W. Deem and Ramdas Pophale) SiO2 
 PCOD9157024
Probable space group: P 21/M
;
_chemical_formula_sum "Si O2"
_cell_formula_units_Z 28
_cell_length_a 19.816211
_cell_length_b 17.232706
_cell_length_c 8.710065
_cell_angle_alpha 90.000000
_cell_angle_beta 159.525638
_cell_angle_gamma 90.000000
_cell_volume 1040.400775
_symmetry_space_group_name_H-M "P 21/M"
_symmetry_group_IT_number 11
_symmetry_cell_setting 'monoclinic'
loop_
_space_group_symop_operation_xyz
x,y,z
-x,1/2+y,-z
-x,-y,-z
x,1/2-y,z
loop_
_atom_site_type_symbol
_atom_site_label
_atom_site_fract_x
_atom_site_fract_y
_atom_site_fract_z
Si Si1 0.694332 0.333755 0.306365
Si Si2 0.516619 0.838580 0.680115
Si Si3 0.050803 0.502886 0.428823
Si Si4 0.935344 0.664553 0.121154
Si Si5 0.050075 0.664660 0.725544
Si Si6 0.511417 0.432704 0.680321
Si Si7 0.424455 0.558159 0.711346
O O1 0.648615 0.250000 0.274015
O O2 0.871926 0.327287 0.570222
O O3 0.726800 0.393011 0.512815
O O4 0.521885 0.367508 0.834321
O O5 0.576224 0.750000 0.786890
O O6 0.561487 0.889727 0.625989
O O7 0.574467 0.878223 0.964081
O O8 0.282062 0.839842 0.196457
O O9 0.916378 0.569117 0.058904
O O10 0.000000 0.500000 0.500000
O O11 0.030358 0.410368 0.355875
O O12 0.269971 0.534277 0.873222
O O13 0.834663 0.750000 0.876286
O O14 0.972167 0.665628 0.383623
O O15 0.009829 0.750000 0.709310
O O16 0.395011 0.505876 0.497105
O O17 0.500000 0.500000 0.000000
#
# Coordination Sequence:
#
# PCOD9157024 Si02
#       7
#     4   4   4   4   4   4   4
#     4   9  15  29  48  69  95 130 171 209 247 299
#     4  11  19  32  53  76  98 127 178 229 256 294
#     4   9  14  26  47  73 102 134 159 208 272 312
#     4   8  13  23  45  71  94 124 169 212 249 296
#     4   9  16  27  47  79 102 127 171 222 265 304
#     4  10  18  31  51  76 103 134 170 214 261 308
#     4  10  22  33  46  71 105 137 164 206 267 319
#
# _framework density 26.912707000000001
#
# number of rings (size 3 to 8) (size 9 to 14) (size 15 to 20)
#    0.000    2.571    4.286    1.286    0.000    0.000 
#    0.000    1.429    0.000    7.714    0.000    2.000 
#    0.000    0.000    0.000    0.000    0.000    0.000 
#
# Total GULP energy -156070.821246 kJ/mol
# GULP energy per Si atom -5573.957902 kJ/mol
# Density = 2.685145 g / cm^3
# Si number density = 26.912707 Si / 1000 Ang^3
#
#
#
# Elastic Constant Matrix: (Units=GPa)
#
#
# Indices 1 2 3 4 5 6 
#
# 1 93.7895 88.3543 36.1982 0.0000 -11.6724 0.0000
# 2 88.3543 291.8876 31.3942 0.0000 6.8723 0.0000
# 3 36.1982 31.3942 54.6520 0.0000 6.4376 0.0000
# 4 0.0000 0.0000 0.0000 19.0033 0.0000 9.6941
# 5 -11.6724 6.8723 6.4376 0.0000 40.9349 0.0000
# 6 0.0000 0.0000 0.0000 9.6941 0.0000 42.2914
#
#
#
# Elastic Compliance Matrix: (Units=1/GPa)
#
#
# Indices 1 2 3 4 5 6 
#
# 1 0.021653 -0.005446 -0.012276 0.000000 0.009019 0.000000
# 2 -0.005446 0.005025 0.001022 0.000000 -0.002557 0.000000
# 3 -0.012276 0.001022 0.026769 0.000000 -0.007882 0.000000
# 4 0.000000 0.000000 0.000000 0.059590 0.000000 -0.013659
# 5 0.009019 -0.002557 -0.007882 0.000000 0.028670 0.000000
# 6 0.000000 0.000000 0.000000 -0.013659 0.000000 0.026776
#
#
# Mechanical properties :
#
#
# Convention : Reuss Voigt Hill
#
# Bulk Modulus (GPa) = 49.88066 83.58030 66.73048
# Shear Modulus (GPa) = 23.97317 39.40475 31.68896
#
# Velocity S-wave (km/s) = 2.98782 3.83060 3.43515
# Velocity P-wave (km/s) = 5.52062 7.11956 6.37045
#
# Compressibility (1/GPa) = 0.02004785
#
# Stress axis : x y z
#
# Youngs Moduli (GPa) = 46.18242 199.00902 37.35609
#
# Poissons Ratio (x) = 1.08390 0.45857
# Poissons Ratio (y) = 0.25153 -0.03818
# Poissons Ratio (z) = 0.56691 -0.20342
#
# Static dielectric constant tensor:
#      x y z
#    x 2.040840 0.000000 0.044860 
#    y 0.000000 2.311350 0.000000 
#    z 0.044860 0.000000 2.246930 
# 
# From -- ./inp_files/27032.got.cif
#   From: 2010.05.17/outbox.cif.g08.bks.cpg/sg11_14_cif.got.tgz:27032.got - 2010.06.03 12:22:45.
