data_PCOD9157440
_publ_section_title
;
Structure prediction by ZEFSAII (Michael W. Deem and Ramdas Pophale) SiO2 
 PCOD9157440
Probable space group: P 21/M
;
_chemical_formula_sum "Si O2"
_cell_formula_units_Z 28
_cell_length_a 11.512147
_cell_length_b 18.840329
_cell_length_c 14.412030
_cell_angle_alpha 90.000000
_cell_angle_beta 151.502427
_cell_angle_gamma 90.000000
_cell_volume 1491.416640
_symmetry_space_group_name_H-M "P 21/M"
_symmetry_group_IT_number 11
_symmetry_cell_setting 'monoclinic'
loop_
_space_group_symop_operation_xyz
x,y,z
-x,1/2+y,-z
-x,-y,-z
x,1/2-y,z
loop_
_atom_site_type_symbol
_atom_site_label
_atom_site_fract_x
_atom_site_fract_y
_atom_site_fract_z
Si Si1 0.381684 0.044041 0.801442
Si Si2 0.020438 0.668125 0.296994
Si Si3 0.774976 0.941308 0.987340
Si Si4 0.808466 0.542538 0.659679
Si Si5 0.926503 0.668730 0.450961
Si Si6 0.182204 0.920285 0.765590
Si Si7 0.517685 0.911218 0.620663
O O1 0.271808 0.108183 0.666120
O O2 0.548639 0.988666 0.863493
O O3 0.178599 0.996049 0.709663
O O4 0.558239 0.078768 0.001857
O O5 0.982282 0.750000 0.245506
O O6 0.975716 0.660657 0.375928
O O7 0.298362 0.644239 0.474584
O O8 0.848751 0.617492 0.115152
O O9 0.696125 0.909437 0.833873
O O10 0.008118 0.993662 0.150131
O O11 0.616801 0.488300 0.478524
O O12 0.666289 0.593808 0.629308
O O13 0.976357 0.578739 0.700066
O O14 0.860037 0.750000 0.422889
O O15 0.150738 0.643198 0.671353
#
# Coordination Sequence:
#
# PCOD9157440 Si02
#       7
#     4   4   4   4   4   4   4
#     4  10  19  33  56  80 105 137 177 219 264 318
#     4  10  22  36  51  78 109 138 180 225 267 319
#     4  10  19  34  57  82 107 138 178 226 269 310
#     4   9  19  32  53  82 105 130 176 221 255 314
#     4  11  22  35  53  78 109 141 174 218 270 322
#     4  10  19  34  54  78 107 140 173 215 264 313
#     4  10  18  33  55  77 104 138 172 217 270 311
#
# _framework density 18.774096
#
# number of rings (size 3 to 8) (size 9 to 14) (size 15 to 20)
#    0.000    2.000    0.000    6.000    0.000    1.143 
#    0.000    4.286    0.000    0.857    0.000    0.000 
#    0.000    0.000    0.000    0.000    0.000    0.000 
#
# Total GULP energy -156273.430229 kJ/mol
# GULP energy per Si atom -5581.193937 kJ/mol
# Density = 1.873137 g / cm^3
# Si number density = 18.774096 Si / 1000 Ang^3
#
#
#
# Elastic Constant Matrix: (Units=GPa)
#
#
# Indices 1 2 3 4 5 6 
#
# 1 72.6004 27.4524 37.9015 0.0000 5.8616 0.0000
# 2 27.4524 89.7632 24.9323 0.0000 2.0690 0.0000
# 3 37.9015 24.9323 69.3944 0.0000 -11.5441 0.0000
# 4 0.0000 0.0000 0.0000 19.7662 0.0000 -4.2129
# 5 5.8616 2.0690 -11.5441 0.0000 23.5186 0.0000
# 6 0.0000 0.0000 0.0000 -4.2129 0.0000 19.6433
#
#
#
# Elastic Compliance Matrix: (Units=1/GPa)
#
#
# Indices 1 2 3 4 5 6 
#
# 1 0.022886 -0.002993 -0.013426 0.000000 -0.012031 0.000000
# 2 -0.002993 0.013047 -0.003397 0.000000 -0.002069 0.000000
# 3 -0.013426 -0.003397 0.025666 0.000000 0.016243 0.000000
# 4 0.000000 0.000000 0.000000 0.053015 0.000000 0.011370
# 5 -0.012031 -0.002069 0.016243 0.000000 0.053673 0.000000
# 6 0.000000 0.000000 0.000000 0.011370 0.000000 0.053346
#
#
# Mechanical properties :
#
#
# Convention : Reuss Voigt Hill
#
# Bulk Modulus (GPa) = 45.52251 45.81447 45.66849
# Shear Modulus (GPa) = 18.61586 22.01707 20.31646
#
# Velocity S-wave (km/s) = 3.15234 3.42824 3.29318
# Velocity P-wave (km/s) = 6.12779 6.33454 6.23202
#
# Compressibility (1/GPa) = 0.02196715
#
# Stress axis : x y z
#
# Youngs Moduli (GPa) = 43.69443 76.64579 38.96192
#
# Poissons Ratio (x) = 0.22939 0.52310
# Poissons Ratio (y) = 0.13077 0.13236
# Poissons Ratio (z) = 0.58664 0.26038
#
# Static dielectric constant tensor:
#      x y z
#    x 1.664960 0.000000 -0.001870 
#    y 0.000000 1.632920 0.000000 
#    z -0.001870 0.000000 1.674110 
# 
# From -- ./inp_files/50559.got.cif
#   From: 2010.05.17/outbox.cif.g08.bks.cpg/sg11_26_cif.got.tgz:50559.got - 2010.06.03 12:22:45.
