data_PCOD9157917
_publ_section_title
;
Structure prediction by ZEFSAII (Michael W. Deem and Ramdas Pophale) SiO2 
 PCOD9157917
Probable space group: P 21/M
;
_chemical_formula_sum "Si O2"
_cell_formula_units_Z 26
_cell_length_a 18.865170
_cell_length_b 7.562078
_cell_length_c 7.828926
_cell_angle_alpha 90.000000
_cell_angle_beta 66.403777
_cell_angle_gamma 90.000000
_cell_volume 1023.490905
_symmetry_space_group_name_H-M "P 21/M"
_symmetry_group_IT_number 11
_symmetry_cell_setting 'monoclinic'
loop_
_space_group_symop_operation_xyz
x,y,z
-x,1/2+y,-z
-x,-y,-z
x,1/2-y,z
loop_
_atom_site_type_symbol
_atom_site_label
_atom_site_fract_x
_atom_site_fract_y
_atom_site_fract_z
Si Si1 0.087261 0.940989 0.951299
Si Si2 0.381537 0.250000 0.615169
Si Si3 0.387973 0.538604 0.010334
Si Si4 0.744853 0.037251 0.302370
Si Si5 0.235745 0.959832 0.320765
Si Si6 0.536714 0.050841 0.687795
Si Si7 0.077577 0.447884 0.328975
O O1 0.092713 0.750000 0.860211
O O2 0.092391 0.934764 0.150206
O O3 0.167309 0.028214 0.817299
O O4 0.000000 0.000000 0.000000
O O5 0.316975 0.408039 0.720673
O O6 0.437227 0.403587 0.467966
O O7 0.389793 0.750000 0.974818
O O8 0.299989 0.478348 0.123465
O O9 0.424983 0.512032 0.163835
O O10 0.445041 0.445554 0.822169
O O11 0.738361 0.250000 0.265548
O O12 0.733813 0.015376 0.517067
O O13 0.227206 0.750000 0.304463
O O14 0.152062 0.042252 0.377006
O O15 0.559993 0.250000 0.615054
O O16 0.068482 0.250000 0.270761
O O17 0.000000 0.500000 0.500000
#
# Coordination Sequence:
#
# PCOD9157917 Si02
#       7
#     4   2   4   4   4   4   4
#     4  11  24  44  68  91 123 159 205 252 307 369
#     4  12  20  32  56  80 128 156 214 240 326 348
#     4   9  17  30  48  77 118 158 199 251 310 361
#     4  10  23  38  59  90 124 163 206 257 307 370
#     4  10  20  37  60  88 125 157 206 255 309 365
#     4  10  19  29  47  79 122 160 203 252 307 366
#     4  12  26  42  64  91 125 162 205 250 308 367
#
# _framework density 25.403251000000001
#
# number of rings (size 3 to 8) (size 9 to 14) (size 15 to 20)
#    0.000    1.538    2.308    3.231    4.308    1.846 
#    0.000    0.000    0.000    0.000    0.000    1.077 
#    0.000    0.000    0.000    0.000    0.000    0.000 
#
# Total GULP energy -145047.156119 kJ/mol
# GULP energy per Si atom -5578.736774 kJ/mol
# Density = 2.534543 g / cm^3
# Si number density = 25.403251 Si / 1000 Ang^3
#
#
#
# Elastic Constant Matrix: (Units=GPa)
#
#
# Indices 1 2 3 4 5 6 
#
# 1 109.9434 13.6126 29.6416 0.0000 -31.2743 0.0000
# 2 13.6126 116.9059 27.7098 0.0000 -9.9095 0.0000
# 3 29.6416 27.7098 144.6972 0.0000 -39.3812 0.0000
# 4 0.0000 0.0000 0.0000 4.8934 0.0000 -41.3954
# 5 -31.2743 -9.9095 -39.3812 0.0000 65.2463 0.0000
# 6 0.0000 0.0000 0.0000 -41.3954 0.0000 -3.6609
#
#
#
# Elastic Compliance Matrix: (Units=1/GPa)
#
#
# Indices 1 2 3 4 5 6 
#
# 1 0.010688 -0.000664 -0.000832 0.000000 0.004520 0.000000
# 2 -0.000664 0.009010 -0.001560 0.000000 0.000109 0.000000
# 3 -0.000832 -0.001560 0.008624 0.000000 0.004569 0.000000
# 4 0.000000 0.000000 0.000000 0.002114 0.000000 -0.023907
# 5 0.004520 0.000109 0.004569 0.000000 0.020267 0.000000
# 6 0.000000 0.000000 0.000000 -0.023907 0.000000 -0.002826
#
#
# Mechanical properties :
#
#
# Convention : Reuss Voigt Hill
#
# Bulk Modulus (GPa) = 45.02561 57.05272 51.03917
# Shear Modulus (GPa) = 81.44267 33.33460 57.38863
#
# Velocity S-wave (km/s) = 5.66829 3.62638 4.75816
# Velocity P-wave (km/s) = 7.78474 6.32786 7.09380
#
# Compressibility (1/GPa) = 0.02220958
#
# Stress axis : x y z
#
# Youngs Moduli (GPa) = 93.56393 110.98595 115.95867
#
# Poissons Ratio (x) = 0.07371 0.09649
# Poissons Ratio (y) = 0.06214 0.18088
# Poissons Ratio (z) = 0.07786 0.17312
#
# Static dielectric constant tensor:
#      x y z
#    x 2.164320 0.000000 0.023020 
#    y 0.000000 2.020370 0.000000 
#    z 0.023020 0.000000 1.998740 
# 
# From -- ./inp_files/26093.got.cif
#   From: 2010.05.17/outbox.cif.g08.bks.cpg/sg11_14_cif.got.tgz:26093.got - 2010.06.03 12:22:45.
