data_PCOD9157361
_publ_section_title
;
Structure prediction by ZEFSAII (Michael W. Deem and Ramdas Pophale) SiO2 
 PCOD9157361
Probable space group: P 21/M
;
_chemical_formula_sum "Si O2"
_cell_formula_units_Z 28
_cell_length_a 19.732002
_cell_length_b 14.339605
_cell_length_c 5.779421
_cell_angle_alpha 90.000000
_cell_angle_beta 126.969268
_cell_angle_gamma 90.000000
_cell_volume 1306.521996
_symmetry_space_group_name_H-M "P 21/M"
_symmetry_group_IT_number 11
_symmetry_cell_setting 'monoclinic'
loop_
_space_group_symop_operation_xyz
x,y,z
-x,1/2+y,-z
-x,-y,-z
x,1/2-y,z
loop_
_atom_site_type_symbol
_atom_site_label
_atom_site_fract_x
_atom_site_fract_y
_atom_site_fract_z
Si Si1 0.019499 0.110944 0.040876
Si Si2 0.222485 0.527056 0.942297
Si Si3 0.323555 0.060979 0.774467
Si Si4 0.595940 0.035617 0.438939
Si Si5 0.193882 0.146417 0.187487
Si Si6 0.957132 0.103852 0.411601
Si Si7 0.547236 0.643984 0.620219
O O1 0.118772 0.132362 0.217358
O O2 0.986343 0.144642 0.223084
O O3 0.982848 0.144661 0.715967
O O4 0.000000 0.000000 0.000000
O O5 0.250755 0.500667 0.743249
O O6 0.144963 0.597299 0.799959
O O7 0.310387 0.550588 0.255691
O O8 0.186080 0.432198 0.979137
O O9 0.282273 0.124698 0.494316
O O10 0.388349 0.986925 0.796337
O O11 0.369803 0.125867 0.053139
O O12 0.533911 0.117597 0.388596
O O13 0.556222 0.938742 0.453295
O O14 0.191188 0.250000 0.086663
O O15 0.000000 0.000000 0.500000
O O16 0.543437 0.750000 0.528292
#
# Coordination Sequence:
#
# PCOD9157361 Si02
#       7
#     4   4   4   4   4   4   4
#     4  10  19  34  54  78 108 147 194 228 271 338
#     4  10  20  34  54  81 108 146 186 237 283 349
#     4  10  20  34  54  81 113 147 182 232 292 354
#     4   9  21  36  55  85 114 145 192 237 291 354
#     4  11  22  33  50  82 116 144 180 234 294 350
#     4  10  18  32  57  79 105 145 198 230 276 336
#     4  10  20  37  58  81 113 150 188 236 291 355
#
# _framework density 21.430945000000001
#
# number of rings (size 3 to 8) (size 9 to 14) (size 15 to 20)
#    0.000    2.000    2.857    2.571    2.000    6.286 
#    0.000    0.000    0.000    1.714    0.000    0.000 
#    0.000    0.000    0.000    0.000    0.000    0.000 
#
# Total GULP energy -156190.435677 kJ/mol
# GULP energy per Si atom -5578.229846 kJ/mol
# Density = 2.138217 g / cm^3
# Si number density = 21.430945 Si / 1000 Ang^3
#
#
#
# Elastic Constant Matrix: (Units=GPa)
#
#
# Indices 1 2 3 4 5 6 
#
# 1 129.3330 10.7012 20.0260 0.0000 -10.6565 0.0000
# 2 10.7012 49.7239 8.3363 0.0000 1.8475 0.0000
# 3 20.0260 8.3363 73.6985 0.0000 -9.6508 0.0000
# 4 0.0000 0.0000 0.0000 0.0680 0.0000 0.3776
# 5 -10.6565 1.8475 -9.6508 0.0000 46.2441 0.0000
# 6 0.0000 0.0000 0.0000 0.3776 0.0000 2.0444
#
#
#
# Elastic Compliance Matrix: (Units=1/GPa)
#
#
# Indices 1 2 3 4 5 6 
#
# 1 0.008278 -0.001527 -0.001870 0.000000 0.001578 0.000000
# 2 -0.001527 0.020862 -0.002159 0.000000 -0.001636 0.000000
# 3 -0.001870 -0.002159 0.014677 0.000000 0.002718 0.000000
# 4 0.000000 0.000000 0.000000********** 0.000000106.835039
# 5 0.001578 -0.001636 0.002718 0.000000 0.022621 0.000000
# 6 0.000000 0.000000 0.000000106.835039 0.000000-19.244565
#
#
# Mechanical properties :
#
#
# Convention : Reuss Voigt Hill
#
# Bulk Modulus (GPa) = 30.57564 36.76470 33.67017
# Shear Modulus (GPa) = -0.00837 23.91744 11.95454
#
# Velocity S-wave (km/s) = -0.06255 3.34432 2.36438
# Velocity P-wave (km/s) = 3.78058 5.66611 4.81651
#
# Compressibility (1/GPa) = 0.03270578
#
# Stress axis : x y z
#
# Youngs Moduli (GPa) = 120.80375 47.93315 68.13317
#
# Poissons Ratio (x) = 0.07318 0.12741
# Poissons Ratio (y) = 0.18442 0.14711
# Poissons Ratio (z) = 0.22590 0.10350
#
# Static dielectric constant tensor:
#      x y z
#    x 1.817210 0.000000 -0.010940 
#    y 0.000000 1.770620 0.000000 
#    z -0.010940 0.000000 1.832560 
# 
# From -- ./inp_files/7879.got.cif
#   From: 2010.05.17/outbox.cif.g08.bks.cpg/sg11_4_cif.got.tgz:7879.got - 2010.06.03 12:22:45.
