data_PCOD9157956
_publ_section_title
;
Structure prediction by ZEFSAII (Michael W. Deem and Ramdas Pophale) SiO2 
 PCOD9157956
Probable space group: P 21/M
;
_chemical_formula_sum "Si O2"
_cell_formula_units_Z 32
_cell_length_a 14.848921
_cell_length_b 7.743876
_cell_length_c 16.134772
_cell_angle_alpha 90.000000
_cell_angle_beta 90.966992
_cell_angle_gamma 90.000000
_cell_volume 1855.044211
_symmetry_space_group_name_H-M "P 21/M"
_symmetry_group_IT_number 11
_symmetry_cell_setting 'monoclinic'
loop_
_space_group_symop_operation_xyz
x,y,z
-x,1/2+y,-z
-x,-y,-z
x,1/2-y,z
loop_
_atom_site_type_symbol
_atom_site_label
_atom_site_fract_x
_atom_site_fract_y
_atom_site_fract_z
Si Si1 0.895422 0.957250 0.989419
Si Si2 0.088767 0.453223 0.693367
Si Si3 0.783264 0.958548 0.829820
Si Si4 0.400599 0.043131 0.094742
Si Si5 0.105586 0.955447 0.512677
Si Si6 0.791357 0.961956 0.153288
Si Si7 0.114465 0.956941 0.333797
Si Si8 0.599836 0.957683 0.095707
O O1 0.887154 0.750000 0.988236
O O2 0.850985 0.021190 0.903334
O O3 0.840288 0.016937 0.069109
O O4 0.000000 0.000000 0.000000
O O5 0.078786 0.250000 0.710678
O O6 0.131161 0.471119 0.602489
O O7 0.151684 0.524162 0.766993
O O8 0.986515 0.525780 0.688423
O O9 0.782967 0.750000 0.832553
O O10 0.683048 0.020162 0.852104
O O11 0.819446 0.007761 0.740584
O O12 0.392157 0.250000 0.090159
O O13 0.501088 0.003905 0.126870
O O14 0.393554 0.977657 0.999591
O O15 0.116628 0.750000 0.518935
O O16 0.145638 0.018800 0.425559
O O17 0.000000 0.000000 0.500000
O O18 0.791463 0.750000 0.154578
O O19 0.687307 0.017487 0.147142
O O20 0.105314 0.750000 0.341927
O O21 0.604013 0.750000 0.092274
#
# Coordination Sequence:
#
# PCOD9157956 Si02
#       8
#     4   4   4   4   4   4   4   4
#     4  10  19  31  43  59  88 124 154 179 209 252
#     4   9  17  29  46  67  90 119 151 184 220 261
#     4  10  19  30  45  64  88 120 152 181 219 262
#     4   9  17  30  45  64  88 113 146 189 228 259
#     4   9  17  30  46  64  88 117 148 186 227 264
#     4   9  16  29  47  64  88 121 152 179 216 266
#     4   9  18  30  44  65  91 118 149 183 219 258
#     4   9  16  29  48  65  83 115 152 184 221 265
#
# _framework density 17.250263
#
# number of rings (size 3 to 8) (size 9 to 14) (size 15 to 20)
#    0.000    2.750    1.250    1.875    0.000    4.500 
#    0.000    1.875    0.000    0.000    0.000    0.875 
#    0.000    0.000    0.000    0.000    0.000    0.000 
#
# Total GULP energy -178296.752772 kJ/mol
# GULP energy per Si atom -5571.773524 kJ/mol
# Density = 1.721100 g / cm^3
# Si number density = 17.250263 Si / 1000 Ang^3
#
#
#
# Elastic Constant Matrix: (Units=GPa)
#
#
# Indices 1 2 3 4 5 6 
#
# 1 103.7231 -5.3469 41.2220 0.0000 -19.3594 0.0000
# 2 -5.3469 17.3083 -10.1600 0.0000 0.4737 0.0000
# 3 41.2220 -10.1600 94.2609 0.0000 -22.3688 0.0000
# 4 0.0000 0.0000 0.0000 16.3292 0.0000 -2.3538
# 5 -19.3594 0.4737 -22.3688 0.0000 14.7854 0.0000
# 6 0.0000 0.0000 0.0000 -2.3538 0.0000 18.2119
#
#
#
# Elastic Compliance Matrix: (Units=1/GPa)
#
#
# Indices 1 2 3 4 5 6 
#
# 1 0.013245 0.002396 -0.002241 0.000000 0.013875 0.000000
# 2 0.002396 0.063656 0.009476 0.000000 0.015434 0.000000
# 3 -0.002241 0.009476 0.018475 0.000000 0.024712 0.000000
# 4 0.000000 0.000000 0.000000 0.062402 0.000000 0.008065
# 5 0.013875 0.015434 0.024712 0.000000 0.122693 0.000000
# 6 0.000000 0.000000 0.000000 0.008065 0.000000 0.055952
#
#
# Mechanical properties :
#
#
# Convention : Reuss Voigt Hill
#
# Bulk Modulus (GPa) = 8.72317 29.63582 19.17949
# Shear Modulus (GPa) = 14.06969 22.50379 18.28674
#
# Velocity S-wave (km/s) = 2.85901 3.61577 3.25943
# Velocity P-wave (km/s) = 3.99579 5.88634 5.03067
#
# Compressibility (1/GPa) = 0.11463724
#
# Stress axis : x y z
#
# Youngs Moduli (GPa) = 75.50015 15.70946 54.12770
#
# Poissons Ratio (x) = -0.03764 0.12133
# Poissons Ratio (y) = -0.18091 -0.51292
# Poissons Ratio (z) = 0.16923 -0.14886
#
# Static dielectric constant tensor:
#      x y z
#    x 1.581440 0.000000 0.001660 
#    y 0.000000 1.653230 0.000000 
#    z 0.001660 0.000000 1.601620 
# 
# From -- ./inp_files/51289.got.cif
#   From: 2010.05.17/outbox.cif.g08.bks.cpg/sg11_26_cif.got.tgz:51289.got - 2010.06.03 12:22:45.
