data_PCOD9157148
_publ_section_title
;
Structure prediction by ZEFSAII (Michael W. Deem and Ramdas Pophale) SiO2 
 PCOD9157148
Probable space group: P 21/M
;
_chemical_formula_sum "Si O2"
_cell_formula_units_Z 28
_cell_length_a 15.668452
_cell_length_b 8.681079
_cell_length_c 12.259122
_cell_angle_alpha 90.000000
_cell_angle_beta 50.597237
_cell_angle_gamma 90.000000
_cell_volume 1288.462387
_symmetry_space_group_name_H-M "P 21/M"
_symmetry_group_IT_number 11
_symmetry_cell_setting 'monoclinic'
loop_
_space_group_symop_operation_xyz
x,y,z
-x,1/2+y,-z
-x,-y,-z
x,1/2-y,z
loop_
_atom_site_type_symbol
_atom_site_label
_atom_site_fract_x
_atom_site_fract_y
_atom_site_fract_z
Si Si1 0.228528 0.064206 0.889669
Si Si2 0.176686 0.434992 0.326880
Si Si3 0.463375 0.426979 0.727223
Si Si4 0.394756 0.425341 0.033326
Si Si5 0.915508 0.432835 0.802048
Si Si6 0.288968 0.570642 0.446136
Si Si7 0.116059 0.928502 0.774541
O O1 0.231863 0.250000 0.891432
O O2 0.353647 0.007369 0.757747
O O3 0.144711 0.007272 0.865289
O O4 0.181813 0.003048 0.042655
O O5 0.164252 0.250000 0.336386
O O6 0.283577 0.494231 0.171134
O O7 0.082308 0.503099 0.324110
O O8 0.210764 0.489109 0.419977
O O9 0.478851 0.250000 0.675746
O O10 0.586690 0.495375 0.637190
O O11 0.415650 0.424896 0.888511
O O12 0.390050 0.250000 0.074578
O O13 0.500000 0.500000 0.000000
O O14 0.905635 0.250000 0.806565
O O15 0.023846 0.484833 0.779636
O O16 0.302052 0.750000 0.399792
O O17 0.225528 0.568331 0.611478
O O18 0.082760 0.750000 0.817723
#
# Coordination Sequence:
#
# PCOD9157148 Si02
#       7
#     4   4   4   4   4   4   4
#     4  11  22  41  67  94 124 157 200 254 309 358
#     4  11  22  37  60  93 127 159 198 249 307 363
#     4   9  18  35  60  90 124 159 196 242 300 359
#     4  10  18  31  54  86 123 158 193 241 301 358
#     4  12  25  42  66  92 119 157 206 256 309 362
#     4  10  22  41  63  89 125 168 206 243 293 363
#     4  11  25  44  63  87 122 163 209 255 301 356
#
# _framework density 21.731328999999999
#
# number of rings (size 3 to 8) (size 9 to 14) (size 15 to 20)
#    0.000    1.429    2.857    3.000    0.000    2.857 
#    0.000    1.429    0.000    0.000    0.000    0.000 
#    0.000    0.000    0.000    0.000    0.000    0.000 
#
# Total GULP energy -156209.164909 kJ/mol
# GULP energy per Si atom -5578.898747 kJ/mol
# Density = 2.168187 g / cm^3
# Si number density = 21.731329 Si / 1000 Ang^3
#
#
#
# Elastic Constant Matrix: (Units=GPa)
#
#
# Indices 1 2 3 4 5 6 
#
# 1 122.5792 26.0519 12.7765 0.0000 6.9723 0.0000
# 2 26.0519 73.9871 14.9481 0.0000 6.5810 0.0000
# 3 12.7765 14.9481 50.2866 0.0000 6.5786 0.0000
# 4 0.0000 0.0000 0.0000 17.9188 0.0000 4.2020
# 5 6.9723 6.5810 6.5786 0.0000 28.7579 0.0000
# 6 0.0000 0.0000 0.0000 4.2020 0.0000 22.0271
#
#
#
# Elastic Compliance Matrix: (Units=1/GPa)
#
#
# Indices 1 2 3 4 5 6 
#
# 1 0.008954 -0.002783 -0.001286 0.000000 -0.001240 0.000000
# 2 -0.002783 0.015405 -0.003607 0.000000 -0.002025 0.000000
# 3 -0.001286 -0.003607 0.021788 0.000000 -0.003847 0.000000
# 4 0.000000 0.000000 0.000000 0.058421 0.000000 -0.011145
# 5 -0.001240 -0.002025 -0.003847 0.000000 0.036417 0.000000
# 6 0.000000 0.000000 0.000000 -0.011145 0.000000 0.047525
#
#
# Mechanical properties :
#
#
# Convention : Reuss Voigt Hill
#
# Bulk Modulus (GPa) = 32.47197 39.37844 35.92521
# Shear Modulus (GPa) = 23.35078 26.61253 24.98165
#
# Velocity S-wave (km/s) = 3.28155 3.50325 3.39421
# Velocity P-wave (km/s) = 5.41599 5.87568 5.65051
#
# Compressibility (1/GPa) = 0.03079579
#
# Stress axis : x y z
#
# Youngs Moduli (GPa) = 111.68263 64.91542 45.89647
#
# Poissons Ratio (x) = 0.18065 0.05900
# Poissons Ratio (y) = 0.31079 0.16556
# Poissons Ratio (z) = 0.14357 0.23416
#
# Static dielectric constant tensor:
#      x y z
#    x 1.878710 0.000000 -0.033620 
#    y 0.000000 1.759760 0.000000 
#    z -0.033620 0.000000 1.737920 
# 
# From -- ./inp_files/37844.got.cif
#   From: 2010.05.17/outbox.cif.g08.bks.cpg/sg11_19_cif.got.tgz:37844.got - 2010.06.03 12:22:45.
