data_PCOD9157163
_publ_section_title
;
Structure prediction by ZEFSAII (Michael W. Deem and Ramdas Pophale) SiO2 
 PCOD9157163
Probable space group: P 21/M
;
_chemical_formula_sum "Si O2"
_cell_formula_units_Z 32
_cell_length_a 22.663471
_cell_length_b 14.028967
_cell_length_c 16.187523
_cell_angle_alpha 90.000000
_cell_angle_beta 17.879723
_cell_angle_gamma 90.000000
_cell_volume 1580.152280
_symmetry_space_group_name_H-M "P 21/M"
_symmetry_group_IT_number 11
_symmetry_cell_setting 'monoclinic'
loop_
_space_group_symop_operation_xyz
x,y,z
-x,1/2+y,-z
-x,-y,-z
x,1/2-y,z
loop_
_atom_site_type_symbol
_atom_site_label
_atom_site_fract_x
_atom_site_fract_y
_atom_site_fract_z
Si Si1 0.773476 0.999152 0.314944
Si Si2 0.132974 0.470994 0.629243
Si Si3 0.472333 0.861521 0.661140
Si Si4 0.243545 0.638184 0.802417
Si Si5 0.263149 0.555711 0.092310
Si Si6 0.481877 0.136771 0.099439
Si Si7 0.156184 0.858767 0.485843
Si Si8 0.904018 0.640518 0.653964
O O1 0.748380 0.000177 0.446477
O O2 0.697905 0.085850 0.360112
O O3 0.681196 0.903734 0.400870
O O4 0.000000 0.000000 0.000000
O O5 0.275320 0.412040 0.380367
O O6 0.075841 0.566356 0.657706
O O7 0.950416 0.409816 0.902291
O O8 0.459024 0.750000 0.699913
O O9 0.405388 0.873876 0.656632
O O10 0.336219 0.921106 0.903887
O O11 0.209756 0.750000 0.834284
O O12 0.250761 0.443290 0.128817
O O13 0.052706 0.602220 0.386682
O O14 0.401420 0.606976 0.973838
O O15 0.458198 0.250000 0.130900
O O16 0.626418 0.113350 0.831550
O O17 0.158832 0.750000 0.512868
O O18 0.027953 0.860235 0.573731
O O19 0.842656 0.750000 0.720271
#
# Coordination Sequence:
#
# PCOD9157163 Si02
#       8
#     4   4   4   4   4   4   4   4
#     4  10  23  39  59  86 115 148 189 249 308 352
#     4  11  20  36  60  87 114 155 197 243 291 349
#     4  11  21  38  64  88 113 149 197 243 296 360
#     4  10  23  40  59  85 116 149 192 249 299 351
#     4  10  18  31  56  86 114 154 199 241 284 348
#     4  10  19  33  55  84 119 154 195 242 291 345
#     4   9  19  34  53  81 117 158 196 237 290 347
#     4   9  18  33  52  80 123 162 195 237 288 343
#
# _framework density 20.251213
#
# number of rings (size 3 to 8) (size 9 to 14) (size 15 to 20)
#    0.000    2.000    1.250    3.750    0.000    2.500 
#    0.000    3.125    0.000   12.000    0.000    0.000 
#    0.000    0.000    0.000    0.000    0.000    0.000 
#
# Total GULP energy -178637.208640 kJ/mol
# GULP energy per Si atom -5582.412770 kJ/mol
# Density = 2.020512 g / cm^3
# Si number density = 20.251213 Si / 1000 Ang^3
#
#
#
# Elastic Constant Matrix: (Units=GPa)
#
#
# Indices 1 2 3 4 5 6 
#
# 1 36.4851 21.6349 3.5126 0.0000 -0.0253 0.0000
# 2 21.6349 100.5876 16.2913 0.0000 12.6112 0.0000
# 3 3.5126 16.2913 37.2406 0.0000 -0.7124 0.0000
# 4 0.0000 0.0000 0.0000 22.6374 0.0000 -3.7186
# 5 -0.0253 12.6112 -0.7124 0.0000 13.3210 0.0000
# 6 0.0000 0.0000 0.0000 -3.7186 0.0000 22.0952
#
#
#
# Elastic Compliance Matrix: (Units=1/GPa)
#
#
# Indices 1 2 3 4 5 6 
#
# 1 0.032070 -0.007950 0.000599 0.000000 0.007619 0.000000
# 2 -0.007950 0.014330 -0.005785 0.000000 -0.013891 0.000000
# 3 0.000599 -0.005785 0.029461 0.000000 0.007053 0.000000
# 4 0.000000 0.000000 0.000000 0.045431 0.000000 0.007646
# 5 0.007619 -0.013891 0.007053 0.000000 0.088612 0.000000
# 6 0.000000 0.000000 0.000000 0.007646 0.000000 0.046546
#
#
# Mechanical properties :
#
#
# Convention : Reuss Voigt Hill
#
# Bulk Modulus (GPa) = 20.16553 28.57677 24.37115
# Shear Modulus (GPa) = 16.70834 20.46902 18.58868
#
# Velocity S-wave (km/s) = 2.87549 3.18269 3.03298
# Velocity P-wave (km/s) = 4.58300 5.25811 4.93212
#
# Compressibility (1/GPa) = 0.04958958
#
# Stress axis : x y z
#
# Youngs Moduli (GPa) = 31.18145 69.78384 33.94270
#
# Poissons Ratio (x) = 0.55479 -0.02032
# Poissons Ratio (y) = 0.24789 0.19635
# Poissons Ratio (z) = -0.01867 0.40368
#
# Static dielectric constant tensor:
#      x y z
#    x 1.722220 0.000000 -0.004240 
#    y 0.000000 1.700800 0.000000 
#    z -0.004240 0.000000 1.748950 
# 
# From -- ./inp_files/54976.got.cif
#   From: 2010.05.17/outbox.cif.g08.bks.cpg/sg11_28_cif.got.tgz:54976.got - 2010.06.03 12:22:45.
