data_PCOD9157426
_publ_section_title
;
Structure prediction by ZEFSAII (Michael W. Deem and Ramdas Pophale) SiO2 
 PCOD9157426
Probable space group: P 21/M
;
_chemical_formula_sum "Si O2"
_cell_formula_units_Z 32
_cell_length_a 11.780007
_cell_length_b 17.498584
_cell_length_c 17.174054
_cell_angle_alpha 90.000000
_cell_angle_beta 149.111453
_cell_angle_gamma 90.000000
_cell_volume 1817.404208
_symmetry_space_group_name_H-M "P 21/M"
_symmetry_group_IT_number 11
_symmetry_cell_setting 'monoclinic'
loop_
_space_group_symop_operation_xyz
x,y,z
-x,1/2+y,-z
-x,-y,-z
x,1/2-y,z
loop_
_atom_site_type_symbol
_atom_site_label
_atom_site_fract_x
_atom_site_fract_y
_atom_site_fract_z
Si Si1 0.680065 0.540179 0.158587
Si Si2 0.057469 0.839883 0.963515
Si Si3 0.097958 0.160441 0.824335
Si Si4 0.299487 0.926637 0.462909
Si Si5 0.132930 0.429476 0.002608
Si Si6 0.195115 0.455103 0.269988
Si Si7 0.899268 0.988678 0.526024
Si Si8 0.481499 0.933295 0.211460
O O1 0.778457 0.612008 0.169605
O O2 0.576263 0.565099 0.179608
O O3 0.880242 0.480450 0.292897
O O4 0.500000 0.500000 0.000000
O O5 0.028174 0.750000 0.943564
O O6 0.311304 0.864779 0.123668
O O7 0.922776 0.877963 0.955878
O O8 0.968174 0.883489 0.834057
O O9 0.139972 0.250000 0.846040
O O10 0.168351 0.123670 0.948137
O O11 0.837162 0.141716 0.656776
O O12 0.562106 0.927122 0.611493
O O13 0.222459 0.001984 0.368324
O O14 0.217042 0.937946 0.502410
O O15 0.918772 0.481666 0.853647
O O16 0.334345 0.488927 0.133006
O O17 0.691620 0.932489 0.392947
O O18 0.000000 0.000000 0.500000
#
# Coordination Sequence:
#
# PCOD9157426 Si02
#       8
#     4   4   4   4   4   4   4   4
#     4  10  19  35  57  82 102 133 181 225 260 315
#     4  11  22  32  49  78 112 145 175 217 272 322
#     4  10  20  32  51  79 107 138 172 221 278 318
#     4   9  17  32  52  75 102 134 177 222 263 309
#     4  10  18  33  54  75 104 139 187 219 253 318
#     4   9  18  32  53  75  98 139 183 221 254 310
#     4   9  18  30  53  82  99 125 171 224 260 300
#     4  10  19  35  57  78 105 140 182 220 260 313
#
# _framework density 17.607530000000001
#
# number of rings (size 3 to 8) (size 9 to 14) (size 15 to 20)
#    0.000    2.250    1.250    3.375    1.750    1.000 
#    0.000    0.000    0.000    2.250    0.000    0.000 
#    0.000    0.000    0.000    0.000    0.000    0.000 
#
# Total GULP energy -178172.894916 kJ/mol
# GULP energy per Si atom -5567.902966 kJ/mol
# Density = 1.756745 g / cm^3
# Si number density = 17.607530 Si / 1000 Ang^3
#
#
#
# Elastic Constant Matrix: (Units=GPa)
#
#
# Indices 1 2 3 4 5 6 
#
# 1 66.0008 21.2644 15.7190 0.0000 5.2095 0.0000
# 2 21.2644 110.4745 38.0311 0.0000 0.5313 0.0000
# 3 15.7190 38.0311 112.6325 0.0000 8.1782 0.0000
# 4 0.0000 0.0000 0.0000 13.0415 0.0000 2.6103
# 5 5.2095 0.5313 8.1782 0.0000 23.7379 0.0000
# 6 0.0000 0.0000 0.0000 2.6103 0.0000 16.6412
#
#
#
# Elastic Compliance Matrix: (Units=1/GPa)
#
#
# Indices 1 2 3 4 5 6 
#
# 1 0.016570 -0.002781 -0.001143 0.000000 -0.003181 0.000000
# 2 -0.002781 0.010732 -0.003346 0.000000 0.001523 0.000000
# 3 -0.001143 -0.003346 0.010404 0.000000 -0.003259 0.000000
# 4 0.000000 0.000000 0.000000 0.079163 0.000000 -0.012417
# 5 -0.003181 0.001523 -0.003259 0.000000 0.043913 0.000000
# 6 0.000000 0.000000 0.000000 -0.012417 0.000000 0.062039
#
#
# Mechanical properties :
#
#
# Convention : Reuss Voigt Hill
#
# Bulk Modulus (GPa) = 43.16429 48.79297 45.97863
# Shear Modulus (GPa) = 20.40112 24.95701 22.67907
#
# Velocity S-wave (km/s) = 3.40760 3.76893 3.59281
# Velocity P-wave (km/s) = 6.32852 6.83457 6.58641
#
# Compressibility (1/GPa) = 0.02316730
#
# Stress axis : x y z
#
# Youngs Moduli (GPa) = 60.34828 93.18178 96.11354
#
# Poissons Ratio (x) = 0.25913 0.10982
# Poissons Ratio (y) = 0.16782 0.32161
# Poissons Ratio (z) = 0.06896 0.31180
#
# Static dielectric constant tensor:
#      x y z
#    x 1.644830 0.000000 -0.010690 
#    y 0.000000 1.564110 0.000000 
#    z -0.010690 0.000000 1.651320 
# 
# From -- ./inp_files/36012.got.cif
#   From: 2010.05.17/outbox.cif.g08.bks.cpg/sg11_19_cif.got.tgz:36012.got - 2010.06.03 12:22:45.
