data_PCOD9157748
_publ_section_title
;
Structure prediction by ZEFSAII (Michael W. Deem and Ramdas Pophale) SiO2 
 PCOD9157748
Probable space group: P 21/M
;
_chemical_formula_sum "Si O2"
_cell_formula_units_Z 32
_cell_length_a 9.343980
_cell_length_b 19.272231
_cell_length_c 13.358478
_cell_angle_alpha 90.000000
_cell_angle_beta 138.328422
_cell_angle_gamma 90.000000
_cell_volume 1599.377605
_symmetry_space_group_name_H-M "P 21/M"
_symmetry_group_IT_number 11
_symmetry_cell_setting 'monoclinic'
loop_
_space_group_symop_operation_xyz
x,y,z
-x,1/2+y,-z
-x,-y,-z
x,1/2-y,z
loop_
_atom_site_type_symbol
_atom_site_label
_atom_site_fract_x
_atom_site_fract_y
_atom_site_fract_z
Si Si1 0.101630 0.958565 0.246229
Si Si2 0.837468 0.618818 0.677446
Si Si3 0.371310 0.966656 0.207577
Si Si4 0.381024 0.054664 0.007747
Si Si5 0.102948 0.826908 0.529767
Si Si6 0.723725 0.326397 0.153772
Si Si7 0.354439 0.167096 0.636738
Si Si8 0.571070 0.412080 0.429742
O O1 0.149487 0.959670 0.152945
O O2 0.293425 0.916023 0.397573
O O3 0.119058 0.036231 0.299922
O O4 0.866281 0.931173 0.148443
O O5 0.728190 0.648070 0.518956
O O6 0.655544 0.626413 0.668418
O O7 0.076450 0.650691 0.812348
O O8 0.467435 0.889991 0.241017
O O9 0.369658 0.015581 0.109412
O O10 0.516803 0.011071 0.361629
O O11 0.526501 0.122186 0.068373
O O12 0.500000 0.000000 0.000000
O O13 0.127293 0.750000 0.498631
O O14 0.166739 0.823617 0.679511
O O15 0.268855 0.877288 0.564262
O O16 0.851954 0.845885 0.399363
O O17 0.649923 0.250000 0.085251
O O18 0.406614 0.250000 0.667863
#
# Coordination Sequence:
#
# PCOD9157748 Si02
#       8
#     4   4   4   4   4   4   4   4
#     4  11  22  39  61  95 125 157 208 253 310 369
#     4  10  18  36  62  90 121 153 202 255 304 364
#     4  11  22  41  62  88 125 161 204 265 303 362
#     4  12  25  41  64  91 118 168 214 249 303 373
#     4   9  20  34  56  90 121 154 200 252 310 366
#     4  10  21  41  62  88 124 165 208 254 308 368
#     4  10  20  36  59  89 125 163 200 254 321 370
#     4  11  20  36  65  96 123 151 205 259 313 362
#
# _framework density 20.007784999999998
#
# number of rings (size 3 to 8) (size 9 to 14) (size 15 to 20)
#    0.000    1.500    5.000    2.250    1.750    1.500 
#    0.000    1.875    0.000    0.000    0.000    0.000 
#    0.000    0.000    0.000    0.000    0.000    0.000 
#
# Total GULP energy -178382.534676 kJ/mol
# GULP energy per Si atom -5574.454209 kJ/mol
# Density = 1.996225 g / cm^3
# Si number density = 20.007785 Si / 1000 Ang^3
#
#
#
# Elastic Constant Matrix: (Units=GPa)
#
#
# Indices 1 2 3 4 5 6 
#
# 1 113.1568 52.3441 29.4427 0.0000 31.7730 0.0000
# 2 52.3441 107.4392 18.3921 0.0000 28.7935 0.0000
# 3 29.4427 18.3921 45.8662 0.0000 19.7751 0.0000
# 4 0.0000 0.0000 0.0000 14.0741 0.0000 0.6124
# 5 31.7730 28.7935 19.7751 0.0000 24.2767 0.0000
# 6 0.0000 0.0000 0.0000 0.6124 0.0000 16.7887
#
#
#
# Elastic Compliance Matrix: (Units=1/GPa)
#
#
# Indices 1 2 3 4 5 6 
#
# 1 0.014721 -0.003103 -0.002290 0.000000 -0.013722 0.000000
# 2 -0.003103 0.014461 0.002831 0.000000 -0.015397 0.000000
# 3 -0.002290 0.002831 0.034360 0.000000 -0.028350 0.000000
# 4 0.000000 0.000000 0.000000 0.071165 0.000000 -0.002596
# 5 -0.013722 -0.015397 -0.028350 0.000000 0.100505 0.000000
# 6 0.000000 0.000000 0.000000 -0.002596 0.000000 0.059658
#
#
# Mechanical properties :
#
#
# Convention : Reuss Voigt Hill
#
# Bulk Modulus (GPa) = 17.11745 51.86888 34.49317
# Shear Modulus (GPa) = 15.65110 22.11348 18.88229
#
# Velocity S-wave (km/s) = 2.79991 3.32813 3.07538
# Velocity P-wave (km/s) = 4.36195 6.38351 5.46698
#
# Compressibility (1/GPa) = 0.05841990
#
# Stress axis : x y z
#
# Youngs Moduli (GPa) = 67.92913 69.15197 29.10364
#
# Poissons Ratio (x) = 0.21456 0.06664
# Poissons Ratio (y) = 0.21077 -0.08240
# Poissons Ratio (z) = 0.15553 -0.19579
#
# Static dielectric constant tensor:
#      x y z
#    x 1.735630 0.000000 -0.011690 
#    y 0.000000 1.768970 0.000000 
#    z -0.011690 0.000000 1.742580 
# 
# From -- ./inp_files/48266.got.cif
#   From: 2010.05.17/outbox.cif.g08.bks.cpg/sg11_25_cif.got.tgz:48266.got - 2010.06.03 12:22:45.
