data_PCOD9157255
_publ_section_title
;
Structure prediction by ZEFSAII (Michael W. Deem and Ramdas Pophale) SiO2 
 PCOD9157255
Probable space group: P 21/M
;
_chemical_formula_sum "Si O2"
_cell_formula_units_Z 32
_cell_length_a 13.499305
_cell_length_b 16.017434
_cell_length_c 11.157689
_cell_angle_alpha 90.000000
_cell_angle_beta 131.699813
_cell_angle_gamma 90.000000
_cell_volume 1801.316650
_symmetry_space_group_name_H-M "P 21/M"
_symmetry_group_IT_number 11
_symmetry_cell_setting 'monoclinic'
loop_
_space_group_symop_operation_xyz
x,y,z
-x,1/2+y,-z
-x,-y,-z
x,1/2-y,z
loop_
_atom_site_type_symbol
_atom_site_label
_atom_site_fract_x
_atom_site_fract_y
_atom_site_fract_z
Si Si1 0.462533 0.849411 0.245148
Si Si2 0.316337 0.849490 0.637978
Si Si3 0.937328 0.152248 0.726943
Si Si4 0.186225 0.463098 0.942173
Si Si5 0.379372 0.561854 0.935912
Si Si6 0.598142 0.653510 0.757486
Si Si7 0.622137 0.944088 0.550639
Si Si8 0.789291 0.074842 0.816258
O O1 0.484957 0.750000 0.271567
O O2 0.584187 0.907108 0.391231
O O3 0.338497 0.876521 0.231356
O O4 0.426864 0.877146 0.081592
O O5 0.317320 0.750000 0.653862
O O6 0.182314 0.869992 0.459682
O O7 0.335639 0.891340 0.781200
O O8 0.446212 0.870511 0.663402
O O9 0.969144 0.250000 0.738071
O O10 0.883263 0.135764 0.817960
O O11 0.063459 0.094020 0.808940
O O12 0.254295 0.512302 0.889110
O O13 0.303843 0.405431 0.090239
O O14 0.149572 0.526813 0.020452
O O15 0.500000 0.500000 0.000000
O O16 0.617314 0.750000 0.803549
O O17 0.626880 0.635581 0.642188
O O18 0.500000 0.000000 0.500000
O O19 0.744382 0.003466 0.684046
#
# Coordination Sequence:
#
# PCOD9157255 Si02
#       8
#     4   4   4   4   4   4   4   4
#     4  10  19  32  52  81 112 142 182 228 276 330
#     4  10  21  35  55  80 108 142 186 230 271 321
#     4  11  22  36  57  83 112 143 181 226 278 332
#     4  10  21  37  55  83 107 146 182 227 270 331
#     4  11  22  36  56  77 107 145 191 231 278 314
#     4  10  18  32  53  79 110 139 173 224 279 324
#     4   9  17  28  49  78 109 139 173 220 273 327
#     4   9  19  33  55  79 113 142 180 219 274 338
#
# _framework density 17.764783000000001
#
# number of rings (size 3 to 8) (size 9 to 14) (size 15 to 20)
#    0.000    2.000    1.250    4.125    1.750    1.500 
#    0.000    0.000    0.000    0.000    0.000    0.000 
#    0.000    0.000    0.000    0.000    0.000    0.000 
#
# Total GULP energy -178496.331577 kJ/mol
# GULP energy per Si atom -5578.010362 kJ/mol
# Density = 1.772435 g / cm^3
# Si number density = 17.764783 Si / 1000 Ang^3
#
#
#
# Elastic Constant Matrix: (Units=GPa)
#
#
# Indices 1 2 3 4 5 6 
#
# 1 53.3815 26.4029 34.9783 0.0000 -6.7349 0.0000
# 2 26.4029 73.1744 45.2380 0.0000 -9.3942 0.0000
# 3 34.9783 45.2380 88.3285 0.0000 0.2141 0.0000
# 4 0.0000 0.0000 0.0000 29.5577 0.0000 -2.7534
# 5 -6.7349 -9.3942 0.2141 0.0000 21.1075 0.0000
# 6 0.0000 0.0000 0.0000 -2.7534 0.0000 26.7602
#
#
#
# Elastic Compliance Matrix: (Units=1/GPa)
#
#
# Indices 1 2 3 4 5 6 
#
# 1 0.027259 -0.003230 -0.009158 0.000000 0.007353 0.000000
# 2 -0.003230 0.022252 -0.010139 0.000000 0.008976 0.000000
# 3 -0.009158 -0.010139 0.020160 0.000000 -0.007639 0.000000
# 4 0.000000 0.000000 0.000000 0.034160 0.000000 0.003515
# 5 0.007353 0.008976 -0.007639 0.000000 0.053795 0.000000
# 6 0.000000 0.000000 0.000000 0.003515 0.000000 0.037731
#
#
# Mechanical properties :
#
#
# Convention : Reuss Voigt Hill
#
# Bulk Modulus (GPa) = 40.62412 47.56920 44.09666
# Shear Modulus (GPa) = 20.11131 22.70275 21.40703
#
# Velocity S-wave (km/s) = 3.36830 3.57874 3.47511
# Velocity P-wave (km/s) = 6.16804 6.62660 6.40143
#
# Compressibility (1/GPa) = 0.02461592
#
# Stress axis : x y z
#
# Youngs Moduli (GPa) = 36.68470 44.93973 49.60434
#
# Poissons Ratio (x) = 0.14515 0.45430
# Poissons Ratio (y) = 0.11848 0.50295
# Poissons Ratio (z) = 0.33597 0.45566
#
# Static dielectric constant tensor:
#      x y z
#    x 1.596360 0.000000 -0.007280 
#    y 0.000000 1.617000 0.000000 
#    z -0.007280 0.000000 1.637090 
# 
# From -- ./inp_files/39689.got.cif
#   From: 2010.05.17/outbox.cif.g08.bks.cpg/sg11_20_cif.got.tgz:39689.got - 2010.06.03 12:22:45.
