data_PCOD9157005
_publ_section_title
;
Structure prediction by ZEFSAII (Michael W. Deem and Ramdas Pophale) SiO2 
 PCOD9157005
Probable space group: P 21/M
;
_chemical_formula_sum "Si O2"
_cell_formula_units_Z 32
_cell_length_a 15.343650
_cell_length_b 9.076036
_cell_length_c 23.654254
_cell_angle_alpha 90.000000
_cell_angle_beta 140.666612
_cell_angle_gamma 90.000000
_cell_volume 2087.892377
_symmetry_space_group_name_H-M "P 21/M"
_symmetry_group_IT_number 11
_symmetry_cell_setting 'monoclinic'
loop_
_space_group_symop_operation_xyz
x,y,z
-x,1/2+y,-z
-x,-y,-z
x,1/2-y,z
loop_
_atom_site_type_symbol
_atom_site_label
_atom_site_fract_x
_atom_site_fract_y
_atom_site_fract_z
Si Si1 0.288167 0.426416 0.209338
Si Si2 0.283196 0.073697 0.075096
Si Si3 0.538261 0.074955 0.929536
Si Si4 0.462215 0.574553 0.392999
Si Si5 0.989634 0.926789 0.745863
Si Si6 0.703176 0.425679 0.128017
Si Si7 0.292012 0.925408 0.421927
Si Si8 0.010122 0.926467 0.889492
O O1 0.304809 0.250000 0.224846
O O2 0.303967 0.462830 0.151399
O O3 0.394834 0.508675 0.303160
O O4 0.133353 0.462656 0.152044
O O5 0.282710 0.250000 0.069043
O O6 0.399393 0.004094 0.093568
O O7 0.137579 0.009594 0.981172
O O8 0.532978 0.250000 0.918542
O O9 0.391625 0.012115 0.875616
O O10 0.640730 0.045840 0.034097
O O11 0.477938 0.750000 0.396978
O O12 0.606002 0.499891 0.481979
O O13 0.359028 0.542588 0.393821
O O14 0.971164 0.750000 0.732342
O O15 0.136535 0.965366 0.792345
O O16 0.998007 0.962316 0.816943
O O17 0.859938 0.008041 0.654145
O O18 0.690457 0.250000 0.131322
O O19 0.290180 0.750000 0.428534
O O20 0.033398 0.750000 0.905571
#
# Coordination Sequence:
#
# PCOD9157005 Si02
#       8
#     4   4   4   4   4   4   4   4
#     4  10  21  35  50  69  98 135 171 208 247 284
#     4  11  22  33  48  71  99 134 172 208 245 288
#     4  10  19  33  50  70  95 129 166 205 250 291
#     4  10  20  33  50  72  96 129 168 206 247 290
#     4  10  18  31  51  73 100 133 164 199 246 295
#     4   9  18  32  49  71  97 127 162 203 250 293
#     4  10  20  32  49  73 100 128 162 204 249 295
#     4  10  19  33  49  68  99 136 171 205 240 284
#
# _framework density 15.326461
#
# number of rings (size 3 to 8) (size 9 to 14) (size 15 to 20)
#    0.000    2.000    2.500    1.875    0.000    4.000 
#    0.000    0.000    0.000    0.000    0.000    0.875 
#    0.000    0.000    0.000    0.000    0.000    0.000 
#
# Total GULP energy -178615.031607 kJ/mol
# GULP energy per Si atom -5581.719738 kJ/mol
# Density = 1.529158 g / cm^3
# Si number density = 15.326461 Si / 1000 Ang^3
#
#
#
# Elastic Constant Matrix: (Units=GPa)
#
#
# Indices 1 2 3 4 5 6 
#
# 1 119.1321 58.0609 80.3626 0.0000 9.2256 0.0000
# 2 58.0609 48.3784 61.1192 0.0000 5.3647 0.0000
# 3 80.3626 61.1192 116.6104 0.0000 12.6861 0.0000
# 4 0.0000 0.0000 0.0000 29.7248 0.0000 4.4874
# 5 9.2256 5.3647 12.6861 0.0000 23.7618 0.0000
# 6 0.0000 0.0000 0.0000 4.4874 0.0000 23.9877
#
#
#
# Elastic Compliance Matrix: (Units=1/GPa)
#
#
# Indices 1 2 3 4 5 6 
#
# 1 0.020804 -0.020418 -0.003459 0.000000 -0.001621 0.000000
# 2 -0.020418 0.081501 -0.029203 0.000000 0.005118 0.000000
# 3 -0.003459 -0.029203 0.026969 0.000000 -0.006462 0.000000
# 4 0.000000 0.000000 0.000000 0.034620 0.000000 -0.006476
# 5 -0.001621 0.005118 -0.006462 0.000000 0.045008 0.000000
# 6 0.000000 0.000000 0.000000 -0.006476 0.000000 0.042900
#
#
# Mechanical properties :
#
#
# Convention : Reuss Voigt Hill
#
# Bulk Modulus (GPa) = 43.26461 75.91181 59.58821
# Shear Modulus (GPa) = 13.67373 21.13339 17.40356
#
# Velocity S-wave (km/s) = 2.99015 3.71736 3.37341
# Velocity P-wave (km/s) = 6.34124 8.25000 7.35778
#
# Compressibility (1/GPa) = 0.02311358
#
# Stress axis : x y z
#
# Youngs Moduli (GPa) = 48.06794 12.26986 37.08000
#
# Poissons Ratio (x) = 0.25052 0.12827
# Poissons Ratio (y) = 0.98143 1.08284
# Poissons Ratio (z) = 0.16628 0.35832
#
# Static dielectric constant tensor:
#      x y z
#    x 1.497860 0.000000 0.004800 
#    y 0.000000 1.507670 0.000000 
#    z 0.004800 0.000000 1.481490 
# 
# From -- ./inp_files/51364.got.cif
#   From: 2010.05.17/outbox.cif.g08.bks.cpg/sg11_26_cif.got.tgz:51364.got - 2010.06.03 12:22:45.
