data_PCOD9157332
_publ_section_title
;
Structure prediction by ZEFSAII (Michael W. Deem and Ramdas Pophale) SiO2 
 PCOD9157332
Probable space group: P 21/M
;
_chemical_formula_sum "Si O2"
_cell_formula_units_Z 28
_cell_length_a 16.502027
_cell_length_b 18.252973
_cell_length_c 8.526822
_cell_angle_alpha 90.000000
_cell_angle_beta 30.259575
_cell_angle_gamma 90.000000
_cell_volume 1294.250251
_symmetry_space_group_name_H-M "P 21/M"
_symmetry_group_IT_number 11
_symmetry_cell_setting 'monoclinic'
loop_
_space_group_symop_operation_xyz
x,y,z
-x,1/2+y,-z
-x,-y,-z
x,1/2-y,z
loop_
_atom_site_type_symbol
_atom_site_label
_atom_site_fract_x
_atom_site_fract_y
_atom_site_fract_z
Si Si1 0.127611 0.057789 0.363101
Si Si2 0.749333 0.081846 0.332257
Si Si3 0.070738 0.836524 0.489554
Si Si4 0.545537 0.917217 0.374264
Si Si5 0.661443 0.921041 0.495483
Si Si6 0.318440 0.941485 0.203906
Si Si7 0.045069 0.336159 0.955450
O O1 0.030169 0.132293 0.489294
O O2 0.201743 0.012878 0.387188
O O3 0.296078 0.073546 0.993826
O O4 0.000000 0.000000 0.500000
O O5 0.612280 0.112314 0.447104
O O6 0.685562 0.089375 0.615587
O O7 0.918501 0.121580 0.057606
O O8 0.762576 0.994280 0.280746
O O9 0.094100 0.750000 0.439510
O O10 0.235511 0.882449 0.227518
O O11 0.987536 0.851654 0.801891
O O12 0.597667 0.880113 0.447438
O O13 0.500000 0.000000 0.500000
O O14 0.503023 0.950722 0.846540
O O15 0.779628 0.865590 0.381296
O O16 0.027664 0.250000 0.964711
#
# Coordination Sequence:
#
# PCOD9157332 Si02
#       7
#     4   4   4   4   4   4   4
#     4  10  18  32  55  84 112 144 184 232 273 329
#     4  10  21  37  57  85 115 149 183 229 287 336
#     4   9  19  35  55  79 114 154 188 220 281 346
#     4  10  19  34  56  86 114 137 187 231 283 322
#     4  11  20  35  60  87 109 144 188 240 277 329
#     4  10  20  34  58  86 113 143 186 237 283 327
#     4  10  21  38  56  81 115 153 188 227 280 341
#
# _framework density 21.634146999999999
#
# number of rings (size 3 to 8) (size 9 to 14) (size 15 to 20)
#    0.000    2.000    4.286    0.857    0.000    0.571 
#    0.000    1.429    0.000    2.571    0.000    0.000 
#    0.000    0.000    0.000    0.000    0.000    0.000 
#
# Total GULP energy -156044.094437 kJ/mol
# GULP energy per Si atom -5573.003373 kJ/mol
# Density = 2.158491 g / cm^3
# Si number density = 21.634147 Si / 1000 Ang^3
#
#
#
# Elastic Constant Matrix: (Units=GPa)
#
#
# Indices 1 2 3 4 5 6 
#
# 1 110.8154 29.3527 45.9587 0.0000 -38.6678 0.0000
# 2 29.3527 86.7909 26.4876 0.0000 -22.6592 0.0000
# 3 45.9587 26.4876 72.7240 0.0000 -37.7459 0.0000
# 4 0.0000 0.0000 0.0000 12.7080 0.0000 2.9199
# 5 -38.6678 -22.6592 -37.7459 0.0000 36.5393 0.0000
# 6 0.0000 0.0000 0.0000 2.9199 0.0000 13.9684
#
#
#
# Elastic Compliance Matrix: (Units=1/GPa)
#
#
# Indices 1 2 3 4 5 6 
#
# 1 0.014598 -0.000972 -0.002514 0.000000 0.012249 0.000000
# 2 -0.000972 0.013866 -0.001093 0.000000 0.006441 0.000000
# 3 -0.002514 -0.001093 0.030194 0.000000 0.027853 0.000000
# 4 0.000000 0.000000 0.000000 0.082661 0.000000 -0.017279
# 5 0.012249 0.006441 0.027853 0.000000 0.073097 0.000000
# 6 0.000000 0.000000 0.000000 -0.017279 0.000000 0.075202
#
#
# Mechanical properties :
#
#
# Convention : Reuss Voigt Hill
#
# Bulk Modulus (GPa) = 20.20192 52.65868 36.43030
# Shear Modulus (GPa) = 15.85916 23.87855 19.86885
#
# Velocity S-wave (km/s) = 2.71045 3.32587 3.03380
# Velocity P-wave (km/s) = 4.37648 6.25635 5.39887
#
# Compressibility (1/GPa) = 0.04950025
#
# Stress axis : x y z
#
# Youngs Moduli (GPa) = 68.50166 72.11971 33.11949
#
# Poissons Ratio (x) = 0.07010 0.08326
# Poissons Ratio (y) = 0.06658 0.03619
# Poissons Ratio (z) = 0.17221 0.07881
#
# Static dielectric constant tensor:
#      x y z
#    x 2.096280 0.000000 -0.286690 
#    y 0.000000 1.755220 0.000000 
#    z -0.286690 0.000000 2.253950 
# 
# From -- ./inp_files/23200.got.cif
#   From: 2010.05.17/outbox.cif.g08.bks.cpg/sg11_12_cif.got.tgz:23200.got - 2010.06.03 12:22:45.
