data_PCOD9157293
_publ_section_title
;
Structure prediction by ZEFSAII (Michael W. Deem and Ramdas Pophale) SiO2 
 PCOD9157293
Probable space group: P 21/M
;
_chemical_formula_sum "Si O2"
_cell_formula_units_Z 32
_cell_length_a 20.340158
_cell_length_b 8.555110
_cell_length_c 14.704093
_cell_angle_alpha 90.000000
_cell_angle_beta 46.290123
_cell_angle_gamma 90.000000
_cell_volume 1849.546126
_symmetry_space_group_name_H-M "P 21/M"
_symmetry_group_IT_number 11
_symmetry_cell_setting 'monoclinic'
loop_
_space_group_symop_operation_xyz
x,y,z
-x,1/2+y,-z
-x,-y,-z
x,1/2-y,z
loop_
_atom_site_type_symbol
_atom_site_label
_atom_site_fract_x
_atom_site_fract_y
_atom_site_fract_z
Si Si1 0.636964 0.063121 0.141550
Si Si2 0.977768 0.439661 0.622012
Si Si3 0.689531 0.560568 0.474890
Si Si4 0.687844 0.562765 0.762550
Si Si5 0.226084 0.938788 0.138050
Si Si6 0.452421 0.563955 0.240226
Si Si7 0.838050 0.939323 0.468003
Si Si8 0.400819 0.437125 0.622548
O O1 0.634288 0.250000 0.149808
O O2 0.550914 0.007063 0.164687
O O3 0.627319 0.996562 0.251773
O O4 0.727636 0.014444 0.000970
O O5 0.978004 0.250000 0.619725
O O6 0.877778 0.491830 0.748627
O O7 0.000000 0.500000 0.500000
O O8 0.060197 0.493249 0.608452
O O9 0.683891 0.750000 0.486188
O O10 0.611871 0.493036 0.615264
O O11 0.785742 0.510997 0.426580
O O12 0.668021 0.515005 0.392404
O O13 0.681743 0.750000 0.768325
O O14 0.713048 0.501813 0.837429
O O15 0.597156 0.494363 0.803728
O O16 0.771312 0.516749 0.615304
O O17 0.226727 0.750000 0.141858
O O18 0.457693 0.750000 0.235296
O O19 0.840712 0.750000 0.464139
O O20 0.500000 0.500000 0.500000
O O21 0.405336 0.250000 0.620286
#
# Coordination Sequence:
#
# PCOD9157293 Si02
#       8
#     4   4   4   4   4   4   4   4
#     4  11  23  38  52  72 107 146 181 221 264 316
#     4  10  18  32  54  80 106 135 175 219 266 316
#     4   9  18  33  53  78 107 135 169 215 267 319
#     4  10  19  33  53  76 106 143 177 214 262 317
#     4  10  22  36  52  76 107 142 181 223 266 311
#     4  11  21  33  52  77 105 139 179 219 260 314
#     4   8  15  29  51  78 104 133 167 207 261 317
#     4  11  21  34  56  81 105 137 176 222 269 317
#
# _framework density 17.301542000000001
#
# number of rings (size 3 to 8) (size 9 to 14) (size 15 to 20)
#    0.000    2.000    2.500    3.000    0.000    2.000 
#    0.000    0.000    0.000    0.750    0.000    0.000 
#    0.000    0.000    0.000    0.000    0.000    0.250 
#
# Total GULP energy -178568.208388 kJ/mol
# GULP energy per Si atom -5580.256512 kJ/mol
# Density = 1.726216 g / cm^3
# Si number density = 17.301542 Si / 1000 Ang^3
#
#
#
# Elastic Constant Matrix: (Units=GPa)
#
#
# Indices 1 2 3 4 5 6 
#
# 1 139.8470 25.6490 79.0070 0.0000 1.5276 0.0000
# 2 25.6490 25.6116 26.6131 0.0000 2.6958 0.0000
# 3 79.0070 26.6131 119.5089 0.0000 2.1350 0.0000
# 4 0.0000 0.0000 0.0000 17.3871 0.0000 6.1602
# 5 1.5276 2.6958 2.1350 0.0000 22.2714 0.0000
# 6 0.0000 0.0000 0.0000 6.1602 0.0000 21.9690
#
#
#
# Elastic Compliance Matrix: (Units=1/GPa)
#
#
# Indices 1 2 3 4 5 6 
#
# 1 0.011864 -0.004903 -0.006759 0.000000 0.000428 0.000000
# 2 -0.004903 0.053404 -0.008556 0.000000 -0.005308 0.000000
# 3 -0.006759 -0.008556 0.014740 0.000000 0.000086 0.000000
# 4 0.000000 0.000000 0.000000 0.063858 0.000000 -0.017906
# 5 0.000428 -0.005308 0.000086 0.000000 0.045506 0.000000
# 6 0.000000 0.000000 0.000000 -0.017906 0.000000 0.050540
#
#
# Mechanical properties :
#
#
# Convention : Reuss Voigt Hill
#
# Bulk Modulus (GPa) = 25.27065 60.83395 43.05230
# Shear Modulus (GPa) = 17.03358 22.57205 19.80282
#
# Velocity S-wave (km/s) = 3.14110 3.61588 3.38682
# Velocity P-wave (km/s) = 5.27191 7.25742 6.34284
#
# Compressibility (1/GPa) = 0.03957160
#
# Stress axis : x y z
#
# Youngs Moduli (GPa) = 84.29101 18.72503 67.84397
#
# Poissons Ratio (x) = 0.09181 0.45855
# Poissons Ratio (y) = 0.41326 0.58050
# Poissons Ratio (z) = 0.56971 0.16022
#
# Static dielectric constant tensor:
#      x y z
#    x 1.602940 0.000000 -0.008250 
#    y 0.000000 1.585260 0.000000 
#    z -0.008250 0.000000 1.582080 
# 
# From -- ./inp_files/54292.got.cif
#   From: 2010.05.17/outbox.cif.g08.bks.cpg/sg11_28_cif.got.tgz:54292.got - 2010.06.03 12:22:45.
