data_PCOD9157206
_publ_section_title
;
Structure prediction by ZEFSAII (Michael W. Deem and Ramdas Pophale) SiO2 
 PCOD9157206
Probable space group: P 21/M
;
_chemical_formula_sum "Si O2"
_cell_formula_units_Z 32
_cell_length_a 12.752978
_cell_length_b 13.533419
_cell_length_c 8.932541
_cell_angle_alpha 90.000000
_cell_angle_beta 128.118838
_cell_angle_gamma 90.000000
_cell_volume 1212.888927
_symmetry_space_group_name_H-M "P 21/M"
_symmetry_group_IT_number 11
_symmetry_cell_setting 'monoclinic'
loop_
_space_group_symop_operation_xyz
x,y,z
-x,1/2+y,-z
-x,-y,-z
x,1/2-y,z
loop_
_atom_site_type_symbol
_atom_site_label
_atom_site_fract_x
_atom_site_fract_y
_atom_site_fract_z
Si Si1 0.586865 0.135922 0.090283
Si Si2 0.996254 0.114771 0.031631
Si Si3 0.327535 0.131637 0.726052
Si Si4 0.144837 0.867723 0.538033
Si Si5 0.942744 0.573500 0.600907
Si Si6 0.753604 0.643835 0.932912
Si Si7 0.546407 0.864862 0.475588
Si Si8 0.711316 0.419382 0.886153
O O1 0.569926 0.250000 0.116481
O O2 0.699841 0.102655 0.305612
O O3 0.437586 0.094489 0.941247
O O4 0.648559 0.131523 0.977404
O O5 0.067851 0.130479 0.254065
O O6 0.097439 0.155510 0.000241
O O7 0.840170 0.133351 0.926151
O O8 0.000000 0.000000 0.000000
O O9 0.331813 0.250000 0.727070
O O10 0.176842 0.100077 0.616306
O O11 0.371585 0.100066 0.598002
O O12 0.132532 0.750000 0.489270
O O13 0.074917 0.887842 0.636878
O O14 0.073428 0.955822 0.383396
O O15 0.728136 0.750000 0.992611
O O16 0.641107 0.638112 0.702969
O O17 0.749639 0.529169 0.978796
O O18 0.507897 0.750000 0.417048
O O19 0.405615 0.921736 0.342335
#
# Coordination Sequence:
#
# PCOD9157206 Si02
#       8
#     4   4   4   4   4   4   4   4
#     4   9  18  34  56  83 106 136 179 225 270 315
#     4  10  21  35  53  79 108 139 185 223 268 323
#     4   9  17  30  53  82 107 131 174 226 269 317
#     4  10  22  37  58  83 109 143 183 224 269 320
#     4  11  20  36  59  81 109 143 182 222 274 321
#     4  10  20  32  50  77 107 142 183 224 269 316
#     4   9  17  30  50  79 104 136 181 227 269 312
#     4  10  18  32  51  76 109 141 174 222 273 319
#
# _framework density 26.383291
#
# number of rings (size 3 to 8) (size 9 to 14) (size 15 to 20)
#    0.000    2.250    2.500    1.875    0.000    2.000 
#    0.000    2.500    0.000    4.500    0.000    0.000 
#    0.000    0.000    0.000    0.000    0.000    0.000 
#
# Total GULP energy -178627.953024 kJ/mol
# GULP energy per Si atom -5582.123532 kJ/mol
# Density = 2.632324 g / cm^3
# Si number density = 26.383291 Si / 1000 Ang^3
#
#
#
# Elastic Constant Matrix: (Units=GPa)
#
#
# Indices 1 2 3 4 5 6 
#
# 1 69.5274 1.1972 28.8853 0.0000 32.7874 0.0000
# 2 1.1972 131.6899 11.1883 0.0000 11.4809 0.0000
# 3 28.8853 11.1883 116.2906 0.0000 36.6519 0.0000
# 4 0.0000 0.0000 0.0000 -45.8110 0.0000 -0.3089
# 5 32.7874 11.4809 36.6519 0.0000 42.7864 0.0000
# 6 0.0000 0.0000 0.0000 -0.3089 0.0000 16.9986
#
#
#
# Elastic Compliance Matrix: (Units=1/GPa)
#
#
# Indices 1 2 3 4 5 6 
#
# 1 0.022756 0.001347 -0.000236 0.000000 -0.017598 0.000000
# 2 0.001347 0.007857 -0.000138 0.000000 -0.003022 0.000000
# 3 -0.000236 -0.000138 0.011784 0.000000 -0.009877 0.000000
# 4 0.000000 0.000000 0.000000 -0.021826 0.000000 -0.000397
# 5 -0.017598 -0.003022 -0.009877 0.000000 0.046129 0.000000
# 6 0.000000 0.000000 0.000000 -0.000397 0.000000 0.058821
#
#
# Mechanical properties :
#
#
# Convention : Reuss Voigt Hill
#
# Bulk Modulus (GPa) = 22.55082 44.44996 33.50039
# Shear Modulus (GPa) = 36.13906 21.21060 28.67483
#
# Velocity S-wave (km/s) = 3.70506 2.83846 3.30033
# Velocity P-wave (km/s) = 5.18355 5.25612 5.21996
#
# Compressibility (1/GPa) = 0.04434429
#
# Stress axis : x y z
#
# Youngs Moduli (GPa) = 43.94399 127.28200 84.86177
#
# Poissons Ratio (x) = -0.17149 0.01999
# Poissons Ratio (y) = -0.05921 0.01171
# Poissons Ratio (z) = 0.01035 0.01756
#
# Static dielectric constant tensor:
#      x y z
#    x 2.026200 0.000000 -0.003620 
#    y 0.000000 2.107400 0.000000 
#    z -0.003620 0.000000 2.145760 
# 
# From -- ./inp_files/39695.got.cif
#   From: 2010.05.17/outbox.cif.g08.bks.cpg/sg11_20_cif.got.tgz:39695.got - 2010.06.03 12:22:45.
