data_PCOD9157449
_publ_section_title
;
Structure prediction by ZEFSAII (Michael W. Deem and Ramdas Pophale) SiO2 
 PCOD9157449
Probable space group: P 21/M
;
_chemical_formula_sum "Si O2"
_cell_formula_units_Z 28
_cell_length_a 10.357011
_cell_length_b 11.075390
_cell_length_c 15.926196
_cell_angle_alpha 90.000000
_cell_angle_beta 52.491878
_cell_angle_gamma 90.000000
_cell_volume 1449.188670
_symmetry_space_group_name_H-M "P 21/M"
_symmetry_group_IT_number 11
_symmetry_cell_setting 'monoclinic'
loop_
_space_group_symop_operation_xyz
x,y,z
-x,1/2+y,-z
-x,-y,-z
x,1/2-y,z
loop_
_atom_site_type_symbol
_atom_site_label
_atom_site_fract_x
_atom_site_fract_y
_atom_site_fract_z
Si Si1 0.100917 0.119793 0.443403
Si Si2 0.229227 0.111360 0.202500
Si Si3 0.608733 0.393274 0.299395
Si Si4 0.914821 0.510215 0.247234
Si Si5 0.675796 0.885874 0.482229
Si Si6 0.061765 0.887670 0.032388
Si Si7 0.563897 0.395251 0.127995
O O1 0.010326 0.250000 0.483380
O O2 0.179811 0.113316 0.320508
O O3 0.233221 0.122911 0.464223
O O4 0.000000 0.000000 0.500000
O O5 0.232101 0.250000 0.170476
O O6 0.412819 0.058832 0.132390
O O7 0.084549 0.043210 0.212806
O O8 0.581529 0.250000 0.308514
O O9 0.795973 0.416923 0.246838
O O10 0.494211 0.443871 0.419138
O O11 0.564545 0.441236 0.224318
O O12 0.804357 0.555195 0.368187
O O13 0.960718 0.607457 0.158577
O O14 0.642890 0.750000 0.462783
O O15 0.051667 0.750000 0.000455
O O16 0.252435 0.912620 0.975875
O O17 0.000000 0.000000 0.000000
O O18 0.538244 0.250000 0.142327
#
# Coordination Sequence:
#
# PCOD9157449 Si02
#       7
#     4   4   4   4   4   4   4
#     4  10  18  33  55  81 112 155 195 230 284 352
#     4  10  20  34  58  88 118 155 205 252 290 355
#     4  10  19  34  57  83 113 156 202 243 292 357
#     4  12  22  34  57  90 121 148 195 258 309 345
#     4  10  20  34  54  81 117 158 198 237 294 365
#     4  11  24  42  66  90 119 162 204 250 305 363
#     4   9  18  37  60  82 111 156 205 240 290 360
#
# _framework density 19.321155000000001
#
# number of rings (size 3 to 8) (size 9 to 14) (size 15 to 20)
#    0.000    1.714    4.286    1.286    0.000    1.143 
#    0.000    0.000    0.000    5.143    0.000    0.000 
#    0.000    0.000    0.000    0.000    0.000    0.000 
#
# Total GULP energy -155906.573578 kJ/mol
# GULP energy per Si atom -5568.091913 kJ/mol
# Density = 1.927718 g / cm^3
# Si number density = 19.321155 Si / 1000 Ang^3
#
#
#
# Elastic Constant Matrix: (Units=GPa)
#
#
# Indices 1 2 3 4 5 6 
#
# 1 123.7009 32.2703 27.4930 0.0000 -21.7613 0.0000
# 2 32.2703 62.8602 20.4347 0.0000 -11.5621 0.0000
# 3 27.4930 20.4347 82.2823 0.0000 -12.0495 0.0000
# 4 0.0000 0.0000 0.0000 12.7469 0.0000 -7.7282
# 5 -21.7613 -11.5621 -12.0495 0.0000 31.0585 0.0000
# 6 0.0000 0.0000 0.0000 -7.7282 0.0000 20.0135
#
#
#
# Elastic Compliance Matrix: (Units=1/GPa)
#
#
# Indices 1 2 3 4 5 6 
#
# 1 0.010378 -0.003803 -0.001766 0.000000 0.005171 0.000000
# 2 -0.003803 0.019484 -0.003071 0.000000 0.003398 0.000000
# 3 -0.001766 -0.003071 0.013950 0.000000 0.003032 0.000000
# 4 0.000000 0.000000 0.000000 0.102430 0.000000 0.039553
# 5 0.005171 0.003398 0.003032 0.000000 0.038261 0.000000
# 6 0.000000 0.000000 0.000000 0.039553 0.000000 0.065239
#
#
# Mechanical properties :
#
#
# Convention : Reuss Voigt Hill
#
# Bulk Modulus (GPa) = 37.68882 47.69326 42.69104
# Shear Modulus (GPa) = 18.12477 25.34016 21.73246
#
# Velocity S-wave (km/s) = 3.06613 3.62543 3.35744
# Velocity P-wave (km/s) = 5.66425 6.50100 6.09700
#
# Compressibility (1/GPa) = 0.02653306
#
# Stress axis : x y z
#
# Youngs Moduli (GPa) = 96.35619 51.32535 71.68508
#
# Poissons Ratio (x) = 0.19517 0.12660
# Poissons Ratio (y) = 0.36640 0.22012
# Poissons Ratio (z) = 0.17017 0.15760
#
# Static dielectric constant tensor:
#      x y z
#    x 1.700520 0.000000 -0.008500 
#    y 0.000000 1.689830 0.000000 
#    z -0.008500 0.000000 1.718950 
# 
# From -- ./inp_files/21407.got.cif
#   From: 2010.05.17/outbox.cif.g08.bks.cpg/sg11_11_cif.got.tgz:21407.got - 2010.06.03 12:22:45.
