data_PCOD9157964
_publ_section_title
;
Structure prediction by ZEFSAII (Michael W. Deem and Ramdas Pophale) SiO2 
 PCOD9157964
Probable space group: P 21/M
;
_chemical_formula_sum "Si O2"
_cell_formula_units_Z 32
_cell_length_a 17.711568
_cell_length_b 7.726620
_cell_length_c 13.124762
_cell_angle_alpha 90.000000
_cell_angle_beta 90.106514
_cell_angle_gamma 90.000000
_cell_volume 1796.127867
_symmetry_space_group_name_H-M "P 21/M"
_symmetry_group_IT_number 11
_symmetry_cell_setting 'monoclinic'
loop_
_space_group_symop_operation_xyz
x,y,z
-x,1/2+y,-z
-x,-y,-z
x,1/2-y,z
loop_
_atom_site_type_symbol
_atom_site_label
_atom_site_fract_x
_atom_site_fract_y
_atom_site_fract_z
Si Si1 0.668178 0.045518 0.386404
Si Si2 0.179360 0.540202 0.714516
Si Si3 0.907951 0.954168 0.087384
Si Si4 0.177278 0.962290 0.318918
Si Si5 0.087079 0.542481 0.519164
Si Si6 0.074056 0.547809 0.135794
Si Si7 0.503322 0.544401 0.379716
Si Si8 0.660386 0.037828 0.620978
O O1 0.681260 0.250000 0.396532
O O2 0.737660 0.978619 0.319971
O O3 0.669043 0.978591 0.502993
O O4 0.584065 0.022130 0.342325
O O5 0.178784 0.750000 0.715829
O O6 0.152619 0.482104 0.824977
O O7 0.120602 0.480105 0.626808
O O8 0.917253 0.750000 0.069695
O O9 0.989159 0.025950 0.126649
O O10 0.891384 0.032973 0.976963
O O11 0.177612 0.750000 0.318261
O O12 0.137686 0.017808 0.424168
O O13 0.127591 0.024876 0.223740
O O14 0.264700 0.016274 0.319547
O O15 0.093847 0.750000 0.520904
O O16 0.000000 0.500000 0.500000
O O17 0.064596 0.750000 0.161302
O O18 0.500000 0.500000 0.500000
O O19 0.505430 0.750000 0.368741
O O20 0.421966 0.481099 0.339263
O O21 0.658892 0.250000 0.619582
#
# Coordination Sequence:
#
# PCOD9157964 Si02
#       8
#     4   4   4   4   4   4   4   4
#     4   9  16  28  44  64  91 122 154 185 220 267
#     4  10  19  31  48  68  92 125 158 187 225 275
#     4  10  20  33  48  67  91 118 152 199 241 269
#     4   9  15  27  47  67  88 118 154 186 219 266
#     4  10  19  30  45  65  93 125 153 183 223 272
#     4   9  18  32  50  68  86 116 157 195 230 272
#     4   9  16  25  41  63  89 122 154 184 222 266
#     4   8  13  24  42  64  89 117 150 182 215 263
#
# _framework density 17.816102999999998
#
# number of rings (size 3 to 8) (size 9 to 14) (size 15 to 20)
#    0.000    2.750    1.250    2.250    0.000    2.500 
#    0.000    0.625    0.000    3.750    0.000    0.875 
#    0.000    0.000    0.000    0.000    0.000    0.000 
#
# Total GULP energy -178311.442924 kJ/mol
# GULP energy per Si atom -5572.232591 kJ/mol
# Density = 1.777555 g / cm^3
# Si number density = 17.816103 Si / 1000 Ang^3
#
#
#
# Elastic Constant Matrix: (Units=GPa)
#
#
# Indices 1 2 3 4 5 6 
#
# 1 86.6736 -10.5162 10.9527 0.0000 -10.7759 0.0000
# 2 -10.5162 22.1031 -9.2505 0.0000 1.6168 0.0000
# 3 10.9527 -9.2505 42.5011 0.0000 -6.5731 0.0000
# 4 0.0000 0.0000 0.0000 8.7916 0.0000 0.2111
# 5 -10.7759 1.6168 -6.5731 0.0000 21.3738 0.0000
# 6 0.0000 0.0000 0.0000 0.2111 0.0000 16.3291
#
#
#
# Elastic Compliance Matrix: (Units=1/GPa)
#
#
# Indices 1 2 3 4 5 6 
#
# 1 0.013059 0.005233 -0.001333 0.000000 0.005778 0.000000
# 2 0.005233 0.051878 0.010230 0.000000 0.001860 0.000000
# 3 -0.001333 0.010230 0.027167 0.000000 0.006909 0.000000
# 4 0.000000 0.000000 0.000000 0.113781 0.000000 -0.001471
# 5 0.005778 0.001860 0.006909 0.000000 0.051684 0.000000
# 6 0.000000 0.000000 0.000000 -0.001471 0.000000 0.061259
#
#
# Mechanical properties :
#
#
# Convention : Reuss Voigt Hill
#
# Bulk Modulus (GPa) = 8.30804 14.85000 11.57902
# Shear Modulus (GPa) = 15.11995 19.97167 17.54581
#
# Velocity S-wave (km/s) = 2.91635 3.35175 3.14160
# Velocity P-wave (km/s) = 4.00168 4.83035 4.43541
#
# Compressibility (1/GPa) = 0.12036529
#
# Stress axis : x y z
#
# Youngs Moduli (GPa) = 76.57396 19.27612 36.80870
#
# Poissons Ratio (x) = -0.10087 0.04906
# Poissons Ratio (y) = -0.40070 -0.37657
# Poissons Ratio (z) = 0.10206 -0.19720
#
# Static dielectric constant tensor:
#      x y z
#    x 1.650210 0.000000 0.007730 
#    y 0.000000 1.661770 0.000000 
#    z 0.007730 0.000000 1.579710 
# 
# From -- ./inp_files/40625.got.cif
#   From: 2010.05.17/outbox.cif.g08.bks.cpg/sg11_21_cif.got.tgz:40625.got - 2010.06.03 12:22:45.
