data_PCOD9157291
_publ_section_title
;
Structure prediction by ZEFSAII (Michael W. Deem and Ramdas Pophale) SiO2 
 PCOD9157291
Probable space group: P 21/M
;
_chemical_formula_sum "Si O2"
_cell_formula_units_Z 32
_cell_length_a 23.633638
_cell_length_b 8.670853
_cell_length_c 12.587936
_cell_angle_alpha 90.000000
_cell_angle_beta 43.836127
_cell_angle_gamma 90.000000
_cell_volume 1786.603763
_symmetry_space_group_name_H-M "P 21/M"
_symmetry_group_IT_number 11
_symmetry_cell_setting 'monoclinic'
loop_
_space_group_symop_operation_xyz
x,y,z
-x,1/2+y,-z
-x,-y,-z
x,1/2-y,z
loop_
_atom_site_type_symbol
_atom_site_label
_atom_site_fract_x
_atom_site_fract_y
_atom_site_fract_z
Si Si1 0.188026 0.065068 0.691308
Si Si2 0.975773 0.065304 0.148759
Si Si3 0.859180 0.434405 0.013750
Si Si4 0.328393 0.065640 0.340324
Si Si5 0.449940 0.066910 0.664409
Si Si6 0.729647 0.563832 0.025509
Si Si7 0.679469 0.433595 0.870083
Si Si8 0.496957 0.433949 0.838396
O O1 0.180098 0.250000 0.711666
O O2 0.272826 0.028187 0.517994
O O3 0.177100 0.993899 0.823711
O O4 0.114998 0.000918 0.715803
O O5 0.974966 0.250000 0.149168
O O6 0.049277 0.002652 0.121100
O O7 0.000000 0.000000 0.000000
O O8 0.862700 0.250000 0.012080
O O9 0.802335 0.493886 0.995957
O O10 0.332628 0.250000 0.324981
O O11 0.418930 0.998201 0.231033
O O12 0.290850 0.996365 0.283420
O O13 0.445902 0.250000 0.656751
O O14 0.356480 0.012714 0.804251
O O15 0.500000 0.000000 0.500000
O O16 0.494289 0.035530 0.715795
O O17 0.733053 0.750000 0.022215
O O18 0.724416 0.506843 0.911099
O O19 0.490682 0.250000 0.864771
O O20 0.584569 0.486325 0.007257
O O21 0.315257 0.750000 0.132471
#
# Coordination Sequence:
#
# PCOD9157291 Si02
#       8
#     4   4   4   4   4   4   4   4
#     4  10  21  36  54  81 114 145 179 220 272 325
#     4  10  18  32  54  79 110 145 178 217 267 321
#     4  11  21  34  56  84 113 145 181 220 265 323
#     4  11  23  37  56  80 108 144 182 228 275 321
#     4   9  20  34  50  72 104 142 175 217 267 315
#     4  10  21  38  56  78 107 142 183 224 267 319
#     4  11  22  38  58  79 105 141 185 230 274 321
#     4  10  21  37  54  76 105 142 185 228 272 319
#
# _framework density 17.911079000000001
#
# number of rings (size 3 to 8) (size 9 to 14) (size 15 to 20)
#    0.000    1.750    0.000    7.500    1.750    5.000 
#    0.000    0.000    0.000    0.750    0.000    0.000 
#    0.000    0.000    0.000    0.000    0.000    0.000 
#
# Total GULP energy -178657.605260 kJ/mol
# GULP energy per Si atom -5583.050164 kJ/mol
# Density = 1.787031 g / cm^3
# Si number density = 17.911079 Si / 1000 Ang^3
#
#
#
# Elastic Constant Matrix: (Units=GPa)
#
#
# Indices 1 2 3 4 5 6 
#
# 1 118.7958 38.9152 14.6716 0.0000 -17.3130 0.0000
# 2 38.9152 95.1814 20.4003 0.0000 3.6408 0.0000
# 3 14.6716 20.4003 24.9398 0.0000 1.0953 0.0000
# 4 0.0000 0.0000 0.0000 24.1888 0.0000 2.1106
# 5 -17.3130 3.6408 1.0953 0.0000 4.9903 0.0000
# 6 0.0000 0.0000 0.0000 2.1106 0.0000 33.2928
#
#
#
# Elastic Compliance Matrix: (Units=1/GPa)
#
#
# Indices 1 2 3 4 5 6 
#
# 1 0.036712 -0.017594 -0.013493 0.000000 0.143164 0.000000
# 2 -0.017594 0.021424 -0.003844 0.000000 -0.075827 0.000000
# 3 -0.013493 -0.003844 0.053628 0.000000 -0.055777 0.000000
# 4 0.000000 0.000000 0.000000 0.041571 0.000000 -0.002635
# 5 0.143164 -0.075827 -0.055777 0.000000 0.764637 0.000000
# 6 0.000000 0.000000 0.000000 -0.002635 0.000000 0.030204
#
#
# Mechanical properties :
#
#
# Convention : Reuss Voigt Hill
#
# Bulk Modulus (GPa) = 23.86506 42.98791 33.42649
# Shear Modulus (GPa) = 4.84493 23.48969 14.16731
#
# Velocity S-wave (km/s) = 1.64647 3.62534 2.81549
# Velocity P-wave (km/s) = 4.11918 6.44802 5.41039
#
# Compressibility (1/GPa) = 0.04190225
#
# Stress axis : x y z
#
# Youngs Moduli (GPa) = 27.23902 46.67648 18.64697
#
# Poissons Ratio (x) = 0.82123 0.25160
# Poissons Ratio (y) = 0.47925 0.07168
# Poissons Ratio (z) = 0.36753 0.17943
#
# Static dielectric constant tensor:
#      x y z
#    x 1.624040 0.000000 -0.004080 
#    y 0.000000 1.597520 0.000000 
#    z -0.004080 0.000000 1.638190 
# 
# From -- ./inp_files/42765.got.cif
#   From: 2010.05.17/outbox.cif.g08.bks.cpg/sg11_22_cif.got.tgz:42765.got - 2010.06.03 12:22:45.
