data_PCOD9157098
_publ_section_title
;
Structure prediction by ZEFSAII (Michael W. Deem and Ramdas Pophale) SiO2 
 PCOD9157098
Probable space group: P 21/M
;
_chemical_formula_sum "Si O2"
_cell_formula_units_Z 32
_cell_length_a 12.747870
_cell_length_b 7.425719
_cell_length_c 19.837905
_cell_angle_alpha 90.000000
_cell_angle_beta 50.012591
_cell_angle_gamma 90.000000
_cell_volume 1438.818369
_symmetry_space_group_name_H-M "P 21/M"
_symmetry_group_IT_number 11
_symmetry_cell_setting 'monoclinic'
loop_
_space_group_symop_operation_xyz
x,y,z
-x,1/2+y,-z
-x,-y,-z
x,1/2-y,z
loop_
_atom_site_type_symbol
_atom_site_label
_atom_site_fract_x
_atom_site_fract_y
_atom_site_fract_z
Si Si1 0.929613 0.536135 0.458597
Si Si2 0.145613 0.530295 0.147607
Si Si3 0.835535 0.539246 0.292671
Si Si4 0.190185 0.966882 0.277408
Si Si5 0.671514 0.530492 0.491911
Si Si6 0.421930 0.967987 0.680099
Si Si7 0.589516 0.465959 0.030383
Si Si8 0.470326 0.460277 0.220687
O O1 0.922075 0.750000 0.453596
O O2 0.777062 0.474018 0.507497
O O3 0.000000 0.500000 0.500000
O O4 0.039329 0.468268 0.359264
O O5 0.142176 0.750000 0.146327
O O6 0.213311 0.478130 0.191185
O O7 0.987721 0.467967 0.214178
O O8 0.254637 0.470658 0.046899
O O9 0.856956 0.750000 0.300108
O O10 0.747589 0.465983 0.392613
O O11 0.732475 0.521708 0.272865
O O12 0.190582 0.750000 0.279661
O O13 0.306514 0.029116 0.280285
O O14 0.663347 0.750000 0.491007
O O15 0.522638 0.468480 0.577835
O O16 0.428782 0.750000 0.677252
O O17 0.475349 0.033582 0.730755
O O18 0.592553 0.250000 0.035002
O O19 0.527694 0.537279 0.126255
O O20 0.500000 0.500000 0.000000
O O21 0.507686 0.250000 0.206462
#
# Coordination Sequence:
#
# PCOD9157098 Si02
#       8
#     4   4   4   4   4   4   4   4
#     4  10  19  31  48  73 105 140 174 208 255 311
#     4   9  17  32  54  78 102 129 166 214 260 299
#     4  10  19  35  57  76  96 132 182 219 249 300
#     4  10  18  31  53  77 103 136 172 212 256 306
#     4   9  17  32  53  72  97 135 173 209 255 307
#     4  10  21  36  51  72 105 139 169 211 263 305
#     4  10  19  33  55  80 105 136 171 208 256 315
#     4  10  21  35  52  77 109 141 170 206 263 323
#
# _framework density 22.240473000000001
#
# number of rings (size 3 to 8) (size 9 to 14) (size 15 to 20)
#    0.000    2.250    2.500    1.125    0.000    2.000 
#    0.000    3.125    0.000    0.000    0.000    0.000 
#    0.000    0.000    0.000    0.000    0.000    0.000 
#
# Total GULP energy -178579.349743 kJ/mol
# GULP energy per Si atom -5580.604679 kJ/mol
# Density = 2.218985 g / cm^3
# Si number density = 22.240473 Si / 1000 Ang^3
#
#
#
# Elastic Constant Matrix: (Units=GPa)
#
#
# Indices 1 2 3 4 5 6 
#
# 1 124.7113 -8.9349 37.8101 0.0000 -23.3139 0.0000
# 2 -8.9349 69.7138 6.2586 0.0000 1.6830 0.0000
# 3 37.8101 6.2586 100.3771 0.0000 -20.1532 0.0000
# 4 0.0000 0.0000 0.0000 1.7838 0.0000 -3.1537
# 5 -23.3139 1.6830 -20.1532 0.0000 28.9145 0.0000
# 6 0.0000 0.0000 0.0000 -3.1537 0.0000 16.4775
#
#
#
# Elastic Compliance Matrix: (Units=1/GPa)
#
#
# Indices 1 2 3 4 5 6 
#
# 1 0.010077 0.001378 -0.002635 0.000000 0.006208 0.000000
# 2 0.001378 0.014686 -0.001608 0.000000 -0.000865 0.000000
# 3 -0.002635 -0.001608 0.012380 0.000000 0.006598 0.000000
# 4 0.000000 0.000000 0.000000 0.847318 0.000000 0.162171
# 5 0.006208 -0.000865 0.006598 0.000000 0.044239 0.000000
# 6 0.000000 0.000000 0.000000 0.162171 0.000000 0.091727
#
#
# Mechanical properties :
#
#
# Convention : Reuss Voigt Hill
#
# Bulk Modulus (GPa) = 31.83497 40.56334 36.19915
# Shear Modulus (GPa) = 4.82333 26.74639 15.78486
#
# Velocity S-wave (km/s) = 1.47425 3.47161 2.66698
# Velocity P-wave (km/s) = 4.15246 5.86068 5.07890
#
# Compressibility (1/GPa) = 0.03141200
#
# Stress axis : x y z
#
# Youngs Moduli (GPa) = 99.23836 68.09082 80.77553
#
# Poissons Ratio (x) = -0.09384 0.21286
# Poissons Ratio (y) = -0.13677 0.12992
# Poissons Ratio (z) = 0.26152 0.10952
#
# Static dielectric constant tensor:
#      x y z
#    x 1.782370 0.000000 0.022330 
#    y 0.000000 1.852100 0.000000 
#    z 0.022330 0.000000 1.851540 
# 
# From -- ./inp_files/53671.got.cif
#   From: 2010.05.17/outbox.cif.g08.bks.cpg/sg11_27_cif.got.tgz:53671.got - 2010.06.03 12:22:45.
