data_PCOD9157432
_publ_section_title
;
Structure prediction by ZEFSAII (Michael W. Deem and Ramdas Pophale) SiO2 
 PCOD9157432
Probable space group: P 21/M
;
_chemical_formula_sum "Si O2"
_cell_formula_units_Z 28
_cell_length_a 29.034024
_cell_length_b 8.717812
_cell_length_c 9.870134
_cell_angle_alpha 90.000000
_cell_angle_beta 39.342308
_cell_angle_gamma 90.000000
_cell_volume 1583.777738
_symmetry_space_group_name_H-M "P 21/M"
_symmetry_group_IT_number 11
_symmetry_cell_setting 'monoclinic'
loop_
_space_group_symop_operation_xyz
x,y,z
-x,1/2+y,-z
-x,-y,-z
x,1/2-y,z
loop_
_atom_site_type_symbol
_atom_site_label
_atom_site_fract_x
_atom_site_fract_y
_atom_site_fract_z
Si Si1 0.810614 0.565493 0.772920
Si Si2 0.704807 0.065842 0.229994
Si Si3 0.902817 0.565731 0.112553
Si Si4 0.579858 0.066177 0.304518
Si Si5 0.263180 0.065672 0.555318
Si Si6 0.048071 0.434504 0.696264
Si Si7 0.304495 0.934388 0.177403
O O1 0.807203 0.750000 0.788444
O O2 0.893197 0.519502 0.550118
O O3 0.760643 0.509122 0.761523
O O4 0.774874 0.493698 0.987503
O O5 0.706876 0.250000 0.231122
O O6 0.634615 0.018887 0.300665
O O7 0.703784 0.995168 0.380755
O O8 0.905534 0.750000 0.102580
O O9 0.821902 0.518011 0.256848
O O10 0.920057 0.517867 0.228577
O O11 0.967419 0.501315 0.873181
O O12 0.575241 0.250000 0.318918
O O13 0.500000 0.000000 0.500000
O O14 0.621721 0.024303 0.070551
O O15 0.266287 0.250000 0.542350
O O16 0.300913 0.995794 0.337189
O O17 0.043870 0.250000 0.705733
O O18 0.296508 0.750000 0.191995
#
# Coordination Sequence:
#
# PCOD9157432 Si02
#       7
#     4   4   4   4   4   4   4
#     4  10  18  33  54  78 106 140 185 230 267 318
#     4  10  22  38  55  81 112 142 177 220 270 322
#     4   9  18  31  47  73 106 137 177 227 270 314
#     4   9  20  38  60  85 111 137 173 215 259 314
#     4  11  21  36  55  80 110 144 184 224 269 321
#     4   9  17  30  48  74 104 136 179 228 271 313
#     4  10  20  34  55  83 111 142 178 221 265 314
#
# _framework density 17.67925
#
# number of rings (size 3 to 8) (size 9 to 14) (size 15 to 20)
#    0.000    2.286    1.429    2.571    0.000    5.714 
#    0.000    1.429    0.000    0.000    0.000    0.000 
#    0.000    0.000    0.000    0.000    0.000    0.000 
#
# Total GULP energy -156220.173101 kJ/mol
# GULP energy per Si atom -5579.291896 kJ/mol
# Density = 1.763901 g / cm^3
# Si number density = 17.679250 Si / 1000 Ang^3
#
#
#
# Elastic Constant Matrix: (Units=GPa)
#
#
# Indices 1 2 3 4 5 6 
#
# 1 77.3176 25.9080 71.5424 0.0000 6.6384 0.0000
# 2 25.9080 35.4356 34.0151 0.0000 -1.7374 0.0000
# 3 71.5424 34.0151 146.6914 0.0000 -7.9877 0.0000
# 4 0.0000 0.0000 0.0000 34.8009 0.0000 -0.2799
# 5 6.6384 -1.7374 -7.9877 0.0000 32.5670 0.0000
# 6 0.0000 0.0000 0.0000 -0.2799 0.0000 26.4533
#
#
#
# Elastic Compliance Matrix: (Units=1/GPa)
#
#
# Indices 1 2 3 4 5 6 
#
# 1 0.027897 -0.009399 -0.011923 0.000000 -0.009112 0.000000
# 2 -0.009399 0.039467 -0.004408 0.000000 0.002940 0.000000
# 3 -0.011923 -0.004408 0.013960 0.000000 0.005619 0.000000
# 4 0.000000 0.000000 0.000000 0.028737 0.000000 0.000304
# 5 -0.009112 0.002940 0.005619 0.000000 0.034098 0.000000
# 6 0.000000 0.000000 0.000000 0.000304 0.000000 0.037806
#
#
# Mechanical properties :
#
#
# Convention : Reuss Voigt Hill
#
# Bulk Modulus (GPa) = 33.48270 58.04175 45.76223
# Shear Modulus (GPa) = 20.54406 27.29617 23.92011
#
# Velocity S-wave (km/s) = 3.41257 3.93360 3.68231
# Velocity P-wave (km/s) = 5.87432 7.31660 6.63477
#
# Compressibility (1/GPa) = 0.02986617
#
# Stress axis : x y z
#
# Youngs Moduli (GPa) = 35.84560 25.33755 71.63425
#
# Poissons Ratio (x) = 0.23814 0.85406
# Poissons Ratio (y) = 0.33690 0.31575
# Poissons Ratio (z) = 0.42737 0.11168
#
# Static dielectric constant tensor:
#      x y z
#    x 1.587390 0.000000 0.002650 
#    y 0.000000 1.594210 0.000000 
#    z 0.002650 0.000000 1.607620 
# 
# From -- ./inp_files/28224.got.cif
#   From: 2010.05.17/outbox.cif.g08.bks.cpg/sg11_15_cif.got.tgz:28224.got - 2010.06.03 12:22:45.
