data_PCOD9157631
_publ_section_title
;
Structure prediction by ZEFSAII (Michael W. Deem and Ramdas Pophale) SiO2 
 PCOD9157631
Probable space group: P 21/M
;
_chemical_formula_sum "Si O2"
_cell_formula_units_Z 32
_cell_length_a 11.770431
_cell_length_b 18.106470
_cell_length_c 16.021628
_cell_angle_alpha 90.000000
_cell_angle_beta 153.635911
_cell_angle_gamma 90.000000
_cell_volume 1516.309456
_symmetry_space_group_name_H-M "P 21/M"
_symmetry_group_IT_number 11
_symmetry_cell_setting 'monoclinic'
loop_
_space_group_symop_operation_xyz
x,y,z
-x,1/2+y,-z
-x,-y,-z
x,1/2-y,z
loop_
_atom_site_type_symbol
_atom_site_label
_atom_site_fract_x
_atom_site_fract_y
_atom_site_fract_z
Si Si1 0.726436 0.429364 0.825348
Si Si2 0.205246 0.511119 0.833295
Si Si3 0.189832 0.336541 0.210592
Si Si4 0.072428 0.665099 0.800465
Si Si5 0.487907 0.336255 0.249065
Si Si6 0.105265 0.054726 0.947244
Si Si7 0.432128 0.164993 0.749184
Si Si8 0.987233 0.424796 0.543352
O O1 0.490620 0.382426 0.704257
O O2 0.812255 0.441629 0.786569
O O3 0.737339 0.506876 0.880329
O O4 0.969866 0.384579 0.022641
O O5 0.118553 0.596925 0.768344
O O6 0.156070 0.488176 0.896077
O O7 0.047780 0.453206 0.675457
O O8 0.500000 0.500000 0.000000
O O9 0.121168 0.250000 0.155772
O O10 0.437784 0.347184 0.315931
O O11 0.167667 0.350171 0.295019
O O12 0.056406 0.750000 0.758047
O O13 0.320478 0.662264 0.026083
O O14 0.530689 0.250000 0.263406
O O15 0.718703 0.384109 0.366293
O O16 0.234434 0.365166 0.034760
O O17 0.386864 0.250000 0.698134
O O18 0.202224 0.129144 0.648717
O O19 0.000000 0.500000 0.500000
#
# Coordination Sequence:
#
# PCOD9157631 Si02
#       8
#     4   4   4   4   4   4   4   4
#     4   9  15  29  56  90 115 136 188 241 299 336
#     4  12  21  38  58  89 120 148 199 250 297 341
#     4   8  14  28  55  84 113 148 186 228 280 347
#     4   9  17  33  59  89 112 142 189 242 289 335
#     4  10  21  38  57  82 117 157 192 230 294 366
#     4  10  19  33  60  88 115 145 188 247 293 343
#     4  10  18  34  60  84 110 150 197 239 288 347
#     4  12  25  40  57  80 119 161 199 239 295 357
#
# _framework density 21.103871999999999
#
# number of rings (size 3 to 8) (size 9 to 14) (size 15 to 20)
#    0.000    2.000    3.750    3.000    0.000    0.500 
#    0.000    5.000    0.000    0.000    0.000    0.000 
#    0.000    0.000    0.000    0.000    0.000    0.000 
#
# Total GULP energy -178492.122396 kJ/mol
# GULP energy per Si atom -5577.878825 kJ/mol
# Density = 2.105584 g / cm^3
# Si number density = 21.103872 Si / 1000 Ang^3
#
#
#
# Elastic Constant Matrix: (Units=GPa)
#
#
# Indices 1 2 3 4 5 6 
#
# 1 105.1661 51.2560 16.7860 0.0000 24.5595 0.0000
# 2 51.2560 115.6587 8.9389 0.0000 21.4906 0.0000
# 3 16.7860 8.9389 20.0308 0.0000 9.2165 0.0000
# 4 0.0000 0.0000 0.0000 15.0736 0.0000 11.3100
# 5 24.5595 21.4906 9.2165 0.0000 21.2650 0.0000
# 6 0.0000 0.0000 0.0000 11.3100 0.0000 35.2144
#
#
#
# Elastic Compliance Matrix: (Units=1/GPa)
#
#
# Indices 1 2 3 4 5 6 
#
# 1 0.014941 -0.004228 -0.005821 0.000000 -0.010460 0.000000
# 2 -0.004228 0.011842 0.001896 0.000000 -0.007907 0.000000
# 3 -0.005821 0.001896 0.064632 0.000000 -0.023206 0.000000
# 4 0.000000 0.000000 0.000000 0.087404 0.000000 -0.028072
# 5 -0.010460 -0.007907 -0.023206 0.000000 0.077155 0.000000
# 6 0.000000 0.000000 0.000000 -0.028072 0.000000 0.037413
#
#
# Mechanical properties :
#
#
# Convention : Reuss Voigt Hill
#
# Bulk Modulus (GPa) = 13.31375 43.86862 28.59118
# Shear Modulus (GPa) = 14.93737 25.23559 20.08648
#
# Velocity S-wave (km/s) = 2.66334 3.46176 3.08846
# Velocity P-wave (km/s) = 3.97243 6.06716 5.12790
#
# Compressibility (1/GPa) = 0.07511034
#
# Stress axis : x y z
#
# Youngs Moduli (GPa) = 66.92832 84.44195 15.47214
#
# Poissons Ratio (x) = 0.35702 0.09007
# Poissons Ratio (y) = 0.28297 -0.02934
# Poissons Ratio (z) = 0.38961 -0.16014
#
# Static dielectric constant tensor:
#      x y z
#    x 1.860480 0.000000 -0.030200 
#    y 0.000000 1.870800 0.000000 
#    z -0.030200 0.000000 1.824090 
# 
# From -- ./inp_files/59645.got.cif
#   From: 2010.05.17/outbox.cif.g08.bks.cpg/sg11_30_cif.got.tgz:59645.got - 2010.06.03 12:22:45.
