data_PCOD9157976
_publ_section_title
;
Structure prediction by ZEFSAII (Michael W. Deem and Ramdas Pophale) SiO2 
 PCOD9157976
Probable space group: P 21/M
;
_chemical_formula_sum "Si O2"
_cell_formula_units_Z 32
_cell_length_a 31.806531
_cell_length_b 7.722565
_cell_length_c 22.532121
_cell_angle_alpha 90.000000
_cell_angle_beta 162.724785
_cell_angle_gamma 90.000000
_cell_volume 1643.541187
_symmetry_space_group_name_H-M "P 21/M"
_symmetry_group_IT_number 11
_symmetry_cell_setting 'monoclinic'
loop_
_space_group_symop_operation_xyz
x,y,z
-x,1/2+y,-z
-x,-y,-z
x,1/2-y,z
loop_
_atom_site_type_symbol
_atom_site_label
_atom_site_fract_x
_atom_site_fract_y
_atom_site_fract_z
Si Si1 0.296627 0.551934 0.130830
Si Si2 0.361496 0.958574 0.093641
Si Si3 0.342247 0.958361 0.555090
Si Si4 0.988007 0.045350 0.672906
Si Si5 0.055212 0.544377 0.639209
Si Si6 0.859339 0.456802 0.615446
Si Si7 0.175371 0.540135 0.086363
Si Si8 0.161595 0.541553 0.200580
O O1 0.344995 0.750000 0.203576
O O2 0.379058 0.473603 0.185443
O O3 0.277928 0.474472 0.171575
O O4 0.134699 0.549136 0.887654
O O5 0.352307 0.750000 0.086142
O O6 0.493931 0.001285 0.231533
O O7 0.213893 0.023496 0.866913
O O8 0.327128 0.750000 0.534760
O O9 0.262323 0.026992 0.505679
O O10 0.261506 0.024870 0.387641
O O11 0.013283 0.250000 0.716706
O O12 0.872489 0.984152 0.564966
O O13 0.960007 0.018423 0.565994
O O14 0.060797 0.750000 0.650866
O O15 0.000000 0.500000 0.500000
O O16 0.840787 0.250000 0.588582
O O17 0.013422 0.493325 0.851670
O O18 0.184345 0.750000 0.097426
O O19 0.200789 0.477694 0.187513
O O20 0.173197 0.750000 0.214325
O O21 0.000000 0.500000 0.000000
#
# Coordination Sequence:
#
# PCOD9157976 Si02
#       8
#     4   4   4   4   4   4   4   4
#     4   8  15  29  46  65  92 123 160 206 249 288
#     4   9  19  34  50  70  97 128 160 195 236 288
#     4  10  20  32  46  67  99 134 166 204 246 290
#     4   9  16  27  47  74 100 126 158 195 237 284
#     4  10  20  35  56  81 105 126 153 193 238 284
#     4   9  17  29  45  68  98 129 162 203 245 282
#     4   9  16  27  46  68  89 121 164 210 255 294
#     4  10  19  30  45  67  95 127 166 211 254 293
#
# _framework density 19.470154000000001
#
# number of rings (size 3 to 8) (size 9 to 14) (size 15 to 20)
#    0.000    2.750    1.250    1.500    0.000    4.000 
#    0.000    0.625    0.000    0.750    0.000    0.000 
#    0.000    0.000    0.000    0.000    0.000    0.000 
#
# Total GULP energy -178283.173162 kJ/mol
# GULP energy per Si atom -5571.349161 kJ/mol
# Density = 1.942584 g / cm^3
# Si number density = 19.470154 Si / 1000 Ang^3
#
#
#
# Elastic Constant Matrix: (Units=GPa)
#
#
# Indices 1 2 3 4 5 6 
#
# 1 187.2710 12.6503 50.6657 0.0000 -3.0964 0.0000
# 2 12.6503 27.4940 0.1368 0.0000 -0.9830 0.0000
# 3 50.6657 0.1368 44.7001 0.0000 1.3593 0.0000
# 4 0.0000 0.0000 0.0000 -3.9284 0.0000 -0.3163
# 5 -3.0964 -0.9830 1.3593 0.0000 27.6255 0.0000
# 6 0.0000 0.0000 0.0000 -0.3163 0.0000 15.9843
#
#
#
# Elastic Compliance Matrix: (Units=1/GPa)
#
#
# Indices 1 2 3 4 5 6 
#
# 1 0.008095 -0.003635 -0.009202 0.000000 0.001231 0.000000
# 2 -0.003635 0.038051 0.003981 0.000000 0.000751 0.000000
# 3 -0.009202 0.003981 0.032865 0.000000 -0.002507 0.000000
# 4 0.000000 0.000000 0.000000 -0.254153 0.000000 -0.005030
# 5 0.001231 0.000751 -0.002507 0.000000 0.036486 0.000000
# 6 0.000000 0.000000 0.000000 -0.005030 0.000000 0.062462
#
#
# Mechanical properties :
#
#
# Convention : Reuss Voigt Hill
#
# Bulk Modulus (GPa) = 16.31334 42.93008 29.62171
# Shear Modulus (GPa) = -131.41579 21.00376 -55.20601
#
# Velocity S-wave (km/s) = -8.22451 3.28802 -5.33064
# Velocity P-wave (km/s) = 9.04396 6.04250 4.75822
#
# Compressibility (1/GPa) = 0.06129952
#
# Stress axis : x y z
#
# Youngs Moduli (GPa) = 123.52789 26.28049 30.42705
#
# Poissons Ratio (x) = 0.09553 0.27999
# Poissons Ratio (y) = 0.44902 -0.12112
# Poissons Ratio (z) = 1.13671 -0.10462
#
# Static dielectric constant tensor:
#      x y z
#    x 1.763870 0.000000 0.000350 
#    y 0.000000 1.722240 0.000000 
#    z 0.000350 0.000000 1.649440 
# 
# From -- ./inp_files/42487.got.cif
#   From: 2010.05.17/outbox.cif.g08.bks.cpg/sg11_22_cif.got.tgz:42487.got - 2010.06.03 12:22:45.
