data_PCOD9157871
_publ_section_title
;
Structure prediction by ZEFSAII (Michael W. Deem and Ramdas Pophale) SiO2 
 PCOD9157871
Probable space group: P 21/M
;
_chemical_formula_sum "Si O2"
_cell_formula_units_Z 28
_cell_length_a 30.301717
_cell_length_b 8.047222
_cell_length_c 15.064754
_cell_angle_alpha 90.000000
_cell_angle_beta 27.152698
_cell_angle_gamma 90.000000
_cell_volume 1676.432834
_symmetry_space_group_name_H-M "P 21/M"
_symmetry_group_IT_number 11
_symmetry_cell_setting 'monoclinic'
loop_
_space_group_symop_operation_xyz
x,y,z
-x,1/2+y,-z
-x,-y,-z
x,1/2-y,z
loop_
_atom_site_type_symbol
_atom_site_label
_atom_site_fract_x
_atom_site_fract_y
_atom_site_fract_z
Si Si1 0.134040 0.450780 0.330460
Si Si2 0.917089 0.049921 0.768161
Si Si3 0.752878 0.550692 0.708013
Si Si4 0.237341 0.556738 0.596406
Si Si5 0.391174 0.054790 0.178640
Si Si6 0.914998 0.552101 0.269050
Si Si7 0.875114 0.046198 0.039738
O O1 0.133053 0.250000 0.336738
O O2 0.141438 0.500558 0.214786
O O3 0.216557 0.513293 0.250015
O O4 0.027937 0.508879 0.554444
O O5 0.921078 0.250000 0.764874
O O6 0.875356 0.991640 0.937036
O O7 0.738303 0.750000 0.743204
O O8 0.663612 0.480833 0.810166
O O9 0.846575 0.529623 0.477310
O O10 0.261810 0.750000 0.560179
O O11 0.321926 0.476294 0.387110
O O12 0.139278 0.537254 0.714041
O O13 0.210530 0.490096 0.741830
O O14 0.393920 0.250000 0.159540
O O15 0.500000 0.000000 0.000000
O O16 0.916583 0.750000 0.246971
O O17 0.022170 0.495762 0.101383
O O18 0.874368 0.250000 0.041871
#
# Coordination Sequence:
#
# PCOD9157871 Si02
#       7
#     4   4   4   4   4   4   4
#     4   9  15  26  42  61  86 118 155 187 215 254
#     4   9  16  26  41  60  87 123 158 187 215 250
#     4   8  14  26  46  65  85 118 151 176 216 272
#     4  10  19  29  43  66  91 117 151 187 221 265
#     4  10  20  35  53  70  89 114 144 183 230 276
#     4   9  15  27  43  60  86 124 159 184 215 258
#     4   9  16  27  43  61  88 127 160 182 215 265
#
# _framework density 16.702131000000001
#
# number of rings (size 3 to 8) (size 9 to 14) (size 15 to 20)
#    0.000    2.857    1.429    2.143    0.000    0.000 
#    0.000    6.429    0.000    0.000    0.000    1.000 
#    0.000    0.000    0.000    0.000    0.000    0.000 
#
# Total GULP energy -155945.540202 kJ/mol
# GULP energy per Si atom -5569.483579 kJ/mol
# Density = 1.666412 g / cm^3
# Si number density = 16.702131 Si / 1000 Ang^3
#
#
#
# Elastic Constant Matrix: (Units=GPa)
#
#
# Indices 1 2 3 4 5 6 
#
# 1 131.3040 6.6820 78.6668 0.0000 9.1862 0.0000
# 2 6.6820 8.3474 5.7737 0.0000 -2.4962 0.0000
# 3 78.6668 5.7737 72.5011 0.0000 1.1734 0.0000
# 4 0.0000 0.0000 0.0000 14.8178 0.0000 -0.5707
# 5 9.1862 -2.4962 1.1734 0.0000 24.8719 0.0000
# 6 0.0000 0.0000 0.0000 -0.5707 0.0000 20.5643
#
#
#
# Elastic Compliance Matrix: (Units=1/GPa)
#
#
# Indices 1 2 3 4 5 6 
#
# 1 0.023135 -0.003771 -0.024676 0.000000 -0.007759 0.000000
# 2 -0.003771 0.131887 -0.006653 0.000000 0.014943 0.000000
# 3 -0.024676 -0.006653 0.040992 0.000000 0.006512 0.000000
# 4 0.000000 0.000000 0.000000 0.067559 0.000000 0.001875
# 5 -0.007759 0.014943 0.006512 0.000000 0.044264 0.000000
# 6 0.000000 0.000000 0.000000 0.001875 0.000000 0.048680
#
#
# Mechanical properties :
#
#
# Convention : Reuss Voigt Hill
#
# Bulk Modulus (GPa) = 7.94831 43.82196 25.88513
# Shear Modulus (GPa) = 10.66883 20.11946 15.39415
#
# Velocity S-wave (km/s) = 2.53013 3.47451 3.03922
# Velocity P-wave (km/s) = 3.64755 6.51080 5.27708
#
# Compressibility (1/GPa) = 0.12581287
#
# Stress axis : x y z
#
# Youngs Moduli (GPa) = 43.22516 7.58225 24.39493
#
# Poissons Ratio (x) = 0.02859 0.60198
# Poissons Ratio (y) = 0.16301 0.16230
# Poissons Ratio (z) = 1.06663 0.05044
#
# Static dielectric constant tensor:
#      x y z
#    x 1.620400 0.000000 0.006630 
#    y 0.000000 1.600080 0.000000 
#    z 0.006630 0.000000 1.555240 
# 
# From -- ./inp_files/42604.got.cif
#   From: 2010.05.17/outbox.cif.g08.bks.cpg/sg11_22_cif.got.tgz:42604.got - 2010.06.03 12:22:45.
