data_PCOD9157838
_publ_section_title
;
Structure prediction by ZEFSAII (Michael W. Deem and Ramdas Pophale) SiO2 
 PCOD9157838
Probable space group: P 21/M
;
_chemical_formula_sum "Si O2"
_cell_formula_units_Z 24
_cell_length_a 15.405476
_cell_length_b 12.182995
_cell_length_c 21.058789
_cell_angle_alpha 90.000000
_cell_angle_beta 164.187750
_cell_angle_gamma 90.000000
_cell_volume 1076.977723
_symmetry_space_group_name_H-M "P 21/M"
_symmetry_group_IT_number 11
_symmetry_cell_setting 'monoclinic'
loop_
_space_group_symop_operation_xyz
x,y,z
-x,1/2+y,-z
-x,-y,-z
x,1/2-y,z
loop_
_atom_site_type_symbol
_atom_site_label
_atom_site_fract_x
_atom_site_fract_y
_atom_site_fract_z
Si Si1 0.400108 0.126225 0.001797
Si Si2 0.708227 0.250000 0.879908
Si Si3 0.981780 0.250000 0.269624
Si Si4 0.914415 0.941254 0.353572
Si Si5 0.638399 0.555092 0.413956
Si Si6 0.263894 0.625427 0.415814
Si Si7 0.373583 0.250000 0.420074
Si Si8 0.696178 0.750000 0.278966
O O1 0.522053 0.250000 0.091851
O O2 0.224926 0.111585 0.810022
O O3 0.114979 0.107869 0.851336
O O4 0.670514 0.037360 0.198252
O O5 0.647323 0.139009 0.798188
O O6 0.432178 0.250000 0.739945
O O7 0.050493 0.250000 0.152006
O O8 0.058155 0.136930 0.359563
O O9 0.253398 0.250000 0.406410
O O10 0.634242 0.250000 0.994814
O O11 0.893553 0.854427 0.394905
O O12 0.258011 0.986860 0.575183
O O13 0.598419 0.470233 0.443418
O O14 0.308113 0.750000 0.475607
O O15 0.423833 0.644505 0.460052
#
# Coordination Sequence:
#
# PCOD9157838 Si02
#       8
#     4   2   2   4   4   4   2   2
#     4   9  15  27  50  84 108 129 167 212 254 316
#     4  10  24  38  51  73 106 141 179 222 261 307
#     4  10  20  34  54  83 110 133 170 218 262 309
#     4  10  19  28  54  77 108 141 165 211 264 306
#     4  10  21  36  55  80 106 138 179 211 254 320
#     4   8  17  33  54  80 101 136 177 214 255 309
#     4   9  20  37  55  79 104 139 171 223 273 288
#     4  11  20  35  52  77 108 139 176 209 264 316
#
# _framework density 22.284583999999999
#
# number of rings (size 3 to 8) (size 9 to 14) (size 15 to 20)
#    0.500    2.000    0.833    3.000    3.500    2.000 
#    0.000    0.000    0.000    0.000    0.000    0.000 
#    0.000    0.000    0.000    0.000    0.000    0.000 
#
# Total GULP energy -134038.505386 kJ/mol
# GULP energy per Si atom -5584.937724 kJ/mol
# Density = 2.223386 g / cm^3
# Si number density = 22.284584 Si / 1000 Ang^3
#
#
#
# Elastic Constant Matrix: (Units=GPa)
#
#
# Indices 1 2 3 4 5 6 
#
# 1 77.8694 24.6644 16.3283 0.0000 28.9052 0.0000
# 2 24.6644 98.8578 10.5132 0.0000 8.5546 0.0000
# 3 16.3283 10.5132 25.3217 0.0000 3.1696 0.0000
# 4 0.0000 0.0000 0.0000 7.5909 0.0000 10.9154
# 5 28.9052 8.5546 3.1696 0.0000 32.9156 0.0000
# 6 0.0000 0.0000 0.0000 10.9154 0.0000 16.9117
#
#
#
# Elastic Compliance Matrix: (Units=1/GPa)
#
#
# Indices 1 2 3 4 5 6 
#
# 1 0.022922 -0.002938 -0.011273 0.000000 -0.018280 0.000000
# 2 -0.002938 0.011143 -0.002725 0.000000 -0.000053 0.000000
# 3 -0.011273 -0.002725 0.047133 0.000000 0.006069 0.000000
# 4 0.000000 0.000000 0.000000 1.832449 0.000000 -1.182730
# 5 -0.018280 -0.000053 0.006069 0.000000 0.045863 0.000000
# 6 0.000000 0.000000 0.000000 -1.182730 0.000000 0.822508
#
#
# Mechanical properties :
#
#
# Convention : Reuss Voigt Hill
#
# Bulk Modulus (GPa) = 21.13026 33.89563 27.51295
# Shear Modulus (GPa) = 1.76575 21.51984 11.64279
#
# Velocity S-wave (km/s) = 0.89111 3.11091 2.28822
# Velocity P-wave (km/s) = 3.24983 5.30538 4.39934
#
# Compressibility (1/GPa) = 0.04732550
#
# Stress axis : x y z
#
# Youngs Moduli (GPa) = 43.62601 89.74223 21.21669
#
# Poissons Ratio (x) = 0.26368 0.23917
# Poissons Ratio (y) = 0.12818 0.05782
# Poissons Ratio (z) = 0.49179 0.24455
#
# Static dielectric constant tensor:
#      x y z
#    x 1.856710 0.000000 0.008310 
#    y 0.000000 1.850300 0.000000 
#    z 0.008310 0.000000 1.794150 
# 
# From -- ./inp_files/57816.got.cif
#   From: 2010.05.17/outbox.cif.g08.bks.cpg/sg11_29_cif.got.tgz:57816.got - 2010.06.03 12:22:45.
