data_PCOD9157380
_publ_section_title
;
Structure prediction by ZEFSAII (Michael W. Deem and Ramdas Pophale) SiO2 
 PCOD9157380
Probable space group: P 21/M
;
_chemical_formula_sum "Si O2"
_cell_formula_units_Z 22
_cell_length_a 14.558790
_cell_length_b 15.870818
_cell_length_c 6.904870
_cell_angle_alpha 90.000000
_cell_angle_beta 35.850068
_cell_angle_gamma 90.000000
_cell_volume 934.394473
_symmetry_space_group_name_H-M "P 21/M"
_symmetry_group_IT_number 11
_symmetry_cell_setting 'monoclinic'
loop_
_space_group_symop_operation_xyz
x,y,z
-x,1/2+y,-z
-x,-y,-z
x,1/2-y,z
loop_
_atom_site_type_symbol
_atom_site_label
_atom_site_fract_x
_atom_site_fract_y
_atom_site_fract_z
Si Si1 0.398260 0.450100 0.454663
Si Si2 0.603334 0.900303 0.114446
Si Si3 0.133233 0.151188 0.771140
Si Si4 0.844822 0.095610 0.024094
Si Si5 0.054327 0.151138 0.360687
Si Si6 0.377755 0.750000 0.463773
O O1 0.443459 0.400443 0.573149
O O2 0.543656 0.508454 0.144674
O O3 0.307552 0.388214 0.465909
O O4 0.262271 0.515761 0.750890
O O5 0.506253 0.824127 0.193200
O O6 0.787514 0.882601 0.808623
O O7 0.133323 0.250000 0.717823
O O8 0.080074 0.146127 0.087429
O O9 0.004737 0.099285 0.873332
O O10 0.903971 0.103161 0.701969
O O11 0.747826 0.176597 0.256099
O O12 0.035796 0.250000 0.439461
#
# Coordination Sequence:
#
# PCOD9157380 Si02
#       6
#     4   4   4   4   4   2
#     4   9  20  34  56  84 112 148 182 226 279 326
#     4   9  18  34  54  84 111 144 186 219 275 333
#     4  10  20  35  56  83 113 145 183 230 275 325
#     4  11  20  36  58  86 110 142 189 229 272 325
#     4  10  19  34  60  85 107 147 186 226 272 326
#     4  10  18  32  58  78 110 146 180 228 268 326
#
# _framework density 23.54466
#
# number of rings (size 3 to 8) (size 9 to 14) (size 15 to 20)
#    0.000    2.182    2.727    0.545    1.273    2.909 
#    0.000    0.909    0.000   24.000    0.000    0.000 
#    0.000    0.000    0.000    0.000    0.000    0.000 
#
# Total GULP energy -122507.355828 kJ/mol
# GULP energy per Si atom -5568.516174 kJ/mol
# Density = 2.349107 g / cm^3
# Si number density = 23.544660 Si / 1000 Ang^3
#
#
#
# Elastic Constant Matrix: (Units=GPa)
#
#
# Indices 1 2 3 4 5 6 
#
# 1 56.8942 -2.8263 12.6110 0.0000 -3.1131 0.0000
# 2 -2.8263 72.4374 14.0591 0.0000 4.6515 0.0000
# 3 12.6110 14.0591 86.8622 0.0000 4.8698 0.0000
# 4 0.0000 0.0000 0.0000 34.0498 0.0000 -10.8354
# 5 -3.1131 4.6515 4.8698 0.0000 26.0575 0.0000
# 6 0.0000 0.0000 0.0000 -10.8354 0.0000 -0.8692
#
#
#
# Elastic Compliance Matrix: (Units=1/GPa)
#
#
# Indices 1 2 3 4 5 6 
#
# 1 0.018439 0.001138 -0.003005 0.000000 0.002561 0.000000
# 2 0.001138 0.014442 -0.002391 0.000000 -0.001995 0.000000
# 3 -0.003005 -0.002391 0.012462 0.000000 -0.002261 0.000000
# 4 0.000000 0.000000 0.000000 0.005913 0.000000 -0.073710
# 5 0.002561 -0.001995 -0.002261 0.000000 0.039461 0.000000
# 6 0.000000 0.000000 0.000000 -0.073710 0.000000 -0.231630
#
#
# Mechanical properties :
#
#
# Convention : Reuss Voigt Hill
#
# Bulk Modulus (GPa) = 27.15307 29.32012 28.23660
# Shear Modulus (GPa) = -41.62464 24.67096 -8.47684
#
# Velocity S-wave (km/s) = -4.20920 3.24054 -1.89951
# Velocity P-wave (km/s) = 3.47355 5.14602 2.68477
#
# Compressibility (1/GPa) = 0.03682824
#
# Stress axis : x y z
#
# Youngs Moduli (GPa) = 54.23224 69.24446 80.24078
#
# Poissons Ratio (x) = -0.07881 0.24111
# Poissons Ratio (y) = -0.06173 0.19184
# Poissons Ratio (z) = 0.16296 0.16555
#
# Static dielectric constant tensor:
#      x y z
#    x 1.964170 0.000000 0.044880 
#    y 0.000000 1.865570 0.000000 
#    z 0.044880 0.000000 1.904450 
# 
# From -- ./inp_files/12851.got.cif
#   From: 2010.05.17/outbox.cif.g08.bks.cpg/sg11_7_cif.got.tgz:12851.got - 2010.06.03 12:22:45.
