data_PCOD9157115
_publ_section_title
;
Structure prediction by ZEFSAII (Michael W. Deem and Ramdas Pophale) SiO2 
 PCOD9157115
Probable space group: P 21/M
;
_chemical_formula_sum "Si O2"
_cell_formula_units_Z 32
_cell_length_a 11.578722
_cell_length_b 14.300680
_cell_length_c 19.040430
_cell_angle_alpha 90.000000
_cell_angle_beta 26.415940
_cell_angle_gamma 90.000000
_cell_volume 1402.623788
_symmetry_space_group_name_H-M "P 21/M"
_symmetry_group_IT_number 11
_symmetry_cell_setting 'monoclinic'
loop_
_space_group_symop_operation_xyz
x,y,z
-x,1/2+y,-z
-x,-y,-z
x,1/2-y,z
loop_
_atom_site_type_symbol
_atom_site_label
_atom_site_fract_x
_atom_site_fract_y
_atom_site_fract_z
Si Si1 0.038642 0.066264 0.622920
Si Si2 0.406101 0.356399 0.536113
Si Si3 0.187416 0.641302 0.913587
Si Si4 0.037622 0.853305 0.831552
Si Si5 0.412898 0.605963 0.036568
Si Si6 0.012316 0.557475 0.143365
Si Si7 0.223602 0.358429 0.386002
Si Si8 0.055705 0.148440 0.315314
O O1 0.276378 0.116581 0.532518
O O2 0.056331 0.080678 0.530581
O O3 0.782046 0.118304 0.792246
O O4 0.054204 0.956520 0.636490
O O5 0.335086 0.250000 0.593357
O O6 0.712481 0.358226 0.355607
O O7 0.266245 0.422860 0.668954
O O8 0.170515 0.750000 0.944163
O O9 0.125967 0.638673 0.864788
O O10 0.480029 0.608433 0.768531
O O11 0.007046 0.584169 0.064873
O O12 0.917366 0.750000 0.888993
O O13 0.895088 0.950640 0.897090
O O14 0.224285 0.616707 0.071543
O O15 0.500000 0.500000 0.000000
O O16 0.683466 0.654574 0.873255
O O17 0.215665 0.250000 0.414842
O O18 0.137625 0.358017 0.352485
O O19 0.915231 0.250000 0.383335
#
# Coordination Sequence:
#
# PCOD9157115 Si02
#       8
#     4   4   4   4   4   4   4   4
#     4  10  19  33  54  80 107 143 180 224 271 318
#     4  10  20  35  56  83 110 139 181 227 265 317
#     4  10  19  33  55  84 108 138 184 228 270 318
#     4  10  21  37  56  81 113 143 178 223 273 329
#     4   9  20  35  51  77 106 139 181 219 266 320
#     4  11  20  34  58  83 107 142 182 225 273 318
#     4  10  18  31  53  80 106 139 184 230 270 313
#     4  10  20  34  53  79 110 143 182 225 270 322
#
# _framework density 22.814385999999999
#
# number of rings (size 3 to 8) (size 9 to 14) (size 15 to 20)
#    0.000    2.000    2.500    1.875    0.000    2.500 
#    0.000    5.625    0.000    3.750    0.000    0.000 
#    0.000    0.000    0.000    0.000    0.000    0.000 
#
# Total GULP energy -178607.978815 kJ/mol
# GULP energy per Si atom -5581.499338 kJ/mol
# Density = 2.276246 g / cm^3
# Si number density = 22.814386 Si / 1000 Ang^3
#
#
#
# Elastic Constant Matrix: (Units=GPa)
#
#
# Indices 1 2 3 4 5 6 
#
# 1 69.2915 6.7717 19.5420 0.0000 29.5719 0.0000
# 2 6.7717 113.6185 20.0056 0.0000 16.2969 0.0000
# 3 19.5420 20.0056 69.5461 0.0000 36.8362 0.0000
# 4 0.0000 0.0000 0.0000 26.5505 0.0000 6.8969
# 5 29.5719 16.2969 36.8362 0.0000 31.9143 0.0000
# 6 0.0000 0.0000 0.0000 6.8969 0.0000 22.4405
#
#
#
# Elastic Compliance Matrix: (Units=1/GPa)
#
#
# Indices 1 2 3 4 5 6 
#
# 1 0.029893 0.002182 0.016040 0.000000 -0.047327 0.000000
# 2 0.002182 0.009661 0.000751 0.000000 -0.007822 0.000000
# 3 0.016040 0.000751 0.045623 0.000000 -0.067905 0.000000
# 4 0.000000 0.000000 0.000000 0.040932 0.000000 -0.012580
# 5 -0.047327 -0.007822 -0.067905 0.000000 0.157559 0.000000
# 6 0.000000 0.000000 0.000000 -0.012580 0.000000 0.048429
#
#
# Mechanical properties :
#
#
# Convention : Reuss Voigt Hill
#
# Bulk Modulus (GPa) = 8.12195 38.34384 23.23290
# Shear Modulus (GPa) = 14.91688 29.92352 22.42020
#
# Velocity S-wave (km/s) = 2.55980 3.62554 3.13824
# Velocity P-wave (km/s) = 3.50778 5.86254 4.83083
#
# Compressibility (1/GPa) = 0.12312308
#
# Stress axis : x y z
#
# Youngs Moduli (GPa) = 33.45298 103.50800 21.91887
#
# Poissons Ratio (x) = -0.22590 -0.35158
# Poissons Ratio (y) = -0.07301 -0.01646
# Poissons Ratio (z) = -0.53658 -0.07772
#
# Static dielectric constant tensor:
#      x y z
#    x 1.865640 0.000000 -0.011730 
#    y 0.000000 1.913850 0.000000 
#    z -0.011730 0.000000 1.863530 
# 
# From -- ./inp_files/59445.got.cif
#   From: 2010.05.17/outbox.cif.g08.bks.cpg/sg11_30_cif.got.tgz:59445.got - 2010.06.03 12:22:45.
