data_PCOD9157716
_publ_section_title
;
Structure prediction by ZEFSAII (Michael W. Deem and Ramdas Pophale) SiO2 
 PCOD9157716
Probable space group: P 21/M
;
_chemical_formula_sum "Si O2"
_cell_formula_units_Z 28
_cell_length_a 8.503756
_cell_length_b 14.389293
_cell_length_c 15.107064
_cell_angle_alpha 90.000000
_cell_angle_beta 129.204025
_cell_angle_gamma 90.000000
_cell_volume 1432.438632
_symmetry_space_group_name_H-M "P 21/M"
_symmetry_group_IT_number 11
_symmetry_cell_setting 'monoclinic'
loop_
_space_group_symop_operation_xyz
x,y,z
-x,1/2+y,-z
-x,-y,-z
x,1/2-y,z
loop_
_atom_site_type_symbol
_atom_site_label
_atom_site_fract_x
_atom_site_fract_y
_atom_site_fract_z
Si Si1 0.582279 0.356909 0.227658
Si Si2 0.043341 0.988315 0.672848
Si Si3 0.033134 0.029255 0.158409
Si Si4 0.308501 0.532124 0.098766
Si Si5 0.314186 0.147274 0.702886
Si Si6 0.420904 0.394366 0.358161
Si Si7 0.390210 0.408782 0.538119
O O1 0.563189 0.250000 0.192075
O O2 0.795036 0.404318 0.277894
O O3 0.409992 0.428819 0.131074
O O4 0.557265 0.360122 0.325994
O O5 0.022708 0.016606 0.768276
O O6 0.827969 0.954468 0.560958
O O7 0.132251 0.074725 0.650821
O O8 0.187777 0.111859 0.242373
O O9 0.828690 0.055301 0.034292
O O10 0.160526 0.969965 0.131817
O O11 0.493048 0.602300 0.179036
O O12 0.266406 0.250000 0.717857
O O13 0.369691 0.149189 0.619154
O O14 0.453050 0.359086 0.469078
O O15 0.464334 0.504674 0.386387
#
# Coordination Sequence:
#
# PCOD9157716 Si02
#       7
#     4   4   4   4   4   4   4
#     4  10  20  35  53  82 112 143 181 221 272 324
#     4  10  21  36  56  82 112 145 179 225 268 329
#     4   9  17  37  64  77 104 145 184 225 279 310
#     4   9  19  39  59  80 105 142 184 231 267 322
#     4  11  22  36  54  83 116 147 177 220 277 329
#     4   9  18  34  61  79 102 142 184 224 267 316
#     4  10  18  36  58  79 107 144 180 224 267 316
#
# _framework density 19.547087000000001
#
# number of rings (size 3 to 8) (size 9 to 14) (size 15 to 20)
#    0.000    2.286    4.286    0.429    0.000    3.429 
#    0.000   15.714    0.000    0.000    0.000    0.000 
#    0.000    0.000    0.000    0.000    0.000    0.000 
#
# Total GULP energy -156041.749505 kJ/mol
# GULP energy per Si atom -5572.919625 kJ/mol
# Density = 1.950260 g / cm^3
# Si number density = 19.547087 Si / 1000 Ang^3
#
#
#
# Elastic Constant Matrix: (Units=GPa)
#
#
# Indices 1 2 3 4 5 6 
#
# 1 59.6342 18.5539 10.8319 0.0000 8.4901 0.0000
# 2 18.5539 99.4218 19.1264 0.0000 3.3607 0.0000
# 3 10.8319 19.1264 106.3703 0.0000 10.9111 0.0000
# 4 0.0000 0.0000 0.0000 1.6842 0.0000 -5.6694
# 5 8.4901 3.3607 10.9111 0.0000 26.3409 0.0000
# 6 0.0000 0.0000 0.0000 -5.6694 0.0000 -4.5873
#
#
#
# Elastic Compliance Matrix: (Units=1/GPa)
#
#
# Indices 1 2 3 4 5 6 
#
# 1 0.018644 -0.003149 -0.000791 0.000000 -0.005280 0.000000
# 2 -0.003149 0.010959 -0.001682 0.000000 0.000313 0.000000
# 3 -0.000791 -0.001682 0.010168 0.000000 -0.003742 0.000000
# 4 0.000000 0.000000 0.000000 0.115064 0.000000 -0.142205
# 5 -0.005280 0.000313 -0.003742 0.000000 0.041176 0.000000
# 6 0.000000 0.000000 0.000000 -0.142205 0.000000 -0.042244
#
#
# Mechanical properties :
#
#
# Convention : Reuss Voigt Hill
#
# Bulk Modulus (GPa) = 35.05369 40.27231 37.66300
# Shear Modulus (GPa) = 28.65025 19.14848 23.89937
#
# Velocity S-wave (km/s) = 3.83261 3.13326 3.50044
# Velocity P-wave (km/s) = 6.12838 5.80838 5.97052
#
# Compressibility (1/GPa) = 0.02852767
#
# Stress axis : x y z
#
# Youngs Moduli (GPa) = 53.63689 91.25136 98.34813
#
# Poissons Ratio (x) = 0.28732 0.07777
# Poissons Ratio (y) = 0.16889 0.16542
# Poissons Ratio (z) = 0.04241 0.15349
#
# Static dielectric constant tensor:
#      x y z
#    x 1.729900 0.000000 -0.017180 
#    y 0.000000 1.690700 0.000000 
#    z -0.017180 0.000000 1.705110 
# 
# From -- ./inp_files/47402.got.cif
#   From: 2010.05.17/outbox.cif.g08.bks.cpg/sg11_24_cif.got.tgz:47402.got - 2010.06.03 12:22:45.
