data_PCOD9157620
_publ_section_title
;
Structure prediction by ZEFSAII (Michael W. Deem and Ramdas Pophale) SiO2 
 PCOD9157620
Probable space group: P 21/M
;
_chemical_formula_sum "Si O2"
_cell_formula_units_Z 20
_cell_length_a 9.209431
_cell_length_b 8.177605
_cell_length_c 17.936515
_cell_angle_alpha 90.000000
_cell_angle_beta 52.310423
_cell_angle_gamma 90.000000
_cell_volume 1068.949624
_symmetry_space_group_name_H-M "P 21/M"
_symmetry_group_IT_number 11
_symmetry_cell_setting 'monoclinic'
loop_
_space_group_symop_operation_xyz
x,y,z
-x,1/2+y,-z
-x,-y,-z
x,1/2-y,z
loop_
_atom_site_type_symbol
_atom_site_label
_atom_site_fract_x
_atom_site_fract_y
_atom_site_fract_z
Si Si1 0.821433 0.250000 0.665193
Si Si2 0.439222 0.997258 0.334295
Si Si3 0.873434 0.250000 0.821662
Si Si4 0.253988 0.250000 0.500697
Si Si5 0.132280 0.443547 0.071547
Si Si6 0.735145 0.948283 0.133344
Si Si7 0.689274 0.750000 0.344520
O O1 0.717496 0.399316 0.659707
O O2 0.796651 0.250000 0.761974
O O3 0.035405 0.250000 0.578297
O O4 0.573647 0.047579 0.224387
O O5 0.584245 0.900320 0.340218
O O6 0.330605 0.103787 0.427269
O O7 0.822601 0.416732 0.881836
O O8 0.095556 0.250000 0.742582
O O9 0.330438 0.250000 0.560483
O O10 0.139909 0.250000 0.091355
O O11 0.926435 0.487823 0.107643
O O12 0.255139 0.465989 0.958746
O O13 0.715535 0.750000 0.153453
#
# Coordination Sequence:
#
# PCOD9157620 Si02
#       7
#     2   4   2   2   4   4   2
#     4  10  24  42  60  71 118 167 187 230 307 342
#     4  11  20  39  61  81 114 155 191 235 295 349
#     4  11  20  41  58  84 124 160 186 241 293 338
#     4  11  24  35  60  91 109 141 207 247 281 352
#     4  10  20  32  59  94 121 147 194 236 291 345
#     4  10  18  34  59  86 119 152 186 236 295 342
#     4  10  20  38  60  84 119 148 182 244 309 332
#
# _framework density 18.709955999999998
#
# number of rings (size 3 to 8) (size 9 to 14) (size 15 to 20)
#    0.000    1.600    5.000    1.200    2.800    0.000 
#    1.800    1.000    4.400    0.000    0.000    0.000 
#    0.000    0.000    0.000    0.000    0.000    0.000 
#
# Total GULP energy -111390.090821 kJ/mol
# GULP energy per Si atom -5569.504541 kJ/mol
# Density = 1.866737 g / cm^3
# Si number density = 18.709956 Si / 1000 Ang^3
#
#
#
# Elastic Constant Matrix: (Units=GPa)
#
#
# Indices 1 2 3 4 5 6 
#
# 1 92.5814 39.8300 49.5984 0.0000 27.2710 0.0000
# 2 39.8300 94.6851 59.6323 0.0000 31.0122 0.0000
# 3 49.5984 59.6323 162.8086 0.0000 25.4696 0.0000
# 4 0.0000 0.0000 0.0000 21.1581 0.0000 1.0243
# 5 27.2710 31.0122 25.4696 0.0000 34.7415 0.0000
# 6 0.0000 0.0000 0.0000 1.0243 0.0000 -177.8194
#
#
#
# Elastic Compliance Matrix: (Units=1/GPa)
#
#
# Indices 1 2 3 4 5 6 
#
# 1 0.015623 -0.002147 -0.002660 0.000000 -0.008398 0.000000
# 2 -0.002147 0.017669 -0.004082 0.000000 -0.011095 0.000000
# 3 -0.002660 -0.004082 0.008529 0.000000 -0.000521 0.000000
# 4 0.000000 0.000000 0.000000 0.047250 0.000000 0.000272
# 5 -0.008398 -0.011095 -0.000521 0.000000 0.045662 0.000000
# 6 0.000000 0.000000 0.000000 0.000272 0.000000 -0.005622
#
#
# Mechanical properties :
#
#
# Convention : Reuss Voigt Hill
#
# Bulk Modulus (GPa) = 41.58852 72.02182 56.80517
# Shear Modulus (GPa) = 32.27830 -10.98300 10.64765
#
# Velocity S-wave (km/s) = 4.15805 -2.42546 2.38815
# Velocity P-wave (km/s) = 6.73267 5.54379 6.16694
#
# Compressibility (1/GPa) = 0.02404510
#
# Stress axis : x y z
#
# Youngs Moduli (GPa) = 64.00706 56.59624 117.24568
#
# Poissons Ratio (x) = 0.12148 0.31182
# Poissons Ratio (y) = 0.13739 0.47861
# Poissons Ratio (z) = 0.17023 0.23103
#
# Static dielectric constant tensor:
#      x y z
#    x 1.605880 0.000000 0.001520 
#    y 0.000000 1.632930 0.000000 
#    z 0.001520 0.000000 1.654820 
# 
# From -- ./inp_files/20249.got.cif
#   From: 2010.05.17/outbox.cif.g08.bks.cpg/sg11_11_cif.got.tgz:20249.got - 2010.06.03 12:22:45.
