data_PCOD9157550
_publ_section_title
;
Structure prediction by ZEFSAII (Michael W. Deem and Ramdas Pophale) SiO2 
 PCOD9157550
Probable space group: P 21/M
;
_chemical_formula_sum "Si O2"
_cell_formula_units_Z 20
_cell_length_a 7.527572
_cell_length_b 20.632361
_cell_length_c 7.486448
_cell_angle_alpha 90.000000
_cell_angle_beta 123.518102
_cell_angle_gamma 90.000000
_cell_volume 969.383000
_symmetry_space_group_name_H-M "P 21/M"
_symmetry_group_IT_number 11
_symmetry_cell_setting 'monoclinic'
loop_
_space_group_symop_operation_xyz
x,y,z
-x,1/2+y,-z
-x,-y,-z
x,1/2-y,z
loop_
_atom_site_type_symbol
_atom_site_label
_atom_site_fract_x
_atom_site_fract_y
_atom_site_fract_z
Si Si1 0.983135 0.542774 0.210414
Si Si2 0.685038 0.824033 0.444140
Si Si3 0.431591 0.397524 0.953650
Si Si4 0.097120 0.596363 0.660526
Si Si5 0.427531 0.555095 0.325313
O O1 0.958401 0.469255 0.262868
O O2 0.173514 0.552278 0.177772
O O3 0.059717 0.580023 0.432230
O O4 0.759281 0.575245 0.033421
O O5 0.654299 0.750000 0.475984
O O6 0.922843 0.849690 0.614692
O O7 0.518153 0.875031 0.436880
O O8 0.642232 0.836390 0.207582
O O9 0.532788 0.549444 0.187644
O O10 0.658352 0.386328 0.167809
O O11 0.500000 0.500000 0.500000
#
# Coordination Sequence:
#
# PCOD9157550 Si02
#       5
#     4   4   4   4   4
#     4  10  18  34  54  85 113 134 177 228 277 319
#     4   9  20  37  55  76 110 148 183 224 273 327
#     4   9  21  34  55  82 109 142 181 221 271 330
#     4  10  18  35  56  81 111 143 175 225 275 326
#     4  10  18  36  56  79 112 146 179 226 277 324
#
# _framework density 20.631678999999998
#
# number of rings (size 3 to 8) (size 9 to 14) (size 15 to 20)
#    1.200    1.200    2.000    1.800    0.000    1.600 
#    3.600    4.000    0.000    0.000    0.000    0.000 
#    0.000    0.000    0.000    0.000    0.000    0.000 
#
# Total GULP energy -111593.471694 kJ/mol
# GULP energy per Si atom -5579.673585 kJ/mol
# Density = 2.058472 g / cm^3
# Si number density = 20.631679 Si / 1000 Ang^3
#
#
#
# Elastic Constant Matrix: (Units=GPa)
#
#
# Indices 1 2 3 4 5 6 
#
# 1 111.5144 27.8347 21.5896 0.0000 31.8804 0.0000
# 2 27.8347 114.8559 19.5528 0.0000 18.3719 0.0000
# 3 21.5896 19.5528 86.5317 0.0000 32.7023 0.0000
# 4 0.0000 0.0000 0.0000 12.0808 0.0000 3.7954
# 5 31.8804 18.3719 32.7023 0.0000 48.5436 0.0000
# 6 0.0000 0.0000 0.0000 3.7954 0.0000 22.9343
#
#
#
# Elastic Compliance Matrix: (Units=1/GPa)
#
#
# Indices 1 2 3 4 5 6 
#
# 1 0.011330 -0.001667 0.000166 0.000000 -0.006922 0.000000
# 2 -0.001667 0.009582 -0.001063 0.000000 -0.001815 0.000000
# 3 0.000166 -0.001063 0.015622 0.000000 -0.010230 0.000000
# 4 0.000000 0.000000 0.000000 0.087316 0.000000 -0.014450
# 5 -0.006922 -0.001815 -0.010230 0.000000 0.032725 0.000000
# 6 0.000000 0.000000 0.000000 -0.014450 0.000000 0.045994
#
#
# Mechanical properties :
#
#
# Convention : Reuss Voigt Hill
#
# Bulk Modulus (GPa) = 31.84203 50.09515 40.96859
# Shear Modulus (GPa) = 22.91839 32.97338 27.94589
#
# Velocity S-wave (km/s) = 3.33653 4.00208 3.68436
# Velocity P-wave (km/s) = 5.50548 6.75936 6.16438
#
# Compressibility (1/GPa) = 0.03140503
#
# Stress axis : x y z
#
# Youngs Moduli (GPa) = 88.25916 104.36340 64.01400
#
# Poissons Ratio (x) = 0.17396 -0.01060
# Poissons Ratio (y) = 0.14711 0.06806
# Poissons Ratio (z) = -0.01462 0.11095
#
# Static dielectric constant tensor:
#      x y z
#    x 1.773800 0.000000 -0.000480 
#    y 0.000000 1.718540 0.000000 
#    z -0.000480 0.000000 1.800480 
# 
# From -- ./inp_files/13615.got.cif
#   From: 2010.05.17/outbox.cif.g08.bks.cpg/sg11_7_cif.got.tgz:13615.got - 2010.06.03 12:22:45.
