data_PCOD9157992
_publ_section_title
;
Structure prediction by ZEFSAII (Michael W. Deem and Ramdas Pophale) SiO2 
 PCOD9157992
Probable space group: P 21/M
;
_chemical_formula_sum "Si O2"
_cell_formula_units_Z 32
_cell_length_a 19.043068
_cell_length_b 9.142245
_cell_length_c 27.013716
_cell_angle_alpha 90.000000
_cell_angle_beta 151.607092
_cell_angle_gamma 90.000000
_cell_volume 2236.344060
_symmetry_space_group_name_H-M "P 21/M"
_symmetry_group_IT_number 11
_symmetry_cell_setting 'monoclinic'
loop_
_space_group_symop_operation_xyz
x,y,z
-x,1/2+y,-z
-x,-y,-z
x,1/2-y,z
loop_
_atom_site_type_symbol
_atom_site_label
_atom_site_fract_x
_atom_site_fract_y
_atom_site_fract_z
Si Si1 0.264653 0.923434 0.847940
Si Si2 0.250378 0.076704 0.994731
Si Si3 0.285505 0.575132 0.394137
Si Si4 0.481701 0.075380 0.060869
Si Si5 0.035312 0.424455 0.767988
Si Si6 0.889385 0.076725 0.999791
Si Si7 0.396979 0.423748 0.364800
Si Si8 0.194151 0.923496 0.164751
O O1 0.248030 0.750000 0.841968
O O2 0.348492 0.955454 0.848033
O O3 0.112924 0.999789 0.769360
O O4 0.380900 0.982867 0.960820
O O5 0.238725 0.250000 0.998370
O O6 0.133168 0.044115 0.877879
O O7 0.208895 0.984834 0.016816
O O8 0.412057 0.047597 0.071444
O O9 0.278946 0.750000 0.379702
O O10 0.311326 0.490249 0.359007
O O11 0.429940 0.548635 0.517255
O O12 0.132667 0.532167 0.325213
O O13 0.457266 0.250000 0.036029
O O14 0.041057 0.250000 0.764379
O O15 0.914061 0.250000 0.020458
O O16 0.816440 0.050969 0.900724
O O17 0.046168 0.993844 0.096153
O O18 0.373960 0.250000 0.347923
O O19 0.332880 0.501393 0.276779
O O20 0.194679 0.750000 0.174009
#
# Coordination Sequence:
#
# PCOD9157992 Si02
#       8
#     4   4   4   4   4   4   4   4
#     4   9  15  23  37  56  77 103 137 170 194 226
#     4   9  16  26  41  59  82 112 138 163 201 244
#     4   9  18  31  45  62  85 111 137 168 206 244
#     4   8  15  26  37  52  77 108 136 161 197 241
#     4   9  17  28  40  56  82 113 138 161 198 243
#     4  10  20  31  44  63  82 103 138 176 204 240
#     4  10  19  30  46  65  82 105 140 175 203 239
#     4  10  20  33  46  59  81 111 136 166 211 250
#
# _framework density 14.309068999999999
#
# number of rings (size 3 to 8) (size 9 to 14) (size 15 to 20)
#    0.000    2.750    0.000    3.000    0.000    6.000 
#    0.000    0.000    0.000    0.000    0.000    0.000 
#    0.000    1.000    0.000    2.250    0.000    4.250 
#
# Total GULP energy -178195.880658 kJ/mol
# GULP energy per Si atom -5568.621271 kJ/mol
# Density = 1.427650 g / cm^3
# Si number density = 14.309069 Si / 1000 Ang^3
#
#
#
# Elastic Constant Matrix: (Units=GPa)
#
#
# Indices 1 2 3 4 5 6 
#
# 1 121.5032 47.8987 39.1951 0.0000 24.0266 0.0000
# 2 47.8987 45.8134 33.6075 0.0000 3.4802 0.0000
# 3 39.1951 33.6075 53.3682 0.0000 9.5982 0.0000
# 4 0.0000 0.0000 0.0000 19.4649 0.0000 0.8473
# 5 24.0266 3.4802 9.5982 0.0000 22.0146 0.0000
# 6 0.0000 0.0000 0.0000 0.8473 0.0000 26.8578
#
#
#
# Elastic Compliance Matrix: (Units=1/GPa)
#
#
# Indices 1 2 3 4 5 6 
#
# 1 0.019206 -0.020024 0.001850 0.000000 -0.018602 0.000000
# 2 -0.020024 0.061985 -0.028751 0.000000 0.024590 0.000000
# 3 0.001850 -0.028751 0.038010 0.000000 -0.014046 0.000000
# 4 0.000000 0.000000 0.000000 0.051445 0.000000 -0.001623
# 5 -0.018602 0.024590 -0.014046 0.000000 0.067963 0.000000
# 6 0.000000 0.000000 0.000000 -0.001623 0.000000 0.037284
#
#
# Mechanical properties :
#
#
# Convention : Reuss Voigt Hill
#
# Bulk Modulus (GPa) = 39.44338 51.34304 45.39321
# Shear Modulus (GPa) = 13.22074 20.33302 16.77688
#
# Velocity S-wave (km/s) = 3.04294 3.77369 3.42784
# Velocity P-wave (km/s) = 6.32227 7.41262 6.88905
#
# Compressibility (1/GPa) = 0.02535279
#
# Stress axis : x y z
#
# Youngs Moduli (GPa) = 52.06814 16.13281 26.30859
#
# Poissons Ratio (x) = 0.32304 -0.04867
# Poissons Ratio (y) = 1.04260 0.75639
# Poissons Ratio (z) = -0.09632 0.46383
#
# Static dielectric constant tensor:
#      x y z
#    x 1.490690 0.000000 0.018040 
#    y 0.000000 1.476340 0.000000 
#    z 0.018040 0.000000 1.460210 
# 
# From -- ./inp_files/56025.got.cif
#   From: 2010.05.17/outbox.cif.g08.bks.cpg/sg11_29_cif.got.tgz:56025.got - 2010.06.03 12:22:45.
