data_PCOD9157518
_publ_section_title
;
Structure prediction by ZEFSAII (Michael W. Deem and Ramdas Pophale) SiO2 
 PCOD9157518
Probable space group: P 21/M
;
_chemical_formula_sum "Si O2"
_cell_formula_units_Z 32
_cell_length_a 20.184865
_cell_length_b 19.287499
_cell_length_c 12.320087
_cell_angle_alpha 90.000000
_cell_angle_beta 157.075540
_cell_angle_gamma 90.000000
_cell_volume 1868.280810
_symmetry_space_group_name_H-M "P 21/M"
_symmetry_group_IT_number 11
_symmetry_cell_setting 'monoclinic'
loop_
_space_group_symop_operation_xyz
x,y,z
-x,1/2+y,-z
-x,-y,-z
x,1/2-y,z
loop_
_atom_site_type_symbol
_atom_site_label
_atom_site_fract_x
_atom_site_fract_y
_atom_site_fract_z
Si Si1 0.189749 0.028675 0.288127
Si Si2 0.986913 0.527336 0.356853
Si Si3 0.721404 0.329131 0.464361
Si Si4 0.683596 0.468587 0.747218
Si Si5 0.815942 0.670488 0.054799
Si Si6 0.422808 0.830377 0.513471
Si Si7 0.873188 0.672468 0.888902
Si Si8 0.317045 0.532639 0.704424
O O1 0.190351 0.111613 0.283128
O O2 0.273399 0.000901 0.304815
O O3 0.265173 0.999235 0.510941
O O4 0.000000 0.000000 0.000000
O O5 0.166212 0.518314 0.563435
O O6 0.000000 0.500000 0.500000
O O7 0.936156 0.609012 0.277645
O O8 0.833159 0.489908 0.057055
O O9 0.683115 0.250000 0.375244
O O10 0.635385 0.343531 0.450807
O O11 0.671512 0.384991 0.299546
O O12 0.923708 0.334521 0.789906
O O13 0.500000 0.500000 0.500000
O O14 0.662957 0.386281 0.695398
O O15 0.873920 0.750000 0.163692
O O16 0.626309 0.661654 0.814359
O O17 0.802485 0.663388 0.903974
O O18 0.381410 0.750000 0.424811
O O19 0.834767 0.750000 0.792667
O O20 0.500000 0.500000 0.000000
#
# Coordination Sequence:
#
# PCOD9157518 Si02
#       8
#     4   4   4   4   4   4   4   4
#     4  12  19  38  62  86 117 150 202 251 303 350
#     4  12  26  41  58  91 125 161 205 247 302 367
#     4  10  19  35  61  88 113 149 200 251 304 360
#     4  12  21  36  64  90 118 155 200 249 302 355
#     4  10  19  37  61  86 116 154 200 247 296 354
#     4  10  20  33  58  94 121 147 196 255 303 356
#     4  10  18  33  60  90 111 145 202 257 301 347
#     4  12  26  40  60  89 125 162 202 252 304 361
#
# _framework density 17.128046000000001
#
# number of rings (size 3 to 8) (size 9 to 14) (size 15 to 20)
#    0.000    1.000    7.500    0.000    3.500    0.000 
#    0.000    1.250    0.000    1.500    0.000    0.000 
#    0.000    0.000    0.000    0.000    0.000    0.000 
#
# Total GULP energy -178532.491077 kJ/mol
# GULP energy per Si atom -5579.140346 kJ/mol
# Density = 1.708906 g / cm^3
# Si number density = 17.128046 Si / 1000 Ang^3
#
#
#
# Elastic Constant Matrix: (Units=GPa)
#
#
# Indices 1 2 3 4 5 6 
#
# 1 133.1251 35.9920 56.3923 0.0000 14.2741 0.0000
# 2 35.9920 138.5165 43.4898 0.0000 -9.2576 0.0000
# 3 56.3923 43.4898 100.3325 0.0000 1.0561 0.0000
# 4 0.0000 0.0000 0.0000 19.7786 0.0000 -8.5508
# 5 14.2741 -9.2576 1.0561 0.0000 30.3209 0.0000
# 6 0.0000 0.0000 0.0000 -8.5508 0.0000 14.9687
#
#
#
# Elastic Compliance Matrix: (Units=1/GPa)
#
#
# Indices 1 2 3 4 5 6 
#
# 1 0.010744 -0.001469 -0.005346 0.000000 -0.005320 0.000000
# 2 -0.001469 0.008781 -0.003017 0.000000 0.003477 0.000000
# 3 -0.005346 -0.003017 0.014268 0.000000 0.001099 0.000000
# 4 0.000000 0.000000 0.000000 0.067141 0.000000 0.038354
# 5 -0.005320 0.003477 0.001099 0.000000 0.036509 0.000000
# 6 0.000000 0.000000 0.000000 0.038354 0.000000 0.088715
#
#
# Mechanical properties :
#
#
# Convention : Reuss Voigt Hill
#
# Bulk Modulus (GPa) = 70.77834 71.52470 71.15152
# Shear Modulus (GPa) = 19.95764 28.75365 24.35564
#
# Velocity S-wave (km/s) = 3.41721 4.10170 3.77500
# Velocity P-wave (km/s) = 7.54868 8.01757 7.78665
#
# Compressibility (1/GPa) = 0.01412862
#
# Stress axis : x y z
#
# Youngs Moduli (GPa) = 93.07657 113.88623 70.08781
#
# Poissons Ratio (x) = 0.16727 0.37469
# Poissons Ratio (y) = 0.13671 0.21146
# Poissons Ratio (z) = 0.49759 0.34361
#
# Static dielectric constant tensor:
#      x y z
#    x 1.560640 0.000000 0.058980 
#    y 0.000000 1.652260 0.000000 
#    z 0.058980 0.000000 1.518730 
# 
# From -- ./inp_files/43566.got.cif
#   From: 2010.05.17/outbox.cif.g08.bks.cpg/sg11_22_cif.got.tgz:43566.got - 2010.06.03 12:22:45.
