data_PCOD9157379
_publ_section_title
;
Structure prediction by ZEFSAII (Michael W. Deem and Ramdas Pophale) SiO2 
 PCOD9157379
Probable space group: P 21/M
;
_chemical_formula_sum "Si O2"
_cell_formula_units_Z 20
_cell_length_a 10.987526
_cell_length_b 18.460164
_cell_length_c 6.576073
_cell_angle_alpha 90.000000
_cell_angle_beta 112.439574
_cell_angle_gamma 90.000000
_cell_volume 1232.840457
_symmetry_space_group_name_H-M "P 21/M"
_symmetry_group_IT_number 11
_symmetry_cell_setting 'monoclinic'
loop_
_space_group_symop_operation_xyz
x,y,z
-x,1/2+y,-z
-x,-y,-z
x,1/2-y,z
loop_
_atom_site_type_symbol
_atom_site_label
_atom_site_fract_x
_atom_site_fract_y
_atom_site_fract_z
Si Si1 0.483225 0.165489 0.272554
Si Si2 0.771837 0.832809 0.597365
Si Si3 0.688320 0.580786 0.159134
Si Si4 0.858907 0.964328 0.887603
Si Si5 0.370459 0.969458 0.530285
O O1 0.511907 0.250000 0.253139
O O2 0.368426 0.162368 0.371984
O O3 0.604127 0.115418 0.419294
O O4 0.421453 0.124379 0.038283
O O5 0.814347 0.750000 0.626985
O O6 0.751466 0.863109 0.358819
O O7 0.866367 0.887202 0.777616
O O8 0.638766 0.514284 0.265619
O O9 0.791159 0.550576 0.060868
O O10 0.756686 0.011090 0.685799
O O11 0.000000 0.000000 0.000000
O O12 0.500000 0.000000 0.500000
#
# Coordination Sequence:
#
# PCOD9157379 Si02
#       5
#     4   4   4   4   4
#     4  10  19  31  50  82 111 133 167 218 269 312
#     4   9  18  32  52  80 107 131 172 220 260 309
#     4  10  18  32  58  76 104 138 178 212 263 308
#     4  10  22  36  53  77 105 142 180 213 255 312
#     4  11  19  34  54  80 106 134 176 219 256 311
#
# _framework density 16.222702000000002
#
# number of rings (size 3 to 8) (size 9 to 14) (size 15 to 20)
#    0.000    2.000    6.000    1.200    0.000    4.000 
#    0.000    1.000    0.000    3.600    0.000    0.000 
#    0.000    0.000    0.000    0.000    0.000    0.000 
#
# Total GULP energy -111485.858256 kJ/mol
# GULP energy per Si atom -5574.292913 kJ/mol
# Density = 1.618578 g / cm^3
# Si number density = 16.222702 Si / 1000 Ang^3
#
#
#
# Elastic Constant Matrix: (Units=GPa)
#
#
# Indices 1 2 3 4 5 6 
#
# 1 62.2651 64.4291 57.0911 0.0000 13.2741 0.0000
# 2 64.4291 163.0515 65.2737 0.0000 13.1517 0.0000
# 3 57.0911 65.2737 114.9927 0.0000 -6.5257 0.0000
# 4 0.0000 0.0000 0.0000 15.3213 0.0000 4.2692
# 5 13.2741 13.1517 -6.5257 0.0000 24.1411 0.0000
# 6 0.0000 0.0000 0.0000 4.2692 0.0000 22.3365
#
#
#
# Elastic Compliance Matrix: (Units=1/GPa)
#
#
# Indices 1 2 3 4 5 6 
#
# 1 0.053105 -0.009458 -0.022710 0.000000 -0.030186 0.000000
# 2 -0.009458 0.010453 -0.001285 0.000000 -0.000841 0.000000
# 3 -0.022710 -0.001285 0.021783 0.000000 0.019076 0.000000
# 4 0.000000 0.000000 0.000000 0.068940 0.000000 -0.013177
# 5 -0.030186 -0.000841 0.019076 0.000000 0.063636 0.000000
# 6 0.000000 0.000000 0.000000 -0.013177 0.000000 0.047288
#
#
# Mechanical properties :
#
#
# Convention : Reuss Voigt Hill
#
# Bulk Modulus (GPa) = 54.24564 79.32190 66.78377
# Shear Modulus (GPa) = 14.78168 22.59415 18.68791
#
# Velocity S-wave (km/s) = 3.02184 3.73600 3.39774
# Velocity P-wave (km/s) = 6.75914 8.22266 7.52656
#
# Compressibility (1/GPa) = 0.01843466
#
# Stress axis : x y z
#
# Youngs Moduli (GPa) = 18.83057 95.66805 45.90702
#
# Poissons Ratio (x) = 0.90485 1.04253
# Poissons Ratio (y) = 0.17810 0.05901
# Poissons Ratio (z) = 0.42764 0.12297
#
# Static dielectric constant tensor:
#      x y z
#    x 1.518480 0.000000 -0.012770 
#    y 0.000000 1.561490 0.000000 
#    z -0.012770 0.000000 1.553540 
# 
# From -- ./inp_files/1883.got.cif
#   From: 2010.05.17/outbox.cif.g08.bks.cpg/sg11_1_cif.got.tgz:1883.got - 2010.06.03 12:22:45.
