data_PCOD9157573
_publ_section_title
;
Structure prediction by ZEFSAII (Michael W. Deem and Ramdas Pophale) SiO2 
 PCOD9157573
Probable space group: P 21/M
;
_chemical_formula_sum "Si O2"
_cell_formula_units_Z 28
_cell_length_a 31.049522
_cell_length_b 8.534431
_cell_length_c 10.578971
_cell_angle_alpha 90.000000
_cell_angle_beta 146.468280
_cell_angle_gamma 90.000000
_cell_volume 1548.550779
_symmetry_space_group_name_H-M "P 21/M"
_symmetry_group_IT_number 11
_symmetry_cell_setting 'monoclinic'
loop_
_space_group_symop_operation_xyz
x,y,z
-x,1/2+y,-z
-x,-y,-z
x,1/2-y,z
loop_
_atom_site_type_symbol
_atom_site_label
_atom_site_fract_x
_atom_site_fract_y
_atom_site_fract_z
Si Si1 0.407896 0.562654 0.909933
Si Si2 0.158419 0.439416 0.128494
Si Si3 0.172664 0.058843 0.684450
Si Si4 0.003495 0.062015 0.365325
Si Si5 0.269111 0.439223 0.165646
Si Si6 0.424308 0.562672 0.657489
Si Si7 0.244438 0.060634 0.594965
O O1 0.406334 0.750000 0.908648
O O2 0.490402 0.503481 0.164625
O O3 0.405236 0.510933 0.755552
O O4 0.332778 0.496572 0.796517
O O5 0.155117 0.250000 0.119235
O O6 0.214075 0.488286 0.148312
O O7 0.196309 0.490806 0.353321
O O8 0.072366 0.503543 0.894089
O O9 0.172550 0.250000 0.683612
O O10 0.204515 0.006518 0.626948
O O11 0.084486 0.009243 0.499632
O O12 0.228816 0.009929 0.936778
O O13 0.003585 0.250000 0.369571
O O14 0.000000 0.000000 0.500000
O O15 0.272204 0.250000 0.174066
O O16 0.355205 0.503446 0.399844
O O17 0.427295 0.750000 0.663384
O O18 0.244852 0.250000 0.595819
#
# Coordination Sequence:
#
# PCOD9157573 Si02
#       7
#     4   4   4   4   4   4   4
#     4  10  20  34  54  82 114 143 177 225 275 319
#     4  10  20  34  56  83 109 142 183 225 271 323
#     4   9  20  37  56  78 109 147 181 221 275 327
#     4  11  21  36  57  82 111 144 185 229 274 320
#     4  10  18  34  56  80 109 142 183 225 270 319
#     4  10  20  33  54  84 112 140 182 225 269 320
#     4  10  20  37  58  79 109 147 183 220 271 329
#
# _framework density 18.081423000000001
#
# number of rings (size 3 to 8) (size 9 to 14) (size 15 to 20)
#    0.000    2.000    2.857    1.286    0.000    2.857 
#    0.000    2.857    0.000    0.000    0.000    0.000 
#    0.000    0.000    0.000    0.000    0.000    0.000 
#
# Total GULP energy -156329.622291 kJ/mol
# GULP energy per Si atom -5583.200796 kJ/mol
# Density = 1.804027 g / cm^3
# Si number density = 18.081423 Si / 1000 Ang^3
#
#
#
# Elastic Constant Matrix: (Units=GPa)
#
#
# Indices 1 2 3 4 5 6 
#
# 1 161.0093 24.7653 98.9431 0.0000 7.9312 0.0000
# 2 24.7653 13.4354 24.4933 0.0000 0.3793 0.0000
# 3 98.9431 24.4933 168.9928 0.0000 16.2991 0.0000
# 4 0.0000 0.0000 0.0000 29.9013 0.0000 11.4168
# 5 7.9312 0.3793 16.2991 0.0000 33.0310 0.0000
# 6 0.0000 0.0000 0.0000 11.4168 0.0000 16.5588
#
#
#
# Elastic Compliance Matrix: (Units=1/GPa)
#
#
# Indices 1 2 3 4 5 6 
#
# 1 0.010860 -0.011486 -0.004678 0.000000 -0.000168 0.000000
# 2 -0.011486 0.114603 -0.010525 0.000000 0.006636 0.000000
# 3 -0.004678 -0.010525 0.010564 0.000000 -0.003969 0.000000
# 4 0.000000 0.000000 0.000000 0.045393 0.000000 -0.031297
# 5 -0.000168 0.006636 -0.003969 0.000000 0.032197 0.000000
# 6 0.000000 0.000000 0.000000 -0.031297 0.000000 0.081969
#
#
# Mechanical properties :
#
#
# Convention : Reuss Voigt Hill
#
# Bulk Modulus (GPa) = 12.09927 71.09342 41.59635
# Shear Modulus (GPa) = 13.27968 28.91396 21.09682
#
# Velocity S-wave (km/s) = 2.71299 4.00321 3.41950
# Velocity P-wave (km/s) = 4.06446 7.79560 6.21656
#
# Compressibility (1/GPa) = 0.08264959
#
# Stress axis : x y z
#
# Youngs Moduli (GPa) = 92.07849 8.72577 94.65816
#
# Poissons Ratio (x) = 0.10023 0.44277
# Poissons Ratio (y) = 1.05766 0.99628
# Poissons Ratio (z) = 0.43070 0.09184
#
# Static dielectric constant tensor:
#      x y z
#    x 1.606260 0.000000 -0.008250 
#    y 0.000000 1.614840 0.000000 
#    z -0.008250 0.000000 1.600300 
# 
# From -- ./inp_files/28599.got.cif
#   From: 2010.05.17/outbox.cif.g08.bks.cpg/sg11_15_cif.got.tgz:28599.got - 2010.06.03 12:22:45.
