data_PCOD9157492
_publ_section_title
;
Structure prediction by ZEFSAII (Michael W. Deem and Ramdas Pophale) SiO2 
 PCOD9157492
Probable space group: P 21/M
;
_chemical_formula_sum "Si O2"
_cell_formula_units_Z 32
_cell_length_a 13.213475
_cell_length_b 8.177220
_cell_length_c 32.906711
_cell_angle_alpha 90.000000
_cell_angle_beta 153.160894
_cell_angle_gamma 90.000000
_cell_volume 1605.284900
_symmetry_space_group_name_H-M "P 21/M"
_symmetry_group_IT_number 11
_symmetry_cell_setting 'monoclinic'
loop_
_space_group_symop_operation_xyz
x,y,z
-x,1/2+y,-z
-x,-y,-z
x,1/2-y,z
loop_
_atom_site_type_symbol
_atom_site_label
_atom_site_fract_x
_atom_site_fract_y
_atom_site_fract_z
Si Si1 0.618830 0.056687 0.668810
Si Si2 0.434077 0.446907 0.217129
Si Si3 0.750244 0.446067 0.400437
Si Si4 0.836077 0.946229 0.211056
Si Si5 0.050870 0.549744 0.926199
Si Si6 0.888744 0.061203 0.140605
Si Si7 0.660419 0.445285 0.593319
Si Si8 0.433117 0.552623 0.123679
O O1 0.676897 0.250000 0.691089
O O2 0.558362 0.014686 0.600798
O O3 0.418595 0.017689 0.626872
O O4 0.841301 0.956811 0.759570
O O5 0.427204 0.250000 0.215319
O O6 0.648550 0.499614 0.320483
O O7 0.442009 0.499968 0.173410
O O8 0.203904 0.504470 0.156504
O O9 0.739539 0.250000 0.398198
O O10 0.000000 0.500000 0.500000
O O11 0.840377 0.750000 0.215912
O O12 0.642453 0.007250 0.171567
O O13 0.082685 0.008846 0.312871
O O14 0.798455 0.983100 0.149814
O O15 0.048308 0.750000 0.923268
O O16 0.154234 0.493007 0.920087
O O17 0.207359 0.499713 0.019662
O O18 0.820994 0.250000 0.116940
O O19 0.500000 0.500000 0.500000
O O20 0.676805 0.250000 0.596420
O O21 0.435932 0.750000 0.123847
#
# Coordination Sequence:
#
# PCOD9157492 Si02
#       8
#     4   4   4   4   4   4   4   4
#     4  10  20  36  56  81 112 144 183 233 282 334
#     4  10  21  39  58  80 116 150 187 239 286 333
#     4  11  23  39  59  85 115 149 187 235 289 338
#     4   9  20  37  52  77 115 146 181 236 289 334
#     4   9  18  35  58  84 113 147 188 237 289 339
#     4  10  18  33  58  83 109 147 189 230 281 339
#     4   9  19  34  53  77 105 139 182 228 276 332
#     4  10  21  37  58  82 114 154 191 233 288 347
#
# _framework density 19.934156000000002
#
# number of rings (size 3 to 8) (size 9 to 14) (size 15 to 20)
#    0.000    2.250    1.250    2.250    0.000    5.500 
#    0.000    3.750    0.000    0.000    0.000    0.000 
#    0.000    0.000    0.000    0.000    0.000    0.000 
#
# Total GULP energy -178555.265252 kJ/mol
# GULP energy per Si atom -5579.852039 kJ/mol
# Density = 1.988878 g / cm^3
# Si number density = 19.934156 Si / 1000 Ang^3
#
#
#
# Elastic Constant Matrix: (Units=GPa)
#
#
# Indices 1 2 3 4 5 6 
#
# 1 109.2543 3.6490 54.2426 0.0000 -19.7323 0.0000
# 2 3.6490 11.6519 9.9075 0.0000 -2.8199 0.0000
# 3 54.2426 9.9075 114.6727 0.0000 -27.7383 0.0000
# 4 0.0000 0.0000 0.0000 17.0907 0.0000 -5.2386
# 5 -19.7323 -2.8199 -27.7383 0.0000 35.3819 0.0000
# 6 0.0000 0.0000 0.0000 -5.2386 0.0000 30.6856
#
#
#
# Elastic Compliance Matrix: (Units=1/GPa)
#
#
# Indices 1 2 3 4 5 6 
#
# 1 0.012202 0.001284 -0.005198 0.000000 0.002833 0.000000
# 2 0.001284 0.092816 -0.008223 0.000000 0.001666 0.000000
# 3 -0.005198 -0.008223 0.013611 0.000000 0.007116 0.000000
# 4 0.000000 0.000000 0.000000 0.061742 0.000000 0.010541
# 5 0.002833 0.001666 0.007116 0.000000 0.035555 0.000000
# 6 0.000000 0.000000 0.000000 0.010541 0.000000 0.034388
#
#
# Mechanical properties :
#
#
# Convention : Reuss Voigt Hill
#
# Bulk Modulus (GPa) = 10.59825 41.24190 25.92007
# Shear Modulus (GPa) = 16.33769 27.81695 22.07732
#
# Velocity S-wave (km/s) = 2.86594 3.73961 3.33154
# Velocity P-wave (km/s) = 4.03481 6.27537 5.27541
#
# Compressibility (1/GPa) = 0.09435524
#
# Stress axis : x y z
#
# Youngs Moduli (GPa) = 81.95239 10.77395 73.47029
#
# Poissons Ratio (x) = -0.01383 0.38187
# Poissons Ratio (y) = -0.10520 0.60417
# Poissons Ratio (z) = 0.42596 0.08860
#
# Static dielectric constant tensor:
#      x y z
#    x 1.694220 0.000000 -0.005360 
#    y 0.000000 1.715170 0.000000 
#    z -0.005360 0.000000 1.705370 
# 
# From -- ./inp_files/54248.got.cif
#   From: 2010.05.17/outbox.cif.g08.bks.cpg/sg11_28_cif.got.tgz:54248.got - 2010.06.03 12:22:45.
