data_PCOD9157147
_publ_section_title
;
Structure prediction by ZEFSAII (Michael W. Deem and Ramdas Pophale) SiO2 
 PCOD9157147
Probable space group: P 21/M
;
_chemical_formula_sum "Si O2"
_cell_formula_units_Z 18
_cell_length_a 15.486296
_cell_length_b 10.487436
_cell_length_c 10.800542
_cell_angle_alpha 90.000000
_cell_angle_beta 149.516855
_cell_angle_gamma 90.000000
_cell_volume 889.844950
_symmetry_space_group_name_H-M "P 21/M"
_symmetry_group_IT_number 11
_symmetry_cell_setting 'monoclinic'
loop_
_space_group_symop_operation_xyz
x,y,z
-x,1/2+y,-z
-x,-y,-z
x,1/2-y,z
loop_
_atom_site_type_symbol
_atom_site_label
_atom_site_fract_x
_atom_site_fract_y
_atom_site_fract_z
Si Si1 0.016916 0.250000 0.745556
Si Si2 0.411677 0.492933 0.756107
Si Si3 0.003225 0.464858 0.252035
Si Si4 0.193272 0.750000 0.113650
Si Si5 0.649022 0.250000 0.422791
Si Si6 0.066639 0.750000 0.632979
Si Si7 0.418200 0.750000 0.142711
O O1 0.076945 0.393138 0.856319
O O2 0.821915 0.250000 0.554062
O O3 0.030055 0.250000 0.613882
O O4 0.452150 0.624141 0.737108
O O5 0.476916 0.375444 0.755944
O O6 0.206976 0.478613 0.507329
O O7 0.500000 0.500000 0.000000
O O8 0.965077 0.378085 0.326572
O O9 0.926480 0.374306 0.050395
O O10 0.290447 0.750000 0.361727
O O11 0.325676 0.750000 0.161627
O O12 0.266972 0.750000 0.854473
#
# Coordination Sequence:
#
# PCOD9157147 Si02
#       7
#     2   4   4   2   2   2   2
#     4  10  18  31  54  86 109 144 189 235 286 333
#     4  11  21  38  62  91 117 151 192 241 302 349
#     4   9  20  36  59  82 118 153 186 239 288 349
#     4  10  23  43  56  81 116 160 202 234 291 341
#     4  10  24  39  59  83 119 153 194 247 284 351
#     4  10  19  35  56  86 122 151 186 238 295 351
#     4  10  20  36  59  82 118 156 193 240 284 348
#
# _framework density 20.228242000000002
#
# number of rings (size 3 to 8) (size 9 to 14) (size 15 to 20)
#    0.000    2.222    0.000    5.333    0.000    6.222 
#    0.000    5.556    0.000    5.333    0.000    0.000 
#    0.000    0.000    0.000    0.000    0.000    0.000 
#
# Total GULP energy -100331.513022 kJ/mol
# GULP energy per Si atom -5573.972946 kJ/mol
# Density = 2.018220 g / cm^3
# Si number density = 20.228242 Si / 1000 Ang^3
#
#
#
# Elastic Constant Matrix: (Units=GPa)
#
#
# Indices 1 2 3 4 5 6 
#
# 1 74.4199 45.1637 18.0905 0.0000 -48.0325 0.0000
# 2 45.1637 235.9512 49.7033 0.0000 -20.6397 0.0000
# 3 18.0905 49.7033 104.6618 0.0000 19.5782 0.0000
# 4 0.0000 0.0000 0.0000 4.1802 0.0000 -31.5671
# 5 -48.0325 -20.6397 19.5782 0.0000 115.3162 0.0000
# 6 0.0000 0.0000 0.0000 -31.5671 0.0000 -30.6703
#
#
#
# Elastic Compliance Matrix: (Units=1/GPa)
#
#
# Indices 1 2 3 4 5 6 
#
# 1 0.022185 -0.002474 -0.004447 0.000000 0.009553 0.000000
# 2 -0.002474 0.005170 -0.002074 0.000000 0.000247 0.000000
# 3 -0.004447 -0.002074 0.012109 0.000000 -0.004279 0.000000
# 4 0.000000 0.000000 0.000000 0.027270 0.000000 -0.028067
# 5 0.009553 0.000247 -0.004279 0.000000 0.013422 0.000000
# 6 0.000000 0.000000 0.000000 -0.028067 0.000000 -0.003717
#
#
# Mechanical properties :
#
#
# Convention : Reuss Voigt Hill
#
# Bulk Modulus (GPa) = 46.56642 71.21644 58.89143
# Shear Modulus (GPa) = 49.21898 37.90358 43.56128
#
# Velocity S-wave (km/s) = 4.93808 4.33343 4.64560
# Velocity P-wave (km/s) = 7.45542 7.76666 7.61263
#
# Compressibility (1/GPa) = 0.02147470
#
# Stress axis : x y z
#
# Youngs Moduli (GPa) = 45.07451 193.41597 82.58661
#
# Poissons Ratio (x) = 0.47855 0.36724
# Poissons Ratio (y) = 0.11152 0.17127
# Poissons Ratio (z) = 0.20043 0.40111
#
# Static dielectric constant tensor:
#      x y z
#    x 1.715100 0.000000 0.016540 
#    y 0.000000 1.791710 0.000000 
#    z 0.016540 0.000000 1.719770 
# 
# From -- ./inp_files/39103.got.cif
#   From: 2010.05.17/outbox.cif.g08.bks.cpg/sg11_20_cif.got.tgz:39103.got - 2010.06.03 12:22:45.
