data_PCOD9157897
_publ_section_title
;
Structure prediction by ZEFSAII (Michael W. Deem and Ramdas Pophale) SiO2 
 PCOD9157897
Probable space group: P 21/M
;
_chemical_formula_sum "Si O2"
_cell_formula_units_Z 32
_cell_length_a 22.216489
_cell_length_b 8.527594
_cell_length_c 22.213320
_cell_angle_alpha 90.000000
_cell_angle_beta 25.818970
_cell_angle_gamma 90.000000
_cell_volume 1832.874179
_symmetry_space_group_name_H-M "P 21/M"
_symmetry_group_IT_number 11
_symmetry_cell_setting 'monoclinic'
loop_
_space_group_symop_operation_xyz
x,y,z
-x,1/2+y,-z
-x,-y,-z
x,1/2-y,z
loop_
_atom_site_type_symbol
_atom_site_label
_atom_site_fract_x
_atom_site_fract_y
_atom_site_fract_z
Si Si1 0.625791 0.938103 0.926117
Si Si2 0.999530 0.439809 0.312675
Si Si3 0.309332 0.061245 0.999050
Si Si4 0.375026 0.561300 0.691226
Si Si5 0.928273 0.436613 0.624402
Si Si6 0.248504 0.939555 0.549731
Si Si7 0.682406 0.059990 0.383859
Si Si8 0.445798 0.937894 0.755266
O O1 0.628507 0.750000 0.921884
O O2 0.771867 0.000336 0.770246
O O3 0.618098 0.986150 0.003443
O O4 0.500000 0.000000 0.000000
O O5 0.997296 0.250000 0.318196
O O6 0.994940 0.504979 0.384347
O O7 0.873896 0.493062 0.383721
O O8 0.148415 0.484944 0.150957
O O9 0.314556 0.250000 0.990676
O O10 0.379819 0.993346 0.876657
O O11 0.368873 0.750000 0.697668
O O12 0.285087 0.509222 0.714128
O O13 0.530861 0.507945 0.535136
O O14 0.357118 0.507494 0.776250
O O15 0.926491 0.250000 0.625053
O O16 0.000000 0.500000 0.500000
O O17 0.251268 0.750000 0.545185
O O18 0.228079 0.986028 0.638441
O O19 0.398237 0.999261 0.393634
O O20 0.674590 0.250000 0.390929
O O21 0.451204 0.750000 0.749533
#
# Coordination Sequence:
#
# PCOD9157897 Si02
#       8
#     4   4   4   4   4   4   4   4
#     4  10  21  38  58  80 104 131 165 205 249 296
#     4   9  19  36  54  73  98 128 164 204 246 293
#     4   9  19  35  52  69  95 130 163 196 236 286
#     4   8  14  24  38  61  93 123 153 194 240 283
#     4  11  22  37  57  79 103 133 167 204 247 295
#     4   9  17  30  50  73  96 124 160 203 248 292
#     4   8  13  23  41  64  89 120 156 193 239 290
#     4  10  19  29  45  71 100 128 161 202 243 285
#
# _framework density 17.458917
#
# number of rings (size 3 to 8) (size 9 to 14) (size 15 to 20)
#    0.000    2.750    0.000    2.625    0.000    4.500 
#    0.000    1.250    0.000    0.750    0.000    0.000 
#    0.000    0.000    0.000    0.000    0.000    1.125 
#
# Total GULP energy -178200.340038 kJ/mol
# GULP energy per Si atom -5568.760626 kJ/mol
# Density = 1.741918 g / cm^3
# Si number density = 17.458917 Si / 1000 Ang^3
#
#
#
# Elastic Constant Matrix: (Units=GPa)
#
#
# Indices 1 2 3 4 5 6 
#
# 1 215.3420 33.8200 99.1756 0.0000 17.6751 0.0000
# 2 33.8200 22.2863 20.9005 0.0000 6.2913 0.0000
# 3 99.1756 20.9005 63.6474 0.0000 14.3941 0.0000
# 4 0.0000 0.0000 0.0000 17.3523 0.0000 -2.1994
# 5 17.6751 6.2913 14.3941 0.0000 21.8511 0.0000
# 6 0.0000 0.0000 0.0000 -2.1994 0.0000 20.5353
#
#
#
# Elastic Compliance Matrix: (Units=1/GPa)
#
#
# Indices 1 2 3 4 5 6 
#
# 1 0.016831 -0.001819 -0.026637 0.000000 0.004456 0.000000
# 2 -0.001819 0.065593 -0.017352 0.000000 -0.005984 0.000000
# 3 -0.026637 -0.017352 0.066876 0.000000 -0.017511 0.000000
# 4 0.000000 0.000000 0.000000 0.058422 0.000000 0.006257
# 5 0.004456 -0.005984 -0.017511 0.000000 0.055418 0.000000
# 6 0.000000 0.000000 0.000000 0.006257 0.000000 0.049367
#
#
# Mechanical properties :
#
#
# Convention : Reuss Voigt Hill
#
# Bulk Modulus (GPa) = 17.33567 67.67421 42.50494
# Shear Modulus (GPa) = 11.81051 21.77306 16.79178
#
# Velocity S-wave (km/s) = 2.60373 3.53526 3.10464
# Velocity P-wave (km/s) = 4.35777 7.45052 6.10330
#
# Compressibility (1/GPa) = 0.05768454
#
# Stress axis : x y z
#
# Youngs Moduli (GPa) = 59.41248 15.24550 14.95308
#
# Poissons Ratio (x) = 0.02773 0.39831
# Poissons Ratio (y) = 0.10808 0.25946
# Poissons Ratio (z) = 1.58258 0.26453
#
# Static dielectric constant tensor:
#      x y z
#    x 1.646380 0.000000 0.006720 
#    y 0.000000 1.581570 0.000000 
#    z 0.006720 0.000000 1.557060 
# 
# From -- ./inp_files/66436.got.cif
#   From: 2010.05.17/outbox.cif.g08.bks.cpg/sg11_34_cif.got.tgz:66436.got - 2010.06.03 12:22:45.
