data_PCOD9157609
_publ_section_title
;
Structure prediction by ZEFSAII (Michael W. Deem and Ramdas Pophale) SiO2 
 PCOD9157609
Probable space group: P 21/M
;
_chemical_formula_sum "Si O2"
_cell_formula_units_Z 32
_cell_length_a 11.525251
_cell_length_b 8.413452
_cell_length_c 29.658974
_cell_angle_alpha 90.000000
_cell_angle_beta 149.675199
_cell_angle_gamma 90.000000
_cell_volume 1452.068921
_symmetry_space_group_name_H-M "P 21/M"
_symmetry_group_IT_number 11
_symmetry_cell_setting 'monoclinic'
loop_
_space_group_symop_operation_xyz
x,y,z
-x,1/2+y,-z
-x,-y,-z
x,1/2-y,z
loop_
_atom_site_type_symbol
_atom_site_label
_atom_site_fract_x
_atom_site_fract_y
_atom_site_fract_z
Si Si1 0.549186 0.060346 0.714169
Si Si2 0.480851 0.441116 0.794253
Si Si3 0.957160 0.438219 0.119659
Si Si4 0.774020 0.558782 0.649262
Si Si5 0.688542 0.938642 0.950690
Si Si6 0.323636 0.558164 0.554320
Si Si7 0.242992 0.555992 0.856451
Si Si8 0.031493 0.558445 0.374585
O O1 0.576380 0.250000 0.722831
O O2 0.513214 0.007721 0.753601
O O3 0.349929 0.013374 0.612641
O O4 0.786496 0.979238 0.778670
O O5 0.480463 0.250000 0.794474
O O6 0.665504 0.496927 0.892597
O O7 0.225660 0.498713 0.722632
O O8 0.932885 0.250000 0.107534
O O9 0.785458 0.497540 0.101330
O O10 0.903507 0.513960 0.053420
O O11 0.770839 0.750000 0.647644
O O12 0.550461 0.507687 0.601980
O O13 0.793648 0.498836 0.604857
O O14 0.009849 0.507083 0.752762
O O15 0.676687 0.750000 0.944353
O O16 0.466754 0.000228 0.904746
O O17 0.324369 0.750000 0.558367
O O18 0.111572 0.510358 0.451452
O O19 0.248611 0.750000 0.858709
O O20 0.030826 0.750000 0.373656
#
# Coordination Sequence:
#
# PCOD9157609 Si02
#       8
#     4   4   4   4   4   4   4   4
#     4  11  24  41  60  83 113 151 199 247 285 335
#     4  10  23  42  59  81 116 154 195 244 291 333
#     4  11  22  40  63  87 119 154 186 232 292 346
#     4  10  18  34  58  86 120 153 186 232 287 344
#     4  11  22  38  61  90 118 149 192 235 281 346
#     4  10  21  38  60  86 120 155 189 234 291 346
#     4   9  18  34  58  87 119 151 184 229 285 341
#     4  10  21  37  59  88 118 153 194 236 285 344
#
# _framework density 22.037519
#
# number of rings (size 3 to 8) (size 9 to 14) (size 15 to 20)
#    0.000    1.750    2.500    1.875    0.000    3.000 
#    0.000    1.875    0.000    0.000    0.000    0.000 
#    0.000    0.000    0.000    0.000    0.000    0.000 
#
# Total GULP energy -178854.273907 kJ/mol
# GULP energy per Si atom -5589.196060 kJ/mol
# Density = 2.198736 g / cm^3
# Si number density = 22.037519 Si / 1000 Ang^3
#
#
#
# Elastic Constant Matrix: (Units=GPa)
#
#
# Indices 1 2 3 4 5 6 
#
# 1 75.4981 10.8689 5.8768 0.0000 -35.6744 0.0000
# 2 10.8689 10.0468 0.7577 0.0000 -7.3026 0.0000
# 3 5.8768 0.7577 84.1766 0.0000 -37.1611 0.0000
# 4 0.0000 0.0000 0.0000 24.4512 0.0000 -8.6990
# 5 -35.6744 -7.3026 -37.1611 0.0000 43.2436 0.0000
# 6 0.0000 0.0000 0.0000 -8.6990 0.0000 23.3077
#
#
#
# Elastic Compliance Matrix: (Units=1/GPa)
#
#
# Indices 1 2 3 4 5 6 
#
# 1 0.029663 -0.008027 0.013222 0.000000 0.034478 0.000000
# 2 -0.008027 0.123667 0.009254 0.000000 0.022214 0.000000
# 3 0.013222 0.009254 0.026391 0.000000 0.035149 0.000000
# 4 0.000000 0.000000 0.000000 0.047160 0.000000 0.017601
# 5 0.034478 0.022214 0.035149 0.000000 0.085524 0.000000
# 6 0.000000 0.000000 0.000000 0.017601 0.000000 0.049474
#
#
# Mechanical properties :
#
#
# Convention : Reuss Voigt Hill
#
# Bulk Modulus (GPa) = 4.79341 22.74757 13.77049
# Shear Modulus (GPa) = 12.42173 28.34837 20.38505
#
# Velocity S-wave (km/s) = 2.37673 3.59049 3.04471
# Velocity P-wave (km/s) = 3.11635 5.24723 4.31538
#
# Compressibility (1/GPa) = 0.20861970
#
# Stress axis : x y z
#
# Youngs Moduli (GPa) = 33.71167 8.08621 37.89242
#
# Poissons Ratio (x) = 0.06491 -0.50102
# Poissons Ratio (y) = 0.27060 -0.35066
# Poissons Ratio (z) = -0.44574 -0.07483
#
# Static dielectric constant tensor:
#      x y z
#    x 1.833610 0.000000 0.002460 
#    y 0.000000 1.750630 0.000000 
#    z 0.002460 0.000000 1.807720 
# 
# From -- ./inp_files/42890.got.cif
#   From: 2010.05.17/outbox.cif.g08.bks.cpg/sg11_22_cif.got.tgz:42890.got - 2010.06.03 12:22:45.
