data_PCOD9157256
_publ_section_title
;
Structure prediction by ZEFSAII (Michael W. Deem and Ramdas Pophale) SiO2 
 PCOD9157256
Probable space group: P 21/M
;
_chemical_formula_sum "Si O2"
_cell_formula_units_Z 28
_cell_length_a 9.751689
_cell_length_b 8.601039
_cell_length_c 30.655331
_cell_angle_alpha 90.000000
_cell_angle_beta 142.651870
_cell_angle_gamma 90.000000
_cell_volume 1559.838217
_symmetry_space_group_name_H-M "P 21/M"
_symmetry_group_IT_number 11
_symmetry_cell_setting 'monoclinic'
loop_
_space_group_symop_operation_xyz
x,y,z
-x,1/2+y,-z
-x,-y,-z
x,1/2-y,z
loop_
_atom_site_type_symbol
_atom_site_label
_atom_site_fract_x
_atom_site_fract_y
_atom_site_fract_z
Si Si1 0.146658 0.563956 0.721471
Si Si2 0.347771 0.436002 0.001482
Si Si3 0.934590 0.563706 0.436652
Si Si4 0.728340 0.563944 0.152327
Si Si5 0.534996 0.562505 0.274690
Si Si6 0.247537 0.936986 0.434497
Si Si7 0.970044 0.564364 0.851182
O O1 0.158432 0.750000 0.724232
O O2 0.196382 0.498923 0.781912
O O3 0.328411 0.494851 0.733244
O O4 0.902582 0.508268 0.642246
O O5 0.650216 0.750000 0.997965
O O6 0.478894 0.500821 0.076561
O O7 0.500000 0.500000 0.000000
O O8 0.100746 0.498701 0.926830
O O9 0.933435 0.750000 0.438627
O O10 0.691182 0.515911 0.355583
O O11 0.000000 0.500000 0.500000
O O12 0.117658 0.518671 0.446273
O O13 0.727214 0.750000 0.151100
O O14 0.899788 0.502687 0.158317
O O15 0.520413 0.750000 0.269934
O O16 0.287900 0.489938 0.214336
O O17 0.245459 0.750000 0.430285
O O18 0.500000 0.000000 0.500000
O O19 0.988248 0.750000 0.855257
#
# Coordination Sequence:
#
# PCOD9157256 Si02
#       7
#     4   4   4   4   4   4   4
#     4  11  22  38  58  82 110 145 184 227 277 332
#     4  10  18  32  53  79 110 144 180 225 274 323
#     4   9  20  36  56  79 107 139 177 219 266 319
#     4  11  21  36  57  82 111 146 184 228 275 325
#     4  10  21  39  57  79 111 148 183 223 275 331
#     4  10  21  38  57  81 110 144 182 225 273 327
#     4  11  21  35  56  84 112 144 185 229 272 323
#
# _framework density 17.950579999999999
#
# number of rings (size 3 to 8) (size 9 to 14) (size 15 to 20)
#    0.000    1.714    0.000    8.571    0.000    4.571 
#    0.000    3.571    0.000    0.000    0.000    0.000 
#    0.000    0.000    0.000    0.000    0.000    0.000 
#
# Total GULP energy -156353.551800 kJ/mol
# GULP energy per Si atom -5584.055421 kJ/mol
# Density = 1.790972 g / cm^3
# Si number density = 17.950580 Si / 1000 Ang^3
#
#
#
# Elastic Constant Matrix: (Units=GPa)
#
#
# Indices 1 2 3 4 5 6 
#
# 1 55.1915 33.0110 85.8552 0.0000 4.0303 0.0000
# 2 33.0110 142.4453 71.6899 0.0000 -1.2582 0.0000
# 3 85.8552 71.6899 210.1093 0.0000 0.8697 0.0000
# 4 0.0000 0.0000 0.0000 37.9180 0.0000 0.2474
# 5 4.0303 -1.2582 0.8697 0.0000 35.8230 0.0000
# 6 0.0000 0.0000 0.0000 0.2474 0.0000 30.3358
#
#
#
# Elastic Compliance Matrix: (Units=1/GPa)
#
#
# Indices 1 2 3 4 5 6 
#
# 1 0.051008 -0.001677 -0.020249 0.000000 -0.005306 0.000000
# 2 -0.001677 0.008536 -0.002229 0.000000 0.000543 0.000000
# 3 -0.020249 -0.002229 0.013786 0.000000 0.001865 0.000000
# 4 0.000000 0.000000 0.000000 0.026374 0.000000 -0.000215
# 5 -0.005306 0.000543 0.001865 0.000000 0.028486 0.000000
# 6 0.000000 0.000000 0.000000 -0.000215 0.000000 0.032966
#
#
# Mechanical properties :
#
#
# Convention : Reuss Voigt Hill
#
# Bulk Modulus (GPa) = 39.96831 87.65093 63.80962
# Shear Modulus (GPa) = 22.95619 35.29470 29.12545
#
# Velocity S-wave (km/s) = 3.57999 4.43901 4.03244
# Velocity P-wave (km/s) = 6.27714 8.67226 7.57003
#
# Compressibility (1/GPa) = 0.02501982
#
# Stress axis : x y z
#
# Youngs Moduli (GPa) = 19.60480 117.15548 72.53480
#
# Poissons Ratio (x) = 0.19646 1.46874
# Poissons Ratio (y) = 0.03288 0.16171
# Poissons Ratio (z) = 0.39697 0.26119
#
# Static dielectric constant tensor:
#      x y z
#    x 1.618270 0.000000 -0.000630 
#    y 0.000000 1.599390 0.000000 
#    z -0.000630 0.000000 1.630450 
# 
# From -- ./inp_files/28321.got.cif
#   From: 2010.05.17/outbox.cif.g08.bks.cpg/sg11_15_cif.got.tgz:28321.got - 2010.06.03 12:22:45.
