data_PCOD9157471
_publ_section_title
;
Structure prediction by ZEFSAII (Michael W. Deem and Ramdas Pophale) SiO2 
 PCOD9157471
Probable space group: P 21/M
;
_chemical_formula_sum "Si O2"
_cell_formula_units_Z 24
_cell_length_a 9.929804
_cell_length_b 8.328363
_cell_length_c 17.005564
_cell_angle_alpha 90.000000
_cell_angle_beta 112.754013
_cell_angle_gamma 90.000000
_cell_volume 1296.893105
_symmetry_space_group_name_H-M "P 21/M"
_symmetry_group_IT_number 11
_symmetry_cell_setting 'monoclinic'
loop_
_space_group_symop_operation_xyz
x,y,z
-x,1/2+y,-z
-x,-y,-z
x,1/2-y,z
loop_
_atom_site_type_symbol
_atom_site_label
_atom_site_fract_x
_atom_site_fract_y
_atom_site_fract_z
Si Si1 0.285416 0.059932 0.636811
Si Si2 0.168293 0.940580 0.768794
Si Si3 0.530073 0.938816 0.093989
Si Si4 0.333513 0.444234 0.473083
Si Si5 0.587343 0.559276 0.774658
Si Si6 0.843187 0.945620 0.720604
O O1 0.256741 0.250000 0.634288
O O2 0.272568 0.002986 0.544128
O O3 0.187777 0.973089 0.680099
O O4 0.452784 0.027832 0.700989
O O5 0.180958 0.750000 0.785209
O O6 0.010257 0.999511 0.760967
O O7 0.303824 0.023669 0.842529
O O8 0.504745 0.750000 0.092556
O O9 0.429750 0.022795 0.137300
O O10 0.500000 0.000000 0.000000
O O11 0.500000 0.500000 0.500000
O O12 0.334339 0.250000 0.473620
O O13 0.236132 0.498549 0.377641
O O14 0.568402 0.750000 0.757493
O O15 0.739147 0.508644 0.769453
O O16 0.847687 0.750000 0.719683
#
# Coordination Sequence:
#
# PCOD9157471 Si02
#       6
#     4   4   4   4   4   4
#     4  10  19  31  49  76 108 143 185 230 267 308
#     4  10  20  36  56  78 108 145 179 217 269 320
#     4  11  22  39  61  85 108 133 172 216 262 322
#     4  10  19  32  50  75 107 144 188 231 265 306
#     4  10  18  33  57  80 106 142 180 217 265 317
#     4   9  19  34  53  78 110 145 182 223 267 314
#
# _framework density 18.505766999999999
#
# number of rings (size 3 to 8) (size 9 to 14) (size 15 to 20)
#    0.000    2.000    1.667    5.000    0.000    1.333 
#    0.000    5.833    0.000    0.000    0.000    0.000 
#    0.000    0.000    0.000    0.000    0.000    0.000 
#
# Total GULP energy -133971.256902 kJ/mol
# GULP energy per Si atom -5582.135704 kJ/mol
# Density = 1.846365 g / cm^3
# Si number density = 18.505767 Si / 1000 Ang^3
#
#
#
# Elastic Constant Matrix: (Units=GPa)
#
#
# Indices 1 2 3 4 5 6 
#
# 1 129.0480 -10.0086 44.2655 0.0000 -10.3620 0.0000
# 2 -10.0086 17.1491 -7.2251 0.0000 3.4750 0.0000
# 3 44.2655 -7.2251 104.2094 0.0000 -20.7624 0.0000
# 4 0.0000 0.0000 0.0000 24.9950 0.0000 -2.0173
# 5 -10.3620 3.4750 -20.7624 0.0000 19.8492 0.0000
# 6 0.0000 0.0000 0.0000 -2.0173 0.0000 17.8542
#
#
#
# Elastic Compliance Matrix: (Units=1/GPa)
#
#
# Indices 1 2 3 4 5 6 
#
# 1 0.009318 0.003833 -0.003609 0.000000 0.000418 0.000000
# 2 0.003833 0.062610 0.001172 0.000000 -0.007735 0.000000
# 3 -0.003609 0.001172 0.013636 0.000000 0.012174 0.000000
# 4 0.000000 0.000000 0.000000 0.040376 0.000000 0.004562
# 5 0.000418 -0.007735 0.012174 0.000000 0.064687 0.000000
# 6 0.000000 0.000000 0.000000 0.004562 0.000000 0.056525
#
#
# Mechanical properties :
#
#
# Convention : Reuss Voigt Hill
#
# Bulk Modulus (GPa) = 11.31799 33.83004 22.57401
# Shear Modulus (GPa) = 18.26076 27.43133 22.84604
#
# Velocity S-wave (km/s) = 3.14468 3.85426 3.51741
# Velocity P-wave (km/s) = 4.39483 6.17475 5.35920
#
# Compressibility (1/GPa) = 0.08835493
#
# Stress axis : x y z
#
# Youngs Moduli (GPa) = 107.32128 15.97190 73.33640
#
# Poissons Ratio (x) = -0.06122 0.26466
# Poissons Ratio (y) = -0.41135 -0.08593
# Poissons Ratio (z) = 0.38731 -0.01871
#
# Static dielectric constant tensor:
#      x y z
#    x 1.639490 0.000000 -0.018810 
#    y 0.000000 1.634790 0.000000 
#    z -0.018810 0.000000 1.625320 
# 
# From -- ./inp_files/57418.got.cif
#   From: 2010.05.17/outbox.cif.g08.bks.cpg/sg11_29_cif.got.tgz:57418.got - 2010.06.03 12:22:45.
