data_PCOD9157091
_publ_section_title
;
Structure prediction by ZEFSAII (Michael W. Deem and Ramdas Pophale) SiO2 
 PCOD9157091
Probable space group: P 21/M
;
_chemical_formula_sum "Si O2"
_cell_formula_units_Z 28
_cell_length_a 17.240802
_cell_length_b 10.861892
_cell_length_c 19.022283
_cell_angle_alpha 90.000000
_cell_angle_beta 22.644149
_cell_angle_gamma 90.000000
_cell_volume 1371.493455
_symmetry_space_group_name_H-M "P 21/M"
_symmetry_group_IT_number 11
_symmetry_cell_setting 'monoclinic'
loop_
_space_group_symop_operation_xyz
x,y,z
-x,1/2+y,-z
-x,-y,-z
x,1/2-y,z
loop_
_atom_site_type_symbol
_atom_site_label
_atom_site_fract_x
_atom_site_fract_y
_atom_site_fract_z
Si Si1 0.030369 0.110652 0.164643
Si Si2 0.095612 0.885857 0.214549
Si Si3 0.854529 0.893827 0.092873
Si Si4 0.424028 0.893448 0.423465
Si Si5 0.468883 0.111114 0.115277
Si Si6 0.939316 0.614311 0.600013
Si Si7 0.258528 0.996728 0.421225
O O1 0.066867 0.250000 0.162599
O O2 0.788608 0.095396 0.359322
O O3 0.096999 0.998801 0.158718
O O4 0.125754 0.104469 0.008206
O O5 0.106218 0.750000 0.172106
O O6 0.294593 0.900831 0.096028
O O7 0.890476 0.894134 0.430459
O O8 0.894212 0.750000 0.082048
O O9 0.621451 0.928911 0.301614
O O10 0.000000 0.000000 0.000000
O O11 0.453062 0.750000 0.382035
O O12 0.390873 0.961356 0.377238
O O13 0.446504 0.250000 0.162556
O O14 0.303899 0.104593 0.191201
O O15 0.394634 0.023314 0.239963
O O16 0.978669 0.750000 0.535801
O O17 0.000000 0.500000 0.500000
O O18 0.085756 0.602442 0.544316
#
# Coordination Sequence:
#
# PCOD9157091 Si02
#       7
#     4   4   4   4   4   4   4
#     4   9  19  36  55  77 106 135 168 210 250 295
#     4  10  20  33  52  77 104 137 174 212 256 303
#     4  10  21  37  56  79 106 135 166 202 249 303
#     4   9  18  33  53  75 101 134 168 207 254 299
#     4   9  18  32  47  69 104 138 169 214 265 303
#     4   9  18  32  51  74 102 137 176 218 262 307
#     4  10  18  31  53  75 100 133 175 214 254 303
#
# _framework density 20.415702
#
# number of rings (size 3 to 8) (size 9 to 14) (size 15 to 20)
#    0.000    2.571    0.000    1.714    0.000    2.857 
#    0.000    6.429    0.000    0.000    0.000    0.000 
#    0.000    0.000    0.000    0.000    0.000    0.000 
#
# Total GULP energy -155868.511089 kJ/mol
# GULP energy per Si atom -5566.732539 kJ/mol
# Density = 2.036923 g / cm^3
# Si number density = 20.415702 Si / 1000 Ang^3
#
#
#
# Elastic Constant Matrix: (Units=GPa)
#
#
# Indices 1 2 3 4 5 6 
#
# 1 20.8037 27.2966 16.0871 0.0000 -15.8445 0.0000
# 2 27.2966 121.8906 30.1937 0.0000 -22.4895 0.0000
# 3 16.0871 30.1937 68.1749 0.0000 -34.0761 0.0000
# 4 0.0000 0.0000 0.0000 25.1016 0.0000 -4.7626
# 5 -15.8445 -22.4895 -34.0761 0.0000 39.4659 0.0000
# 6 0.0000 0.0000 0.0000 -4.7626 0.0000 27.6583
#
#
#
# Elastic Compliance Matrix: (Units=1/GPa)
#
#
# Indices 1 2 3 4 5 6 
#
# 1 0.087923 -0.014587 -0.001404 0.000000 0.025775 0.000000
# 2 -0.014587 0.011847 -0.002388 0.000000 -0.001167 0.000000
# 3 -0.001404 -0.002388 0.026556 0.000000 0.021005 0.000000
# 4 0.000000 0.000000 0.000000 0.041184 0.000000 0.007092
# 5 0.025775 -0.001167 0.021005 0.000000 0.053157 0.000000
# 6 0.000000 0.000000 0.000000 0.007092 0.000000 0.037377
#
#
# Mechanical properties :
#
#
# Convention : Reuss Voigt Hill
#
# Bulk Modulus (GPa) = 11.16462 39.78045 25.47254
# Shear Modulus (GPa) = 15.40084 27.59795 21.49940
#
# Velocity S-wave (km/s) = 2.74955 3.68067 3.24864
# Velocity P-wave (km/s) = 3.94468 6.13112 5.15515
#
# Compressibility (1/GPa) = 0.08956864
#
# Stress axis : x y z
#
# Youngs Moduli (GPa) = 11.37353 84.41055 37.65624
#
# Poissons Ratio (x) = 1.23126 0.05287
# Poissons Ratio (y) = 0.16590 0.08994
# Poissons Ratio (z) = 0.01597 0.20160
#
# Static dielectric constant tensor:
#      x y z
#    x 1.734300 0.000000 -0.019020 
#    y 0.000000 1.757330 0.000000 
#    z -0.019020 0.000000 1.773510 
# 
# From -- ./inp_files/66170.got.cif
#   From: 2010.05.17/outbox.cif.g08.bks.cpg/sg11_34_cif.got.tgz:66170.got - 2010.06.03 12:22:45.
