data_PCOD9157638
_publ_section_title
;
Structure prediction by ZEFSAII (Michael W. Deem and Ramdas Pophale) SiO2 
 PCOD9157638
Probable space group: P 21/M
;
_chemical_formula_sum "Si O2"
_cell_formula_units_Z 26
_cell_length_a 8.284248
_cell_length_b 21.885639
_cell_length_c 8.198893
_cell_angle_alpha 90.000000
_cell_angle_beta 51.379738
_cell_angle_gamma 90.000000
_cell_volume 1161.409174
_symmetry_space_group_name_H-M "P 21/M"
_symmetry_group_IT_number 11
_symmetry_cell_setting 'monoclinic'
loop_
_space_group_symop_operation_xyz
x,y,z
-x,1/2+y,-z
-x,-y,-z
x,1/2-y,z
loop_
_atom_site_type_symbol
_atom_site_label
_atom_site_fract_x
_atom_site_fract_y
_atom_site_fract_z
Si Si1 0.037508 0.152564 0.139572
Si Si2 0.389580 0.846694 0.415018
Si Si3 0.426691 0.582047 0.913659
Si Si4 0.098613 0.817236 0.138940
Si Si5 0.349870 0.449634 0.894061
Si Si6 0.598745 0.750000 0.057804
Si Si7 0.647083 0.684054 0.569339
O O1 0.848620 0.149692 0.384367
O O2 0.134325 0.086717 0.032337
O O3 0.221642 0.196205 0.083935
O O4 0.954572 0.179251 0.020335
O O5 0.493983 0.912744 0.321189
O O6 0.442336 0.803808 0.229423
O O7 0.516486 0.816969 0.484886
O O8 0.347932 0.522043 0.868300
O O9 0.567086 0.627071 0.719450
O O10 0.237486 0.624562 0.087494
O O11 0.558395 0.560719 0.983743
O O12 0.194273 0.750000 0.106744
O O13 0.885010 0.820130 0.370847
O O14 0.611503 0.750000 0.677057
#
# Coordination Sequence:
#
# PCOD9157638 Si02
#       7
#     4   4   4   4   4   2   4
#     4  11  20  38  67  94 128 165 212 262 324 375
#     4  11  20  38  67  94 128 165 212 262 324 375
#     4  11  25  44  67  85 140 173 217 266 324 372
#     4  11  21  40  66  98 126 164 214 273 325 383
#     4  10  26  46  58  97 131 179 214 266 314 389
#     4  10  18  34  60  98 130 156 200 264 310 382
#     4  11  21  40  66  98 126 164 214 273 325 383
#
# _framework density 22.386596999999998
#
# number of rings (size 3 to 8) (size 9 to 14) (size 15 to 20)
#    0.000    1.231    6.154    0.923    0.000    3.692 
#   11.077    3.077    0.000    0.000    0.000    0.000 
#    0.000    0.000    0.000    0.000    0.000    0.000 
#
# Total GULP energy -144964.243029 kJ/mol
# GULP energy per Si atom -5575.547809 kJ/mol
# Density = 2.233564 g / cm^3
# Si number density = 22.386597 Si / 1000 Ang^3
#
#
#
# Elastic Constant Matrix: (Units=GPa)
#
#
# Indices 1 2 3 4 5 6 
#
# 1 30.1570 27.9860 23.1823 0.0000 13.6776 0.0000
# 2 27.9860 195.4060 59.3238 0.0000 -17.8064 0.0000
# 3 23.1823 59.3238 122.4108 0.0000 -66.8813 0.0000
# 4 0.0000 0.0000 0.0000 15.8190 0.0000 -8.7395
# 5 13.6776 -17.8064 -66.8813 0.0000 17.0924 0.0000
# 6 0.0000 0.0000 0.0000 -8.7395 0.0000 -8.5056
#
#
#
# Elastic Compliance Matrix: (Units=1/GPa)
#
#
# Indices 1 2 3 4 5 6 
#
# 1 0.018541 -0.003814 0.010493 0.000000 0.022250 0.000000
# 2 -0.003814 0.006414 -0.002577 0.000000 -0.000349 0.000000
# 3 0.010493 -0.002577 -0.001210 0.000000 -0.015814 0.000000
# 4 0.000000 0.000000 0.000000 0.040324 0.000000 -0.041434
# 5 0.022250 -0.000349 -0.015814 0.000000 -0.021541 0.000000
# 6 0.000000 0.000000 0.000000 -0.041434 0.000000 -0.074997
#
#
# Mechanical properties :
#
#
# Convention : Reuss Voigt Hill
#
# Bulk Modulus (GPa) = 31.29700 63.21755 47.25727
# Shear Modulus (GPa) = -166.54079 20.71329 -72.91375
#
# Velocity S-wave (km/s) = -8.63450 3.04510 -5.71323
# Velocity P-wave (km/s) = 9.24097 6.37682 4.72925
#
# Compressibility (1/GPa) = 0.03195194
#
# Stress axis : x y z
#
# Youngs Moduli (GPa) = 53.93372 155.90283 -826.78602
#
# Poissons Ratio (x) = 0.59456 8.67574
# Poissons Ratio (y) = 0.20569 -2.13038
# Poissons Ratio (z) = -0.56594 0.40172
#
# Static dielectric constant tensor:
#      x y z
#    x 1.904490 0.000000 0.059690 
#    y 0.000000 1.839500 0.000000 
#    z 0.059690 0.000000 1.834120 
# 
# From -- ./inp_files/14250.got.cif
#   From: 2010.05.17/outbox.cif.g08.bks.cpg/sg11_8_cif.got.tgz:14250.got - 2010.06.03 12:22:45.
