data_PCOD9157958
_publ_section_title
;
Structure prediction by ZEFSAII (Michael W. Deem and Ramdas Pophale) SiO2 
 PCOD9157958
Probable space group: P 21/M
;
_chemical_formula_sum "Si O2"
_cell_formula_units_Z 24
_cell_length_a 14.126739
_cell_length_b 7.925557
_cell_length_c 24.508891
_cell_angle_alpha 90.000000
_cell_angle_beta 149.552394
_cell_angle_gamma 90.000000
_cell_volume 1390.558727
_symmetry_space_group_name_H-M "P 21/M"
_symmetry_group_IT_number 11
_symmetry_cell_setting 'monoclinic'
loop_
_space_group_symop_operation_xyz
x,y,z
-x,1/2+y,-z
-x,-y,-z
x,1/2-y,z
loop_
_atom_site_type_symbol
_atom_site_label
_atom_site_fract_x
_atom_site_fract_y
_atom_site_fract_z
Si Si1 0.294264 0.948805 0.174403
Si Si2 0.715610 0.048578 0.045067
Si Si3 0.289730 0.454285 0.620772
Si Si4 0.286306 0.545959 0.832903
Si Si5 0.912815 0.949663 0.034477
Si Si6 0.073237 0.953373 0.621570
O O1 0.306585 0.750000 0.192775
O O2 0.501419 0.020028 0.285585
O O3 0.230416 0.970009 0.079940
O O4 0.120283 0.016861 0.123325
O O5 0.732563 0.250000 0.053128
O O6 0.757327 0.986229 0.127306
O O7 0.499823 0.003005 0.926351
O O8 0.846565 0.978870 0.062797
O O9 0.293562 0.250000 0.620289
O O10 0.217028 0.501700 0.644772
O O11 0.130151 0.514452 0.499407
O O12 0.278593 0.750000 0.829759
O O13 0.149786 0.483851 0.717467
O O14 0.911872 0.750000 0.022632
O O15 0.064208 0.750000 0.620022
#
# Coordination Sequence:
#
# PCOD9157958 Si02
#       6
#     4   4   4   4   4   4
#     4   9  18  31  46  65  88 115 146 178 214 256
#     4  10  19  30  45  65  89 116 145 178 216 257
#     4   9  17  29  45  65  88 113 141 174 213 256
#     4   9  18  31  46  65  88 115 146 178 214 256
#     4  10  19  30  45  65  89 116 145 178 216 257
#     4   9  17  29  45  65  88 113 141 174 213 256
#
# _framework density 17.259249000000001
#
# number of rings (size 3 to 8) (size 9 to 14) (size 15 to 20)
#    0.000    2.667    0.000    2.000    0.000    5.333 
#    0.000    0.000    0.000    1.000    0.000    0.000 
#    0.000    0.000    0.000    0.000    0.000    1.000 
#
# Total GULP energy -133782.725811 kJ/mol
# GULP energy per Si atom -5574.280242 kJ/mol
# Density = 1.721997 g / cm^3
# Si number density = 17.259249 Si / 1000 Ang^3
#
#
#
# Elastic Constant Matrix: (Units=GPa)
#
#
# Indices 1 2 3 4 5 6 
#
# 1 105.9523 -4.1871 71.9458 0.0000 -0.3024 0.0000
# 2 -4.1871 11.5364 -2.3356 0.0000 1.5449 0.0000
# 3 71.9458 -2.3356 130.7326 0.0000 0.4972 0.0000
# 4 0.0000 0.0000 0.0000 14.6428 0.0000 0.1808
# 5 -0.3024 1.5449 0.4972 0.0000 24.0501 0.0000
# 6 0.0000 0.0000 0.0000 0.1808 0.0000 21.3194
#
#
#
# Elastic Compliance Matrix: (Units=1/GPa)
#
#
# Indices 1 2 3 4 5 6 
#
# 1 0.015238 0.003831 -0.008318 0.000000 0.000117 0.000000
# 2 0.003831 0.088727 -0.000502 0.000000 -0.005641 0.000000
# 3 -0.008318 -0.000502 0.012219 0.000000 -0.000325 0.000000
# 4 0.000000 0.000000 0.000000 0.068300 0.000000 -0.000579
# 5 0.000117 -0.005641 -0.000325 0.000000 0.041950 0.000000
# 6 0.000000 0.000000 0.000000 -0.000579 0.000000 0.046911
#
#
# Mechanical properties :
#
#
# Convention : Reuss Voigt Hill
#
# Bulk Modulus (GPa) = 9.41562 42.11862 25.76712
# Shear Modulus (GPa) = 15.68751 24.18899 19.93825
#
# Velocity S-wave (km/s) = 3.01812 3.74773 3.40254
# Velocity P-wave (km/s) = 4.19675 6.57144 5.51346
#
# Compressibility (1/GPa) = 0.10620650
#
# Stress axis : x y z
#
# Youngs Moduli (GPa) = 65.62460 11.27056 81.83904
#
# Poissons Ratio (x) = -0.04318 0.68074
# Poissons Ratio (y) = -0.25140 0.04106
# Poissons Ratio (z) = 0.54587 0.00565
#
# Static dielectric constant tensor:
#      x y z
#    x 1.574220 0.000000 -0.000180 
#    y 0.000000 1.621300 0.000000 
#    z -0.000180 0.000000 1.602250 
# 
# From -- ./inp_files/50937.got.cif
#   From: 2010.05.17/outbox.cif.g08.bks.cpg/sg11_26_cif.got.tgz:50937.got - 2010.06.03 12:22:45.
