data_PCOD9157581
_publ_section_title
;
Structure prediction by ZEFSAII (Michael W. Deem and Ramdas Pophale) SiO2 
 PCOD9157581
Probable space group: P 21/M
;
_chemical_formula_sum "Si O2"
_cell_formula_units_Z 32
_cell_length_a 14.825241
_cell_length_b 7.505623
_cell_length_c 19.769039
_cell_angle_alpha 90.000000
_cell_angle_beta 138.929535
_cell_angle_gamma 90.000000
_cell_volume 1445.208977
_symmetry_space_group_name_H-M "P 21/M"
_symmetry_group_IT_number 11
_symmetry_cell_setting 'monoclinic'
loop_
_space_group_symop_operation_xyz
x,y,z
-x,1/2+y,-z
-x,-y,-z
x,1/2-y,z
loop_
_atom_site_type_symbol
_atom_site_label
_atom_site_fract_x
_atom_site_fract_y
_atom_site_fract_z
Si Si1 0.832412 0.031576 0.123798
Si Si2 0.329930 0.534748 0.831666
Si Si3 0.182606 0.466879 0.463740
Si Si4 0.590028 0.457691 0.899073
Si Si5 0.079433 0.537753 0.613272
Si Si6 0.577193 0.044795 0.614014
Si Si7 0.548508 0.531236 0.316490
Si Si8 0.149093 0.035171 0.296768
O O1 0.835491 0.250000 0.127293
O O2 0.751691 0.979527 0.146933
O O3 0.990722 0.974432 0.205156
O O4 0.734575 0.970061 0.007390
O O5 0.339634 0.750000 0.838665
O O6 0.481021 0.469093 0.899155
O O7 0.230795 0.470807 0.714173
O O8 0.182352 0.250000 0.464859
O O9 0.293530 0.524597 0.581547
O O10 0.213764 0.522616 0.405305
O O11 0.029004 0.526774 0.392435
O O12 0.614346 0.250000 0.899011
O O13 0.521439 0.533544 0.792201
O O14 0.089545 0.750000 0.625469
O O15 0.000000 0.500000 0.500000
O O16 0.544933 0.250000 0.604173
O O17 0.525975 0.967135 0.656566
O O18 0.500000 0.000000 0.500000
O O19 0.739954 0.019509 0.695935
O O20 0.548377 0.750000 0.313307
O O21 0.145735 0.250000 0.294680
#
# Coordination Sequence:
#
# PCOD9157581 Si02
#       8
#     4   4   4   4   4   4   4   4
#     4   9  18  34  57  79 102 139 183 217 253 308
#     4  10  19  33  52  77 108 141 175 216 265 309
#     4   9  15  28  50  70  94 136 172 199 248 313
#     4  10  20  35  55  78 102 137 184 221 251 305
#     4  10  19  30  47  71 103 139 175 210 254 311
#     4  11  21  35  56  82 108 137 172 213 263 317
#     4   9  18  32  52  76 104 136 170 210 261 314
#     4  10  18  34  57  78 102 135 175 215 256 307
#
# _framework density 22.142126000000001
#
# number of rings (size 3 to 8) (size 9 to 14) (size 15 to 20)
#    0.000    2.250    2.500    1.500    0.000    1.500 
#    0.000    3.750    0.000    0.000    0.000    0.000 
#    0.000    0.000    0.000    0.000    0.000    0.000 
#
# Total GULP energy -178520.846819 kJ/mol
# GULP energy per Si atom -5578.776463 kJ/mol
# Density = 2.209173 g / cm^3
# Si number density = 22.142126 Si / 1000 Ang^3
#
#
#
# Elastic Constant Matrix: (Units=GPa)
#
#
# Indices 1 2 3 4 5 6 
#
# 1 73.9501 -9.4725 32.7340 0.0000 9.9051 0.0000
# 2 -9.4725 53.2888 -0.7752 0.0000 -6.6282 0.0000
# 3 32.7340 -0.7752 146.2177 0.0000 8.5735 0.0000
# 4 0.0000 0.0000 0.0000 5.3292 0.0000 3.5126
# 5 9.9051 -6.6282 8.5735 0.0000 23.6694 0.0000
# 6 0.0000 0.0000 0.0000 3.5126 0.0000 16.9700
#
#
#
# Elastic Compliance Matrix: (Units=1/GPa)
#
#
# Indices 1 2 3 4 5 6 
#
# 1 0.015896 0.002174 -0.003262 0.000000 -0.004862 0.000000
# 2 0.002174 0.019747 -0.000667 0.000000 0.004862 0.000000
# 3 -0.003262 -0.000667 0.007659 0.000000 -0.001596 0.000000
# 4 0.000000 0.000000 0.000000 0.217289 0.000000 -0.044976
# 5 -0.004862 0.004862 -0.001596 0.000000 0.046223 0.000000
# 6 0.000000 0.000000 0.000000 -0.044976 0.000000 0.068237
#
#
# Mechanical properties :
#
#
# Convention : Reuss Voigt Hill
#
# Bulk Modulus (GPa) = 25.13094 35.38102 30.25598
# Shear Modulus (GPa) = 12.76075 25.92508 19.34291
#
# Velocity S-wave (km/s) = 2.40325 3.42548 2.95884
# Velocity P-wave (km/s) = 4.36753 5.62663 5.03658
#
# Compressibility (1/GPa) = 0.03979159
#
# Stress axis : x y z
#
# Youngs Moduli (GPa) = 62.90788 50.64048 130.55745
#
# Poissons Ratio (x) = -0.11007 0.42589
# Poissons Ratio (y) = -0.13673 0.08708
# Poissons Ratio (z) = 0.20521 0.03378
#
# Static dielectric constant tensor:
#      x y z
#    x 1.853570 0.000000 -0.037460 
#    y 0.000000 1.848720 0.000000 
#    z -0.037460 0.000000 1.818890 
# 
# From -- ./inp_files/65252.got.cif
#   From: 2010.05.17/outbox.cif.g08.bks.cpg/sg11_33_cif.got.tgz:65252.got - 2010.06.03 12:22:45.
