data_PCOD9157012
_publ_section_title
;
Structure prediction by ZEFSAII (Michael W. Deem and Ramdas Pophale) SiO2 
 PCOD9157012
Probable space group: P 21/M
;
_chemical_formula_sum "Si O2"
_cell_formula_units_Z 32
_cell_length_a 15.381182
_cell_length_b 8.873063
_cell_length_c 23.699165
_cell_angle_alpha 90.000000
_cell_angle_beta 39.610662
_cell_angle_gamma 90.000000
_cell_volume 2062.160183
_symmetry_space_group_name_H-M "P 21/M"
_symmetry_group_IT_number 11
_symmetry_cell_setting 'monoclinic'
loop_
_space_group_symop_operation_xyz
x,y,z
-x,1/2+y,-z
-x,-y,-z
x,1/2-y,z
loop_
_atom_site_type_symbol
_atom_site_label
_atom_site_fract_x
_atom_site_fract_y
_atom_site_fract_z
Si Si1 0.500000 0.568524 0.619349
Si Si2 0.202041 0.930531 0.372579
Si Si3 0.957540 0.070714 0.431562
Si Si4 0.957540 0.929286 0.110898
Si Si5 0.500000 0.931926 0.255639
Si Si6 0.202041 0.069469 0.925379
Si Si7 0.785363 0.930642 0.418856
Si Si8 0.214637 0.930642 0.704218
O O1 0.500000 0.750000 0.624756
O O2 0.500001 0.497914 0.681416
O O3 0.636517 0.524113 0.517628
O O4 0.363483 0.524113 0.654145
O O5 0.191999 0.750000 0.369400
O O6 0.139893 0.963773 0.465809
O O7 0.360136 0.975852 0.294619
O O8 0.106112 0.012699 0.375709
O O9 0.957677 0.250000 0.423468
O O10 0.896399 0.990023 0.407707
O O11 0.957677 0.750000 0.118856
O O12 0.860107 0.963771 0.105703
O O13 0.896399 0.009978 0.195894
O O14 0.106112 0.987301 0.018179
O O15 0.500000 0.750000 0.260436
O O16 0.639864 0.975852 0.154755
O O17 0.192000 0.250000 0.938601
O O18 0.789961 0.750000 0.413591
O O19 0.804966 1.000000 0.347517
O O20 0.210039 0.750000 0.703552
#
# Coordination Sequence:
#
# PCOD9157012 Si02
#       8
#     4   4   4   4   4   4   4   4
#     4  10  21  33  47  70 100 133 169 207 242 285
#     4   9  18  31  49  72  99 129 163 203 248 294
#     4  10  19  32  50  71  97 130 166 205 248 291
#     4  10  19  32  50  71  97 130 166 205 248 291
#     4  10  18  31  51  74 100 133 166 201 246 295
#     4   9  18  31  49  72  99 129 163 203 248 294
#     4  11  22  35  50  70  98 133 172 209 246 290
#     4  11  22  35  50  70  98 133 172 209 246 290
#
# _framework density 15.517708000000001
#
# number of rings (size 3 to 8) (size 9 to 14) (size 15 to 20)
#    0.000    2.000    2.500    1.875    0.000    3.000 
#    0.000    0.000    0.000    0.000    0.000    0.875 
#    0.000    0.000    0.000    0.000    0.000    0.000 
#
# Total GULP energy -178594.027833 kJ/mol
# GULP energy per Si atom -5581.063370 kJ/mol
# Density = 1.548239 g / cm^3
# Si number density = 15.517708 Si / 1000 Ang^3
#
#
#
# Elastic Constant Matrix: (Units=GPa)
#
#
# Indices 1 2 3 4 5 6 
#
# 1 112.8637 44.8339 81.3601 0.0000 -8.9362 0.0000
# 2 44.8339 37.5725 44.8528 0.0000 -0.1385 0.0000
# 3 81.3601 44.8528 115.3968 0.0000 -10.0808 0.0000
# 4 0.0000 0.0000 0.0000 22.1944 0.0000 5.5288
# 5 -8.9362 -0.1385 -10.0808 0.0000 24.9324 0.0000
# 6 0.0000 0.0000 0.0000 5.5288 0.0000 22.9315
#
#
#
# Elastic Compliance Matrix: (Units=1/GPa)
#
#
# Indices 1 2 3 4 5 6 
#
# 1 0.021720 -0.015000 -0.009133 0.000000 0.004009 0.000000
# 2 -0.015000 0.061523 -0.014282 0.000000 -0.010809 0.000000
# 3 -0.009133 -0.014282 0.021109 0.000000 0.005182 0.000000
# 4 0.000000 0.000000 0.000000 0.047936 0.000000 -0.011557
# 5 0.004009 -0.010809 0.005182 0.000000 0.043581 0.000000
# 6 0.000000 0.000000 0.000000 -0.011557 0.000000 0.046395
#
#
# Mechanical properties :
#
#
# Convention : Reuss Voigt Hill
#
# Bulk Modulus (GPa) = 36.33400 67.54741 51.94070
# Shear Modulus (GPa) = 15.23151 20.33073 17.78112
#
# Velocity S-wave (km/s) = 3.13638 3.62354 3.38873
# Velocity P-wave (km/s) = 6.04824 7.81860 6.98970
#
# Compressibility (1/GPa) = 0.02752243
#
# Stress axis : x y z
#
# Youngs Moduli (GPa) = 46.04027 16.25400 47.37374
#
# Poissons Ratio (x) = 0.24381 0.43267
# Poissons Ratio (y) = 0.69061 0.67657
# Poissons Ratio (z) = 0.42049 0.23213
#
# Static dielectric constant tensor:
#      x y z
#    x 1.498780 0.000000 -0.024250 
#    y 0.000000 1.512480 0.000000 
#    z -0.024250 0.000000 1.502020 
# 
# From -- ./inp_files/54284.got.cif
#   From: 2010.05.17/outbox.cif.g08.bks.cpg/sg11_28_cif.got.tgz:54284.got - 2010.06.03 12:22:45.
