data_PCOD9157794
_publ_section_title
;
Structure prediction by ZEFSAII (Michael W. Deem and Ramdas Pophale) SiO2 
 PCOD9157794
Probable space group: P 21/M
;
_chemical_formula_sum "Si O2"
_cell_formula_units_Z 28
_cell_length_a 8.403911
_cell_length_b 15.245458
_cell_length_c 13.661280
_cell_angle_alpha 90.000000
_cell_angle_beta 63.867767
_cell_angle_gamma 90.000000
_cell_volume 1571.387190
_symmetry_space_group_name_H-M "P 21/M"
_symmetry_group_IT_number 11
_symmetry_cell_setting 'monoclinic'
loop_
_space_group_symop_operation_xyz
x,y,z
-x,1/2+y,-z
-x,-y,-z
x,1/2-y,z
loop_
_atom_site_type_symbol
_atom_site_label
_atom_site_fract_x
_atom_site_fract_y
_atom_site_fract_z
Si Si1 0.773599 0.484089 0.455505
Si Si2 0.367033 0.156814 0.032087
Si Si3 0.493763 0.356353 0.427324
Si Si4 0.762510 0.154559 0.853535
Si Si5 0.186549 0.513445 0.998284
Si Si6 0.165285 0.541393 0.334528
Si Si7 0.482849 0.409396 0.205050
O O1 0.661834 0.410360 0.427125
O O2 0.667725 0.578295 0.492225
O O3 0.804712 0.450781 0.557962
O O4 0.972336 0.501124 0.363747
O O5 0.277993 0.250000 0.037582
O O6 0.253545 0.074952 0.030752
O O7 0.424927 0.150704 0.129709
O O8 0.549959 0.152259 0.921968
O O9 0.484228 0.250000 0.453270
O O10 0.499283 0.365715 0.307319
O O11 0.825692 0.250000 0.865528
O O12 0.818012 0.130694 0.729521
O O13 0.830945 0.083967 0.911133
O O14 0.335013 0.545944 0.880735
O O15 0.000000 0.500000 0.000000
O O16 0.325657 0.480332 0.254979
#
# Coordination Sequence:
#
# PCOD9157794 Si02
#       7
#     4   4   4   4   4   4   4
#     4   9  22  37  60  86 116 150 192 243 284 337
#     4  10  19  36  58  86 113 148 194 232 276 342
#     4  10  21  39  59  87 120 149 186 237 293 341
#     4  10  20  35  59  84 112 149 194 234 281 342
#     4  11  22  36  56  84 121 153 184 238 289 342
#     4  10  18  38  61  81 111 154 199 232 285 337
#     4  10  19  36  60  83 112 155 190 233 284 337
#
# _framework density 17.818650999999999
#
# number of rings (size 3 to 8) (size 9 to 14) (size 15 to 20)
#    0.000    2.000    2.857    1.286    2.000    2.286 
#    0.000    7.857    0.000    0.000    0.000    0.000 
#    0.000    0.000    0.000    0.000    0.000    0.000 
#
# Total GULP energy -155963.586309 kJ/mol
# GULP energy per Si atom -5570.128082 kJ/mol
# Density = 1.777809 g / cm^3
# Si number density = 17.818651 Si / 1000 Ang^3
#
#
#
# Elastic Constant Matrix: (Units=GPa)
#
#
# Indices 1 2 3 4 5 6 
#
# 1 105.0970 57.7899 23.3421 0.0000 0.3842 0.0000
# 2 57.7899 156.5549 31.6699 0.0000 12.9000 0.0000
# 3 23.3421 31.6699 61.7256 0.0000 -0.2760 0.0000
# 4 0.0000 0.0000 0.0000 7.9552 0.0000 2.4018
# 5 0.3842 12.9000 -0.2760 0.0000 12.0205 0.0000
# 6 0.0000 0.0000 0.0000 2.4018 0.0000 -8.3525
#
#
#
# Elastic Compliance Matrix: (Units=1/GPa)
#
#
# Indices 1 2 3 4 5 6 
#
# 1 0.012501 -0.004487 -0.002406 0.000000 0.004361 0.000000
# 2 -0.004487 0.009537 -0.003242 0.000000 -0.010166 0.000000
# 3 -0.002406 -0.003242 0.018792 0.000000 0.003988 0.000000
# 4 0.000000 0.000000 0.000000 0.115662 0.000000 0.033260
# 5 0.004361 -0.010166 0.003988 0.000000 0.094053 0.000000
# 6 0.000000 0.000000 0.000000 0.033260 0.000000 -0.110160
#
#
# Mechanical properties :
#
#
# Convention : Reuss Voigt Hill
#
# Bulk Modulus (GPa) = 48.63719 60.99794 54.81756
# Shear Modulus (GPa) = 29.84944 16.36302 23.10623
#
# Velocity S-wave (km/s) = 4.09734 3.03365 3.60494
# Velocity P-wave (km/s) = 7.05260 6.82478 6.93962
#
# Compressibility (1/GPa) = 0.02056040
#
# Stress axis : x y z
#
# Youngs Moduli (GPa) = 79.99558 104.85018 53.21521
#
# Poissons Ratio (x) = 0.47048 0.12801
# Poissons Ratio (y) = 0.35895 0.17252
# Poissons Ratio (z) = 0.19243 0.33993
#
# Static dielectric constant tensor:
#      x y z
#    x 1.588160 0.000000 -0.005990 
#    y 0.000000 1.628950 0.000000 
#    z -0.005990 0.000000 1.620890 
# 
# From -- ./inp_files/47404.got.cif
#   From: 2010.05.17/outbox.cif.g08.bks.cpg/sg11_24_cif.got.tgz:47404.got - 2010.06.03 12:22:45.
