data_PCOD9157880
_publ_section_title
;
Structure prediction by ZEFSAII (Michael W. Deem and Ramdas Pophale) SiO2 
 PCOD9157880
Probable space group: P 21/M
;
_chemical_formula_sum "Si O2"
_cell_formula_units_Z 32
_cell_length_a 32.107483
_cell_length_b 9.088049
_cell_length_c 12.369048
_cell_angle_alpha 90.000000
_cell_angle_beta 30.159872
_cell_angle_gamma 90.000000
_cell_volume 1813.323851
_symmetry_space_group_name_H-M "P 21/M"
_symmetry_group_IT_number 11
_symmetry_cell_setting 'monoclinic'
loop_
_space_group_symop_operation_xyz
x,y,z
-x,1/2+y,-z
-x,-y,-z
x,1/2-y,z
loop_
_atom_site_type_symbol
_atom_site_label
_atom_site_fract_x
_atom_site_fract_y
_atom_site_fract_z
Si Si1 0.050037 0.085267 0.800083
Si Si2 0.234121 0.081043 0.478852
Si Si3 0.016438 0.573138 0.280320
Si Si4 0.857934 0.075428 0.699296
Si Si5 0.284257 0.573986 0.155623
Si Si6 0.269249 0.422211 0.859684
Si Si7 0.589072 0.925317 0.293250
Si Si8 0.811969 0.924840 0.174810
O O1 0.017379 0.250000 0.873493
O O2 0.144211 0.086527 0.624499
O O3 0.029548 0.029210 0.728437
O O4 0.000000 0.000000 0.000000
O O5 0.265926 0.250000 0.413388
O O6 0.217073 0.026806 0.639967
O O7 0.283412 0.984276 0.280813
O O8 0.021098 0.750000 0.284420
O O9 0.946470 0.504702 0.515296
O O10 0.107622 0.506012 0.056206
O O11 0.871411 0.250000 0.670180
O O12 0.801155 0.040084 0.719916
O O13 0.797923 0.023239 0.930136
O O14 0.293765 0.750000 0.132206
O O15 0.356227 0.495491 0.925507
O O16 0.248713 0.250000 0.929091
O O17 0.357480 0.450977 0.717177
O O18 0.260313 0.442045 0.751698
O O19 0.581750 0.750000 0.294323
O O20 0.500000 0.000000 0.500000
O O21 0.832231 0.750000 0.139144
#
# Coordination Sequence:
#
# PCOD9157880 Si02
#       8
#     4   4   4   4   4   4   4   4
#     4  10  19  29  44  67  97 135 180 228 269 301
#     4  10  19  32  50  73 104 141 177 217 263 308
#     4  11  21  31  46  70 101 139 184 228 269 307
#     4  10  20  33  51  73 100 137 180 227 270 308
#     4  10  20  33  53  82 111 137 171 215 262 308
#     4   9  20  38  57  77 104 137 171 211 259 314
#     4  10  20  37  63  90 112 132 160 203 258 315
#     4  10  21  36  52  72 102 143 185 218 257 309
#
# _framework density 17.647151000000001
#
# number of rings (size 3 to 8) (size 9 to 14) (size 15 to 20)
#    0.000    2.000    2.500    1.500    0.000    4.000 
#    0.000    0.000    0.000    0.750    0.000    0.000 
#    0.000    0.000    0.000    0.000    0.000    0.000 
#
# Total GULP energy -178258.666106 kJ/mol
# GULP energy per Si atom -5570.583316 kJ/mol
# Density = 1.760698 g / cm^3
# Si number density = 17.647151 Si / 1000 Ang^3
#
#
#
# Elastic Constant Matrix: (Units=GPa)
#
#
# Indices 1 2 3 4 5 6 
#
# 1 92.9541 36.9603 50.7640 0.0000 -0.2968 0.0000
# 2 36.9603 44.4533 58.7386 0.0000 -3.3345 0.0000
# 3 50.7640 58.7386 101.7351 0.0000 -11.1734 0.0000
# 4 0.0000 0.0000 0.0000 31.6487 0.0000 1.1238
# 5 -0.2968 -3.3345 -11.1734 0.0000 10.3410 0.0000
# 6 0.0000 0.0000 0.0000 1.1238 0.0000 16.1450
#
#
#
# Elastic Compliance Matrix: (Units=1/GPa)
#
#
# Indices 1 2 3 4 5 6 
#
# 1 0.016404 -0.010122 -0.003005 0.000000 -0.006040 0.000000
# 2 -0.010122 0.111801 -0.063055 0.000000 -0.032370 0.000000
# 3 -0.003005 -0.063055 0.051617 0.000000 0.035354 0.000000
# 4 0.000000 0.000000 0.000000 0.031675 0.000000 -0.002205
# 5 -0.006040 -0.032370 0.035354 0.000000 0.124291 0.000000
# 6 0.000000 0.000000 0.000000 -0.002205 0.000000 0.062092
#
#
# Mechanical properties :
#
#
# Convention : Reuss Voigt Hill
#
# Bulk Modulus (GPa) = 36.41697 59.11870 47.76783
# Shear Modulus (GPa) = 8.93820 17.80556 13.37188
#
# Velocity S-wave (km/s) = 2.25299 3.17989 2.75569
# Velocity P-wave (km/s) = 5.23917 6.85969 6.10345
#
# Compressibility (1/GPa) = 0.02745973
#
# Stress axis : x y z
#
# Youngs Moduli (GPa) = 60.95943 8.94449 19.37338
#
# Poissons Ratio (x) = 0.09054 0.05821
# Poissons Ratio (y) = 0.61704 1.22158
# Poissons Ratio (z) = 0.18316 0.56399
#
# Static dielectric constant tensor:
#      x y z
#    x 1.572090 0.000000 -0.020540 
#    y 0.000000 1.508180 0.000000 
#    z -0.020540 0.000000 1.565450 
# 
# From -- ./inp_files/45230.got.cif
#   From: 2010.05.17/outbox.cif.g08.bks.cpg/sg11_23_cif.got.tgz:45230.got - 2010.06.03 12:22:45.
