data_PCOD9157134
_publ_section_title
;
Structure prediction by ZEFSAII (Michael W. Deem and Ramdas Pophale) SiO2 
 PCOD9157134
Probable space group: P 21/M
;
_chemical_formula_sum "Si O2"
_cell_formula_units_Z 32
_cell_length_a 15.895209
_cell_length_b 18.276422
_cell_length_c 12.687203
_cell_angle_alpha 90.000000
_cell_angle_beta 29.754045
_cell_angle_gamma 90.000000
_cell_volume 1829.145082
_symmetry_space_group_name_H-M "P 21/M"
_symmetry_group_IT_number 11
_symmetry_cell_setting 'monoclinic'
loop_
_space_group_symop_operation_xyz
x,y,z
-x,1/2+y,-z
-x,-y,-z
x,1/2-y,z
loop_
_atom_site_type_symbol
_atom_site_label
_atom_site_fract_x
_atom_site_fract_y
_atom_site_fract_z
Si Si1 0.629241 0.662810 0.498149
Si Si2 0.955594 0.522000 0.666003
Si Si3 0.729428 0.435965 0.419254
Si Si4 0.069031 0.833822 0.661466
Si Si5 0.715795 0.091710 0.190901
Si Si6 0.080303 0.070563 0.725843
Si Si7 0.277933 0.332266 0.838261
Si Si8 0.377931 0.035702 0.853875
O O1 0.637966 0.750000 0.501900
O O2 0.432242 0.637911 0.705775
O O3 0.757114 0.622954 0.439308
O O4 0.701207 0.641692 0.303794
O O5 0.000000 0.500000 0.500000
O O6 0.020723 0.603410 0.628630
O O7 0.038465 0.463096 0.656393
O O8 0.753071 0.521670 0.910071
O O9 0.777364 0.367458 0.439237
O O10 0.687099 0.411631 0.347000
O O11 0.879299 0.496080 0.252541
O O12 0.576240 0.478630 0.644092
O O13 0.092007 0.750000 0.598936
O O14 0.915339 0.832782 0.912931
O O15 0.692725 0.011131 0.167058
O O16 0.910689 0.110614 0.952830
O O17 0.344677 0.250000 0.767874
O O18 0.369599 0.381219 0.824601
#
# Coordination Sequence:
#
# PCOD9157134 Si02
#       8
#     4   4   4   4   4   4   4   4
#     4  11  21  33  51  77 113 152 188 223 264 325
#     4   9  20  39  60  81 101 138 191 233 287 329
#     4  11  18  30  53  81 113 144 179 216 267 332
#     4   9  19  33  52  79 112 140 176 227 278 329
#     4  11  20  32  52  78 117 150 185 211 266 328
#     4  10  21  35  53  78 109 145 183 233 271 323
#     4   9  17  30  46  73 111 148 176 211 263 321
#     4  10  18  31  54  79 105 144 180 224 268 314
#
# _framework density 17.494512
#
# number of rings (size 3 to 8) (size 9 to 14) (size 15 to 20)
#    0.000    2.000    2.500    3.000    0.000    1.500 
#    0.000    3.125    0.000    0.750    0.000    0.000 
#    0.000    0.000    0.000    0.000    0.000    0.000 
#
# Total GULP energy -178176.023216 kJ/mol
# GULP energy per Si atom -5568.000726 kJ/mol
# Density = 1.745469 g / cm^3
# Si number density = 17.494512 Si / 1000 Ang^3
#
#
#
# Elastic Constant Matrix: (Units=GPa)
#
#
# Indices 1 2 3 4 5 6 
#
# 1 63.3456 33.8022 60.8384 0.0000 -2.1839 0.0000
# 2 33.8022 70.7835 39.8218 0.0000 -4.6354 0.0000
# 3 60.8384 39.8218 98.7702 0.0000 -6.3263 0.0000
# 4 0.0000 0.0000 0.0000 20.2635 0.0000 -3.5042
# 5 -2.1839 -4.6354 -6.3263 0.0000 29.8882 0.0000
# 6 0.0000 0.0000 0.0000 -3.5042 0.0000 17.2567
#
#
#
# Elastic Compliance Matrix: (Units=1/GPa)
#
#
# Indices 1 2 3 4 5 6 
#
# 1 0.041399 -0.007126 -0.022814 0.000000 -0.002909 0.000000
# 2 -0.007126 0.019548 -0.003377 0.000000 0.001796 0.000000
# 3 -0.022814 -0.003377 0.025747 0.000000 0.003259 0.000000
# 4 0.000000 0.000000 0.000000 0.051146 0.000000 0.010386
# 5 -0.002909 0.001796 0.003259 0.000000 0.034214 0.000000
# 6 0.000000 0.000000 0.000000 0.010386 0.000000 0.060057
#
#
# Mechanical properties :
#
#
# Convention : Reuss Voigt Hill
#
# Bulk Modulus (GPa) = 49.84704 55.75824 52.80264
# Shear Modulus (GPa) = 16.37029 20.04414 18.20721
#
# Velocity S-wave (km/s) = 3.06230 3.38855 3.22955
# Velocity P-wave (km/s) = 6.40768 6.87392 6.64489
#
# Compressibility (1/GPa) = 0.02006137
#
# Stress axis : x y z
#
# Youngs Moduli (GPa) = 24.15502 51.15625 38.83939
#
# Poissons Ratio (x) = 0.36453 0.88607
# Poissons Ratio (y) = 0.17212 0.13116
# Poissons Ratio (z) = 0.55106 0.17276
#
# Static dielectric constant tensor:
#      x y z
#    x 1.599070 0.000000 -0.074670 
#    y 0.000000 1.633570 0.000000 
#    z -0.074670 0.000000 1.666880 
# 
# From -- ./inp_files/36351.got.cif
#   From: 2010.05.17/outbox.cif.g08.bks.cpg/sg11_19_cif.got.tgz:36351.got - 2010.06.03 12:22:45.
