data_PCOD9157649
_publ_section_title
;
Structure prediction by ZEFSAII (Michael W. Deem and Ramdas Pophale) SiO2 
 PCOD9157649
Probable space group: P 21/M
;
_chemical_formula_sum "Si O2"
_cell_formula_units_Z 32
_cell_length_a 9.372990
_cell_length_b 21.429554
_cell_length_c 15.716568
_cell_angle_alpha 90.000000
_cell_angle_beta 148.372036
_cell_angle_gamma 90.000000
_cell_volume 1655.438156
_symmetry_space_group_name_H-M "P 21/M"
_symmetry_group_IT_number 11
_symmetry_cell_setting 'monoclinic'
loop_
_space_group_symop_operation_xyz
x,y,z
-x,1/2+y,-z
-x,-y,-z
x,1/2-y,z
loop_
_atom_site_type_symbol
_atom_site_label
_atom_site_fract_x
_atom_site_fract_y
_atom_site_fract_z
Si Si1 0.679284 0.914465 0.925562
Si Si2 0.799527 0.488614 0.112922
Si Si3 0.557507 0.123582 0.893496
Si Si4 0.773765 0.680386 0.647908
Si Si5 0.667085 0.952332 0.526707
Si Si6 0.592234 0.179492 0.084906
Si Si7 0.308634 0.477485 0.655594
Si Si8 0.942823 0.820043 0.928782
O O1 0.488836 0.868557 0.883576
O O2 0.499998 0.967734 0.789266
O O3 0.839517 0.873097 0.939388
O O4 0.865485 0.951872 0.088070
O O5 0.019129 0.472032 0.295011
O O6 0.500000 0.500000 0.000000
O O7 0.767913 0.428888 0.036007
O O8 0.343848 0.083845 0.731865
O O9 0.456099 0.157915 0.926703
O O10 0.738135 0.169502 0.928806
O O11 0.663778 0.750000 0.571849
O O12 0.630499 0.619338 0.537516
O O13 0.797902 0.675455 0.762638
O O14 0.084517 0.678876 0.770158
O O15 0.606583 0.961261 0.397234
O O16 0.500000 0.000000 0.500000
O O17 0.513606 0.250000 0.066379
O O18 0.000000 0.500000 0.500000
O O19 0.895454 0.750000 0.937563
#
# Coordination Sequence:
#
# PCOD9157649 Si02
#       8
#     4   4   4   4   4   4   4   4
#     4  11  22  35  61  88 121 153 198 254 301 351
#     4  11  20  37  63  84 117 156 201 249 294 357
#     4  10  20  37  61  83 116 150 199 240 300 352
#     4   9  18  37  60  81 114 160 203 243 296 367
#     4  12  23  37  59  93 121 157 204 245 303 369
#     4  10  18  34  63  87 108 151 210 251 288 355
#     4  11  25  36  57  89 126 154 192 250 312 359
#     4  10  20  36  60  89 115 147 202 257 297 351
#
# _framework density 19.330231999999999
#
# number of rings (size 3 to 8) (size 9 to 14) (size 15 to 20)
#    0.000    1.500    3.750    4.500    1.750    1.000 
#    0.000    1.250    0.000    3.000    0.000    0.000 
#    0.000    0.000    0.000    0.000    0.000    0.000 
#
# Total GULP energy -178661.828531 kJ/mol
# GULP energy per Si atom -5583.182142 kJ/mol
# Density = 1.928624 g / cm^3
# Si number density = 19.330232 Si / 1000 Ang^3
#
#
#
# Elastic Constant Matrix: (Units=GPa)
#
#
# Indices 1 2 3 4 5 6 
#
# 1 62.7614 32.7608 9.4460 0.0000 -14.4147 0.0000
# 2 32.7608 154.8390 26.9347 0.0000 -18.2042 0.0000
# 3 9.4460 26.9347 48.8197 0.0000 -12.2550 0.0000
# 4 0.0000 0.0000 0.0000 28.4925 0.0000 -5.7043
# 5 -14.4147 -18.2042 -12.2550 0.0000 21.7890 0.0000
# 6 0.0000 0.0000 0.0000 -5.7043 0.0000 36.7217
#
#
#
# Elastic Compliance Matrix: (Units=1/GPa)
#
#
# Indices 1 2 3 4 5 6 
#
# 1 0.019953 -0.003029 0.000569 0.000000 0.010990 0.000000
# 2 -0.003029 0.007980 -0.003081 0.000000 0.002930 0.000000
# 3 0.000569 -0.003081 0.025060 0.000000 0.011897 0.000000
# 4 0.000000 0.000000 0.000000 0.036224 0.000000 0.005627
# 5 0.010990 0.002930 0.011897 0.000000 0.062305 0.000000
# 6 0.000000 0.000000 0.000000 0.005627 0.000000 0.028106
#
#
# Mechanical properties :
#
#
# Convention : Reuss Voigt Hill
#
# Bulk Modulus (GPa) = 23.86008 44.96700 34.41354
# Shear Modulus (GPa) = 24.42874 30.55255 27.49064
#
# Velocity S-wave (km/s) = 3.55879 3.97994 3.77524
# Velocity P-wave (km/s) = 5.40896 6.66580 6.07000
#
# Compressibility (1/GPa) = 0.04191101
#
# Stress axis : x y z
#
# Youngs Moduli (GPa) = 50.11869 125.32047 39.90477
#
# Poissons Ratio (x) = 0.37953 -0.02270
# Poissons Ratio (y) = 0.15179 0.12294
# Poissons Ratio (z) = -0.02852 0.38610
#
# Static dielectric constant tensor:
#      x y z
#    x 1.691320 0.000000 -0.002270 
#    y 0.000000 1.700540 0.000000 
#    z -0.002270 0.000000 1.679240 
# 
# From -- ./inp_files/48257.got.cif
#   From: 2010.05.17/outbox.cif.g08.bks.cpg/sg11_25_cif.got.tgz:48257.got - 2010.06.03 12:22:45.
