data_PCOD9157955
_publ_section_title
;
Structure prediction by ZEFSAII (Michael W. Deem and Ramdas Pophale) SiO2 
 PCOD9157955
Probable space group: P 21/M
;
_chemical_formula_sum "Si O2"
_cell_formula_units_Z 32
_cell_length_a 17.721182
_cell_length_b 7.461080
_cell_length_c 23.965855
_cell_angle_alpha 90.000000
_cell_angle_beta 149.244536
_cell_angle_gamma 90.000000
_cell_volume 1620.417173
_symmetry_space_group_name_H-M "P 21/M"
_symmetry_group_IT_number 11
_symmetry_cell_setting 'monoclinic'
loop_
_space_group_symop_operation_xyz
x,y,z
-x,1/2+y,-z
-x,-y,-z
x,1/2-y,z
loop_
_atom_site_type_symbol
_atom_site_label
_atom_site_fract_x
_atom_site_fract_y
_atom_site_fract_z
Si Si1 0.826369 0.031176 0.830327
Si Si2 0.640573 0.460508 0.815839
Si Si3 0.887553 0.965808 0.051875
Si Si4 0.982639 0.464210 0.628069
Si Si5 0.684782 0.533615 0.369652
Si Si6 0.330609 0.536795 0.381599
Si Si7 0.951685 0.469312 0.733552
Si Si8 0.851019 0.963965 0.370496
O O1 0.833034 0.250000 0.836905
O O2 0.749966 0.964288 0.837978
O O3 0.722689 0.975448 0.712875
O O4 0.989618 0.971294 0.915433
O O5 0.625122 0.250000 0.793263
O O6 0.474801 0.534136 0.712317
O O7 0.727456 0.478202 0.929157
O O8 0.892001 0.750000 0.055013
O O9 0.941435 0.023972 0.147492
O O10 0.001988 0.250000 0.642995
O O11 0.821351 0.492778 0.497617
O O12 0.988656 0.532864 0.695023
O O13 0.107503 0.534393 0.664502
O O14 0.677498 0.750000 0.362227
O O15 0.725518 0.468167 0.332909
O O16 0.500000 0.500000 0.500000
O O17 0.312908 0.750000 0.369474
O O18 0.212926 0.472094 0.352589
O O19 0.953937 0.250000 0.733697
O O20 0.830360 0.750000 0.352370
O O21 0.000000 0.000000 0.500000
#
# Coordination Sequence:
#
# PCOD9157955 Si02
#       8
#     4   4   4   4   4   4   4   4
#     4   8  16  30  45  60  82 115 146 174 216 259
#     4  10  19  30  45  64  88 115 143 179 219 260
#     4   9  17  32  49  62  81 112 150 186 217 249
#     4   9  16  28  48  68  87 114 148 179 208 256
#     4   9  18  29  42  66  96 118 137 172 223 265
#     4   9  17  29  43  60  87 117 142 172 214 258
#     4   8  16  30  46  64  86 113 144 181 219 253
#     4   8  14  26  43  63  87 115 143 171 209 257
#
# _framework density 19.748000999999999
#
# number of rings (size 3 to 8) (size 9 to 14) (size 15 to 20)
#    0.000    3.250    0.000    1.875    1.750    0.500 
#    0.000    3.750    0.000    0.750    0.000    0.000 
#    0.000    0.000    0.000    0.000    0.000    0.000 
#
# Total GULP energy -178272.053799 kJ/mol
# GULP energy per Si atom -5571.001681 kJ/mol
# Density = 1.970305 g / cm^3
# Si number density = 19.748001 Si / 1000 Ang^3
#
#
#
# Elastic Constant Matrix: (Units=GPa)
#
#
# Indices 1 2 3 4 5 6 
#
# 1 142.1145 7.1416 36.8796 0.0000 -25.2095 0.0000
# 2 7.1416 57.3415 -5.0523 0.0000 0.4753 0.0000
# 3 36.8796 -5.0523 47.1224 0.0000 -0.9612 0.0000
# 4 0.0000 0.0000 0.0000 15.9990 0.0000 -1.8601
# 5 -25.2095 0.4753 -0.9612 0.0000 16.4972 0.0000
# 6 0.0000 0.0000 0.0000 -1.8601 0.0000 -0.2418
#
#
#
# Elastic Compliance Matrix: (Units=1/GPa)
#
#
# Indices 1 2 3 4 5 6 
#
# 1 0.013412 -0.002751 -0.010384 0.000000 0.019969 0.000000
# 2 -0.002751 0.018173 0.004010 0.000000 -0.004494 0.000000
# 3 -0.010384 0.004010 0.029487 0.000000 -0.014265 0.000000
# 4 0.000000 0.000000 0.000000 0.032992 0.000000 -0.253834
# 5 0.019969 -0.004494 -0.014265 0.000000 0.090429 0.000000
# 6 0.000000 0.000000 0.000000 -0.253834 0.000000 -2.183226
#
#
# Mechanical properties :
#
#
# Convention : Reuss Voigt Hill
#
# Bulk Modulus (GPa) = 23.35311 36.05735 29.70523
# Shear Modulus (GPa) = -2.54296 20.29151 8.87427
#
# Velocity S-wave (km/s) = -1.13600 3.20898 2.12215
# Velocity P-wave (km/s) = 3.18285 5.65936 4.59124
#
# Compressibility (1/GPa) = 0.04282084
#
# Stress axis : x y z
#
# Youngs Moduli (GPa) = 74.56108 55.02815 33.91300
#
# Poissons Ratio (x) = 0.15137 0.35216
# Poissons Ratio (y) = 0.20510 -0.13598
# Poissons Ratio (z) = 0.77425 -0.22064
#
# Static dielectric constant tensor:
#      x y z
#    x 1.744200 0.000000 0.000540 
#    y 0.000000 1.738450 0.000000 
#    z 0.000540 0.000000 1.673130 
# 
# From -- ./inp_files/42426.got.cif
#   From: 2010.05.17/outbox.cif.g08.bks.cpg/sg11_22_cif.got.tgz:42426.got - 2010.06.03 12:22:45.
