data_PCOD9157347
_publ_section_title
;
Structure prediction by ZEFSAII (Michael W. Deem and Ramdas Pophale) SiO2 
 PCOD9157347
Probable space group: P 21/M
;
_chemical_formula_sum "Si O2"
_cell_formula_units_Z 28
_cell_length_a 28.208957
_cell_length_b 8.796492
_cell_length_c 7.445561
_cell_angle_alpha 90.000000
_cell_angle_beta 47.811283
_cell_angle_gamma 90.000000
_cell_volume 1368.910857
_symmetry_space_group_name_H-M "P 21/M"
_symmetry_group_IT_number 11
_symmetry_cell_setting 'monoclinic'
loop_
_space_group_symop_operation_xyz
x,y,z
-x,1/2+y,-z
-x,-y,-z
x,1/2-y,z
loop_
_atom_site_type_symbol
_atom_site_label
_atom_site_fract_x
_atom_site_fract_y
_atom_site_fract_z
Si Si1 0.698295 0.568933 0.469157
Si Si2 0.297057 0.934710 0.946834
Si Si3 0.567703 0.077921 0.794471
Si Si4 0.169072 0.931833 0.853942
Si Si5 0.566911 0.420546 0.365318
Si Si6 0.166675 0.068755 0.259326
Si Si7 0.070558 0.068767 0.822077
O O1 0.701782 0.750000 0.469229
O O2 0.701383 0.510837 0.254620
O O3 0.629374 0.510664 0.710883
O O4 0.761971 0.494522 0.388135
O O5 0.297134 0.750000 0.932849
O O6 0.363670 0.982534 0.871914
O O7 0.229592 0.993950 0.190287
O O8 0.567879 0.250000 0.862036
O O9 0.573561 0.084324 0.563890
O O10 0.500000 0.000000 0.000000
O O11 0.171100 0.750000 0.854422
O O12 0.113693 0.991864 0.865688
O O13 0.158635 0.995839 0.082650
O O14 0.500000 0.500000 0.500000
O O15 0.561221 0.250000 0.309475
O O16 0.176798 0.250000 0.214568
O O17 0.106448 0.042588 0.541221
O O18 0.068330 0.250000 0.858113
O O19 0.000000 0.000000 0.000000
#
# Coordination Sequence:
#
# PCOD9157347 Si02
#       7
#     4   4   4   4   4   4   4
#     4  10  18  32  56  82 110 148 192 242 293 349
#     4   9  17  32  54  80 110 146 191 240 288 349
#     4  10  20  35  52  76 108 146 190 240 293 352
#     4  11  22  39  65  93 123 162 203 248 302 363
#     4   9  19  33  50  74 106 143 185 232 285 342
#     4  10  21  39  64  92 121 158 202 249 302 361
#     4  11  25  44  65  93 128 163 203 252 304 364
#
# _framework density 20.454215000000001
#
# number of rings (size 3 to 8) (size 9 to 14) (size 15 to 20)
#    0.000    2.000    0.000    6.857    0.000    6.286 
#    2.571    0.000    0.000    0.000    0.000    0.000 
#    0.000    0.000    0.000    0.000    0.000    0.000 
#
# Total GULP energy -156309.952726 kJ/mol
# GULP energy per Si atom -5582.498312 kJ/mol
# Density = 2.040766 g / cm^3
# Si number density = 20.454215 Si / 1000 Ang^3
#
#
#
# Elastic Constant Matrix: (Units=GPa)
#
#
# Indices 1 2 3 4 5 6 
#
# 1 144.3999 69.8392 70.7797 0.0000 -37.0109 0.0000
# 2 69.8392 157.3712 75.2390 0.0000 -29.9003 0.0000
# 3 70.7797 75.2390 128.1798 0.0000 -40.2608 0.0000
# 4 0.0000 0.0000 0.0000 24.4753 0.0000 -13.9190
# 5 -37.0109 -29.9003 -40.2608 0.0000 53.0137 0.0000
# 6 0.0000 0.0000 0.0000 -13.9190 0.0000 31.2955
#
#
#
# Elastic Compliance Matrix: (Units=1/GPa)
#
#
# Indices 1 2 3 4 5 6 
#
# 1 0.010652 -0.002467 -0.003329 0.000000 0.003517 0.000000
# 2 -0.002467 0.009481 -0.004024 0.000000 0.000569 0.000000
# 3 -0.003329 -0.004024 0.013867 0.000000 0.005937 0.000000
# 4 0.000000 0.000000 0.000000 0.054691 0.000000 0.024324
# 5 0.003517 0.000569 0.005937 0.000000 0.026148 0.000000
# 6 0.000000 0.000000 0.000000 0.024324 0.000000 0.042772
#
#
# Mechanical properties :
#
#
# Convention : Reuss Voigt Hill
#
# Bulk Modulus (GPa) = 69.64388 95.74074 82.69231
# Shear Modulus (GPa) = 27.46683 36.02976 31.74830
#
# Velocity S-wave (km/s) = 3.66846 4.20156 3.94403
# Velocity P-wave (km/s) = 7.21568 8.39323 7.82664
#
# Compressibility (1/GPa) = 0.01435876
#
# Stress axis : x y z
#
# Youngs Moduli (GPa) = 93.88283 105.46869 72.11485
#
# Poissons Ratio (x) = 0.26023 0.24006
# Poissons Ratio (y) = 0.23164 0.29021
# Poissons Ratio (z) = 0.31252 0.42444
#
# Static dielectric constant tensor:
#      x y z
#    x 1.743280 0.000000 0.013430 
#    y 0.000000 1.700150 0.000000 
#    z 0.013430 0.000000 1.799450 
# 
# From -- ./inp_files/28982.got.cif
#   From: 2010.05.17/outbox.cif.g08.bks.cpg/sg11_15_cif.got.tgz:28982.got - 2010.06.03 12:22:45.
