data_PCOD9157459
_publ_section_title
;
Structure prediction by ZEFSAII (Michael W. Deem and Ramdas Pophale) SiO2 
 PCOD9157459
Probable space group: P 21/M
;
_chemical_formula_sum "Si O2"
_cell_formula_units_Z 28
_cell_length_a 12.476547
_cell_length_b 19.913270
_cell_length_c 8.317283
_cell_angle_alpha 90.000000
_cell_angle_beta 129.773923
_cell_angle_gamma 90.000000
_cell_volume 1588.197821
_symmetry_space_group_name_H-M "P 21/M"
_symmetry_group_IT_number 11
_symmetry_cell_setting 'monoclinic'
loop_
_space_group_symop_operation_xyz
x,y,z
-x,1/2+y,-z
-x,-y,-z
x,1/2-y,z
loop_
_atom_site_type_symbol
_atom_site_label
_atom_site_fract_x
_atom_site_fract_y
_atom_site_fract_z
Si Si1 0.515867 0.327240 0.239869
Si Si2 0.258643 0.912358 0.405371
Si Si3 0.745966 0.591114 0.125717
Si Si4 0.309475 0.954191 0.104954
Si Si5 0.597204 0.522333 0.245066
Si Si6 0.732404 0.324955 0.151840
Si Si7 0.970139 0.328608 0.643846
O O1 0.483891 0.250000 0.240217
O O2 0.615453 0.358491 0.470540
O O3 0.607450 0.330845 0.163079
O O4 0.378389 0.370460 0.084275
O O5 0.255210 0.949729 0.233400
O O6 0.119525 0.871811 0.314885
O O7 0.304467 0.964522 0.589260
O O8 0.693746 0.579053 0.258763
O O9 0.884858 0.634353 0.247484
O O10 0.755698 0.517711 0.052210
O O11 0.478710 0.960484 0.261277
O O12 0.275799 0.885495 0.979515
O O13 0.500000 0.500000 0.000000
O O14 0.723939 0.250000 0.071889
O O15 0.873171 0.329482 0.391811
O O16 0.986437 0.250000 0.705253
#
# Coordination Sequence:
#
# PCOD9157459 Si02
#       7
#     4   4   4   4   4   4   4
#     4  10  18  33  56  80 106 147 192 229 274 329
#     4  11  21  35  57  83 116 150 183 226 285 340
#     4  11  20  35  59  83 112 145 188 241 285 317
#     4  11  21  34  59  88 116 144 187 236 281 338
#     4  10  18  34  57  85 110 138 184 240 272 318
#     4   9  19  36  57  80 109 148 192 231 272 329
#     4  10  22  39  57  81 111 149 194 233 275 338
#
# _framework density 17.630044999999999
#
# number of rings (size 3 to 8) (size 9 to 14) (size 15 to 20)
#    0.000    1.714    4.286    4.714    0.000    4.000 
#    0.000    0.000    0.000    0.000    0.000    0.000 
#    0.000    0.000    0.000    0.000    0.000    0.000 
#
# Total GULP energy -156129.522430 kJ/mol
# GULP energy per Si atom -5576.054373 kJ/mol
# Density = 1.758992 g / cm^3
# Si number density = 17.630045 Si / 1000 Ang^3
#
#
#
# Elastic Constant Matrix: (Units=GPa)
#
#
# Indices 1 2 3 4 5 6 
#
# 1 79.3998 32.3061 27.8077 0.0000 25.9237 0.0000
# 2 32.3061 85.0813 27.3970 0.0000 19.3816 0.0000
# 3 27.8077 27.3970 33.1489 0.0000 12.6674 0.0000
# 4 0.0000 0.0000 0.0000 27.0070 0.0000 10.0711
# 5 25.9237 19.3816 12.6674 0.0000 28.3908 0.0000
# 6 0.0000 0.0000 0.0000 10.0711 0.0000 20.4356
#
#
#
# Elastic Compliance Matrix: (Units=1/GPa)
#
#
# Indices 1 2 3 4 5 6 
#
# 1 0.021775 -0.001303 -0.011973 0.000000 -0.013651 0.000000
# 2 -0.001303 0.017008 -0.010828 0.000000 -0.005590 0.000000
# 3 -0.011973 -0.010828 0.050823 0.000000 -0.004352 0.000000
# 4 0.000000 0.000000 0.000000 0.045364 0.000000 -0.022356
# 5 -0.013651 -0.005590 -0.004352 0.000000 0.053445 0.000000
# 6 0.000000 0.000000 0.000000 -0.022356 0.000000 0.059952
#
#
# Mechanical properties :
#
#
# Convention : Reuss Voigt Hill
#
# Bulk Modulus (GPa) = 24.15552 41.40574 32.78063
# Shear Modulus (GPa) = 16.10959 22.50796 19.30878
#
# Velocity S-wave (km/s) = 3.02612 3.57695 3.31300
# Velocity P-wave (km/s) = 5.09323 6.37152 5.76790
#
# Compressibility (1/GPa) = 0.04139841
#
# Stress axis : x y z
#
# Youngs Moduli (GPa) = 45.92448 58.79473 19.67631
#
# Poissons Ratio (x) = 0.07661 0.23558
# Poissons Ratio (y) = 0.05984 0.21305
# Poissons Ratio (z) = 0.54985 0.63662
#
# Static dielectric constant tensor:
#      x y z
#    x 1.617590 0.000000 -0.003540 
#    y 0.000000 1.630720 0.000000 
#    z -0.003540 0.000000 1.585030 
# 
# From -- ./inp_files/14037.got.cif
#   From: 2010.05.17/outbox.cif.g08.bks.cpg/sg11_8_cif.got.tgz:14037.got - 2010.06.03 12:22:45.
