data_PCOD9157690
_publ_section_title
;
Structure prediction by ZEFSAII (Michael W. Deem and Ramdas Pophale) SiO2 
 PCOD9157690
Probable space group: P 21/M
;
_chemical_formula_sum "Si O2"
_cell_formula_units_Z 32
_cell_length_a 13.206495
_cell_length_b 15.802015
_cell_length_c 10.799581
_cell_angle_alpha 90.000000
_cell_angle_beta 133.671275
_cell_angle_gamma 90.000000
_cell_volume 1630.172166
_symmetry_space_group_name_H-M "P 21/M"
_symmetry_group_IT_number 11
_symmetry_cell_setting 'monoclinic'
loop_
_space_group_symop_operation_xyz
x,y,z
-x,1/2+y,-z
-x,-y,-z
x,1/2-y,z
loop_
_atom_site_type_symbol
_atom_site_label
_atom_site_fract_x
_atom_site_fract_y
_atom_site_fract_z
Si Si1 0.110518 0.344995 0.370563
Si Si2 0.863114 0.404708 0.342370
Si Si3 0.314142 0.346329 0.067359
Si Si4 0.333177 0.984165 0.247226
Si Si5 0.061214 0.073393 0.715391
Si Si6 0.355387 0.475541 0.549349
Si Si7 0.955477 0.446817 0.078637
Si Si8 0.565609 0.075638 0.139442
O O1 0.155526 0.250000 0.426061
O O2 0.243890 0.405389 0.494869
O O3 0.045262 0.364273 0.180092
O O4 0.977533 0.363529 0.347632
O O5 0.930534 0.387967 0.533363
O O6 0.701077 0.381336 0.190790
O O7 0.865935 0.506681 0.318194
O O8 0.318449 0.250000 0.117255
O O9 0.172312 0.364281 0.870290
O O10 0.325312 0.420155 0.182021
O O11 0.441030 0.363998 0.079035
O O12 0.312676 0.987046 0.378265
O O13 0.484833 0.946856 0.343187
O O14 0.209782 0.934109 0.074258
O O15 0.012972 0.010421 0.782129
O O16 0.371846 0.537843 0.679406
O O17 0.000000 0.500000 0.000000
O O18 0.500000 0.000000 0.000000
#
# Coordination Sequence:
#
# PCOD9157690 Si02
#       8
#     4   4   4   4   4   4   4   4
#     4  11  24  38  58  90 123 157 198 253 307 347
#     4  10  20  36  58  80 118 151 202 243 290 358
#     4  10  21  36  57  87 120 150 197 254 302 351
#     4   9  20  37  62  87 113 158 201 239 297 359
#     4   9  18  34  56  84 108 155 193 239 294 353
#     4  10  20  38  60  88 115 153 202 244 287 365
#     4  10  18  35  60  88 115 154 199 244 289 361
#     4  11  21  37  62  88 113 159 207 241 295 363
#
# _framework density 19.629828
#
# number of rings (size 3 to 8) (size 9 to 14) (size 15 to 20)
#    0.000    2.000    2.500    2.250    1.750    1.500 
#    0.000    0.625    0.000    3.000    0.000    0.000 
#    0.000    0.000    0.000    0.000    0.000    0.000 
#
# Total GULP energy -178282.935926 kJ/mol
# GULP energy per Si atom -5571.341748 kJ/mol
# Density = 1.958515 g / cm^3
# Si number density = 19.629828 Si / 1000 Ang^3
#
#
#
# Elastic Constant Matrix: (Units=GPa)
#
#
# Indices 1 2 3 4 5 6 
#
# 1 76.6465 5.8768 25.9784 0.0000 1.8698 0.0000
# 2 5.8768 48.0250 24.7210 0.0000 7.1208 0.0000
# 3 25.9784 24.7210 96.0291 0.0000 9.0235 0.0000
# 4 0.0000 0.0000 0.0000 13.1583 0.0000 3.6558
# 5 1.8698 7.1208 9.0235 0.0000 38.9227 0.0000
# 6 0.0000 0.0000 0.0000 3.6558 0.0000 11.4574
#
#
#
# Elastic Compliance Matrix: (Units=1/GPa)
#
#
# Indices 1 2 3 4 5 6 
#
# 1 0.014368 0.000259 -0.003971 0.000000 0.000183 0.000000
# 2 0.000259 0.024361 -0.006053 0.000000 -0.003066 0.000000
# 3 -0.003971 -0.006053 0.013212 0.000000 -0.001765 0.000000
# 4 0.000000 0.000000 0.000000 0.083391 0.000000 -0.026608
# 5 0.000183 -0.003066 -0.001765 0.000000 0.026653 0.000000
# 6 0.000000 0.000000 0.000000 -0.026608 0.000000 0.095770
#
#
# Mechanical properties :
#
#
# Convention : Reuss Voigt Hill
#
# Bulk Modulus (GPa) = 30.85400 37.09478 33.97439
# Shear Modulus (GPa) = 17.35570 23.64932 20.50251
#
# Velocity S-wave (km/s) = 2.97669 3.47474 3.23531
# Velocity P-wave (km/s) = 5.25036 5.91917 5.59477
#
# Compressibility (1/GPa) = 0.03241071
#
# Stress axis : x y z
#
# Youngs Moduli (GPa) = 69.59683 41.04861 75.68967
#
# Poissons Ratio (x) = -0.01061 0.30055
# Poissons Ratio (y) = -0.01800 0.45817
# Poissons Ratio (z) = 0.27636 0.24848
#
# Static dielectric constant tensor:
#      x y z
#    x 1.782450 0.000000 0.004400 
#    y 0.000000 1.714280 0.000000 
#    z 0.004400 0.000000 1.746290 
# 
# From -- ./inp_files/52587.got.cif
#   From: 2010.05.17/outbox.cif.g08.bks.cpg/sg11_27_cif.got.tgz:52587.got - 2010.06.03 12:22:45.
