data_PCOD9157900
_publ_section_title
;
Structure prediction by ZEFSAII (Michael W. Deem and Ramdas Pophale) SiO2 
 PCOD9157900
Probable space group: P 21/M
;
_chemical_formula_sum "Si O2"
_cell_formula_units_Z 32
_cell_length_a 10.566611
_cell_length_b 8.009171
_cell_length_c 17.849099
_cell_angle_alpha 90.000000
_cell_angle_beta 57.181859
_cell_angle_gamma 90.000000
_cell_volume 1269.471828
_symmetry_space_group_name_H-M "P 21/M"
_symmetry_group_IT_number 11
_symmetry_cell_setting 'monoclinic'
loop_
_space_group_symop_operation_xyz
x,y,z
-x,1/2+y,-z
-x,-y,-z
x,1/2-y,z
loop_
_atom_site_type_symbol
_atom_site_label
_atom_site_fract_x
_atom_site_fract_y
_atom_site_fract_z
Si Si1 0.841434 0.553571 0.883193
Si Si2 0.181521 0.447682 0.772925
Si Si3 0.886908 0.448246 0.612952
Si Si4 0.548311 0.051480 0.749435
Si Si5 0.824128 0.548848 0.056038
Si Si6 0.799760 0.555425 0.473691
Si Si7 0.438622 0.942762 0.098666
Si Si8 0.525745 0.058013 0.391041
O O1 0.809587 0.750000 0.890079
O O2 0.738997 0.465957 0.855291
O O3 0.018354 0.526675 0.814135
O O4 0.789337 0.490096 0.982487
O O5 0.160790 0.250000 0.782059
O O6 0.231302 0.501313 0.842192
O O7 0.306052 0.483213 0.668767
O O8 0.908861 0.250000 0.590426
O O9 0.727768 0.457679 0.704134
O O10 0.847265 0.537535 0.546592
O O11 0.037640 0.509809 0.608128
O O12 0.510329 0.250000 0.748501
O O13 0.492074 0.983077 0.847235
O O14 0.516533 0.955868 0.683523
O O15 0.808328 0.750000 0.059229
O O16 0.000000 0.500000 0.000000
O O17 0.785111 0.750000 0.457897
O O18 0.628082 0.484099 0.521015
O O19 0.473366 0.750000 0.096434
O O20 0.500000 0.000000 0.000000
O O21 0.537622 0.250000 0.409428
#
# Coordination Sequence:
#
# PCOD9157900 Si02
#       8
#     4   4   4   4   4   4   4   4
#     4  10  20  36  54  72  93 122 162 206 248 291
#     4  10  19  32  50  72  98 129 161 196 240 292
#     4   8  13  25  45  65  89 125 161 194 234 282
#     4   9  19  34  50  69  96 130 169 205 240 287
#     4   8  16  29  46  66  87 112 147 190 233 277
#     4   8  14  24  40  66  98 126 154 190 235 286
#     4  11  24  39  53  71  96 129 168 208 246 285
#     4  10  19  29  45  74 107 133 159 195 241 291
#
# _framework density 25.207332999999998
#
# number of rings (size 3 to 8) (size 9 to 14) (size 15 to 20)
#    0.000    2.750    0.000    1.500    1.750    2.500 
#    0.000    0.000    0.000    0.000    0.000    0.875 
#    0.000    0.000    0.000    0.000    0.000    0.000 
#
# Total GULP energy -178322.916622 kJ/mol
# GULP energy per Si atom -5572.591144 kJ/mol
# Density = 2.514996 g / cm^3
# Si number density = 25.207333 Si / 1000 Ang^3
#
#
#
# Elastic Constant Matrix: (Units=GPa)
#
#
# Indices 1 2 3 4 5 6 
#
# 1 67.6306 6.0223 10.6959 0.0000 -12.0231 0.0000
# 2 6.0223 30.9692 12.8815 0.0000 3.1351 0.0000
# 3 10.6959 12.8815 79.7365 0.0000 -9.7380 0.0000
# 4 0.0000 0.0000 0.0000 19.8454 0.0000 -10.0964
# 5 -12.0231 3.1351 -9.7380 0.0000 50.7546 0.0000
# 6 0.0000 0.0000 0.0000 -10.0964 0.0000 19.2784
#
#
#
# Elastic Compliance Matrix: (Units=1/GPa)
#
#
# Indices 1 2 3 4 5 6 
#
# 1 0.015902 -0.002970 -0.001199 0.000000 0.003720 0.000000
# 2 -0.002970 0.035715 -0.005864 0.000000 -0.004035 0.000000
# 3 -0.001199 -0.005864 0.013987 0.000000 0.002762 0.000000
# 4 0.000000 0.000000 0.000000 0.068692 0.000000 0.035975
# 5 0.003720 -0.004035 0.002762 0.000000 0.021363 0.000000
# 6 0.000000 0.000000 0.000000 0.035975 0.000000 0.070712
#
#
# Mechanical properties :
#
#
# Convention : Reuss Voigt Hill
#
# Bulk Modulus (GPa) = 21.96000 26.39283 24.17642
# Shear Modulus (GPa) = 19.11196 27.89145 23.50170
#
# Velocity S-wave (km/s) = 2.75651 3.32999 3.05673
# Velocity P-wave (km/s) = 4.34302 5.02774 4.69787
#
# Compressibility (1/GPa) = 0.04553733
#
# Stress axis : x y z
#
# Youngs Moduli (GPa) = 62.88640 27.99916 71.49615
#
# Poissons Ratio (x) = 0.08316 0.08571
# Poissons Ratio (y) = 0.18679 0.41927
# Poissons Ratio (z) = 0.07539 0.16419
#
# Static dielectric constant tensor:
#      x y z
#    x 2.405210 0.000000 0.049530 
#    y 0.000000 1.897490 0.000000 
#    z 0.049530 0.000000 2.071120 
# 
# From -- ./inp_files/40611.got.cif
#   From: 2010.05.17/outbox.cif.g08.bks.cpg/sg11_21_cif.got.tgz:40611.got - 2010.06.03 12:22:45.
