data_PCOD9157049
_publ_section_title
;
Structure prediction by ZEFSAII (Michael W. Deem and Ramdas Pophale) SiO2 
 PCOD9157049
Probable space group: P 21/M
;
_chemical_formula_sum "Si O2"
_cell_formula_units_Z 32
_cell_length_a 13.376516
_cell_length_b 13.658047
_cell_length_c 7.627631
_cell_angle_alpha 90.000000
_cell_angle_beta 103.081371
_cell_angle_gamma 90.000000
_cell_volume 1357.382881
_symmetry_space_group_name_H-M "P 21/M"
_symmetry_group_IT_number 11
_symmetry_cell_setting 'monoclinic'
loop_
_space_group_symop_operation_xyz
x,y,z
-x,1/2+y,-z
-x,-y,-z
x,1/2-y,z
loop_
_atom_site_type_symbol
_atom_site_label
_atom_site_fract_x
_atom_site_fract_y
_atom_site_fract_z
Si Si1 0.495255 0.933310 0.721058
Si Si2 0.677095 0.021947 0.575697
Si Si3 0.912532 0.366164 0.288692
Si Si4 0.784164 0.642882 0.395343
Si Si5 0.766183 0.470607 0.956993
Si Si6 0.989445 0.364885 0.677909
Si Si7 0.602086 0.590586 0.086604
Si Si8 0.926550 0.866536 0.933956
O O1 0.590559 0.950813 0.629551
O O2 0.390661 0.908237 0.576559
O O3 0.466341 0.039556 0.792776
O O4 0.532811 0.869105 0.900887
O O5 0.751165 0.948347 0.500920
O O6 0.735206 0.075573 0.757998
O O7 0.895350 0.250000 0.287577
O O8 0.921736 0.404767 0.490849
O O9 0.831143 0.412890 0.125986
O O10 0.021460 0.381093 0.233556
O O11 0.790427 0.750000 0.488225
O O12 0.892251 0.627307 0.340295
O O13 0.692426 0.648490 0.216343
O O14 0.664241 0.503133 0.016397
O O15 0.827110 0.569010 0.926050
O O16 0.964008 0.250000 0.676843
O O17 0.992596 0.399051 0.880225
O O18 0.908071 0.750000 0.950253
#
# Coordination Sequence:
#
# PCOD9157049 Si02
#       8
#     4   4   4   4   4   4   4   4
#     4   8  16  33  51  71 101 133 169 213 270 326
#     4   9  18  31  53  76 103 138 174 216 264 327
#     4  10  22  38  53  74 110 152 189 228 270 314
#     4  10  18  31  51  81 111 135 169 220 275 331
#     4  11  20  33  54  83 104 138 191 224 261 325
#     4   9  18  34  52  74 111 145 173 219 284 326
#     4   9  17  31  54  76 102 138 172 213 268 324
#     4  10  20  35  53  78 113 146 176 227 285 326
#
# _framework density 23.574778999999999
#
# number of rings (size 3 to 8) (size 9 to 14) (size 15 to 20)
#    0.000    2.500    1.250    1.125    0.000    2.000 
#    4.500    1.875    0.000   28.500    0.000    0.000 
#    0.000    0.000    0.000    0.000    0.000    0.000 
#
# Total GULP energy -178645.764327 kJ/mol
# GULP energy per Si atom -5582.680135 kJ/mol
# Density = 2.352112 g / cm^3
# Si number density = 23.574779 Si / 1000 Ang^3
#
#
#
# Elastic Constant Matrix: (Units=GPa)
#
#
# Indices 1 2 3 4 5 6 
#
# 1 58.9147 10.6706 13.9392 0.0000 -1.0904 0.0000
# 2 10.6706 49.4075 14.3495 0.0000 5.6440 0.0000
# 3 13.9392 14.3495 187.8092 0.0000 12.6943 0.0000
# 4 0.0000 0.0000 0.0000 16.5716 0.0000 -5.4514
# 5 -1.0904 5.6440 12.6943 0.0000 41.4009 0.0000
# 6 0.0000 0.0000 0.0000 -5.4514 0.0000 0.7399
#
#
#
# Elastic Compliance Matrix: (Units=1/GPa)
#
#
# Indices 1 2 3 4 5 6 
#
# 1 0.017937 -0.003695 -0.001139 0.000000 0.001325 0.000000
# 2 -0.003695 0.021694 -0.001202 0.000000 -0.002686 0.000000
# 3 -0.001139 -0.001202 0.005608 0.000000 -0.001586 0.000000
# 4 0.000000 0.000000 0.000000 -0.042389 0.000000 -0.312298
# 5 0.001325 -0.002686 -0.001586 0.000000 0.025041 0.000000
# 6 0.000000 0.000000 0.000000 -0.312298 0.000000 -0.949350
#
#
# Mechanical properties :
#
#
# Convention : Reuss Voigt Hill
#
# Bulk Modulus (GPa) = 30.14879 41.56112 35.85496
# Shear Modulus (GPa) = -5.56586 28.88728 11.66071
#
# Velocity S-wave (km/s) = -1.53820 3.50429 2.22643
# Velocity P-wave (km/s) = 3.10831 5.83448 4.67455
#
# Compressibility (1/GPa) = 0.03316882
#
# Stress axis : x y z
#
# Youngs Moduli (GPa) = 55.75143 46.09648 178.31496
#
# Poissons Ratio (x) = 0.17030 0.20302
# Poissons Ratio (y) = 0.20597 0.21429
# Poissons Ratio (z) = 0.06348 0.05540
#
# Static dielectric constant tensor:
#      x y z
#    x 1.871260 0.000000 0.047410 
#    y 0.000000 1.847090 0.000000 
#    z 0.047410 0.000000 2.038800 
# 
# From -- ./inp_files/22221.got.cif
#   From: 2010.05.17/outbox.cif.g08.bks.cpg/sg11_12_cif.got.tgz:22221.got - 2010.06.03 12:22:45.
