data_PCOD9157457
_publ_section_title
;
Structure prediction by ZEFSAII (Michael W. Deem and Ramdas Pophale) SiO2 
 PCOD9157457
Probable space group: P 21/M
;
_chemical_formula_sum "Si O2"
_cell_formula_units_Z 24
_cell_length_a 8.292136
_cell_length_b 7.402487
_cell_length_c 17.215139
_cell_angle_alpha 90.000000
_cell_angle_beta 88.927225
_cell_angle_gamma 90.000000
_cell_volume 1056.521828
_symmetry_space_group_name_H-M "P 21/M"
_symmetry_group_IT_number 11
_symmetry_cell_setting 'monoclinic'
loop_
_space_group_symop_operation_xyz
x,y,z
-x,1/2+y,-z
-x,-y,-z
x,1/2-y,z
loop_
_atom_site_type_symbol
_atom_site_label
_atom_site_fract_x
_atom_site_fract_y
_atom_site_fract_z
Si Si1 0.688413 0.541796 0.822941
Si Si2 0.329651 0.528938 0.845443
Si Si3 0.527067 0.534707 0.590114
Si Si4 0.207482 0.970336 0.682867
Si Si5 0.812093 0.463587 0.991001
Si Si6 0.145636 0.029518 0.332334
O O1 0.664575 0.750000 0.800459
O O2 0.509435 0.463238 0.825085
O O3 0.754962 0.537482 0.909202
O O4 0.807560 0.471681 0.755929
O O5 0.329420 0.750000 0.848697
O O6 0.217765 0.479588 0.773850
O O7 0.276295 0.466364 0.930981
O O8 0.500000 0.500000 0.500000
O O9 0.530190 0.750000 0.603027
O O10 0.370709 0.466824 0.638949
O O11 0.702280 0.468427 0.617344
O O12 0.209791 0.750000 0.679989
O O13 0.036874 0.030703 0.648663
O O14 0.783655 0.250000 0.987370
O O15 0.000000 0.500000 0.000000
O O16 0.139385 0.250000 0.336663
#
# Coordination Sequence:
#
# PCOD9157457 Si02
#       6
#     4   4   4   4   4   4
#     4  10  18  33  56  79 103 135 178 224 267 314
#     4   9  17  31  53  78 103 135 179 223 261 310
#     4  10  20  35  55  79 105 135 172 215 263 316
#     4   9  16  30  53  79 104 134 176 218 254 306
#     4  11  22  34  49  75 109 144 182 223 264 309
#     4   9  17  31  55  81 104 137 178 215 256 313
#
# _framework density 22.716045999999999
#
# number of rings (size 3 to 8) (size 9 to 14) (size 15 to 20)
#    0.000    2.333    1.667    2.000    0.000    3.333 
#    0.000    1.667    0.000    5.000    0.000    0.000 
#    0.000    0.000    0.000    0.000    0.000    0.000 
#
# Total GULP energy -134034.285328 kJ/mol
# GULP energy per Si atom -5584.761889 kJ/mol
# Density = 2.266434 g / cm^3
# Si number density = 22.716046 Si / 1000 Ang^3
#
#
#
# Elastic Constant Matrix: (Units=GPa)
#
#
# Indices 1 2 3 4 5 6 
#
# 1 159.9359 -7.6507 43.6191 0.0000 37.0943 0.0000
# 2 -7.6507 72.6767 -12.1723 0.0000 -0.2220 0.0000
# 3 43.6191 -12.1723 114.2768 0.0000 26.4555 0.0000
# 4 0.0000 0.0000 0.0000 18.9728 0.0000 3.1322
# 5 37.0943 -0.2220 26.4555 0.0000 26.0565 0.0000
# 6 0.0000 0.0000 0.0000 3.1322 0.0000 -2.3156
#
#
#
# Elastic Compliance Matrix: (Units=1/GPa)
#
#
# Indices 1 2 3 4 5 6 
#
# 1 0.009423 0.000865 -0.000524 0.000000 -0.012875 0.000000
# 2 0.000865 0.014156 0.001876 0.000000 -0.003015 0.000000
# 3 -0.000524 0.001876 0.011732 0.000000 -0.011149 0.000000
# 4 0.000000 0.000000 0.000000 0.043086 0.000000 0.058279
# 5 -0.012875 -0.003015 -0.011149 0.000000 0.068002 0.000000
# 6 0.000000 0.000000 0.000000 0.058279 0.000000 -0.353020
#
#
# Mechanical properties :
#
#
# Convention : Reuss Voigt Hill
#
# Bulk Modulus (GPa) = 25.16153 43.83133 34.49643
# Shear Modulus (GPa) = -25.27712 30.08230 2.40259
#
# Velocity S-wave (km/s) = -3.33940 3.64301 1.02954
# Velocity P-wave (km/s) = 1.94118 6.08544 4.07826
#
# Compressibility (1/GPa) = 0.03974321
#
# Stress axis : x y z
#
# Youngs Moduli (GPa) = 106.12388 70.64373 85.24025
#
# Poissons Ratio (x) = -0.06110 0.04466
# Poissons Ratio (y) = -0.09178 -0.15988
# Poissons Ratio (z) = 0.05560 -0.13250
#
# Static dielectric constant tensor:
#      x y z
#    x 1.830770 0.000000 -0.010780 
#    y 0.000000 1.884400 0.000000 
#    z -0.010780 0.000000 1.814400 
# 
# From -- ./inp_files/21004.got.cif
#   From: 2010.05.17/outbox.cif.g08.bks.cpg/sg11_11_cif.got.tgz:21004.got - 2010.06.03 12:22:45.
