data_PCOD9157084
_publ_section_title
;
Structure prediction by ZEFSAII (Michael W. Deem and Ramdas Pophale) SiO2 
 PCOD9157084
Probable space group: P 21/M
;
_chemical_formula_sum "Si O2"
_cell_formula_units_Z 28
_cell_length_a 9.974566
_cell_length_b 8.009998
_cell_length_c 31.675360
_cell_angle_alpha 90.000000
_cell_angle_beta 31.377903
_cell_angle_gamma 90.000000
_cell_volume 1317.708089
_symmetry_space_group_name_H-M "P 21/M"
_symmetry_group_IT_number 11
_symmetry_cell_setting 'monoclinic'
loop_
_space_group_symop_operation_xyz
x,y,z
-x,1/2+y,-z
-x,-y,-z
x,1/2-y,z
loop_
_atom_site_type_symbol
_atom_site_label
_atom_site_fract_x
_atom_site_fract_y
_atom_site_fract_z
Si Si1 0.107770 0.053140 0.803831
Si Si2 0.959993 0.053974 0.419627
Si Si3 0.557501 0.446452 0.412612
Si Si4 0.112499 0.556319 0.290794
Si Si5 0.628726 0.945742 0.627480
Si Si6 0.722672 0.949656 0.973350
Si Si7 0.333118 0.545994 0.144758
O O1 0.145486 0.250000 0.787591
O O2 0.902156 0.994802 0.823171
O O3 0.377615 0.964856 0.724095
O O4 0.979425 0.023359 0.883935
O O5 0.912432 0.250000 0.438395
O O6 0.126165 0.982773 0.413927
O O7 0.683862 0.966636 0.491413
O O8 0.120583 0.031933 0.333629
O O9 0.622410 0.250000 0.391460
O O10 0.815940 0.539585 0.355671
O O11 0.451026 0.514624 0.396539
O O12 0.177267 0.750000 0.279751
O O13 0.279665 0.489004 0.206643
O O14 0.681590 0.750000 0.606879
O O15 0.746676 0.750000 0.967359
O O16 0.601158 0.005033 0.050656
O O17 0.500000 0.000000 0.000000
O O18 0.327673 0.750000 0.146429
#
# Coordination Sequence:
#
# PCOD9157084 Si02
#       7
#     4   4   4   4   4   4   4
#     4  10  18  31  52  80 110 141 177 219 271 323
#     4  11  24  40  55  78 110 145 181 224 274 324
#     4  11  22  38  59  83 105 137 183 228 275 324
#     4  11  21  37  58  81 110 145 181 223 269 320
#     4  10  22  38  57  80 109 142 181 226 273 322
#     4   9  16  28  47  76 110 141 175 219 270 319
#     4   8  16  30  50  77 107 139 174 216 266 313
#
# _framework density 21.249016000000001
#
# number of rings (size 3 to 8) (size 9 to 14) (size 15 to 20)
#    0.000    2.000    1.429    3.857    0.000    1.714 
#    0.000    2.143    0.000    0.857    0.000    0.000 
#    0.000    0.000    0.000    0.000    0.000    0.000 
#
# Total GULP energy -156318.024068 kJ/mol
# GULP energy per Si atom -5582.786574 kJ/mol
# Density = 2.120065 g / cm^3
# Si number density = 21.249016 Si / 1000 Ang^3
#
#
#
# Elastic Constant Matrix: (Units=GPa)
#
#
# Indices 1 2 3 4 5 6 
#
# 1 44.2268 -1.0186 0.1445 0.0000 11.4737 0.0000
# 2 -1.0186 31.7377 -12.1164 0.0000 2.6497 0.0000
# 3 0.1445 -12.1164 93.5713 0.0000 22.1611 0.0000
# 4 0.0000 0.0000 0.0000 24.9351 0.0000 2.6442
# 5 11.4737 2.6497 22.1611 0.0000 23.4466 0.0000
# 6 0.0000 0.0000 0.0000 2.6442 0.0000 11.0461
#
#
#
# Elastic Compliance Matrix: (Units=1/GPa)
#
#
# Indices 1 2 3 4 5 6 
#
# 1 0.027522 0.004317 0.004924 0.000000 -0.018610 0.000000
# 2 0.004317 0.035771 0.007837 0.000000 -0.013563 0.000000
# 3 0.004924 0.007837 0.016073 0.000000 -0.018487 0.000000
# 4 0.000000 0.000000 0.000000 0.041149 0.000000 -0.009850
# 5 -0.018610 -0.013563 -0.018487 0.000000 0.070763 0.000000
# 6 0.000000 0.000000 0.000000 -0.009850 0.000000 0.092887
#
#
# Mechanical properties :
#
#
# Convention : Reuss Voigt Hill
#
# Bulk Modulus (GPa) = 8.80887 15.95053 12.37970
# Shear Modulus (GPa) = 17.37023 24.05399 20.71211
#
# Velocity S-wave (km/s) = 2.86223 3.36818 3.12546
# Velocity P-wave (km/s) = 3.88300 4.75909 4.34319
#
# Compressibility (1/GPa) = 0.11352193
#
# Stress axis : x y z
#
# Youngs Moduli (GPa) = 36.33465 27.95552 62.21764
#
# Poissons Ratio (x) = -0.12068 -0.30636
# Poissons Ratio (y) = -0.15685 -0.48762
# Poissons Ratio (z) = -0.17891 -0.21910
#
# Static dielectric constant tensor:
#      x y z
#    x 1.773440 0.000000 0.040510 
#    y 0.000000 1.753170 0.000000 
#    z 0.040510 0.000000 1.804800 
# 
# From -- ./inp_files/28269.got.cif
#   From: 2010.05.17/outbox.cif.g08.bks.cpg/sg11_15_cif.got.tgz:28269.got - 2010.06.03 12:22:45.
