data_PCOD9157384
_publ_section_title
;
Structure prediction by ZEFSAII (Michael W. Deem and Ramdas Pophale) SiO2 
 PCOD9157384
Probable space group: P 21/M
;
_chemical_formula_sum "Si O2"
_cell_formula_units_Z 28
_cell_length_a 12.437370
_cell_length_b 19.874827
_cell_length_c 6.903614
_cell_angle_alpha 90.000000
_cell_angle_beta 139.102986
_cell_angle_gamma 90.000000
_cell_volume 1117.253428
_symmetry_space_group_name_H-M "P 21/M"
_symmetry_group_IT_number 11
_symmetry_cell_setting 'monoclinic'
loop_
_space_group_symop_operation_xyz
x,y,z
-x,1/2+y,-z
-x,-y,-z
x,1/2-y,z
loop_
_atom_site_type_symbol
_atom_site_label
_atom_site_fract_x
_atom_site_fract_y
_atom_site_fract_z
Si Si1 0.131271 0.055857 0.120549
Si Si2 0.552007 0.325860 0.268700
Si Si3 0.506738 0.535479 0.292306
Si Si4 0.079770 0.673995 0.275713
Si Si5 0.740597 0.929987 0.149604
Si Si6 0.981675 0.674144 0.590772
Si Si7 0.359945 0.676082 0.167434
O O1 0.297730 0.040836 0.464579
O O2 0.180727 0.055650 0.957447
O O3 0.041008 0.128029 0.013423
O O4 0.000000 0.000000 0.000000
O O5 0.527902 0.250000 0.165432
O O6 0.732441 0.351912 0.451332
O O7 0.566861 0.322596 0.519860
O O8 0.395614 0.371323 0.024001
O O9 0.500000 0.500000 0.500000
O O10 0.444317 0.611853 0.190941
O O11 0.377248 0.494367 0.986440
O O12 0.093181 0.750000 0.216836
O O13 0.007177 0.678122 0.392067
O O14 0.882450 0.895935 0.472342
O O15 0.918378 0.750000 0.560863
O O16 0.165480 0.666118 0.919873
O O17 0.384299 0.750000 0.111832
#
# Coordination Sequence:
#
# PCOD9157384 Si02
#       7
#     4   4   4   4   4   4   4
#     4  10  19  30  51  78 108 137 177 226 271 306
#     4  10  18  32  58  86 107 138 186 227 266 322
#     4  10  19  33  52  81 106 141 184 229 267 318
#     4   9  19  33  54  79 106 140 179 222 272 331
#     4  10  19  33  55  80 105 149 184 223 260 333
#     4   9  19  36  55  80 112 143 177 222 278 328
#     4  10  20  34  57  83 110 140 179 228 275 320
#
# _framework density 25.061457999999998
#
# number of rings (size 3 to 8) (size 9 to 14) (size 15 to 20)
#    0.000    2.286    2.857    1.286    2.000    1.714 
#    0.000    0.000    3.143    4.286    0.000    0.000 
#    0.000    0.000    0.000    0.000    0.000    0.000 
#
# Total GULP energy -156405.863099 kJ/mol
# GULP energy per Si atom -5585.923682 kJ/mol
# Density = 2.500442 g / cm^3
# Si number density = 25.061458 Si / 1000 Ang^3
#
#
#
# Elastic Constant Matrix: (Units=GPa)
#
#
# Indices 1 2 3 4 5 6 
#
# 1 91.6608 24.7774 10.4860 0.0000 12.4178 0.0000
# 2 24.7774 120.3484 45.8465 0.0000 38.2353 0.0000
# 3 10.4860 45.8465 84.5472 0.0000 24.5273 0.0000
# 4 0.0000 0.0000 0.0000 52.7648 0.0000 25.3746
# 5 12.4178 38.2353 24.5273 0.0000 39.6796 0.0000
# 6 0.0000 0.0000 0.0000 25.3746 0.0000 20.2768
#
#
#
# Elastic Compliance Matrix: (Units=1/GPa)
#
#
# Indices 1 2 3 4 5 6 
#
# 1 0.011655 -0.001817 0.000110 0.000000 -0.001964 0.000000
# 2 -0.001817 0.013373 -0.004207 0.000000 -0.009717 0.000000
# 3 0.000110 -0.004207 0.015755 0.000000 -0.005718 0.000000
# 4 0.000000 0.000000 0.000000 0.047595 0.000000 -0.059561
# 5 -0.001964 -0.009717 -0.005718 0.000000 0.038715 0.000000
# 6 0.000000 0.000000 0.000000 -0.059561 0.000000 0.123853
#
#
# Mechanical properties :
#
#
# Convention : Reuss Voigt Hill
#
# Bulk Modulus (GPa) = 34.53940 50.97512 42.75726
# Shear Modulus (GPa) = 18.35363 36.90734 27.63048
#
# Velocity S-wave (km/s) = 2.70912 3.84171 3.32401
# Velocity P-wave (km/s) = 4.85774 6.32949 5.64181
#
# Compressibility (1/GPa) = 0.02895244
#
# Stress axis : x y z
#
# Youngs Moduli (GPa) = 85.80341 74.77565 63.47355
#
# Poissons Ratio (x) = 0.13589 -0.00697
# Poissons Ratio (y) = 0.15593 0.26706
# Poissons Ratio (z) = -0.00942 0.31462
#
# Static dielectric constant tensor:
#      x y z
#    x 2.130980 0.000000 -0.057310 
#    y 0.000000 1.970740 0.000000 
#    z -0.057310 0.000000 1.946110 
# 
# From -- ./inp_files/23243.got.cif
#   From: 2010.05.17/outbox.cif.g08.bks.cpg/sg11_12_cif.got.tgz:23243.got - 2010.06.03 12:22:45.
