data_PCOD9157549
_publ_section_title
;
Structure prediction by ZEFSAII (Michael W. Deem and Ramdas Pophale) SiO2 
 PCOD9157549
Probable space group: P 21/M
;
_chemical_formula_sum "Si O2"
_cell_formula_units_Z 28
_cell_length_a 8.638514
_cell_length_b 18.920114
_cell_length_c 14.328743
_cell_angle_alpha 90.000000
_cell_angle_beta 38.988959
_cell_angle_gamma 90.000000
_cell_volume 1473.463287
_symmetry_space_group_name_H-M "P 21/M"
_symmetry_group_IT_number 11
_symmetry_cell_setting 'monoclinic'
loop_
_space_group_symop_operation_xyz
x,y,z
-x,1/2+y,-z
-x,-y,-z
x,1/2-y,z
loop_
_atom_site_type_symbol
_atom_site_label
_atom_site_fract_x
_atom_site_fract_y
_atom_site_fract_z
Si Si1 0.726246 0.488945 0.517898
Si Si2 0.168903 0.526119 0.748006
Si Si3 0.638167 0.828075 0.770102
Si Si4 0.033852 0.614488 0.462461
Si Si5 0.577638 0.403109 0.867249
Si Si6 0.681830 0.048349 0.030306
Si Si7 0.101056 0.168308 0.151303
O O1 0.437878 0.505373 0.656154
O O2 0.825136 0.491241 0.365511
O O3 0.794931 0.415132 0.534333
O O4 0.867723 0.549512 0.506317
O O5 0.098971 0.609210 0.781870
O O6 0.958110 0.482262 0.901321
O O7 0.529924 0.750000 0.830084
O O8 0.427134 0.887264 0.858874
O O9 0.798131 0.842369 0.789620
O O10 0.838041 0.831184 0.594476
O O11 0.209000 0.631010 0.293833
O O12 0.493319 0.480479 0.869862
O O13 0.652166 0.422046 0.938306
O O14 0.342371 0.352308 0.978982
O O15 0.027849 0.250000 0.174821
#
# Coordination Sequence:
#
# PCOD9157549 Si02
#       7
#     4   4   4   4   4   4   4
#     4  10  20  30  55  80 108 131 173 220 274 309
#     4  10  18  34  54  82 102 140 180 223 257 316
#     4  10  20  33  53  76 107 145 177 212 271 328
#     4  11  19  34  50  83 108 136 166 228 269 312
#     4   9  17  28  54  78 102 134 175 215 260 303
#     4   9  16  32  51  76 101 135 178 217 251 309
#     4   9  18  34  54  77 105 143 179 214 261 324
#
# _framework density 19.002848
#
# number of rings (size 3 to 8) (size 9 to 14) (size 15 to 20)
#    0.000    2.286    2.857    2.571    0.000    0.571 
#    0.000    7.143    0.000    4.286    0.000    0.000 
#    0.000    0.000    0.000    0.000    0.000    0.000 
#
# Total GULP energy -156068.549678 kJ/mol
# GULP energy per Si atom -5573.876774 kJ/mol
# Density = 1.895960 g / cm^3
# Si number density = 19.002848 Si / 1000 Ang^3
#
#
#
# Elastic Constant Matrix: (Units=GPa)
#
#
# Indices 1 2 3 4 5 6 
#
# 1 39.7494 20.4158 11.5813 0.0000 -6.6338 0.0000
# 2 20.4158 93.7999 45.8694 0.0000 -15.7096 0.0000
# 3 11.5813 45.8694 116.0744 0.0000 -9.2251 0.0000
# 4 0.0000 0.0000 0.0000 21.5958 0.0000 -2.9493
# 5 -6.6338 -15.7096 -9.2251 0.0000 25.4790 0.0000
# 6 0.0000 0.0000 0.0000 -2.9493 0.0000 7.8559
#
#
#
# Elastic Compliance Matrix: (Units=1/GPa)
#
#
# Indices 1 2 3 4 5 6 
#
# 1 0.028708 -0.005370 -0.000424 0.000000 0.004011 0.000000
# 2 -0.005370 0.015333 -0.005028 0.000000 0.006235 0.000000
# 3 -0.000424 -0.005028 0.010697 0.000000 0.000663 0.000000
# 4 0.000000 0.000000 0.000000 0.048808 0.000000 0.018324
# 5 0.004011 0.006235 0.000663 0.000000 0.044377 0.000000
# 6 0.000000 0.000000 0.000000 0.018324 0.000000 0.134172
#
#
# Mechanical properties :
#
#
# Convention : Reuss Voigt Hill
#
# Bulk Modulus (GPa) = 30.21531 45.03961 37.62746
# Shear Modulus (GPa) = 15.88470 22.43663 19.16067
#
# Velocity S-wave (km/s) = 2.89435 3.43986 3.17883
# Velocity P-wave (km/s) = 5.20621 6.28727 5.77211
#
# Compressibility (1/GPa) = 0.03309581
#
# Stress axis : x y z
#
# Youngs Moduli (GPa) = 34.83317 65.22065 93.48484
#
# Poissons Ratio (x) = 0.35020 0.03961
# Poissons Ratio (y) = 0.18704 0.47002
# Poissons Ratio (z) = 0.01476 0.32791
#
# Static dielectric constant tensor:
#      x y z
#    x 1.683790 0.000000 0.030570 
#    y 0.000000 1.651510 0.000000 
#    z 0.030570 0.000000 1.684230 
# 
# From -- ./inp_files/47977.got.cif
#   From: 2010.05.17/outbox.cif.g08.bks.cpg/sg11_24_cif.got.tgz:47977.got - 2010.06.03 12:22:45.
