data_PCOD9157392
_publ_section_title
;
Structure prediction by ZEFSAII (Michael W. Deem and Ramdas Pophale) SiO2 
 PCOD9157392
Probable space group: P 21/M
;
_chemical_formula_sum "Si O2"
_cell_formula_units_Z 32
_cell_length_a 10.804862
_cell_length_b 22.036666
_cell_length_c 9.783677
_cell_angle_alpha 90.000000
_cell_angle_beta 135.539444
_cell_angle_gamma 90.000000
_cell_volume 1631.640837
_symmetry_space_group_name_H-M "P 21/M"
_symmetry_group_IT_number 11
_symmetry_cell_setting 'monoclinic'
loop_
_space_group_symop_operation_xyz
x,y,z
-x,1/2+y,-z
-x,-y,-z
x,1/2-y,z
loop_
_atom_site_type_symbol
_atom_site_label
_atom_site_fract_x
_atom_site_fract_y
_atom_site_fract_z
Si Si1 0.429339 0.568090 0.298820
Si Si2 0.282028 0.051635 0.246007
Si Si3 0.987783 0.962044 0.740511
Si Si4 0.495964 0.321541 0.817069
Si Si5 0.757842 0.383866 0.218725
Si Si6 0.797200 0.921710 0.105486
Si Si7 0.895600 0.678615 0.386879
Si Si8 0.307265 0.010624 0.709359
O O1 0.547159 0.565814 0.528323
O O2 0.273253 0.521059 0.208213
O O3 0.424551 0.636563 0.240667
O O4 0.535171 0.532540 0.261916
O O5 0.120303 0.064590 0.219208
O O6 0.292357 0.085958 0.111092
O O7 0.866491 0.965284 0.507861
O O8 0.045063 0.031431 0.803730
O O9 0.156167 0.921371 0.839238
O O10 0.525871 0.250000 0.822316
O O11 0.283948 0.331803 0.664710
O O12 0.595689 0.344865 0.032982
O O13 0.705145 0.438357 0.279782
O O14 0.920987 0.344128 0.402867
O O15 0.863703 0.860525 0.226058
O O16 0.689167 0.956965 0.140048
O O17 0.904392 0.750000 0.368306
#
# Coordination Sequence:
#
# PCOD9157392 Si02
#       8
#     4   4   4   4   4   4   4   4
#     4  10  20  39  54  90 125 154 201 249 309 355
#     4  10  22  32  58  87 122 160 189 245 313 362
#     4  10  18  35  55  89 122 155 187 246 307 360
#     4  11  24  39  61  89 121 162 209 248 292 363
#     4  11  20  37  65  92 120 153 202 251 309 358
#     4  11  18  33  54  85 115 153 194 239 302 355
#     4  11  22  38  57  85 125 157 197 254 299 354
#     4  10  18  32  62  90 121 152 192 256 312 355
#
# _framework density 19.612158999999998
#
# number of rings (size 3 to 8) (size 9 to 14) (size 15 to 20)
#    0.000    1.500    3.750    3.750    1.750    1.000 
#    0.000    0.625    0.000    3.750    0.000    0.000 
#    0.000    0.000    0.000    0.000    0.000    0.000 
#
# Total GULP energy -178648.898804 kJ/mol
# GULP energy per Si atom -5582.778088 kJ/mol
# Density = 1.956752 g / cm^3
# Si number density = 19.612159 Si / 1000 Ang^3
#
#
#
# Elastic Constant Matrix: (Units=GPa)
#
#
# Indices 1 2 3 4 5 6 
#
# 1 44.7066 3.9368 19.9643 0.0000 -4.2350 0.0000
# 2 3.9368 133.0409 39.9053 0.0000 1.2962 0.0000
# 3 19.9643 39.9053 114.1275 0.0000 -12.3333 0.0000
# 4 0.0000 0.0000 0.0000 24.5629 0.0000 2.7560
# 5 -4.2350 1.2962 -12.3333 0.0000 34.1119 0.0000
# 6 0.0000 0.0000 0.0000 2.7560 0.0000 24.3413
#
#
#
# Elastic Compliance Matrix: (Units=1/GPa)
#
#
# Indices 1 2 3 4 5 6 
#
# 1 0.024378 0.000555 -0.004302 0.000000 0.001450 0.000000
# 2 0.000555 0.008478 -0.003214 0.000000 -0.001415 0.000000
# 3 -0.004302 -0.003214 0.011025 0.000000 0.003574 0.000000
# 4 0.000000 0.000000 0.000000 0.041236 0.000000 -0.004669
# 5 0.001450 -0.001415 0.003574 0.000000 0.030841 0.000000
# 6 0.000000 0.000000 0.000000 -0.004669 0.000000 0.041611
#
#
# Mechanical properties :
#
#
# Convention : Reuss Voigt Hill
#
# Bulk Modulus (GPa) = 33.38025 46.60976 39.99501
# Shear Modulus (GPa) = 27.55175 31.80780 29.67978
#
# Velocity S-wave (km/s) = 3.75217 4.03158 3.89438
# Velocity P-wave (km/s) = 5.98572 6.74454 6.37643
#
# Compressibility (1/GPa) = 0.02995783
#
# Stress axis : x y z
#
# Youngs Moduli (GPa) = 41.02143 117.95221 90.70471
#
# Poissons Ratio (x) = -0.06544 0.39018
# Poissons Ratio (y) = -0.02276 0.29156
# Poissons Ratio (z) = 0.17646 0.37914
#
# Static dielectric constant tensor:
#      x y z
#    x 1.712170 0.000000 0.030670 
#    y 0.000000 1.678490 0.000000 
#    z 0.030670 0.000000 1.768250 
# 
# From -- ./inp_files/19416.got.cif
#   From: 2010.05.17/outbox.cif.g08.bks.cpg/sg11_10_cif.got.tgz:19416.got - 2010.06.03 12:22:45.
