data_PCOD9157742
_publ_section_title
;
Structure prediction by ZEFSAII (Michael W. Deem and Ramdas Pophale) SiO2 
 PCOD9157742
Probable space group: P 21/M
;
_chemical_formula_sum "Si O2"
_cell_formula_units_Z 32
_cell_length_a 10.161413
_cell_length_b 14.479104
_cell_length_c 15.640052
_cell_angle_alpha 90.000000
_cell_angle_beta 142.807041
_cell_angle_gamma 90.000000
_cell_volume 1391.012937
_symmetry_space_group_name_H-M "P 21/M"
_symmetry_group_IT_number 11
_symmetry_cell_setting 'monoclinic'
loop_
_space_group_symop_operation_xyz
x,y,z
-x,1/2+y,-z
-x,-y,-z
x,1/2-y,z
loop_
_atom_site_type_symbol
_atom_site_label
_atom_site_fract_x
_atom_site_fract_y
_atom_site_fract_z
Si Si1 0.432317 0.862623 0.497404
Si Si2 0.866326 0.860085 0.454449
Si Si3 0.928860 0.138220 0.825865
Si Si4 0.342069 0.896766 0.978825
Si Si5 0.097887 0.140254 0.326963
Si Si6 0.686640 0.361551 0.377957
Si Si7 0.386537 0.645682 0.191996
Si Si8 0.563670 0.903636 0.926363
O O1 0.434024 0.750000 0.497732
O O2 0.224475 0.889478 0.332941
O O3 0.660553 0.890689 0.573558
O O4 0.416123 0.894954 0.586678
O O5 0.849887 0.750000 0.424213
O O6 0.930649 0.867133 0.586535
O O7 0.624432 0.900062 0.320550
O O8 0.065943 0.897719 0.502649
O O9 0.939081 0.250000 0.832519
O O10 0.802187 0.105011 0.846003
O O11 0.178223 0.108786 0.949235
O O12 0.326741 0.847510 0.061994
O O13 0.465815 0.854804 0.960522
O O14 0.096181 0.912056 0.820148
O O15 0.469847 0.988983 0.070760
O O16 0.076354 0.250000 0.293989
O O17 0.699144 0.250000 0.390913
O O18 0.553495 0.379141 0.222501
O O19 0.417778 0.750000 0.243489
#
# Coordination Sequence:
#
# PCOD9157742 Si02
#       8
#     4   4   4   4   4   4   4   4
#     4   9  19  35  59  90 117 142 183 240 295 342
#     4   9  17  33  59  86 112 143 188 242 288 335
#     4  10  21  39  62  89 119 147 183 239 296 344
#     4  11  25  41  57  81 117 161 200 235 280 339
#     4  10  18  36  62  84 111 148 192 239 282 338
#     4  10  20  36  60  87 113 148 191 236 287 342
#     4  10  21  38  62  91 116 145 189 240 291 343
#     4  11  25  42  55  80 122 159 195 239 283 337
#
# _framework density 23.004819000000001
#
# number of rings (size 3 to 8) (size 9 to 14) (size 15 to 20)
#    0.000    2.000    2.500    0.750    3.500    2.000 
#    0.000    2.500    0.000    0.000    0.000    0.000 
#    0.000    0.000    0.000    0.000    0.000    0.000 
#
# Total GULP energy -178754.511755 kJ/mol
# GULP energy per Si atom -5586.078492 kJ/mol
# Density = 2.295246 g / cm^3
# Si number density = 23.004819 Si / 1000 Ang^3
#
#
#
# Elastic Constant Matrix: (Units=GPa)
#
#
# Indices 1 2 3 4 5 6 
#
# 1 150.8881 -0.2072 55.5268 0.0000 6.8957 0.0000
# 2 -0.2072 36.3911 -14.6992 0.0000 -8.9748 0.0000
# 3 55.5268 -14.6992 104.4459 0.0000 8.6636 0.0000
# 4 0.0000 0.0000 0.0000 18.6863 0.0000 -0.8195
# 5 6.8957 -8.9748 8.6636 0.0000 39.6661 0.0000
# 6 0.0000 0.0000 0.0000 -0.8195 0.0000 14.4675
#
#
#
# Elastic Compliance Matrix: (Units=1/GPa)
#
#
# Indices 1 2 3 4 5 6 
#
# 1 0.008386 -0.002063 -0.004673 0.000000 -0.000904 0.000000
# 2 -0.002063 0.031016 0.004939 0.000000 0.006297 0.000000
# 3 -0.004673 0.004939 0.012826 0.000000 -0.000871 0.000000
# 4 0.000000 0.000000 0.000000 0.053648 0.000000 0.003039
# 5 -0.000904 0.006297 -0.000871 0.000000 0.026983 0.000000
# 6 0.000000 0.000000 0.000000 0.003039 0.000000 0.069293
#
#
# Mechanical properties :
#
#
# Convention : Reuss Voigt Hill
#
# Bulk Modulus (GPa) = 20.56189 41.44066 31.00127
# Shear Modulus (GPa) = 22.52689 31.30427 26.91558
#
# Velocity S-wave (km/s) = 3.13265 3.69286 3.42423
# Velocity P-wave (km/s) = 4.69491 6.01963 5.39806
#
# Compressibility (1/GPa) = 0.04863367
#
# Stress axis : x y z
#
# Youngs Moduli (GPa) = 119.25006 32.24176 77.96471
#
# Poissons Ratio (x) = 0.06651 0.36437
# Poissons Ratio (y) = 0.24600 -0.38509
# Poissons Ratio (z) = 0.55731 -0.15925
#
# Static dielectric constant tensor:
#      x y z
#    x 1.863180 0.000000 0.012980 
#    y 0.000000 1.939590 0.000000 
#    z 0.012980 0.000000 1.795070 
# 
# From -- ./inp_files/32689.got.cif
#   From: 2010.05.17/outbox.cif.g08.bks.cpg/sg11_17_cif.got.tgz:32689.got - 2010.06.03 12:22:45.
