data_PCOD9157222
_publ_section_title
;
Structure prediction by ZEFSAII (Michael W. Deem and Ramdas Pophale) SiO2 
 PCOD9157222
Probable space group: P 21/M
;
_chemical_formula_sum "Si O2"
_cell_formula_units_Z 32
_cell_length_a 25.856013
_cell_length_b 13.645000
_cell_length_c 9.413939
_cell_angle_alpha 90.000000
_cell_angle_beta 30.585092
_cell_angle_gamma 90.000000
_cell_volume 1689.929024
_symmetry_space_group_name_H-M "P 21/M"
_symmetry_group_IT_number 11
_symmetry_cell_setting 'monoclinic'
loop_
_space_group_symop_operation_xyz
x,y,z
-x,1/2+y,-z
-x,-y,-z
x,1/2-y,z
loop_
_atom_site_type_symbol
_atom_site_label
_atom_site_fract_x
_atom_site_fract_y
_atom_site_fract_z
Si Si1 0.467807 0.862647 0.241004
Si Si2 0.577650 0.362814 0.986002
Si Si3 0.782981 0.865492 0.928837
Si Si4 0.309561 0.444927 0.277877
Si Si5 0.110772 0.436451 0.579981
Si Si6 0.020784 0.861221 0.863610
Si Si7 0.192136 0.137901 0.797406
Si Si8 0.425665 0.469093 0.547104
O O1 0.444165 0.750000 0.328550
O O2 0.449076 0.879240 0.117228
O O3 0.409928 0.937568 0.480934
O O4 0.586829 0.885317 0.985386
O O5 0.606455 0.250000 0.936748
O O6 0.662944 0.442881 0.820173
O O7 0.482627 0.390066 0.311404
O O8 0.768417 0.750000 0.934747
O O9 0.874019 0.905865 0.617068
O O10 0.807689 0.877662 0.036154
O O11 0.678881 0.924666 0.148522
O O12 0.216944 0.406623 0.402771
O O13 0.268757 0.432913 0.534359
O O14 0.094991 0.552088 0.641825
O O15 0.020155 0.384508 0.880671
O O16 0.058558 0.750000 0.764333
O O17 0.919998 0.871312 0.003876
O O18 0.226703 0.250000 0.687550
O O19 0.500000 0.500000 0.500000
#
# Coordination Sequence:
#
# PCOD9157222 Si02
#       8
#     4   4   4   4   4   4   4   4
#     4  10  20  34  53  74 101 140 181 218 252 291
#     4  10  20  34  52  73 101 141 183 217 250 292
#     4  11  21  34  53  78 104 131 169 212 251 295
#     4  10  18  32  52  75 102 133 174 213 246 293
#     4  10  21  34  54  80 101 130 166 204 254 307
#     4   9  19  38  57  75 101 129 161 204 255 309
#     4   9  18  32  55  80 101 130 166 208 256 301
#     4  11  22  34  49  74 108 141 170 209 260 303
#
# _framework density 18.935707000000001
#
# number of rings (size 3 to 8) (size 9 to 14) (size 15 to 20)
#    0.000    2.000    0.000    5.625    0.000    6.500 
#    0.000    0.625    0.000    0.750    0.000    0.000 
#    0.000    0.000    0.000    0.000    0.000    0.000 
#
# Total GULP energy -178638.302748 kJ/mol
# GULP energy per Si atom -5582.446961 kJ/mol
# Density = 1.889261 g / cm^3
# Si number density = 18.935707 Si / 1000 Ang^3
#
#
#
# Elastic Constant Matrix: (Units=GPa)
#
#
# Indices 1 2 3 4 5 6 
#
# 1 25.7334 8.1339 10.9340 0.0000 12.2021 0.0000
# 2 8.1339 54.3009 28.5805 0.0000 19.5440 0.0000
# 3 10.9340 28.5805 75.1735 0.0000 19.4302 0.0000
# 4 0.0000 0.0000 0.0000 13.8307 0.0000 0.5039
# 5 12.2021 19.5440 19.4302 0.0000 21.2711 0.0000
# 6 0.0000 0.0000 0.0000 0.5039 0.0000 17.4191
#
#
#
# Elastic Compliance Matrix: (Units=1/GPa)
#
#
# Indices 1 2 3 4 5 6 
#
# 1 0.054159 0.004791 -0.000695 0.000000 -0.034836 0.000000
# 2 0.004791 0.029545 -0.005502 0.000000 -0.024869 0.000000
# 3 -0.000695 -0.005502 0.018439 0.000000 -0.011390 0.000000
# 4 0.000000 0.000000 0.000000 0.072379 0.000000 -0.002094
# 5 -0.034836 -0.024869 -0.011390 0.000000 0.100249 0.000000
# 6 0.000000 0.000000 0.000000 -0.002094 0.000000 0.057469
#
#
# Mechanical properties :
#
#
# Convention : Reuss Voigt Hill
#
# Bulk Modulus (GPa) = 10.06725 27.83386 18.95055
# Shear Modulus (GPa) = 13.58099 17.67482 15.62790
#
# Velocity S-wave (km/s) = 2.68099 3.05849 2.87594
# Velocity P-wave (km/s) = 3.86157 5.21570 4.58886
#
# Compressibility (1/GPa) = 0.09933199
#
# Stress axis : x y z
#
# Youngs Moduli (GPa) = 18.46415 33.84692 54.23195
#
# Poissons Ratio (x) = -0.16217 0.03769
# Poissons Ratio (y) = -0.08847 0.29837
# Poissons Ratio (z) = 0.01283 0.18622
#
# Static dielectric constant tensor:
#      x y z
#    x 1.678260 0.000000 0.015590 
#    y 0.000000 1.660140 0.000000 
#    z 0.015590 0.000000 1.652830 
# 
# From -- ./inp_files/28854.got.cif
#   From: 2010.05.17/outbox.cif.g08.bks.cpg/sg11_15_cif.got.tgz:28854.got - 2010.06.03 12:22:45.
