data_PCOD9157283
_publ_section_title
;
Structure prediction by ZEFSAII (Michael W. Deem and Ramdas Pophale) SiO2 
 PCOD9157283
Probable space group: P 21/M
;
_chemical_formula_sum "Si O2"
_cell_formula_units_Z 32
_cell_length_a 10.984433
_cell_length_b 7.975849
_cell_length_c 21.037117
_cell_angle_alpha 90.000000
_cell_angle_beta 125.509224
_cell_angle_gamma 90.000000
_cell_volume 1500.295972
_symmetry_space_group_name_H-M "P 21/M"
_symmetry_group_IT_number 11
_symmetry_cell_setting 'monoclinic'
loop_
_space_group_symop_operation_xyz
x,y,z
-x,1/2+y,-z
-x,-y,-z
x,1/2-y,z
loop_
_atom_site_type_symbol
_atom_site_label
_atom_site_fract_x
_atom_site_fract_y
_atom_site_fract_z
Si Si1 0.477853 0.550327 0.263256
Si Si2 0.294744 0.943870 0.895901
Si Si3 0.015348 0.054625 0.749448
Si Si4 0.542037 0.952957 0.878144
Si Si5 0.550825 0.051812 0.421999
Si Si6 0.139208 0.953834 0.163976
Si Si7 0.154436 0.444911 0.983649
Si Si8 0.743120 0.553891 0.593980
O O1 0.472972 0.750000 0.268642
O O2 0.534731 0.505865 0.210603
O O3 0.559387 0.480807 0.349874
O O4 0.307134 0.481827 0.211013
O O5 0.311850 0.750000 0.920256
O O6 0.446391 0.009042 0.909988
O O7 0.168652 0.954501 0.802522
O O8 0.228886 0.044015 0.935590
O O9 0.053810 0.250000 0.765361
O O10 0.920944 0.007083 0.783902
O O11 0.901966 0.027076 0.657418
O O12 0.547246 0.750000 0.882264
O O13 0.712763 0.020762 0.933603
O O14 0.554121 0.250000 0.435240
O O15 0.390528 0.986558 0.400569
O O16 0.679709 0.972172 0.504136
O O17 0.141798 0.750000 0.159113
O O18 0.011976 0.018095 0.076359
O O19 0.137583 0.250000 0.995384
O O20 0.759791 0.750000 0.612346
#
# Coordination Sequence:
#
# PCOD9157283 Si02
#       8
#     4   4   4   4   4   4   4   4
#     4  11  21  34  52  74 106 143 181 218 255 312
#     4  10  20  34  53  78 105 133 175 227 269 310
#     4  10  18  32  54  78 108 139 171 215 265 314
#     4  10  22  37  52  73 104 141 179 221 268 315
#     4  10  20  33  51  77 110 144 174 209 256 309
#     4   8  16  30  49  74 103 134 169 212 261 307
#     4   9  18  35  56  76 101 135 174 221 273 317
#     4  10  19  31  52  82 111 138 173 213 255 306
#
# _framework density 21.329122999999999
#
# number of rings (size 3 to 8) (size 9 to 14) (size 15 to 20)
#    0.000    2.250    1.250    3.000    0.000    3.000 
#    0.000    0.625    0.000    0.750    0.000    0.000 
#    0.000    0.000    0.000    0.000    0.000    0.000 
#
# Total GULP energy -178655.887938 kJ/mol
# GULP energy per Si atom -5582.996498 kJ/mol
# Density = 2.128058 g / cm^3
# Si number density = 21.329123 Si / 1000 Ang^3
#
#
#
# Elastic Constant Matrix: (Units=GPa)
#
#
# Indices 1 2 3 4 5 6 
#
# 1 33.4025 1.3027 -0.9757 0.0000 -2.4524 0.0000
# 2 1.3027 39.9685 -5.8256 0.0000 2.9095 0.0000
# 3 -0.9757 -5.8256 111.1133 0.0000 -3.2216 0.0000
# 4 0.0000 0.0000 0.0000 23.9901 0.0000 -2.5237
# 5 -2.4524 2.9095 -3.2216 0.0000 27.7181 0.0000
# 6 0.0000 0.0000 0.0000 -2.5237 0.0000 15.1007
#
#
#
# Elastic Compliance Matrix: (Units=1/GPa)
#
#
# Indices 1 2 3 4 5 6 
#
# 1 0.030198 -0.001148 0.000287 0.000000 0.002826 0.000000
# 2 -0.001148 0.025430 0.001247 0.000000 -0.002626 0.000000
# 3 0.000287 0.001247 0.009095 0.000000 0.000952 0.000000
# 4 0.000000 0.000000 0.000000 0.042430 0.000000 0.007091
# 5 0.002826 -0.002626 0.000952 0.000000 0.036714 0.000000
# 6 0.000000 0.000000 0.000000 0.007091 0.000000 0.067407
#
#
# Mechanical properties :
#
#
# Convention : Reuss Voigt Hill
#
# Bulk Modulus (GPa) = 15.26822 19.27634 17.27228
# Shear Modulus (GPa) = 21.52068 26.02732 23.77400
#
# Velocity S-wave (km/s) = 3.17989 3.49703 3.34222
# Velocity P-wave (km/s) = 4.54491 5.03615 4.79682
#
# Compressibility (1/GPa) = 0.06549553
#
# Stress axis : x y z
#
# Youngs Moduli (GPa) = 33.11423 39.32357 109.94670
#
# Poissons Ratio (x) = 0.04515 -0.03154
# Poissons Ratio (y) = 0.03802 -0.13711
# Poissons Ratio (z) = -0.00950 -0.04904
#
# Static dielectric constant tensor:
#      x y z
#    x 1.789910 0.000000 0.009730 
#    y 0.000000 1.742700 0.000000 
#    z 0.009730 0.000000 1.809800 
# 
# From -- ./inp_files/64344.got.cif
#   From: 2010.05.17/outbox.cif.g08.bks.cpg/sg11_33_cif.got.tgz:64344.got - 2010.06.03 12:22:45.
