data_PCOD9157947
_publ_section_title
;
Structure prediction by ZEFSAII (Michael W. Deem and Ramdas Pophale) SiO2 
 PCOD9157947
Probable space group: P 21/M
;
_chemical_formula_sum "Si O2"
_cell_formula_units_Z 32
_cell_length_a 28.478046
_cell_length_b 9.100854
_cell_length_c 17.234465
_cell_angle_alpha 90.000000
_cell_angle_beta 24.541485
_cell_angle_gamma 90.000000
_cell_volume 1855.267077
_symmetry_space_group_name_H-M "P 21/M"
_symmetry_group_IT_number 11
_symmetry_cell_setting 'monoclinic'
loop_
_space_group_symop_operation_xyz
x,y,z
-x,1/2+y,-z
-x,-y,-z
x,1/2-y,z
loop_
_atom_site_type_symbol
_atom_site_label
_atom_site_fract_x
_atom_site_fract_y
_atom_site_fract_z
Si Si1 0.733075 0.578796 0.974906
Si Si2 0.511242 0.076550 0.274832
Si Si3 0.673440 0.573172 0.726099
Si Si4 0.599347 0.572719 0.402119
Si Si5 0.155921 0.424402 0.031200
Si Si6 0.508409 0.925491 0.111896
Si Si7 0.091209 0.423413 0.416660
Si Si8 0.075511 0.072838 0.618071
O O1 0.696735 0.750000 0.037146
O O2 0.822384 0.551759 0.909312
O O3 0.790280 0.558491 0.805508
O O4 0.628852 0.470680 0.137696
O O5 0.507133 0.250000 0.266705
O O6 0.419649 0.038456 0.478475
O O7 0.506561 0.993198 0.200275
O O8 0.664027 0.750000 0.729837
O O9 0.595438 0.491199 0.781422
O O10 0.805209 0.531942 0.522192
O O11 0.619750 0.540903 0.892002
O O12 0.500000 0.500000 0.500000
O O13 0.590310 0.750000 0.406080
O O14 0.725286 0.529131 0.186015
O O15 0.142423 0.250000 0.039131
O O16 0.042069 0.505161 0.176318
O O17 0.500699 0.750000 0.128995
O O18 0.067027 0.250000 0.453778
O O19 0.089157 0.475199 0.507729
O O20 0.000000 0.500000 0.500000
O O21 0.067926 0.250000 0.631681
#
# Coordination Sequence:
#
# PCOD9157947 Si02
#       8
#     4   4   4   4   4   4   4   4
#     4  10  19  32  49  70 102 141 176 214 260 308
#     4  11  22  34  53  79 106 137 176 222 270 319
#     4   9  19  37  58  81 111 142 174 215 263 316
#     4  10  21  36  53  75 104 140 181 225 271 314
#     4  10  20  34  51  72 102 139 178 219 261 308
#     4  10  20  36  59  84 110 139 173 216 266 319
#     4  10  19  30  44  67 101 138 172 205 246 299
#     4  10  20  33  51  74 105 142 176 213 259 312
#
# _framework density 17.248190999999998
#
# number of rings (size 3 to 8) (size 9 to 14) (size 15 to 20)
#    0.000    2.000    2.500    1.500    0.000    5.000 
#    0.000    1.250    0.000    0.750    0.000    0.000 
#    0.000    0.000    0.000    0.000    0.000    0.000 
#
# Total GULP energy -178457.992758 kJ/mol
# GULP energy per Si atom -5576.812274 kJ/mol
# Density = 1.720893 g / cm^3
# Si number density = 17.248191 Si / 1000 Ang^3
#
#
#
# Elastic Constant Matrix: (Units=GPa)
#
#
# Indices 1 2 3 4 5 6 
#
# 1 63.5503 28.2383 46.2412 0.0000 -4.5063 0.0000
# 2 28.2383 26.5062 43.7131 0.0000 -1.9965 0.0000
# 3 46.2412 43.7131 113.8602 0.0000 -15.4140 0.0000
# 4 0.0000 0.0000 0.0000 26.1825 0.0000 -4.4956
# 5 -4.5063 -1.9965 -15.4140 0.0000 27.2316 0.0000
# 6 0.0000 0.0000 0.0000 -4.4956 0.0000 27.0854
#
#
#
# Elastic Compliance Matrix: (Units=1/GPa)
#
#
# Indices 1 2 3 4 5 6 
#
# 1 0.030117 -0.033750 0.001155 0.000000 0.003163 0.000000
# 2 -0.033750 0.147564 -0.045742 0.000000 -0.020658 0.000000
# 3 0.001155 -0.045742 0.027559 0.000000 0.012437 0.000000
# 4 0.000000 0.000000 0.000000 0.039314 0.000000 0.006525
# 5 0.003163 -0.020658 0.012437 0.000000 0.042770 0.000000
# 6 0.000000 0.000000 0.000000 0.006525 0.000000 0.038003
#
#
# Mechanical properties :
#
#
# Convention : Reuss Voigt Hill
#
# Bulk Modulus (GPa) = 20.59193 48.92243 34.75718
# Shear Modulus (GPa) = 10.03632 21.81485 15.92558
#
# Velocity S-wave (km/s) = 2.41483 3.56021 3.04191
# Velocity P-wave (km/s) = 4.44294 6.73242 5.70374
#
# Compressibility (1/GPa) = 0.04856271
#
# Stress axis : x y z
#
# Youngs Moduli (GPa) = 33.20437 6.77673 36.28608
#
# Poissons Ratio (x) = 0.22872 -0.04190
# Poissons Ratio (y) = 1.12066 1.65981
# Poissons Ratio (z) = -0.03834 0.30998
#
# Static dielectric constant tensor:
#      x y z
#    x 1.573280 0.000000 0.011920 
#    y 0.000000 1.576870 0.000000 
#    z 0.011920 0.000000 1.642500 
# 
# From -- ./inp_files/54346.got.cif
#   From: 2010.05.17/outbox.cif.g08.bks.cpg/sg11_28_cif.got.tgz:54346.got - 2010.06.03 12:22:45.
