data_PCOD9157026
_publ_section_title
;
Structure prediction by ZEFSAII (Michael W. Deem and Ramdas Pophale) SiO2 
 PCOD9157026
Probable space group: P 21/M
;
_chemical_formula_sum "Si O2"
_cell_formula_units_Z 28
_cell_length_a 25.916574
_cell_length_b 7.507775
_cell_length_c 9.894468
_cell_angle_alpha 90.000000
_cell_angle_beta 139.983820
_cell_angle_gamma 90.000000
_cell_volume 1237.926618
_symmetry_space_group_name_H-M "P 21/M"
_symmetry_group_IT_number 11
_symmetry_cell_setting 'monoclinic'
loop_
_space_group_symop_operation_xyz
x,y,z
-x,1/2+y,-z
-x,-y,-z
x,1/2-y,z
loop_
_atom_site_type_symbol
_atom_site_label
_atom_site_fract_x
_atom_site_fract_y
_atom_site_fract_z
Si Si1 0.818414 0.531953 0.331471
Si Si2 0.911394 0.536705 0.266192
Si Si3 0.085754 0.037988 0.233559
Si Si4 0.359676 0.467574 0.568926
Si Si5 0.180889 0.032504 0.173844
Si Si6 0.658252 0.958105 0.158147
Si Si7 0.505222 0.037767 0.671104
O O1 0.814231 0.750000 0.317450
O O2 0.842509 0.472546 0.231187
O O3 0.892979 0.474639 0.575288
O O4 0.737205 0.468799 0.240633
O O5 0.906414 0.750000 0.250770
O O6 0.000000 0.500000 0.500000
O O7 0.884883 0.470294 0.066164
O O8 0.093162 0.250000 0.254141
O O9 0.152758 0.971913 0.264321
O O10 0.000000 0.000000 0.000000
O O11 0.363413 0.250000 0.577218
O O12 0.272645 0.519669 0.336244
O O13 0.363482 0.527378 0.734607
O O14 0.430189 0.529258 0.610829
O O15 0.179991 0.250000 0.172126
O O16 0.676677 0.750000 0.219145
O O17 0.585069 0.971462 0.906694
O O18 0.506286 0.250000 0.685326
O O19 0.500000 0.000000 0.500000
#
# Coordination Sequence:
#
# PCOD9157026 Si02
#       7
#     4   4   4   4   4   4   4
#     4   9  18  32  54  80 104 140 185 224 266 329
#     4  10  20  33  51  75 106 143 185 228 273 323
#     4  10  18  31  51  76 105 136 177 223 267 317
#     4   9  18  35  60  86 111 144 189 231 274 332
#     4   9  17  31  53  78 102 137 185 225 260 320
#     4  10  19  37  63  87 112 145 187 234 281 333
#     4  11  24  39  59  88 118 149 184 227 278 335
#
# _framework density 22.618465
#
# number of rings (size 3 to 8) (size 9 to 14) (size 15 to 20)
#    0.000    2.286    1.429    1.714    2.000    0.000 
#    0.000    2.143    0.000    2.571    0.000    0.000 
#    0.000    0.000    0.000    0.000    0.000    0.000 
#
# Total GULP energy -156279.938757 kJ/mol
# GULP energy per Si atom -5581.426384 kJ/mol
# Density = 2.256698 g / cm^3
# Si number density = 22.618465 Si / 1000 Ang^3
#
#
#
# Elastic Constant Matrix: (Units=GPa)
#
#
# Indices 1 2 3 4 5 6 
#
# 1 99.7907 -1.7700 19.8993 0.0000 -0.8434 0.0000
# 2 -1.7700 57.2958 -14.4528 0.0000 -5.3663 0.0000
# 3 19.8993 -14.4528 97.3644 0.0000 -2.6361 0.0000
# 4 0.0000 0.0000 0.0000 20.5437 0.0000 3.8565
# 5 -0.8434 -5.3663 -2.6361 0.0000 42.7620 0.0000
# 6 0.0000 0.0000 0.0000 3.8565 0.0000 4.9772
#
#
#
# Elastic Compliance Matrix: (Units=1/GPa)
#
#
# Indices 1 2 3 4 5 6 
#
# 1 0.010450 -0.000220 -0.002167 0.000000 0.000045 0.000000
# 2 -0.000220 0.018396 0.002843 0.000000 0.002479 0.000000
# 3 -0.002167 0.002843 0.011163 0.000000 0.001002 0.000000
# 4 0.000000 0.000000 0.000000 0.056962 0.000000 -0.044137
# 5 0.000045 0.002479 0.001002 0.000000 0.023759 0.000000
# 6 0.000000 0.000000 0.000000 -0.044137 0.000000 0.235116
#
#
# Mechanical properties :
#
#
# Convention : Reuss Voigt Hill
#
# Bulk Modulus (GPa) = 24.43787 29.08933 26.76360
# Shear Modulus (GPa) = 13.56582 30.37487 21.97035
#
# Velocity S-wave (km/s) = 2.45167 3.66857 3.12002
# Velocity P-wave (km/s) = 4.34075 5.55278 4.98374
#
# Compressibility (1/GPa) = 0.04092009
#
# Stress axis : x y z
#
# Youngs Moduli (GPa) = 95.69747 54.36027 89.58405
#
# Poissons Ratio (x) = 0.01194 0.19414
# Poissons Ratio (y) = 0.02102 -0.25466
# Poissons Ratio (z) = 0.20738 -0.15453
#
# Static dielectric constant tensor:
#      x y z
#    x 1.836680 0.000000 -0.001350 
#    y 0.000000 1.900990 0.000000 
#    z -0.001350 0.000000 1.893840 
# 
# From -- ./inp_files/21424.got.cif
#   From: 2010.05.17/outbox.cif.g08.bks.cpg/sg11_11_cif.got.tgz:21424.got - 2010.06.03 12:22:45.
