data_PCOD9157092
_publ_section_title
;
Structure prediction by ZEFSAII (Michael W. Deem and Ramdas Pophale) SiO2 
 PCOD9157092
Probable space group: P 21/M
;
_chemical_formula_sum "Si O2"
_cell_formula_units_Z 32
_cell_length_a 15.003131
_cell_length_b 7.394025
_cell_length_c 30.295976
_cell_angle_alpha 90.000000
_cell_angle_beta 154.199674
_cell_angle_gamma 90.000000
_cell_volume 1462.759057
_symmetry_space_group_name_H-M "P 21/M"
_symmetry_group_IT_number 11
_symmetry_cell_setting 'monoclinic'
loop_
_space_group_symop_operation_xyz
x,y,z
-x,1/2+y,-z
-x,-y,-z
x,1/2-y,z
loop_
_atom_site_type_symbol
_atom_site_label
_atom_site_fract_x
_atom_site_fract_y
_atom_site_fract_z
Si Si1 0.251785 0.965058 0.311424
Si Si2 0.005490 0.465948 0.450823
Si Si3 0.711058 0.971421 0.498685
Si Si4 0.127118 0.028323 0.916159
Si Si5 0.973461 0.966257 0.699551
Si Si6 0.580457 0.033297 0.109536
Si Si7 0.843198 0.534233 0.969286
Si Si8 0.602157 0.468301 0.223784
O O1 0.260235 0.750000 0.307599
O O2 0.479962 0.034727 0.404120
O O3 0.067711 0.034510 0.198507
O O4 0.181372 0.996014 0.329987
O O5 0.004210 0.250000 0.444634
O O6 0.199166 0.528810 0.508563
O O7 0.000000 0.500000 0.500000
O O8 0.799430 0.539131 0.336544
O O9 0.707034 0.750000 0.498698
O O10 0.869935 0.029860 0.607810
O O11 0.130170 0.250000 0.916753
O O12 0.107322 0.971437 0.958765
O O13 0.349706 0.968116 0.996383
O O14 0.995121 0.750000 0.704449
O O15 0.203282 0.035466 0.813189
O O16 0.573681 0.250000 0.099176
O O17 0.606914 0.998506 0.173685
O O18 0.828853 0.750000 0.967176
O O19 0.616363 0.465880 0.856348
O O20 0.000000 0.500000 0.000000
O O21 0.605768 0.250000 0.230000
#
# Coordination Sequence:
#
# PCOD9157092 Si02
#       8
#     4   4   4   4   4   4   4   4
#     4  10  20  33  48  71 103 133 157 193 247 299
#     4  10  19  33  52  75  98 126 165 206 247 290
#     4   9  18  33  52  70  95 132 168 196 233 293
#     4   8  16  30  47  68  96 128 160 193 237 292
#     4  10  18  31  53  75  91 122 171 208 234 277
#     4   8  13  26  50  71  87 119 166 201 223 272
#     4   9  17  30  50  73  94 124 164 201 239 288
#     4   8  14  28  49  68  90 124 164 198 229 282
#
# _framework density 21.876466000000001
#
# number of rings (size 3 to 8) (size 9 to 14) (size 15 to 20)
#    0.000    3.000    1.250    1.875    0.000    1.500 
#    0.000    3.750    0.000    3.000    0.000    0.000 
#    0.000    0.000    0.000    0.000    0.000    0.000 
#
# Total GULP energy -178512.954754 kJ/mol
# GULP energy per Si atom -5578.529836 kJ/mol
# Density = 2.182667 g / cm^3
# Si number density = 21.876466 Si / 1000 Ang^3
#
#
#
# Elastic Constant Matrix: (Units=GPa)
#
#
# Indices 1 2 3 4 5 6 
#
# 1 143.3886 -4.6529 66.7524 0.0000 33.3481 0.0000
# 2 -4.6529 71.2651 8.0903 0.0000 1.6713 0.0000
# 3 66.7524 8.0903 123.1517 0.0000 23.7812 0.0000
# 4 0.0000 0.0000 0.0000 -6.9226 0.0000 -0.9479
# 5 33.3481 1.6713 23.7812 0.0000 36.4086 0.0000
# 6 0.0000 0.0000 0.0000 -0.9479 0.0000 18.7965
#
#
#
# Elastic Compliance Matrix: (Units=1/GPa)
#
#
# Indices 1 2 3 4 5 6 
#
# 1 0.010767 0.001386 -0.004589 0.000000 -0.006928 0.000000
# 2 0.001386 0.014316 -0.001510 0.000000 -0.000940 0.000000
# 3 -0.004589 -0.001510 0.011308 0.000000 -0.003113 0.000000
# 4 0.000000 0.000000 0.000000 -0.143464 0.000000 -0.007235
# 5 -0.006928 -0.000940 -0.003113 0.000000 0.035888 0.000000
# 6 0.000000 0.000000 0.000000 -0.007235 0.000000 0.052837
#
#
# Mechanical properties :
#
#
# Convention : Reuss Voigt Hill
#
# Bulk Modulus (GPa) = 37.08578 53.13167 45.10873
# Shear Modulus (GPa) = 75352.92508 27.49752 37690.21130
#
# Velocity S-wave (km/s) = 185.79429 3.54919 131.40037
# Velocity P-wave (km/s) = 214.57636 6.41370 151.79616
#
# Compressibility (1/GPa) = 0.02696451
#
# Stress axis : x y z
#
# Youngs Moduli (GPa) = 92.87926 69.85121 88.43303
#
# Poissons Ratio (x) = -0.09684 0.40584
# Poissons Ratio (y) = -0.12877 0.13356
# Poissons Ratio (z) = 0.42624 0.10550
#
# Static dielectric constant tensor:
#      x y z
#    x 1.784140 0.000000 0.025740 
#    y 0.000000 1.850580 0.000000 
#    z 0.025740 0.000000 1.812040 
# 
# From -- ./inp_files/41231.got.cif
#   From: 2010.05.17/outbox.cif.g08.bks.cpg/sg11_21_cif.got.tgz:41231.got - 2010.06.03 12:22:45.
