data_PCOD9157585
_publ_section_title
;
Structure prediction by ZEFSAII (Michael W. Deem and Ramdas Pophale) SiO2 
 PCOD9157585
Probable space group: P 21/M
;
_chemical_formula_sum "Si O2"
_cell_formula_units_Z 28
_cell_length_a 18.065132
_cell_length_b 7.612766
_cell_length_c 18.259461
_cell_angle_alpha 90.000000
_cell_angle_beta 146.456086
_cell_angle_gamma 90.000000
_cell_volume 1387.597639
_symmetry_space_group_name_H-M "P 21/M"
_symmetry_group_IT_number 11
_symmetry_cell_setting 'monoclinic'
loop_
_space_group_symop_operation_xyz
x,y,z
-x,1/2+y,-z
-x,-y,-z
x,1/2-y,z
loop_
_atom_site_type_symbol
_atom_site_label
_atom_site_fract_x
_atom_site_fract_y
_atom_site_fract_z
Si Si1 0.164874 0.459460 0.828240
Si Si2 0.863105 0.539124 0.629269
Si Si3 0.622618 0.455083 0.874055
Si Si4 0.849595 0.539110 0.349332
Si Si5 0.183889 0.540690 0.089681
Si Si6 0.675160 0.965996 0.341667
Si Si7 0.117128 0.461988 0.192945
O O1 0.182214 0.250000 0.841726
O O2 0.173233 0.527548 0.751823
O O3 0.016713 0.498643 0.736241
O O4 0.276495 0.533429 0.974515
O O5 0.850078 0.750000 0.619532
O O6 0.765922 0.475482 0.485024
O O7 0.834043 0.475162 0.687620
O O8 0.598701 0.250000 0.837583
O O9 0.701699 0.531614 0.869298
O O10 0.476899 0.527651 0.773390
O O11 0.837766 0.750000 0.336323
O O12 0.745169 0.475078 0.324180
O O13 0.000000 0.500000 0.500000
O O14 0.178641 0.750000 0.073012
O O15 0.200318 0.511004 0.189594
O O16 0.035732 0.472536 0.945895
O O17 0.676961 0.750000 0.341548
O O18 0.112500 0.250000 0.191059
#
# Coordination Sequence:
#
# PCOD9157585 Si02
#       7
#     4   4   4   4   4   4   4
#     4  11  22  33  52  82 111 138 173 221 268 311
#     4  10  18  34  57  80 103 138 183 218 256 316
#     4  10  20  37  56  77 105 143 183 215 257 319
#     4  10  20  35  55  81 108 137 177 219 263 311
#     4   9  17  30  49  74 103 135 173 215 261 310
#     4   9  19  35  58  79 103 140 181 220 258 310
#     4   9  17  29  49  77 103 131 173 218 261 309
#
# _framework density 20.17876
#
# number of rings (size 3 to 8) (size 9 to 14) (size 15 to 20)
#    0.000    2.286    2.857    0.429    0.000    2.286 
#    0.000    2.143    0.000    0.000    0.000    0.000 
#    0.000    0.000    0.000    0.000    0.000    0.000 
#
# Total GULP energy -156278.058094 kJ/mol
# GULP energy per Si atom -5581.359218 kJ/mol
# Density = 2.013283 g / cm^3
# Si number density = 20.178760 Si / 1000 Ang^3
#
#
#
# Elastic Constant Matrix: (Units=GPa)
#
#
# Indices 1 2 3 4 5 6 
#
# 1 198.1773 2.0767 65.2440 0.0000 3.3014 0.0000
# 2 2.0767 34.5569 -2.0168 0.0000 -5.1519 0.0000
# 3 65.2440 -2.0168 60.9559 0.0000 30.8274 0.0000
# 4 0.0000 0.0000 0.0000 -30.5144 0.0000 -8.8662
# 5 3.3014 -5.1519 30.8274 0.0000 22.5231 0.0000
# 6 0.0000 0.0000 0.0000 -8.8662 0.0000 11.8900
#
#
#
# Elastic Compliance Matrix: (Units=1/GPa)
#
#
# Indices 1 2 3 4 5 6 
#
# 1 -0.221951 -0.093297 0.743388 0.000000 -1.006284 0.000000
# 2 -0.093297 -0.007994 0.304104 0.000000 -0.404381 0.000000
# 3 0.743388 0.304104 -2.434304 0.000000 3.292432 0.000000
# 4 0.000000 0.000000 0.000000 -0.026935 0.000000 -0.020085
# 5 -1.006284 -0.404381 3.292432 0.000000 -4.406958 0.000000
# 6 0.000000 0.000000 0.000000 -0.020085 0.000000 0.069127
#
#
# Mechanical properties :
#
#
# Convention : Reuss Voigt Hill
#
# Bulk Modulus (GPa) = -1.32300 47.14418 22.91059
# Shear Modulus (GPa) = -0.54411 16.00548 7.73069
#
# Velocity S-wave (km/s) = -0.51984 2.81941 1.95944
# Velocity P-wave (km/s) = 1.00865 5.83204 4.06173
#
# Compressibility (1/GPa) = -0.75585978
#
# Stress axis : x y z
#
# Youngs Moduli (GPa) = -4.50549 -125.09234 -0.41080
#
# Poissons Ratio (x) = -11.67073 0.30538
# Poissons Ratio (y) = -0.42035 0.12492
# Poissons Ratio (z) = 3.34933 38.04108
#
# Static dielectric constant tensor:
#      x y z
#    x 1.729000 0.000000 -0.020680 
#    y 0.000000 1.746300 0.000000 
#    z -0.020680 0.000000 1.726430 
# 
# From -- ./inp_files/60088.got.cif
#   From: 2010.05.17/outbox.cif.g08.bks.cpg/sg11_31_cif.got.tgz:60088.got - 2010.06.03 12:22:45.
