data_PCOD9157491
_publ_section_title
;
Structure prediction by ZEFSAII (Michael W. Deem and Ramdas Pophale) SiO2 
 PCOD9157491
Probable space group: P 21/M
;
_chemical_formula_sum "Si O2"
_cell_formula_units_Z 32
_cell_length_a 8.363938
_cell_length_b 7.430217
_cell_length_c 28.423000
_cell_angle_alpha 90.000000
_cell_angle_beta 126.959654
_cell_angle_gamma 90.000000
_cell_volume 1411.435756
_symmetry_space_group_name_H-M "P 21/M"
_symmetry_group_IT_number 11
_symmetry_cell_setting 'monoclinic'
loop_
_space_group_symop_operation_xyz
x,y,z
-x,1/2+y,-z
-x,-y,-z
x,1/2-y,z
loop_
_atom_site_type_symbol
_atom_site_label
_atom_site_fract_x
_atom_site_fract_y
_atom_site_fract_z
Si Si1 0.066298 0.969664 0.368791
Si Si2 0.305745 0.533505 0.244020
Si Si3 0.674581 0.530369 0.246991
Si Si4 0.899320 0.459970 0.120911
Si Si5 0.547653 0.545817 0.123935
Si Si6 0.185323 0.964986 0.998852
Si Si7 0.411458 0.530096 0.364923
Si Si8 0.132543 0.035179 0.569128
O O1 0.071318 0.750000 0.371179
O O2 0.896383 0.023458 0.301025
O O3 0.983959 0.031562 0.404913
O O4 0.282096 0.028120 0.387222
O O5 0.301469 0.750000 0.243328
O O6 0.517169 0.478334 0.259229
O O7 0.297368 0.476025 0.296715
O O8 0.125474 0.475132 0.178781
O O9 0.678572 0.750000 0.245600
O O10 0.593172 0.463251 0.182646
O O11 0.845342 0.250000 0.111858
O O12 0.754003 0.551597 0.132353
O O13 0.860594 0.533151 0.061665
O O14 0.476425 0.750000 0.121013
O O15 0.381918 0.463260 0.060094
O O16 0.209719 0.750000 0.997911
O O17 0.000000 0.000000 0.000000
O O18 0.415484 0.750000 0.366720
O O19 0.641081 0.468585 0.400086
O O20 0.152837 0.250000 0.579582
O O21 0.000000 0.000000 0.500000
#
# Coordination Sequence:
#
# PCOD9157491 Si02
#       8
#     4   4   4   4   4   4   4   4
#     4   9  16  29  51  80 110 136 172 226 274 314
#     4  10  18  33  58  83 105 136 181 227 270 321
#     4   9  16  29  54  84 105 126 173 235 275 306
#     4  11  23  36  50  76 113 145 174 218 278 334
#     4  10  20  35  55  78 102 137 186 229 264 318
#     4  10  22  38  55  77 105 139 181 227 277 331
#     4   9  17  31  55  83 108 139 181 228 272 313
#     4  10  20  35  54  79 110 143 180 220 267 321
#
# _framework density 22.671949999999999
#
# number of rings (size 3 to 8) (size 9 to 14) (size 15 to 20)
#    0.000    2.250    1.250    2.250    0.000    5.000 
#    0.000    1.250    0.000    3.000    0.000    0.000 
#    0.000    0.000    0.000    0.000    0.000    0.000 
#
# Total GULP energy -178745.933957 kJ/mol
# GULP energy per Si atom -5585.810436 kJ/mol
# Density = 2.262035 g / cm^3
# Si number density = 22.671950 Si / 1000 Ang^3
#
#
#
# Elastic Constant Matrix: (Units=GPa)
#
#
# Indices 1 2 3 4 5 6 
#
# 1 165.2874 3.0065 68.5253 0.0000 -13.8477 0.0000
# 2 3.0065 72.3328 1.3401 0.0000 -1.8107 0.0000
# 3 68.5253 1.3401 140.8706 0.0000 -9.5651 0.0000
# 4 0.0000 0.0000 0.0000 12.0073 0.0000 -0.6923
# 5 -13.8477 -1.8107 -9.5651 0.0000 22.4462 0.0000
# 6 0.0000 0.0000 0.0000 -0.6923 0.0000 1.0054
#
#
#
# Elastic Compliance Matrix: (Units=1/GPa)
#
#
# Indices 1 2 3 4 5 6 
#
# 1 0.007810 -0.000176 -0.003575 0.000000 0.003281 0.000000
# 2 -0.000176 0.013857 0.000023 0.000000 0.001019 0.000000
# 3 -0.003575 0.000023 0.008947 0.000000 0.001609 0.000000
# 4 0.000000 0.000000 0.000000 0.086725 0.000000 0.059715
# 5 0.003281 0.001019 0.001609 0.000000 0.047343 0.000000
# 6 0.000000 0.000000 0.000000 0.059715 0.000000 1.035784
#
#
# Mechanical properties :
#
#
# Convention : Reuss Voigt Hill
#
# Bulk Modulus (GPa) = 43.18092 58.24830 50.71461
# Shear Modulus (GPa) = 4.11305 27.46637 15.78971
#
# Velocity S-wave (km/s) = 1.34837 3.48439 2.64188
# Velocity P-wave (km/s) = 4.63804 6.47577 5.63236
#
# Compressibility (1/GPa) = 0.02315838
#
# Stress axis : x y z
#
# Youngs Moduli (GPa) = 128.03826 72.16365 111.77367
#
# Poissons Ratio (x) = 0.01272 0.39956
# Poissons Ratio (y) = 0.02257 -0.00258
# Poissons Ratio (z) = 0.45770 -0.00167
#
# Static dielectric constant tensor:
#      x y z
#    x 1.820400 0.000000 -0.017560 
#    y 0.000000 1.931690 0.000000 
#    z -0.017560 0.000000 1.843900 
# 
# From -- ./inp_files/70699.got.cif
#   From: 2010.05.17/outbox.cif.g08.bks.cpg/sg11_36_cif.got.tgz:70699.got - 2010.06.03 12:22:45.
