data_PCOD9157305
_publ_section_title
;
Structure prediction by ZEFSAII (Michael W. Deem and Ramdas Pophale) SiO2 
 PCOD9157305
Probable space group: P 21/M
;
_chemical_formula_sum "Si O2"
_cell_formula_units_Z 28
_cell_length_a 9.203137
_cell_length_b 14.231474
_cell_length_c 12.452804
_cell_angle_alpha 90.000000
_cell_angle_beta 69.298876
_cell_angle_gamma 90.000000
_cell_volume 1525.694259
_symmetry_space_group_name_H-M "P 21/M"
_symmetry_group_IT_number 11
_symmetry_cell_setting 'monoclinic'
loop_
_space_group_symop_operation_xyz
x,y,z
-x,1/2+y,-z
-x,-y,-z
x,1/2-y,z
loop_
_atom_site_type_symbol
_atom_site_label
_atom_site_fract_x
_atom_site_fract_y
_atom_site_fract_z
Si Si1 0.736482 0.862178 0.198597
Si Si2 0.049810 0.556015 0.225778
Si Si3 0.817007 0.015544 0.022644
Si Si4 0.932612 0.150134 0.317874
Si Si5 0.355231 0.643538 0.762561
Si Si6 0.528966 0.019927 0.617884
Si Si7 0.119459 0.583540 0.442155
O O1 0.732665 0.750000 0.189098
O O2 0.738854 0.918703 0.084307
O O3 0.593379 0.903387 0.305186
O O4 0.894457 0.896340 0.217640
O O5 0.092707 0.608046 0.324878
O O6 0.015081 0.446235 0.261936
O O7 0.182164 0.549308 0.100288
O O8 0.742218 0.095638 0.116463
O O9 0.000000 0.000000 0.000000
O O10 0.003078 0.250000 0.262335
O O11 0.763479 0.144066 0.307057
O O12 0.914936 0.151902 0.450369
O O13 0.400682 0.750000 0.774662
O O14 0.493652 0.575078 0.693269
O O15 0.703954 0.051170 0.590534
O O16 0.500000 0.000000 0.500000
O O17 0.000000 0.500000 0.500000
#
# Coordination Sequence:
#
# PCOD9157305 Si02
#       7
#     4   4   4   4   4   4   4
#     4  10  21  35  55  82 113 146 190 238 276 327
#     4  10  19  38  55  85 114 151 184 228 284 334
#     4   9  17  33  55  81 112 141 190 228 276 325
#     4  10  18  32  54  82 112 143 181 228 275 325
#     4  10  19  33  55  82 108 141 187 234 271 322
#     4  11  19  37  56  80 110 144 192 229 275 338
#     4  10  21  36  57  80 113 145 180 231 285 333
#
# _framework density 18.352301000000001
#
# number of rings (size 3 to 8) (size 9 to 14) (size 15 to 20)
#    0.000    2.000    5.714    0.857    0.000    4.571 
#    0.000    5.714    0.000    1.714    0.000    0.000 
#    0.000    0.000    0.000    0.000    0.000    0.000 
#
# Total GULP energy -155933.361015 kJ/mol
# GULP energy per Si atom -5569.048608 kJ/mol
# Density = 1.831053 g / cm^3
# Si number density = 18.352301 Si / 1000 Ang^3
#
#
#
# Elastic Constant Matrix: (Units=GPa)
#
#
# Indices 1 2 3 4 5 6 
#
# 1 49.1633 7.0241 19.2052 0.0000 -6.8488 0.0000
# 2 7.0241 133.6300 28.8183 0.0000 -14.1209 0.0000
# 3 19.2052 28.8183 108.8136 0.0000 -2.1198 0.0000
# 4 0.0000 0.0000 0.0000 11.0606 0.0000 1.1911
# 5 -6.8488 -14.1209 -2.1198 0.0000 29.9064 0.0000
# 6 0.0000 0.0000 0.0000 1.1911 0.0000 4.8095
#
#
#
# Elastic Compliance Matrix: (Units=1/GPa)
#
#
# Indices 1 2 3 4 5 6 
#
# 1 0.022542 0.000188 -0.003932 0.000000 0.004973 0.000000
# 2 0.000188 0.008346 -0.002169 0.000000 0.003830 0.000000
# 3 -0.003932 -0.002169 0.010435 0.000000 -0.001185 0.000000
# 4 0.000000 0.000000 0.000000 0.092888 0.000000 -0.023005
# 5 0.004973 0.003830 -0.001185 0.000000 0.036301 0.000000
# 6 0.000000 0.000000 0.000000 -0.023005 0.000000 0.213619
#
#
# Mechanical properties :
#
#
# Convention : Reuss Voigt Hill
#
# Bulk Modulus (GPa) = 33.89953 44.63355 39.26654
# Shear Modulus (GPa) = 12.32170 24.92594 18.62382
#
# Velocity S-wave (km/s) = 2.59395 3.68936 3.18904
# Velocity P-wave (km/s) = 5.24243 6.52087 5.91628
#
# Compressibility (1/GPa) = 0.02949893
#
# Stress axis : x y z
#
# Youngs Moduli (GPa) = 44.36163 119.81880 95.82862
#
# Poissons Ratio (x) = -0.02258 0.37676
# Poissons Ratio (y) = -0.00836 0.20785
# Poissons Ratio (z) = 0.17441 0.25989
#
# Static dielectric constant tensor:
#      x y z
#    x 1.613550 0.000000 0.025850 
#    y 0.000000 1.637360 0.000000 
#    z 0.025850 0.000000 1.668040 
# 
# From -- ./inp_files/31671.got.cif
#   From: 2010.05.17/outbox.cif.g08.bks.cpg/sg11_16_cif.got.tgz:31671.got - 2010.06.03 12:22:45.
