data_PCOD9157260
_publ_section_title
;
Structure prediction by ZEFSAII (Michael W. Deem and Ramdas Pophale) SiO2 
 PCOD9157260
Probable space group: P 21/M
;
_chemical_formula_sum "Si O2"
_cell_formula_units_Z 30
_cell_length_a 17.414177
_cell_length_b 7.471103
_cell_length_c 14.073051
_cell_angle_alpha 90.000000
_cell_angle_beta 137.116030
_cell_angle_gamma 90.000000
_cell_volume 1245.989013
_symmetry_space_group_name_H-M "P 21/M"
_symmetry_group_IT_number 11
_symmetry_cell_setting 'monoclinic'
loop_
_space_group_symop_operation_xyz
x,y,z
-x,1/2+y,-z
-x,-y,-z
x,1/2-y,z
loop_
_atom_site_type_symbol
_atom_site_label
_atom_site_fract_x
_atom_site_fract_y
_atom_site_fract_z
Si Si1 0.385134 0.956215 0.522846
Si Si2 0.544594 0.954640 0.933425
Si Si3 0.946500 0.033985 0.085332
Si Si4 0.760494 0.041671 0.432546
Si Si5 0.977526 0.465386 0.323942
Si Si6 0.237793 0.531936 0.771310
Si Si7 0.184627 0.457858 0.215316
Si Si8 0.498511 0.750000 0.273020
O O1 0.417771 0.750000 0.566321
O O2 0.300197 0.031833 0.529920
O O3 0.301961 0.962347 0.356830
O O4 0.486249 0.092429 0.629851
O O5 0.511611 0.750000 0.881955
O O6 0.513146 0.092264 0.821891
O O7 0.500000 0.000000 0.000000
O O8 0.679118 0.967783 0.072106
O O9 0.949768 0.250000 0.083886
O O10 0.929366 0.980181 0.177846
O O11 0.070891 0.968394 0.164239
O O12 0.849447 0.975483 0.925443
O O13 0.733411 0.250000 0.409216
O O14 0.724535 0.966378 0.298262
O O15 0.894743 0.027095 0.556250
O O16 0.980982 0.250000 0.330080
O O17 0.890162 0.525900 0.324400
O O18 0.240938 0.750000 0.773475
O O19 0.191442 0.250000 0.246218
#
# Coordination Sequence:
#
# PCOD9157260 Si02
#       8
#     4   4   4   4   4   4   4   2
#     4  11  22  36  58  89 122 158 197 246 298 357
#     4  12  24  42  64  87 115 154 199 256 311 357
#     4   9  18  31  50  79 117 161 199 240 287 348
#     4  10  21  33  52  79 119 162 203 239 280 346
#     4  10  20  34  56  82 119 162 203 242 286 350
#     4  10  21  39  57  82 118 159 204 245 296 356
#     4  10  18  32  53  80 118 159 196 240 295 346
#     4  12  24  40  62  84 120 144 204 250 306 358
#
# _framework density 24.077259000000002
#
# number of rings (size 3 to 8) (size 9 to 14) (size 15 to 20)
#    0.000    1.600    3.333    2.000    0.933    3.200 
#    0.000    0.000    0.000    0.000    0.000    0.933 
#    0.000    0.000    0.000    0.000    0.000    0.000 
#
# Total GULP energy -167192.933630 kJ/mol
# GULP energy per Si atom -5573.097788 kJ/mol
# Density = 2.402246 g / cm^3
# Si number density = 24.077259 Si / 1000 Ang^3
#
#
#
# Elastic Constant Matrix: (Units=GPa)
#
#
# Indices 1 2 3 4 5 6 
#
# 1 22.8822 -12.7341 0.8652 0.0000 5.1045 0.0000
# 2 -12.7341 149.5417 23.1252 0.0000 -5.9988 0.0000
# 3 0.8652 23.1252 130.9205 0.0000 -6.8068 0.0000
# 4 0.0000 0.0000 0.0000 47.9792 0.0000 -1.4047
# 5 5.1045 -5.9988 -6.8068 0.0000 26.2472 0.0000
# 6 0.0000 0.0000 0.0000 -1.4047 0.0000 5.7502
#
#
#
# Elastic Compliance Matrix: (Units=1/GPa)
#
#
# Indices 1 2 3 4 5 6 
#
# 1 0.047922 0.003956 -0.001473 0.000000 -0.008798 0.000000
# 2 0.003956 0.007244 -0.001277 0.000000 0.000555 0.000000
# 3 -0.001473 -0.001277 0.007981 0.000000 0.002064 0.000000
# 4 0.000000 0.000000 0.000000 0.020992 0.000000 0.005128
# 5 -0.008798 0.000555 0.002064 0.000000 0.040472 0.000000
# 6 0.000000 0.000000 0.000000 0.005128 0.000000 0.175159
#
#
# Mechanical properties :
#
#
# Convention : Reuss Voigt Hill
#
# Bulk Modulus (GPa) = 15.25362 36.20633 25.72997
# Shear Modulus (GPa) = 15.66362 35.46787 25.56574
#
# Velocity S-wave (km/s) = 2.55337 3.84224 3.26209
# Velocity P-wave (km/s) = 3.87840 5.89525 4.98979
#
# Compressibility (1/GPa) = 0.06555820
#
# Stress axis : x y z
#
# Youngs Moduli (GPa) = 20.86735 138.05209 125.30062
#
# Poissons Ratio (x) = -0.54608 0.18455
# Poissons Ratio (y) = -0.08254 0.15998
# Poissons Ratio (z) = 0.03073 0.17626
#
# Static dielectric constant tensor:
#      x y z
#    x 1.969500 0.000000 0.025930 
#    y 0.000000 1.903260 0.000000 
#    z 0.025930 0.000000 1.955070 
# 
# From -- ./inp_files/54131.got.cif
#   From: 2010.05.17/outbox.cif.g08.bks.cpg/sg11_28_cif.got.tgz:54131.got - 2010.06.03 12:22:45.
