data_PCOD9157142
_publ_section_title
;
Structure prediction by ZEFSAII (Michael W. Deem and Ramdas Pophale) SiO2 
 PCOD9157142
Probable space group: P 21/M
;
_chemical_formula_sum "Si O2"
_cell_formula_units_Z 24
_cell_length_a 9.453286
_cell_length_b 8.932842
_cell_length_c 19.626747
_cell_angle_alpha 90.000000
_cell_angle_beta 118.506942
_cell_angle_gamma 90.000000
_cell_volume 1456.433651
_symmetry_space_group_name_H-M "P 21/M"
_symmetry_group_IT_number 11
_symmetry_cell_setting 'monoclinic'
loop_
_space_group_symop_operation_xyz
x,y,z
-x,1/2+y,-z
-x,-y,-z
x,1/2-y,z
loop_
_atom_site_type_symbol
_atom_site_label
_atom_site_fract_x
_atom_site_fract_y
_atom_site_fract_z
Si Si1 0.492226 0.930976 0.644287
Si Si2 0.591423 0.572090 0.084308
Si Si3 0.882050 0.425071 0.217136
Si Si4 0.435227 0.925406 0.784887
Si Si5 0.153291 0.569840 0.498360
Si Si6 0.193407 0.570611 0.349456
O O1 0.505063 0.750000 0.643370
O O2 0.494266 0.972856 0.724678
O O3 0.320444 0.974316 0.572974
O O4 0.638635 0.004643 0.637951
O O5 0.596280 0.750000 0.080230
O O6 0.771442 0.503674 0.134351
O O7 0.509949 0.520671 0.137244
O O8 0.500000 0.500000 0.000000
O O9 0.905568 0.250000 0.207536
O O10 0.760233 0.435579 0.254317
O O11 0.047521 0.505348 0.271294
O O12 0.474755 0.750000 0.804776
O O13 0.141289 0.750000 0.499455
O O14 0.163088 0.527488 0.421135
O O15 0.000000 0.500000 0.500000
O O16 0.195861 0.750000 0.345797
#
# Coordination Sequence:
#
# PCOD9157142 Si02
#       6
#     4   4   4   4   4   4
#     4  10  20  36  54  74 105 145 183 218 265 321
#     4  10  18  31  54  83 111 136 171 217 263 313
#     4   9  18  34  54  76 104 139 177 217 264 312
#     4   8  17  32  52  77 103 135 179 219 260 311
#     4  10  22  37  54  77 105 139 183 228 269 312
#     4  11  22  34  50  78 110 140 180 225 268 316
#
# _framework density 16.47861
#
# number of rings (size 3 to 8) (size 9 to 14) (size 15 to 20)
#    1.000    1.333    0.000    3.500    0.000    4.000 
#    0.000    0.000    0.000    1.000    0.000    0.000 
#    0.000    0.000    0.000    0.000    0.000    0.000 
#
# Total GULP energy -133669.118942 kJ/mol
# GULP energy per Si atom -5569.546623 kJ/mol
# Density = 1.644110 g / cm^3
# Si number density = 16.478610 Si / 1000 Ang^3
#
#
#
# Elastic Constant Matrix: (Units=GPa)
#
#
# Indices 1 2 3 4 5 6 
#
# 1 116.7375 52.2682 77.2042 0.0000 10.9347 0.0000
# 2 52.2682 74.8704 65.2480 0.0000 0.7102 0.0000
# 3 77.2042 65.2480 149.1605 0.0000 1.9933 0.0000
# 4 0.0000 0.0000 0.0000 21.0321 0.0000 3.1820
# 5 10.9347 0.7102 1.9933 0.0000 9.3160 0.0000
# 6 0.0000 0.0000 0.0000 3.1820 0.0000 29.6328
#
#
#
# Elastic Compliance Matrix: (Units=1/GPa)
#
#
# Indices 1 2 3 4 5 6 
#
# 1 0.017037 -0.006866 -0.005570 0.000000 -0.018282 0.000000
# 2 -0.006866 0.024353 -0.007203 0.000000 0.007743 0.000000
# 3 -0.005570 -0.007203 0.012680 0.000000 0.004375 0.000000
# 4 0.000000 0.000000 0.000000 0.048332 0.000000 -0.005190
# 5 -0.018282 0.007743 0.004375 0.000000 0.127274 0.000000
# 6 0.000000 0.000000 0.000000 -0.005190 0.000000 0.034304
#
#
# Mechanical properties :
#
#
# Convention : Reuss Voigt Hill
#
# Bulk Modulus (GPa) = 67.60543 81.13437 74.36990
# Shear Modulus (GPa) = 16.22392 21.73271 18.97832
#
# Velocity S-wave (km/s) = 3.14115 3.63553 3.39734
# Velocity P-wave (km/s) = 7.36688 8.18326 7.78578
#
# Compressibility (1/GPa) = 0.01479171
#
# Stress axis : x y z
#
# Youngs Moduli (GPa) = 58.69678 41.06271 78.86618
#
# Poissons Ratio (x) = 0.28192 0.43932
# Poissons Ratio (y) = 0.40299 0.56805
# Poissons Ratio (z) = 0.32697 0.29576
#
# Static dielectric constant tensor:
#      x y z
#    x 1.537140 0.000000 -0.008280 
#    y 0.000000 1.551230 0.000000 
#    z -0.008280 0.000000 1.544080 
# 
# From -- ./inp_files/63289.got.cif
#   From: 2010.05.17/outbox.cif.g08.bks.cpg/sg11_32_cif.got.tgz:63289.got - 2010.06.03 12:22:45.
