data_PCOD9157136
_publ_section_title
;
Structure prediction by ZEFSAII (Michael W. Deem and Ramdas Pophale) SiO2 
 PCOD9157136
Probable space group: P 21/M
;
_chemical_formula_sum "Si O2"
_cell_formula_units_Z 32
_cell_length_a 9.184281
_cell_length_b 14.159178
_cell_length_c 19.680857
_cell_angle_alpha 90.000000
_cell_angle_beta 39.937157
_cell_angle_gamma 90.000000
_cell_volume 1642.957738
_symmetry_space_group_name_H-M "P 21/M"
_symmetry_group_IT_number 11
_symmetry_cell_setting 'monoclinic'
loop_
_space_group_symop_operation_xyz
x,y,z
-x,1/2+y,-z
-x,-y,-z
x,1/2-y,z
loop_
_atom_site_type_symbol
_atom_site_label
_atom_site_fract_x
_atom_site_fract_y
_atom_site_fract_z
Si Si1 0.838763 0.356910 0.497020
Si Si2 0.487854 0.474881 0.708534
Si Si3 0.753609 0.524044 0.887386
Si Si4 0.900965 0.643732 0.217104
Si Si5 0.112623 0.150228 0.617584
Si Si6 0.582171 0.105730 0.454651
Si Si7 0.833417 0.138924 0.232930
Si Si8 0.796285 0.527121 0.711647
O O1 0.858269 0.250000 0.518972
O O2 0.715763 0.435638 0.588574
O O3 0.670222 0.352035 0.492846
O O4 0.075961 0.393686 0.379760
O O5 0.302256 0.395341 0.756263
O O6 0.355823 0.570590 0.733220
O O7 0.568996 0.493423 0.755646
O O8 0.754094 0.546472 0.806240
O O9 0.894357 0.429376 0.854596
O O10 0.907156 0.603674 0.870108
O O11 0.500000 0.500000 0.000000
O O12 0.962343 0.750000 0.175935
O O13 0.833864 0.644643 0.320949
O O14 0.995456 0.250000 0.646009
O O15 0.362597 0.149386 0.497347
O O16 0.969794 0.061014 0.648194
O O17 0.784942 0.116159 0.329574
O O18 0.500000 0.000000 0.500000
O O19 0.807074 0.250000 0.228538
#
# Coordination Sequence:
#
# PCOD9157136 Si02
#       8
#     4   4   4   4   4   4   4   4
#     4  12  22  34  55  85 120 159 194 226 275 342
#     4  11  22  37  56  84 124 155 183 228 283 354
#     4  10  22  41  63  86 110 144 196 252 295 332
#     4   9  18  35  58  82 109 146 190 234 283 340
#     4  10  18  31  54  80 109 148 193 236 273 325
#     4  12  17  32  56  83 116 150 196 236 272 333
#     4  11  22  38  61  85 112 151 194 236 285 341
#     4  11  23  38  55  84 120 153 192 238 287 341
#
# _framework density 19.477069
#
# number of rings (size 3 to 8) (size 9 to 14) (size 15 to 20)
#    0.000    1.250    5.000    2.625    0.000    2.000 
#    0.000    2.500    0.000    1.500    0.000    0.000 
#    0.000    0.000    0.000    0.000    0.000    0.000 
#
# Total GULP energy -178289.097370 kJ/mol
# GULP energy per Si atom -5571.534293 kJ/mol
# Density = 1.943274 g / cm^3
# Si number density = 19.477069 Si / 1000 Ang^3
#
#
#
# Elastic Constant Matrix: (Units=GPa)
#
#
# Indices 1 2 3 4 5 6 
#
# 1 90.8391 17.7400 11.4453 0.0000 -4.4889 0.0000
# 2 17.7400 125.9094 10.1725 0.0000 -5.0924 0.0000
# 3 11.4453 10.1725 72.8881 0.0000 -20.8669 0.0000
# 4 0.0000 0.0000 0.0000 7.5073 0.0000 4.7943
# 5 -4.4889 -5.0924 -20.8669 0.0000 14.5883 0.0000
# 6 0.0000 0.0000 0.0000 4.7943 0.0000 -5.0778
#
#
#
# Elastic Compliance Matrix: (Units=1/GPa)
#
#
# Indices 1 2 3 4 5 6 
#
# 1 0.011514 -0.001471 -0.001245 0.000000 0.001248 0.000000
# 2 -0.001471 0.008257 -0.000382 0.000000 0.001883 0.000000
# 3 -0.001245 -0.000382 0.023405 0.000000 0.032962 0.000000
# 4 0.000000 0.000000 0.000000 0.083099 0.000000 0.078459
# 5 0.001248 0.001883 0.032962 0.000000 0.116737 0.000000
# 6 0.000000 0.000000 0.000000 0.078459 0.000000 -0.122859
#
#
# Mechanical properties :
#
#
# Convention : Reuss Voigt Hill
#
# Bulk Modulus (GPa) = 27.04313 40.92803 33.98558
# Shear Modulus (GPa) = 36.05503 20.08882 28.07192
#
# Velocity S-wave (km/s) = 4.30717 3.21504 3.80054
# Velocity P-wave (km/s) = 6.21694 5.90263 6.06182
#
# Compressibility (1/GPa) = 0.03697797
#
# Stress axis : x y z
#
# Youngs Moduli (GPa) = 86.84793 121.11612 42.72584
#
# Poissons Ratio (x) = 0.17819 0.05321
# Poissons Ratio (y) = 0.12777 0.01634
# Poissons Ratio (z) = 0.10816 0.04631
#
# Static dielectric constant tensor:
#      x y z
#    x 1.686510 0.000000 -0.002490 
#    y 0.000000 1.760020 0.000000 
#    z -0.002490 0.000000 1.766300 
# 
# From -- ./inp_files/63793.got.cif
#   From: 2010.05.17/outbox.cif.g08.bks.cpg/sg11_32_cif.got.tgz:63793.got - 2010.06.03 12:22:45.
