data_PCOD9157096
_publ_section_title
;
Structure prediction by ZEFSAII (Michael W. Deem and Ramdas Pophale) SiO2 
 PCOD9157096
Probable space group: P 21/M
;
_chemical_formula_sum "Si O2"
_cell_formula_units_Z 32
_cell_length_a 14.625087
_cell_length_b 7.763488
_cell_length_c 21.414625
_cell_angle_alpha 90.000000
_cell_angle_beta 43.918449
_cell_angle_gamma 90.000000
_cell_volume 1686.537763
_symmetry_space_group_name_H-M "P 21/M"
_symmetry_group_IT_number 11
_symmetry_cell_setting 'monoclinic'
loop_
_space_group_symop_operation_xyz
x,y,z
-x,1/2+y,-z
-x,-y,-z
x,1/2-y,z
loop_
_atom_site_type_symbol
_atom_site_label
_atom_site_fract_x
_atom_site_fract_y
_atom_site_fract_z
Si Si1 0.841237 0.449690 0.692062
Si Si2 0.855948 0.545668 0.827574
Si Si3 0.854358 0.456613 0.309666
Si Si4 0.413952 0.955523 0.981509
Si Si5 0.590015 0.537982 0.636889
Si Si6 0.579379 0.457537 0.398125
Si Si7 0.559185 0.549857 0.788109
Si Si8 0.133237 0.457431 0.550385
O O1 0.834336 0.250000 0.676782
O O2 0.830391 0.460863 0.772758
O O3 0.715062 0.541831 0.725816
O O4 0.986933 0.521272 0.604564
O O5 0.864319 0.750000 0.811222
O O6 0.998918 0.484168 0.780887
O O7 0.734652 0.514193 0.932861
O O8 0.852306 0.250000 0.304372
O O9 0.728271 0.524270 0.334305
O O10 0.840740 0.498081 0.389895
O O11 0.414235 0.750000 0.977317
O O12 0.481538 0.026948 0.885371
O O13 0.500000 0.000000 0.000000
O O14 0.591202 0.750000 0.636477
O O15 0.499577 0.480727 0.623685
O O16 0.539533 0.476282 0.728783
O O17 0.741225 0.482885 0.550620
O O18 0.500000 0.500000 0.500000
O O19 0.584600 0.250000 0.390736
O O20 0.520227 0.750000 0.803808
O O21 0.127071 0.250000 0.549505
#
# Coordination Sequence:
#
# PCOD9157096 Si02
#       8
#     4   4   4   4   4   4   4   4
#     4  10  19  30  47  72 101 131 166 203 243 290
#     4  10  19  32  50  73 101 130 162 204 252 299
#     4   9  18  30  48  76 103 127 161 204 249 293
#     4  11  21  33  52  75  98 128 169 212 254 296
#     4   9  18  33  51  71  99 135 169 201 243 298
#     4  10  18  31  53  77 101 130 166 205 246 292
#     4  10  21  35  50  69  97 134 170 203 247 300
#     4   9  17  30  48  71  99 133 167 199 238 289
#
# _framework density 18.973783000000001
#
# number of rings (size 3 to 8) (size 9 to 14) (size 15 to 20)
#    0.000    2.250    2.500    1.125    0.000    2.000 
#    0.000    1.250    0.000    0.750    0.000    0.000 
#    0.000    0.000    0.000    0.000    0.000    0.500 
#
# Total GULP energy -178529.462565 kJ/mol
# GULP energy per Si atom -5579.045705 kJ/mol
# Density = 1.893060 g / cm^3
# Si number density = 18.973783 Si / 1000 Ang^3
#
#
#
# Elastic Constant Matrix: (Units=GPa)
#
#
# Indices 1 2 3 4 5 6 
#
# 1 93.2207 -2.3539 73.4773 0.0000 1.9569 0.0000
# 2 -2.3539 29.4903 0.2819 0.0000 -1.9411 0.0000
# 3 73.4773 0.2819 138.4470 0.0000 -0.5281 0.0000
# 4 0.0000 0.0000 0.0000 9.4764 0.0000 2.3683
# 5 1.9569 -1.9411 -0.5281 0.0000 25.6521 0.0000
# 6 0.0000 0.0000 0.0000 2.3683 0.0000 9.3855
#
#
#
# Elastic Compliance Matrix: (Units=1/GPa)
#
#
# Indices 1 2 3 4 5 6 
#
# 1 0.018572 0.001477 -0.009866 0.000000 -0.001508 0.000000
# 2 0.001477 0.034197 -0.000844 0.000000 0.002458 0.000000
# 3 -0.009866 -0.000844 0.012464 0.000000 0.000945 0.000000
# 4 0.000000 0.000000 0.000000 0.112627 0.000000 -0.028420
# 5 -0.001508 0.002458 0.000945 0.000000 0.039304 0.000000
# 6 0.000000 0.000000 0.000000 -0.028420 0.000000 0.113718
#
#
# Mechanical properties :
#
#
# Convention : Reuss Voigt Hill
#
# Bulk Modulus (GPa) = 21.38180 44.88541 33.13360
# Shear Modulus (GPa) = 13.70097 21.55298 17.62697
#
# Velocity S-wave (km/s) = 2.69011 3.37402 3.05129
# Velocity P-wave (km/s) = 4.57630 6.23591 5.46942
#
# Compressibility (1/GPa) = 0.04676874
#
# Stress axis : x y z
#
# Youngs Moduli (GPa) = 53.84354 29.24219 80.22964
#
# Poissons Ratio (x) = -0.04320 0.79151
# Poissons Ratio (y) = -0.07955 0.06775
# Poissons Ratio (z) = 0.53120 0.02469
#
# Static dielectric constant tensor:
#      x y z
#    x 1.659660 0.000000 -0.019300 
#    y 0.000000 1.701950 0.000000 
#    z -0.019300 0.000000 1.673180 
# 
# From -- ./inp_files/38072.got.cif
#   From: 2010.05.17/outbox.cif.g08.bks.cpg/sg11_20_cif.got.tgz:38072.got - 2010.06.03 12:22:45.
