data_PCOD9157133
_publ_section_title
;
Structure prediction by ZEFSAII (Michael W. Deem and Ramdas Pophale) SiO2 
 PCOD9157133
Probable space group: P 21/M
;
_chemical_formula_sum "Si O2"
_cell_formula_units_Z 32
_cell_length_a 14.967847
_cell_length_b 15.515231
_cell_length_c 12.325175
_cell_angle_alpha 90.000000
_cell_angle_beta 28.080755
_cell_angle_gamma 90.000000
_cell_volume 1347.315260
_symmetry_space_group_name_H-M "P 21/M"
_symmetry_group_IT_number 11
_symmetry_cell_setting 'monoclinic'
loop_
_space_group_symop_operation_xyz
x,y,z
-x,1/2+y,-z
-x,-y,-z
x,1/2-y,z
loop_
_atom_site_type_symbol
_atom_site_label
_atom_site_fract_x
_atom_site_fract_y
_atom_site_fract_z
Si Si1 0.665288 0.021818 0.952378
Si Si2 0.574641 0.155685 0.220149
Si Si3 0.313329 0.347394 0.948510
Si Si4 0.127267 0.845265 0.653477
Si Si5 0.234302 0.997306 0.381656
Si Si6 0.981245 0.602610 0.029583
Si Si7 0.547296 0.899474 0.427536
Si Si8 0.130164 0.346767 0.620813
O O1 0.446461 0.035431 0.153195
O O2 0.683662 0.081234 0.038819
O O3 0.679857 0.922094 0.970266
O O4 0.793464 0.038315 0.709692
O O5 0.641661 0.250000 0.114639
O O6 0.575749 0.147008 0.348791
O O7 0.350628 0.149094 0.426468
O O8 0.355062 0.250000 0.939719
O O9 0.095352 0.348110 0.141428
O O10 0.451533 0.373508 0.699963
O O11 0.200392 0.750000 0.548991
O O12 0.220724 0.921856 0.485218
O O13 0.121118 0.859543 0.789464
O O14 0.107827 0.076332 0.559060
O O15 0.765029 0.621349 0.225968
O O16 0.993763 0.634924 0.138937
O O17 0.000000 0.500000 0.000000
O O18 0.500000 0.000000 0.500000
O O19 0.098681 0.250000 0.613769
#
# Coordination Sequence:
#
# PCOD9157133 Si02
#       8
#     4   4   4   4   4   4   4   4
#     4  10  21  36  55  80 107 139 182 226 264 307
#     4   9  17  31  52  76 103 136 173 214 262 315
#     4  10  21  36  55  80 109 142 178 217 267 325
#     4  10  21  36  55  80 109 142 178 217 267 325
#     4  10  21  36  55  80 107 139 182 226 264 307
#     4  10  18  31  54  79 104 136 175 217 266 320
#     4  10  18  31  54  79 104 136 175 217 266 320
#     4   9  17  31  52  76 103 136 173 214 262 315
#
# _framework density 23.750937
#
# number of rings (size 3 to 8) (size 9 to 14) (size 15 to 20)
#    0.000    2.250    2.500    0.750    0.000    5.000 
#    0.000    2.500    0.000    4.500    0.000    0.000 
#    0.000    0.000    0.000    0.000    0.000    0.000 
#
# Total GULP energy -178886.599674 kJ/mol
# GULP energy per Si atom -5590.206240 kJ/mol
# Density = 2.369688 g / cm^3
# Si number density = 23.750937 Si / 1000 Ang^3
#
#
#
# Elastic Constant Matrix: (Units=GPa)
#
#
# Indices 1 2 3 4 5 6 
#
# 1 57.3705 -1.4182 36.6399 0.0000 10.5308 0.0000
# 2 -1.4182 141.6159 43.3687 0.0000 41.1003 0.0000
# 3 36.6399 43.3687 139.1970 0.0000 22.5907 0.0000
# 4 0.0000 0.0000 0.0000 -4.6674 0.0000 -4.5756
# 5 10.5308 41.1003 22.5907 0.0000 52.9070 0.0000
# 6 0.0000 0.0000 0.0000 -4.5756 0.0000 17.2972
#
#
#
# Elastic Compliance Matrix: (Units=1/GPa)
#
#
# Indices 1 2 3 4 5 6 
#
# 1 0.022297 0.003414 -0.006213 0.000000 -0.004437 0.000000
# 2 0.003414 0.010088 -0.002858 0.000000 -0.007296 0.000000
# 3 -0.006213 -0.002858 0.009830 0.000000 -0.000741 0.000000
# 4 0.000000 0.000000 0.000000 -0.170134 0.000000 -0.045005
# 5 -0.004437 -0.007296 -0.000741 0.000000 0.025769 0.000000
# 6 0.000000 0.000000 0.000000 -0.045005 0.000000 0.045908
#
#
# Mechanical properties :
#
#
# Convention : Reuss Voigt Hill
#
# Bulk Modulus (GPa) = 32.36007 55.04045 43.70026
# Shear Modulus (GPa) = -144.39056 30.41355 -56.98851
#
# Velocity S-wave (km/s) = -7.80549 3.58232 -4.90370
# Velocity P-wave (km/s) = 8.22069 6.35098 3.69086
#
# Compressibility (1/GPa) = 0.03090228
#
# Stress axis : x y z
#
# Youngs Moduli (GPa) = 44.84889 99.12601 101.73062
#
# Poissons Ratio (x) = -0.33838 0.63201
# Poissons Ratio (y) = -0.15310 0.29070
# Poissons Ratio (z) = 0.27863 0.28325
#
# Static dielectric constant tensor:
#      x y z
#    x 1.976700 0.000000 -0.052270 
#    y 0.000000 1.849640 0.000000 
#    z -0.052270 0.000000 1.902960 
# 
# From -- ./inp_files/41628.got.cif
#   From: 2010.05.17/outbox.cif.g08.bks.cpg/sg11_21_cif.got.tgz:41628.got - 2010.06.03 12:22:45.
