data_PCOD9157113
_publ_section_title
;
Structure prediction by ZEFSAII (Michael W. Deem and Ramdas Pophale) SiO2 
 PCOD9157113
Probable space group: P 21/M
;
_chemical_formula_sum "Si O2"
_cell_formula_units_Z 28
_cell_length_a 9.643850
_cell_length_b 14.092588
_cell_length_c 13.578028
_cell_angle_alpha 90.000000
_cell_angle_beta 135.950969
_cell_angle_gamma 90.000000
_cell_volume 1283.020807
_symmetry_space_group_name_H-M "P 21/M"
_symmetry_group_IT_number 11
_symmetry_cell_setting 'monoclinic'
loop_
_space_group_symop_operation_xyz
x,y,z
-x,1/2+y,-z
-x,-y,-z
x,1/2-y,z
loop_
_atom_site_type_symbol
_atom_site_label
_atom_site_fract_x
_atom_site_fract_y
_atom_site_fract_z
Si Si1 0.983055 0.138726 0.015195
Si Si2 0.204240 0.521056 0.459768
Si Si3 0.622989 0.856439 0.077169
Si Si4 0.047847 0.482439 0.859839
Si Si5 0.817891 0.565292 0.350793
Si Si6 0.447606 0.355307 0.303580
Si Si7 0.712027 0.145823 0.242973
O O1 0.936287 0.250000 0.990262
O O2 0.216198 0.126195 0.165591
O O3 0.959255 0.088717 0.897341
O O4 0.878202 0.075001 0.044119
O O5 0.217927 0.439813 0.551173
O O6 0.418626 0.571324 0.567236
O O7 0.113644 0.495794 0.307887
O O8 0.038199 0.594273 0.424028
O O9 0.696699 0.750000 0.095263
O O10 0.767005 0.929009 0.094983
O O11 0.650823 0.879528 0.205842
O O12 0.405857 0.861584 0.919573
O O13 0.814816 0.455026 0.312449
O O14 0.466024 0.250000 0.356785
O O15 0.548782 0.353018 0.247002
O O16 0.815451 0.250000 0.298985
#
# Coordination Sequence:
#
# PCOD9157113 Si02
#       7
#     4   4   4   4   4   4   4
#     4  10  20  36  56  81 107 139 183 226 273 321
#     4   9  19  33  49  77 110 139 174 209 270 323
#     4  10  18  31  53  80 104 138 187 228 263 311
#     4  10  20  34  56  81 108 140 178 228 273 314
#     4   9  18  32  49  76 111 139 172 217 269 317
#     4   9  17  31  53  79 106 136 177 225 265 315
#     4   9  16  29  51  78 104 136 178 222 263 314
#
# _framework density 21.823495999999999
#
# number of rings (size 3 to 8) (size 9 to 14) (size 15 to 20)
#    0.000    2.571    1.429    0.857    0.000    3.429 
#    0.000    7.143    0.000    0.857    0.000    5.000 
#    0.000    0.000    0.000    0.000    0.000    0.000 
#
# Total GULP energy -156110.241255 kJ/mol
# GULP energy per Si atom -5575.365759 kJ/mol
# Density = 2.177382 g / cm^3
# Si number density = 21.823496 Si / 1000 Ang^3
#
#
#
# Elastic Constant Matrix: (Units=GPa)
#
#
# Indices 1 2 3 4 5 6 
#
# 1 41.2360 30.6522 12.5292 0.0000 -17.3197 0.0000
# 2 30.6522 97.0155 18.0323 0.0000 -14.4986 0.0000
# 3 12.5292 18.0323 77.7282 0.0000 -34.1786 0.0000
# 4 0.0000 0.0000 0.0000 15.8919 0.0000 7.4723
# 5 -17.3197 -14.4986 -34.1786 0.0000 35.0042 0.0000
# 6 0.0000 0.0000 0.0000 7.4723 0.0000 14.7902
#
#
#
# Elastic Compliance Matrix: (Units=1/GPa)
#
#
# Indices 1 2 3 4 5 6 
#
# 1 0.038529 -0.010139 0.004692 0.000000 0.019446 0.000000
# 2 -0.010139 0.013697 -0.002199 0.000000 -0.001490 0.000000
# 3 0.004692 -0.002199 0.023201 0.000000 0.024065 0.000000
# 4 0.000000 0.000000 0.000000 0.082530 0.000000 -0.041696
# 5 0.019446 -0.001490 0.024065 0.000000 0.061069 0.000000
# 6 0.000000 0.000000 0.000000 -0.041696 0.000000 0.088678
#
#
# Mechanical properties :
#
#
# Convention : Reuss Voigt Hill
#
# Bulk Modulus (GPa) = 16.62900 37.60081 27.11490
# Shear Modulus (GPa) = 14.57551 23.45501 19.01526
#
# Velocity S-wave (km/s) = 2.58714 3.28191 2.95502
# Velocity P-wave (km/s) = 4.06949 5.62389 4.90861
#
# Compressibility (1/GPa) = 0.06013590
#
# Stress axis : x y z
#
# Youngs Moduli (GPa) = 25.95417 73.00798 43.10221
#
# Poissons Ratio (x) = 0.74026 -0.20225
# Poissons Ratio (y) = 0.26316 0.09476
# Poissons Ratio (z) = -0.12179 0.16051
#
# Static dielectric constant tensor:
#      x y z
#    x 1.838870 0.000000 0.017390 
#    y 0.000000 1.833720 0.000000 
#    z 0.017390 0.000000 1.868990 
# 
# From -- ./inp_files/50255.got.cif
#   From: 2010.05.17/outbox.cif.g08.bks.cpg/sg11_26_cif.got.tgz:50255.got - 2010.06.03 12:22:45.
