data_PCOD9157509
_publ_section_title
;
Structure prediction by ZEFSAII (Michael W. Deem and Ramdas Pophale) SiO2 
 PCOD9157509
Probable space group: P 21/M
;
_chemical_formula_sum "Si O2"
_cell_formula_units_Z 28
_cell_length_a 19.909614
_cell_length_b 10.605962
_cell_length_c 23.060648
_cell_angle_alpha 90.000000
_cell_angle_beta 18.644927
_cell_angle_gamma 90.000000
_cell_volume 1556.790891
_symmetry_space_group_name_H-M "P 21/M"
_symmetry_group_IT_number 11
_symmetry_cell_setting 'monoclinic'
loop_
_space_group_symop_operation_xyz
x,y,z
-x,1/2+y,-z
-x,-y,-z
x,1/2-y,z
loop_
_atom_site_type_symbol
_atom_site_label
_atom_site_fract_x
_atom_site_fract_y
_atom_site_fract_z
Si Si1 0.355451 0.897098 0.976555
Si Si2 0.599714 0.902892 0.570721
Si Si3 0.884554 0.403676 0.051371
Si Si4 0.003492 0.401973 0.822565
Si Si5 0.581333 0.616624 0.984526
Si Si6 0.139559 0.509224 0.327373
Si Si7 0.239228 0.397295 0.436026
O O1 0.321251 0.750000 0.021826
O O2 0.578036 0.904335 0.761412
O O3 0.360299 0.996699 0.024167
O O4 0.178416 0.934443 0.074457
O O5 0.606202 0.750000 0.567971
O O6 0.364104 0.932173 0.745154
O O7 0.774119 0.948421 0.383021
O O8 0.668068 0.946403 0.579074
O O9 0.914265 0.250000 0.037176
O O10 0.000000 0.500000 0.000000
O O11 0.957511 0.434600 0.926205
O O12 0.007233 0.250000 0.818611
O O13 0.629177 0.750000 0.974180
O O14 0.330558 0.607954 0.178995
O O15 0.718423 0.605699 0.813417
O O16 0.000000 0.500000 0.500000
O O17 0.968621 0.538600 0.417987
O O18 0.188105 0.250000 0.486277
#
# Coordination Sequence:
#
# PCOD9157509 Si02
#       7
#     4   4   4   4   4   4   4
#     4  10  19  36  62  87 111 147 193 238 282 335
#     4   9  17  31  55  83 107 137 180 232 276 315
#     4  10  20  35  55  82 114 144 180 222 271 328
#     4   9  17  32  57  84 110 143 187 232 270 317
#     4  11  25  40  57  86 120 152 190 240 296 347
#     4  11  23  40  57  79 111 158 196 234 283 348
#     4  10  18  33  59  85 107 140 193 243 281 325
#
# _framework density 17.985717000000001
#
# number of rings (size 3 to 8) (size 9 to 14) (size 15 to 20)
#    0.000    2.000    2.857    1.286    0.000    5.714 
#    0.000    0.714    0.000    3.429    0.000    0.000 
#    0.000    0.000    0.000    0.000    0.000    0.000 
#
# Total GULP energy -155976.565602 kJ/mol
# GULP energy per Si atom -5570.591629 kJ/mol
# Density = 1.794478 g / cm^3
# Si number density = 17.985717 Si / 1000 Ang^3
#
#
#
# Elastic Constant Matrix: (Units=GPa)
#
#
# Indices 1 2 3 4 5 6 
#
# 1 111.0764 51.7701 66.1129 0.0000 -21.5557 0.0000
# 2 51.7701 73.3163 38.0236 0.0000 -4.0971 0.0000
# 3 66.1129 38.0236 155.8380 0.0000 -6.0588 0.0000
# 4 0.0000 0.0000 0.0000 0.7461 0.0000 -1.8886
# 5 -21.5557 -4.0971 -6.0588 0.0000 24.5520 0.0000
# 6 0.0000 0.0000 0.0000 -1.8886 0.0000 25.7524
#
#
#
# Elastic Compliance Matrix: (Units=1/GPa)
#
#
# Indices 1 2 3 4 5 6 
#
# 1 0.019800 -0.010433 -0.005297 0.000000 0.014336 0.000000
# 2 -0.010433 0.021182 -0.000970 0.000000 -0.005864 0.000000
# 3 -0.005297 -0.000970 0.008798 0.000000 -0.002641 0.000000
# 4 0.000000 0.000000 0.000000 1.645782 0.000000 0.120694
# 5 0.014336 -0.005864 -0.002641 0.000000 0.051686 0.000000
# 6 0.000000 0.000000 0.000000 0.120694 0.000000 0.047683
#
#
# Mechanical properties :
#
#
# Convention : Reuss Voigt Hill
#
# Bulk Modulus (GPa) = 61.05097 72.44933 66.75015
# Shear Modulus (GPa) = 2.72659 22.49836 12.61247
#
# Velocity S-wave (km/s) = 1.23259 3.54065 2.65098
# Velocity P-wave (km/s) = 6.00363 7.55539 6.82376
#
# Compressibility (1/GPa) = 0.01637976
#
# Stress axis : x y z
#
# Youngs Moduli (GPa) = 50.50435 47.21011 113.65950
#
# Poissons Ratio (x) = 0.49254 0.60207
# Poissons Ratio (y) = 0.52691 0.11027
# Poissons Ratio (z) = 0.26753 0.04580
#
# Static dielectric constant tensor:
#      x y z
#    x 1.634200 0.000000 0.021160 
#    y 0.000000 1.580340 0.000000 
#    z 0.021160 0.000000 1.647360 
# 
# From -- ./inp_files/66165.got.cif
#   From: 2010.05.17/outbox.cif.g08.bks.cpg/sg11_34_cif.got.tgz:66165.got - 2010.06.03 12:22:45.
