data_PCOD9157682
_publ_section_title
;
Structure prediction by ZEFSAII (Michael W. Deem and Ramdas Pophale) SiO2 
 PCOD9157682
Probable space group: P 21/M
;
_chemical_formula_sum "Si O2"
_cell_formula_units_Z 28
_cell_length_a 6.253074
_cell_length_b 14.893593
_cell_length_c 17.920696
_cell_angle_alpha 90.000000
_cell_angle_beta 52.465664
_cell_angle_gamma 90.000000
_cell_volume 1323.471967
_symmetry_space_group_name_H-M "P 21/M"
_symmetry_group_IT_number 11
_symmetry_cell_setting 'monoclinic'
loop_
_space_group_symop_operation_xyz
x,y,z
-x,1/2+y,-z
-x,-y,-z
x,1/2-y,z
loop_
_atom_site_type_symbol
_atom_site_label
_atom_site_fract_x
_atom_site_fract_y
_atom_site_fract_z
Si Si1 0.342328 0.942092 0.629915
Si Si2 0.019052 0.848858 0.137111
Si Si3 0.106123 0.440366 0.546226
Si Si4 0.100252 0.355027 0.002726
Si Si5 0.452340 0.918578 0.290043
Si Si6 0.406717 0.517392 0.135559
Si Si7 0.076533 0.353149 0.172416
O O1 0.612932 0.895982 0.539401
O O2 0.141919 0.880346 0.719444
O O3 0.189161 0.992091 0.595230
O O4 0.446422 0.018831 0.664389
O O5 0.124047 0.750000 0.133108
O O6 0.059842 0.866596 0.040347
O O7 0.697521 0.852327 0.219640
O O8 0.158840 0.923366 0.157206
O O9 0.000000 0.500000 0.500000
O O10 0.846642 0.383020 0.626924
O O11 0.196738 0.250000 0.979847
O O12 0.333053 0.430066 0.949931
O O13 0.962327 0.366368 0.112407
O O14 0.420249 0.976491 0.221674
O O15 0.333744 0.417666 0.126425
O O16 0.153900 0.250000 0.163851
#
# Coordination Sequence:
#
# PCOD9157682 Si02
#       7
#     4   4   4   4   4   4   4
#     4  10  19  37  58  86 114 156 194 238 295 355
#     4  10  20  35  58  85 117 152 196 249 300 353
#     4   9  18  33  63  84 111 147 192 236 293 355
#     4   9  21  38  57  85 120 156 201 249 294 349
#     4  10  18  35  59  88 112 147 195 240 297 353
#     4  11  20  37  60  84 118 160 199 241 299 351
#     4  11  22  39  58  85 123 159 200 247 289 348
#
# _framework density 21.156473999999999
#
# number of rings (size 3 to 8) (size 9 to 14) (size 15 to 20)
#    0.000    2.000    2.857    0.857    0.000    1.143 
#    2.571    1.429    0.000   11.143    0.000    0.000 
#    0.000    0.000    0.000    0.000    0.000    0.000 
#
# Total GULP energy -156260.218277 kJ/mol
# GULP energy per Si atom -5580.722081 kJ/mol
# Density = 2.110832 g / cm^3
# Si number density = 21.156474 Si / 1000 Ang^3
#
#
#
# Elastic Constant Matrix: (Units=GPa)
#
#
# Indices 1 2 3 4 5 6 
#
# 1 100.0527 41.7819 48.1110 0.0000 14.2371 0.0000
# 2 41.7819 87.6632 33.5926 0.0000 -3.8353 0.0000
# 3 48.1110 33.5926 117.2794 0.0000 8.1367 0.0000
# 4 0.0000 0.0000 0.0000 15.8618 0.0000 8.7936
# 5 14.2371 -3.8353 8.1367 0.0000 47.3550 0.0000
# 6 0.0000 0.0000 0.0000 8.7936 0.0000 0.5028
#
#
#
# Elastic Compliance Matrix: (Units=1/GPa)
#
#
# Indices 1 2 3 4 5 6 
#
# 1 0.015025 -0.005727 -0.004228 0.000000 -0.004255 0.000000
# 2 -0.005727 0.015132 -0.002216 0.000000 0.003328 0.000000
# 3 -0.004228 -0.002216 0.010951 0.000000 -0.000790 0.000000
# 4 0.000000 0.000000 0.000000 -0.007250 0.000000 0.126796
# 5 -0.004255 0.003328 -0.000790 0.000000 0.022801 0.000000
# 6 0.000000 0.000000 0.000000 0.126796 0.000000 -0.228713
#
#
# Mechanical properties :
#
#
# Convention : Reuss Voigt Hill
#
# Bulk Modulus (GPa) = 59.64644 61.32958 60.48801
# Shear Modulus (GPa) = -35.18025 24.84458 -5.16783
#
# Velocity S-wave (km/s) = -4.08224 3.43056 -1.56460
# Velocity P-wave (km/s) = 2.45654 6.68903 5.03874
#
# Compressibility (1/GPa) = 0.01676546
#
# Stress axis : x y z
#
# Youngs Moduli (GPa) = 66.55662 66.08703 91.31993
#
# Poissons Ratio (x) = 0.37848 0.38610
# Poissons Ratio (y) = 0.38117 0.20234
# Poissons Ratio (z) = 0.28140 0.14643
#
# Static dielectric constant tensor:
#      x y z
#    x 1.778020 0.000000 -0.042770 
#    y 0.000000 1.726980 0.000000 
#    z -0.042770 0.000000 1.819000 
# 
# From -- ./inp_files/57002.got.cif
#   From: 2010.05.17/outbox.cif.g08.bks.cpg/sg11_29_cif.got.tgz:57002.got - 2010.06.03 12:22:45.
