data_PCOD9157874
_publ_section_title
;
Structure prediction by ZEFSAII (Michael W. Deem and Ramdas Pophale) SiO2 
 PCOD9157874
Probable space group: P 21/M
;
_chemical_formula_sum "Si O2"
_cell_formula_units_Z 32
_cell_length_a 20.905323
_cell_length_b 7.846895
_cell_length_c 12.433180
_cell_angle_alpha 90.000000
_cell_angle_beta 37.310282
_cell_angle_gamma 90.000000
_cell_volume 1236.242137
_symmetry_space_group_name_H-M "P 21/M"
_symmetry_group_IT_number 11
_symmetry_cell_setting 'monoclinic'
loop_
_space_group_symop_operation_xyz
x,y,z
-x,1/2+y,-z
-x,-y,-z
x,1/2-y,z
loop_
_atom_site_type_symbol
_atom_site_label
_atom_site_fract_x
_atom_site_fract_y
_atom_site_fract_z
Si Si1 0.761561 0.548995 0.022390
Si Si2 0.008452 0.436618 0.867675
Si Si3 0.527168 0.953073 0.301827
Si Si4 0.786515 0.449360 0.672112
Si Si5 0.314544 0.552160 0.661236
Si Si6 0.978564 0.555290 0.676321
Si Si7 0.436688 0.546219 0.976852
Si Si8 0.744208 0.560198 0.493486
O O1 0.760758 0.750000 0.998485
O O2 0.644774 0.474651 0.158930
O O3 0.764405 0.532676 0.148989
O O4 0.861032 0.475055 0.822105
O O5 0.955575 0.250000 0.926381
O O6 0.131835 0.414473 0.686027
O O7 0.981585 0.554948 0.802578
O O8 0.000000 0.500000 0.000000
O O9 0.530841 0.750000 0.316066
O O10 0.432514 0.026226 0.500535
O O11 0.502286 0.981335 0.209381
O O12 0.797164 0.250000 0.683099
O O13 0.684411 0.525023 0.869162
O O14 0.740934 0.464077 0.610935
O O15 0.907858 0.520931 0.513248
O O16 0.318242 0.750000 0.684123
O O17 0.284105 0.534379 0.577821
O O18 0.976309 0.750000 0.640261
O O19 0.428745 0.750000 0.983385
O O20 0.500000 0.500000 0.000000
O O21 0.694206 0.750000 0.567942
#
# Coordination Sequence:
#
# PCOD9157874 Si02
#       8
#     4   4   4   4   4   4   4   4
#     4  10  21  38  59  81 108 146 189 229 270 322
#     4  10  19  29  43  68 102 138 177 220 265 315
#     4  10  23  41  58  81 113 146 183 227 276 330
#     4   9  19  36  56  81 113 145 181 228 279 327
#     4  11  22  35  54  80 112 149 185 227 278 327
#     4   9  18  34  55  76 103 142 183 223 270 322
#     4  11  23  39  62  89 115 144 179 224 277 330
#     4  10  20  32  49  76 108 142 181 222 267 323
#
# _framework density 25.884893000000002
#
# number of rings (size 3 to 8) (size 9 to 14) (size 15 to 20)
#    0.000    2.000    0.000    3.375    0.000   10.500 
#    0.000    0.625    0.000    0.000    0.000    0.000 
#    0.000    0.000    0.000    0.000    0.000    0.000 
#
# Total GULP energy -178607.580251 kJ/mol
# GULP energy per Si atom -5581.486883 kJ/mol
# Density = 2.582598 g / cm^3
# Si number density = 25.884893 Si / 1000 Ang^3
#
#
#
# Elastic Constant Matrix: (Units=GPa)
#
#
# Indices 1 2 3 4 5 6 
#
# 1 48.8028 7.8187 30.9732 0.0000 -3.9551 0.0000
# 2 7.8187 75.1103 4.7078 0.0000 -0.0157 0.0000
# 3 30.9732 4.7078 197.5771 0.0000 -21.0876 0.0000
# 4 0.0000 0.0000 0.0000 10.4140 0.0000 0.6893
# 5 -3.9551 -0.0157 -21.0876 0.0000 46.6220 0.0000
# 6 0.0000 0.0000 0.0000 0.6893 0.0000 23.8461
#
#
#
# Elastic Compliance Matrix: (Units=1/GPa)
#
#
# Indices 1 2 3 4 5 6 
#
# 1 0.023112 -0.002184 -0.003532 0.000000 0.000362 0.000000
# 2 -0.002184 0.013541 0.000001 0.000000 -0.000181 0.000000
# 3 -0.003532 0.000001 0.005866 0.000000 0.002354 0.000000
# 4 0.000000 0.000000 0.000000 0.096209 0.000000 -0.002781
# 5 0.000362 -0.000181 0.002354 0.000000 0.022544 0.000000
# 6 0.000000 0.000000 0.000000 -0.002781 0.000000 0.042016
#
#
# Mechanical properties :
#
#
# Convention : Reuss Voigt Hill
#
# Bulk Modulus (GPa) = 32.16819 45.38773 38.77796
# Shear Modulus (GPa) = 22.21404 34.70913 28.46158
#
# Velocity S-wave (km/s) = 2.93266 3.66581 3.31953
# Velocity P-wave (km/s) = 4.89098 5.95735 5.45031
#
# Compressibility (1/GPa) = 0.03108661
#
# Stress axis : x y z
#
# Youngs Moduli (GPa) = 43.26791 73.84940 170.46585
#
# Poissons Ratio (x) = 0.16131 0.60216
# Poissons Ratio (y) = 0.09451 -0.00009
# Poissons Ratio (z) = 0.15284 -0.00004
#
# Static dielectric constant tensor:
#      x y z
#    x 2.308830 0.000000 0.005480 
#    y 0.000000 2.011620 0.000000 
#    z 0.005480 0.000000 2.113470 
# 
# From -- ./inp_files/55566.got.cif
#   From: 2010.05.17/outbox.cif.g08.bks.cpg/sg11_28_cif.got.tgz:55566.got - 2010.06.03 12:22:45.
