data_PCOD9157080
_publ_section_title
;
Structure prediction by ZEFSAII (Michael W. Deem and Ramdas Pophale) SiO2 
 PCOD9157080
Probable space group: P 21/M
;
_chemical_formula_sum "Si O2"
_cell_formula_units_Z 28
_cell_length_a 8.190448
_cell_length_b 13.546143
_cell_length_c 12.725699
_cell_angle_alpha 90.000000
_cell_angle_beta 74.481673
_cell_angle_gamma 90.000000
_cell_volume 1360.432278
_symmetry_space_group_name_H-M "P 21/M"
_symmetry_group_IT_number 11
_symmetry_cell_setting 'monoclinic'
loop_
_space_group_symop_operation_xyz
x,y,z
-x,1/2+y,-z
-x,-y,-z
x,1/2-y,z
loop_
_atom_site_type_symbol
_atom_site_label
_atom_site_fract_x
_atom_site_fract_y
_atom_site_fract_z
Si Si1 0.619120 0.859823 0.236866
Si Si2 0.068153 0.503656 0.315870
Si Si3 0.405120 0.142886 0.518903
Si Si4 0.765636 0.442488 0.505598
Si Si5 0.409351 0.481395 0.175169
Si Si6 0.978215 0.634092 0.130031
Si Si7 0.668837 0.133535 0.001522
O O1 0.551780 0.750000 0.223058
O O2 0.670453 0.856597 0.349914
O O3 0.490898 0.948911 0.249044
O O4 0.781691 0.881462 0.135608
O O5 0.139971 0.571467 0.399414
O O6 0.229246 0.442378 0.245269
O O7 0.014571 0.568701 0.225675
O O8 0.911590 0.444444 0.391822
O O9 0.376486 0.250000 0.475221
O O10 0.606377 0.125068 0.502073
O O11 0.316175 0.052475 0.477167
O O12 0.379310 0.561899 0.087187
O O13 0.545379 0.401531 0.115024
O O14 0.988346 0.750000 0.156705
O O15 0.128273 0.617083 0.020429
O O16 0.643934 0.250000 0.984194
#
# Coordination Sequence:
#
# PCOD9157080 Si02
#       7
#     4   4   4   4   4   4   4
#     4  10  18  31  52  79 103 131 171 217 261 303
#     4  10  19  32  50  77 106 139 168 209 258 304
#     4  10  20  35  53  75 103 138 174 216 257 298
#     4  10  20  34  53  76 107 136 172 212 253 309
#     4  10  19  33  54  78 103 137 171 210 266 305
#     4   9  18  32  53  79 103 129 173 223 261 297
#     4   9  19  35  53  75 102 133 171 214 259 315
#
# _framework density 20.581695
#
# number of rings (size 3 to 8) (size 9 to 14) (size 15 to 20)
#    0.000    2.286    2.857    0.429    0.000    1.714 
#    0.000    3.571    0.000    0.000    0.000    0.000 
#    0.000    0.000    0.000    0.000    0.000    0.000 
#
# Total GULP energy -156004.331930 kJ/mol
# GULP energy per Si atom -5571.583283 kJ/mol
# Density = 2.053485 g / cm^3
# Si number density = 20.581695 Si / 1000 Ang^3
#
#
#
# Elastic Constant Matrix: (Units=GPa)
#
#
# Indices 1 2 3 4 5 6 
#
# 1 45.4925 8.9084 22.1408 0.0000 -35.4510 0.0000
# 2 8.9084 52.2072 7.4329 0.0000 -16.8325 0.0000
# 3 22.1408 7.4329 72.3341 0.0000 -46.7081 0.0000
# 4 0.0000 0.0000 0.0000 16.7215 0.0000 -2.2906
# 5 -35.4510 -16.8325 -46.7081 0.0000 48.6192 0.0000
# 6 0.0000 0.0000 0.0000 -2.2906 0.0000 10.6823
#
#
#
# Elastic Compliance Matrix: (Units=1/GPa)
#
#
# Indices 1 2 3 4 5 6 
#
# 1 0.075204 0.012345 0.036561 0.000000 0.094233 0.000000
# 2 0.012345 0.024962 0.013299 0.000000 0.030420 0.000000
# 3 0.036561 0.013299 0.056511 0.000000 0.085553 0.000000
# 4 0.000000 0.000000 0.000000 0.061613 0.000000 0.013212
# 5 0.094233 0.030420 0.085553 0.000000 0.182000 0.000000
# 6 0.000000 0.000000 0.000000 0.013212 0.000000 0.096446
#
#
# Mechanical properties :
#
#
# Convention : Reuss Voigt Hill
#
# Bulk Modulus (GPa) = 3.55762 27.44422 15.50092
# Shear Modulus (GPa) = 10.72912 23.97471 17.35192
#
# Velocity S-wave (km/s) = 2.28566 3.41670 2.90673
# Velocity P-wave (km/s) = 2.94923 5.37851 4.33741
#
# Compressibility (1/GPa) = 0.28108712
#
# Stress axis : x y z
#
# Youngs Moduli (GPa) = 13.29724 40.06021 17.69576
#
# Poissons Ratio (x) = -0.49453 -0.64698
# Poissons Ratio (y) = -0.16415 -0.23534
# Poissons Ratio (z) = -0.48616 -0.53277
#
# Static dielectric constant tensor:
#      x y z
#    x 1.790020 0.000000 -0.033990 
#    y 0.000000 1.709910 0.000000 
#    z -0.033990 0.000000 1.776940 
# 
# From -- ./inp_files/21188.got.cif
#   From: 2010.05.17/outbox.cif.g08.bks.cpg/sg11_11_cif.got.tgz:21188.got - 2010.06.03 12:22:45.
