data_PCOD9157317
_publ_section_title
;
Structure prediction by ZEFSAII (Michael W. Deem and Ramdas Pophale) SiO2 
 PCOD9157317
Probable space group: P 21/M
;
_chemical_formula_sum "Si O2"
_cell_formula_units_Z 32
_cell_length_a 20.303906
_cell_length_b 7.363056
_cell_length_c 21.683314
_cell_angle_alpha 90.000000
_cell_angle_beta 26.778219
_cell_angle_gamma 90.000000
_cell_volume 1460.477827
_symmetry_space_group_name_H-M "P 21/M"
_symmetry_group_IT_number 11
_symmetry_cell_setting 'monoclinic'
loop_
_space_group_symop_operation_xyz
x,y,z
-x,1/2+y,-z
-x,-y,-z
x,1/2-y,z
loop_
_atom_site_type_symbol
_atom_site_label
_atom_site_fract_x
_atom_site_fract_y
_atom_site_fract_z
Si Si1 0.206631 0.028169 0.096226
Si Si2 0.592862 0.529171 0.327010
Si Si3 0.381701 0.469821 0.835408
Si Si4 0.665727 0.029391 0.677954
Si Si5 0.883243 0.471690 0.397322
Si Si6 0.486693 0.466498 0.939044
Si Si7 0.260848 0.972479 0.610310
Si Si8 0.111129 0.550373 0.852372
O O1 0.205620 0.250000 0.097273
O O2 0.335657 0.968291 0.034422
O O3 0.048074 0.967219 0.249338
O O4 0.251267 0.972888 0.989614
O O5 0.600662 0.750000 0.323853
O O6 0.618747 0.471290 0.234519
O O7 0.428695 0.473206 0.482895
O O8 0.726393 0.453134 0.254571
O O9 0.380454 0.250000 0.834387
O O10 0.530454 0.519773 0.746367
O O11 0.672323 0.250000 0.673855
O O12 0.810173 0.967291 0.522158
O O13 0.619936 0.967031 0.784387
O O14 0.883565 0.250000 0.397307
O O15 0.786535 0.524406 0.418890
O O16 0.484019 0.250000 0.933752
O O17 0.500000 0.500000 0.000000
O O18 0.261298 0.750000 0.611728
O O19 0.144451 0.040610 0.758444
O O20 0.058440 0.750000 0.879275
O O21 0.000000 0.500000 0.000000
#
# Coordination Sequence:
#
# PCOD9157317 Si02
#       8
#     4   4   4   4   4   4   4   4
#     4   8  15  24  41  70 100 122 153 200 242 274
#     4  10  18  32  55  78 100 127 162 206 257 308
#     4   8  13  23  42  70  96 120 151 195 242 285
#     4   8  13  24  43  69  97 119 151 196 237 277
#     4   9  14  24  44  73 100 118 150 209 255 278
#     4   9  17  30  47  70  97 128 160 191 231 283
#     4   9  18  31  50  77 102 128 165 207 256 306
#     4  11  24  38  50  71 102 135 172 211 253 304
#
# _framework density 21.910637999999999
#
# number of rings (size 3 to 8) (size 9 to 14) (size 15 to 20)
#    0.000    3.000    1.250    2.250    1.750    0.000 
#    0.000    1.250    0.000    3.000    0.000    0.000 
#    0.000    0.000    0.000    0.000    0.000    0.000 
#
# Total GULP energy -178500.909849 kJ/mol
# GULP energy per Si atom -5578.153433 kJ/mol
# Density = 2.186077 g / cm^3
# Si number density = 21.910638 Si / 1000 Ang^3
#
#
#
# Elastic Constant Matrix: (Units=GPa)
#
#
# Indices 1 2 3 4 5 6 
#
# 1 51.0594 -7.2407 41.6836 0.0000 25.2114 0.0000
# 2 -7.2407 75.0575 3.2692 0.0000 0.1355 0.0000
# 3 41.6836 3.2692 204.9914 0.0000 20.6198 0.0000
# 4 0.0000 0.0000 0.0000 -2.0923 0.0000 0.2136
# 5 25.2114 0.1355 20.6198 0.0000 38.0258 0.0000
# 6 0.0000 0.0000 0.0000 0.2136 0.0000 7.8249
#
#
#
# Elastic Compliance Matrix: (Units=1/GPa)
#
#
# Indices 1 2 3 4 5 6 
#
# 1 0.033915 0.003524 -0.004960 0.000000 -0.019809 0.000000
# 2 0.003524 0.013699 -0.000735 0.000000 -0.001986 0.000000
# 3 -0.004960 -0.000735 0.005889 0.000000 0.000098 0.000000
# 4 0.000000 0.000000 0.000000 -0.476618 0.000000 0.013009
# 5 -0.019809 -0.001986 0.000098 0.000000 0.039385 0.000000
# 6 0.000000 0.000000 0.000000 0.013009 0.000000 0.127441
#
#
# Mechanical properties :
#
#
# Convention : Reuss Voigt Hill
#
# Bulk Modulus (GPa) = 20.34219 45.17026 32.75622
# Shear Modulus (GPa) = -21.22609 28.31144 3.54268
#
# Velocity S-wave (km/s) = -3.11586 3.59852 1.27294
# Velocity P-wave (km/s) = 1.90801 6.15843 4.14040
#
# Compressibility (1/GPa) = 0.04915892
#
# Stress axis : x y z
#
# Youngs Moduli (GPa) = 29.48561 72.99999 169.81651
#
# Poissons Ratio (x) = -0.25722 0.84229
# Poissons Ratio (y) = -0.10389 0.12484
# Poissons Ratio (z) = 0.14625 0.05367
#
# Static dielectric constant tensor:
#      x y z
#    x 1.759410 0.000000 0.028770 
#    y 0.000000 1.935550 0.000000 
#    z 0.028770 0.000000 1.820710 
# 
# From -- ./inp_files/57761.got.cif
#   From: 2010.05.17/outbox.cif.g08.bks.cpg/sg11_29_cif.got.tgz:57761.got - 2010.06.03 12:22:45.
