data_PCOD9157733
_publ_section_title
;
Structure prediction by ZEFSAII (Michael W. Deem and Ramdas Pophale) SiO2 
 PCOD9157733
Probable space group: P 21/M
;
_chemical_formula_sum "Si O2"
_cell_formula_units_Z 24
_cell_length_a 8.167003
_cell_length_b 14.530954
_cell_length_c 11.068762
_cell_angle_alpha 90.000000
_cell_angle_beta 67.903723
_cell_angle_gamma 90.000000
_cell_volume 1217.099809
_symmetry_space_group_name_H-M "P 21/M"
_symmetry_group_IT_number 11
_symmetry_cell_setting 'monoclinic'
loop_
_space_group_symop_operation_xyz
x,y,z
-x,1/2+y,-z
-x,-y,-z
x,1/2-y,z
loop_
_atom_site_type_symbol
_atom_site_label
_atom_site_fract_x
_atom_site_fract_y
_atom_site_fract_z
Si Si1 0.698448 0.462981 0.422490
Si Si2 0.592784 0.352346 0.665103
Si Si3 0.909806 0.433341 0.929408
Si Si4 0.811431 0.649061 0.320667
Si Si5 0.372093 0.489135 0.150158
Si Si6 0.370071 0.642187 0.806524
O O1 0.500000 0.500000 0.500000
O O2 0.717509 0.388094 0.522179
O O3 0.816914 0.554806 0.396394
O O4 0.698339 0.415376 0.290905
O O5 0.642223 0.250000 0.689898
O O6 0.388745 0.350066 0.676431
O O7 0.602696 0.424531 0.769339
O O8 0.819983 0.499561 0.854045
O O9 0.049791 0.367860 0.825078
O O10 0.763195 0.376498 0.045049
O O11 0.000000 0.500000 0.000000
O O12 0.840963 0.750000 0.369008
O O13 0.441491 0.400843 0.204383
O O14 0.500000 0.500000 0.000000
O O15 0.382001 0.750000 0.775413
#
# Coordination Sequence:
#
# PCOD9157733 Si02
#       6
#     4   4   4   4   4   4
#     4  10  18  36  60  87 117 153 195 243 287 342
#     4  10  20  37  62  87 116 156 200 241 289 349
#     4  11  21  39  60  83 121 156 192 246 304 347
#     4  10  19  34  59  89 117 153 196 238 294 354
#     4  10  21  37  58  84 118 149 191 248 289 341
#     4  11  21  37  62  89 115 155 201 242 290 349
#
# _framework density 19.719007999999999
#
# number of rings (size 3 to 8) (size 9 to 14) (size 15 to 20)
#    0.000    1.667    5.000    2.000    0.000    4.000 
#    0.000    2.500    0.000    0.000    0.000    0.000 
#    0.000    0.000    0.000    0.000    0.000    0.000 
#
# Total GULP energy -133774.803236 kJ/mol
# GULP energy per Si atom -5573.950135 kJ/mol
# Density = 1.967413 g / cm^3
# Si number density = 19.719008 Si / 1000 Ang^3
#
#
#
# Elastic Constant Matrix: (Units=GPa)
#
#
# Indices 1 2 3 4 5 6 
#
# 1 40.3035 30.3613 6.9643 0.0000 1.5977 0.0000
# 2 30.3613 151.3657 36.3554 0.0000 -5.6067 0.0000
# 3 6.9643 36.3554 88.0787 0.0000 -10.8134 0.0000
# 4 0.0000 0.0000 0.0000 26.0653 0.0000 -4.2701
# 5 1.5977 -5.6067 -10.8134 0.0000 21.2820 0.0000
# 6 0.0000 0.0000 0.0000 -4.2701 0.0000 10.8719
#
#
#
# Elastic Compliance Matrix: (Units=1/GPa)
#
#
# Indices 1 2 3 4 5 6 
#
# 1 0.029541 -0.005988 -0.000352 0.000000 -0.003974 0.000000
# 2 -0.005988 0.008551 -0.002905 0.000000 0.001226 0.000000
# 3 -0.000352 -0.002905 0.013321 0.000000 0.006029 0.000000
# 4 0.000000 0.000000 0.000000 0.041004 0.000000 0.016105
# 5 -0.003974 0.001226 0.006029 0.000000 0.050673 0.000000
# 6 0.000000 0.000000 0.000000 0.016105 0.000000 0.098306
#
#
# Mechanical properties :
#
#
# Convention : Reuss Voigt Hill
#
# Bulk Modulus (GPa) = 30.37526 47.45666 38.91596
# Shear Modulus (GPa) = 18.45973 25.38163 21.92068
#
# Velocity S-wave (km/s) = 3.06296 3.59160 3.33776
# Velocity P-wave (km/s) = 5.28644 6.42792 5.88492
#
# Compressibility (1/GPa) = 0.03292152
#
# Stress axis : x y z
#
# Youngs Moduli (GPa) = 33.85122 116.94721 75.07060
#
# Poissons Ratio (x) = 0.70029 0.02643
# Poissons Ratio (y) = 0.20270 0.21812
# Poissons Ratio (z) = 0.01192 0.33979
#
# Static dielectric constant tensor:
#      x y z
#    x 1.732730 0.000000 -0.005550 
#    y 0.000000 1.724470 0.000000 
#    z -0.005550 0.000000 1.698510 
# 
# From -- ./inp_files/31445.got.cif
#   From: 2010.05.17/outbox.cif.g08.bks.cpg/sg11_16_cif.got.tgz:31445.got - 2010.06.03 12:22:45.
