data_PCOD9157161
_publ_section_title
;
Structure prediction by ZEFSAII (Michael W. Deem and Ramdas Pophale) SiO2 
 PCOD9157161
Probable space group: P 21/M
;
_chemical_formula_sum "Si O2"
_cell_formula_units_Z 24
_cell_length_a 11.686721
_cell_length_b 15.336228
_cell_length_c 10.088506
_cell_angle_alpha 90.000000
_cell_angle_beta 137.325610
_cell_angle_gamma 90.000000
_cell_volume 1225.630577
_symmetry_space_group_name_H-M "P 21/M"
_symmetry_group_IT_number 11
_symmetry_cell_setting 'monoclinic'
loop_
_space_group_symop_operation_xyz
x,y,z
-x,1/2+y,-z
-x,-y,-z
x,1/2-y,z
loop_
_atom_site_type_symbol
_atom_site_label
_atom_site_fract_x
_atom_site_fract_y
_atom_site_fract_z
Si Si1 0.557730 0.407448 0.487774
Si Si2 0.640468 0.886682 0.200885
Si Si3 0.004238 0.087073 0.593364
Si Si4 0.092491 0.980166 0.214519
Si Si5 0.290204 0.157553 0.449434
Si Si6 0.375627 0.904540 0.760044
O O1 0.500000 0.500000 0.500000
O O2 0.757979 0.410341 0.682969
O O3 0.435371 0.344406 0.462211
O O4 0.542401 0.399256 0.316372
O O5 0.623966 0.849567 0.333653
O O6 0.826853 0.863465 0.305314
O O7 0.635712 0.992081 0.215743
O O8 0.494072 0.863349 0.972787
O O9 0.818204 0.128411 0.413858
O O10 0.016199 0.057016 0.756646
O O11 0.000000 0.000000 0.500000
O O12 0.175715 0.071406 0.334954
O O13 0.000000 0.000000 0.000000
O O14 0.196231 0.250000 0.360973
#
# Coordination Sequence:
#
# PCOD9157161 Si02
#       6
#     4   4   4   4   4   4
#     4   9  17  34  53  81 109 144 194 233 271 336
#     4  10  18  31  56  84 109 145 177 238 286 334
#     4   9  16  31  51  86 107 130 185 238 273 318
#     4  10  20  34  60  86 110 148 199 241 278 340
#     4  11  22  38  54  82 120 150 186 240 304 349
#     4   9  17  30  55  83 107 134 193 233 264 327
#
# _framework density 19.581758000000001
#
# number of rings (size 3 to 8) (size 9 to 14) (size 15 to 20)
#    0.000    2.333    6.667    0.000    4.667    1.333 
#    0.000    1.667    0.000    4.000    0.000    0.000 
#    0.000    0.000    0.000    0.000    0.000    0.000 
#
# Total GULP energy -133656.585366 kJ/mol
# GULP energy per Si atom -5569.024390 kJ/mol
# Density = 1.953719 g / cm^3
# Si number density = 19.581758 Si / 1000 Ang^3
#
#
#
# Elastic Constant Matrix: (Units=GPa)
#
#
# Indices 1 2 3 4 5 6 
#
# 1 118.6918 -1.4621 49.8435 0.0000 -19.0232 0.0000
# 2 -1.4621 43.5627 1.4925 0.0000 6.3458 0.0000
# 3 49.8435 1.4925 156.3344 0.0000 -21.0265 0.0000
# 4 0.0000 0.0000 0.0000 -4.7470 0.0000 6.2573
# 5 -19.0232 6.3458 -21.0265 0.0000 23.5981 0.0000
# 6 0.0000 0.0000 0.0000 6.2573 0.0000 -4.1512
#
#
#
# Elastic Compliance Matrix: (Units=1/GPa)
#
#
# Indices 1 2 3 4 5 6 
#
# 1 0.010482 -0.000491 -0.002480 0.000000 0.006372 0.000000
# 2 -0.000491 0.024128 -0.001136 0.000000 -0.007896 0.000000
# 3 -0.002480 -0.001136 0.007919 0.000000 0.005362 0.000000
# 4 0.000000 0.000000 0.000000 0.213447 0.000000 0.321739
# 5 0.006372 -0.007896 0.005362 0.000000 0.054414 0.000000
# 6 0.000000 0.000000 0.000000 0.321739 0.000000 0.244079
#
#
# Mechanical properties :
#
#
# Convention : Reuss Voigt Hill
#
# Bulk Modulus (GPa) = 29.14201 46.48184 37.81193
# Shear Modulus (GPa) = 8.70894 20.85432 14.78163
#
# Velocity S-wave (km/s) = 2.11119 3.26695 2.75047
# Velocity P-wave (km/s) = 4.56699 6.16600 5.42572
#
# Compressibility (1/GPa) = 0.03431472
#
# Stress axis : x y z
#
# Youngs Moduli (GPa) = 95.40212 41.44547 126.27274
#
# Poissons Ratio (x) = 0.02037 0.31318
# Poissons Ratio (y) = 0.04688 0.14341
# Poissons Ratio (z) = 0.23662 0.04707
#
# Static dielectric constant tensor:
#      x y z
#    x 1.743410 0.000000 0.014350 
#    y 0.000000 1.532760 0.000000 
#    z 0.014350 0.000000 1.686350 
# 
# From -- ./inp_files/19027.got.cif
#   From: 2010.05.17/outbox.cif.g08.bks.cpg/sg11_10_cif.got.tgz:19027.got - 2010.06.03 12:22:45.
