data_PCOD9157948
_publ_section_title
;
Structure prediction by ZEFSAII (Michael W. Deem and Ramdas Pophale) SiO2 
 PCOD9157948
Probable space group: P 21/M
;
_chemical_formula_sum "Si O2"
_cell_formula_units_Z 32
_cell_length_a 22.363613
_cell_length_b 8.911261
_cell_length_c 18.612390
_cell_angle_alpha 90.000000
_cell_angle_beta 148.582900
_cell_angle_gamma 90.000000
_cell_volume 1933.487202
_symmetry_space_group_name_H-M "P 21/M"
_symmetry_group_IT_number 11
_symmetry_cell_setting 'monoclinic'
loop_
_space_group_symop_operation_xyz
x,y,z
-x,1/2+y,-z
-x,-y,-z
x,1/2-y,z
loop_
_atom_site_type_symbol
_atom_site_label
_atom_site_fract_x
_atom_site_fract_y
_atom_site_fract_z
Si Si1 0.125582 0.068087 0.121660
Si Si2 0.390869 0.572574 0.660973
Si Si3 0.259668 0.427820 0.114180
Si Si4 0.647881 0.078306 0.086996
Si Si5 0.629778 0.579497 0.212088
Si Si6 0.646929 0.430741 0.925062
Si Si7 0.276228 0.079756 0.414168
Si Si8 0.474572 0.920495 0.399812
O O1 0.123771 0.250000 0.120226
O O2 0.180318 0.023946 0.100413
O O3 0.199898 0.023277 0.268561
O O4 0.000000 0.000000 0.000000
O O5 0.407194 0.750000 0.672437
O O6 0.349506 0.524109 0.697848
O O7 0.517245 0.495381 0.780586
O O8 0.297088 0.518025 0.506537
O O9 0.246062 0.250000 0.090608
O O10 0.261509 0.510054 0.039202
O O11 0.386181 0.471584 0.270400
O O12 0.685273 0.250000 0.136313
O O13 0.680010 0.979982 0.188634
O O14 0.508667 0.080060 0.939958
O O15 0.683289 0.027500 0.043614
O O16 0.665008 0.750000 0.263451
O O17 0.637553 0.250000 0.910718
O O18 0.237927 0.250000 0.393078
O O19 0.404917 0.089854 0.515932
O O20 0.428453 0.750000 0.359363
O O21 0.500000 0.000000 0.500000
#
# Coordination Sequence:
#
# PCOD9157948 Si02
#       8
#     4   4   4   4   4   4   4   4
#     4  10  23  41  56  71  93 124 161 203 245 290
#     4  11  20  28  43  68  96 127 164 200 239 286
#     4  11  21  34  50  72  99 125 160 202 244 287
#     4   8  15  26  39  57  87 125 164 198 229 275
#     4   9  16  26  40  58  87 127 165 197 234 278
#     4  10  19  30  44  67  97 129 162 199 243 285
#     4  10  20  35  50  68  98 127 158 201 246 286
#     4  11  20  31  49  71  98 125 155 194 242 293
#
# _framework density 16.550405999999999
#
# number of rings (size 3 to 8) (size 9 to 14) (size 15 to 20)
#    0.000    2.000    2.500    3.375    0.000    5.500 
#    0.000    0.000    0.000    0.000    0.000    0.000 
#    0.000    1.000    0.000    3.250    0.000    5.000 
#
# Total GULP energy -178175.690755 kJ/mol
# GULP energy per Si atom -5567.990336 kJ/mol
# Density = 1.651274 g / cm^3
# Si number density = 16.550406 Si / 1000 Ang^3
#
#
#
# Elastic Constant Matrix: (Units=GPa)
#
#
# Indices 1 2 3 4 5 6 
#
# 1 103.8864 39.0582 54.6380 0.0000 -29.7421 0.0000
# 2 39.0582 60.3934 25.0187 0.0000 -17.7006 0.0000
# 3 54.6380 25.0187 44.7355 0.0000 -10.7415 0.0000
# 4 0.0000 0.0000 0.0000 19.2339 0.0000 -5.1271
# 5 -29.7421 -17.7006 -10.7415 0.0000 27.7709 0.0000
# 6 0.0000 0.0000 0.0000 -5.1271 0.0000 25.1579
#
#
#
# Elastic Compliance Matrix: (Units=1/GPa)
#
#
# Indices 1 2 3 4 5 6 
#
# 1 0.038211 -0.000733 -0.040287 0.000000 0.024874 0.000000
# 2 -0.000733 0.024420 -0.010157 0.000000 0.010852 0.000000
# 3 -0.040287 -0.010157 0.072012 0.000000 -0.021767 0.000000
# 4 0.000000 0.000000 0.000000 0.054978 0.000000 0.011204
# 5 0.024874 0.010852 -0.021767 0.000000 0.061146 0.000000
# 6 0.000000 0.000000 0.000000 0.011204 0.000000 0.042032
#
#
# Mechanical properties :
#
#
# Convention : Reuss Voigt Hill
#
# Bulk Modulus (GPa) = 30.96886 49.60502 40.28694
# Shear Modulus (GPa) = 12.31781 20.45256 16.38518
#
# Velocity S-wave (km/s) = 2.73107 3.51917 3.14987
# Velocity P-wave (km/s) = 5.35700 6.82275 6.13382
#
# Compressibility (1/GPa) = 0.03229050
#
# Stress axis : x y z
#
# Youngs Moduli (GPa) = 26.17033 40.95018 13.88651
#
# Poissons Ratio (x) = 0.03000 0.55945
# Poissons Ratio (y) = 0.01917 0.14104
# Poissons Ratio (z) = 1.05433 0.41591
#
# Static dielectric constant tensor:
#      x y z
#    x 1.587600 0.000000 -0.024870 
#    y 0.000000 1.569630 0.000000 
#    z -0.024870 0.000000 1.477400 
# 
# From -- ./inp_files/61813.got.cif
#   From: 2010.05.17/outbox.cif.g08.bks.cpg/sg11_31_cif.got.tgz:61813.got - 2010.06.03 12:22:45.
