data_PCOD9157599
_publ_section_title
;
Structure prediction by ZEFSAII (Michael W. Deem and Ramdas Pophale) SiO2 
 PCOD9157599
Probable space group: P 21/M
;
_chemical_formula_sum "Si O2"
_cell_formula_units_Z 24
_cell_length_a 10.067016
_cell_length_b 14.330256
_cell_length_c 10.628999
_cell_angle_alpha 90.000000
_cell_angle_beta 136.518211
_cell_angle_gamma 90.000000
_cell_volume 1055.148949
_symmetry_space_group_name_H-M "P 21/M"
_symmetry_group_IT_number 11
_symmetry_cell_setting 'monoclinic'
loop_
_space_group_symop_operation_xyz
x,y,z
-x,1/2+y,-z
-x,-y,-z
x,1/2-y,z
loop_
_atom_site_type_symbol
_atom_site_label
_atom_site_fract_x
_atom_site_fract_y
_atom_site_fract_z
Si Si1 0.826852 0.863100 0.727026
Si Si2 0.495453 0.637861 0.126793
Si Si3 0.082079 0.091257 0.490033
Si Si4 0.802567 0.363807 0.863025
Si Si5 0.666763 0.146278 0.244598
Si Si6 0.395768 0.863522 0.522137
O O1 0.837351 0.750000 0.712696
O O2 0.874806 0.910970 0.628200
O O3 0.611629 0.883279 0.624607
O O4 0.987183 0.888010 0.940428
O O5 0.466207 0.750000 0.104026
O O6 0.719269 0.620427 0.307610
O O7 0.358536 0.604225 0.146654
O O8 0.424710 0.601665 0.942597
O O9 0.894251 0.155252 0.377727
O O10 0.000000 0.000000 0.500000
O O11 0.793595 0.250000 0.853919
O O12 0.749340 0.396487 0.686556
O O13 0.578145 0.250000 0.193737
O O14 0.635359 0.099431 0.358462
O O15 0.373491 0.750000 0.512775
#
# Coordination Sequence:
#
# PCOD9157599 Si02
#       6
#     4   4   4   4   4   4
#     4  10  18  34  58  81 106 143 189 232 274 334
#     4  10  19  35  61  85 107 145 191 234 279 329
#     4  12  24  36  55  84 116 154 191 229 277 334
#     4   9  16  29  56  86 106 136 182 229 278 330
#     4  10  21  38  59  87 116 142 182 240 287 324
#     4   9  18  32  56  87 113 136 176 235 289 328
#
# _framework density 22.745604
#
# number of rings (size 3 to 8) (size 9 to 14) (size 15 to 20)
#    0.000    2.000    3.333    1.500    0.000    2.000 
#    0.000    5.833    0.000    2.000    0.000    0.000 
#    0.000    0.000    0.000    0.000    0.000    0.000 
#
# Total GULP energy -134150.515790 kJ/mol
# GULP energy per Si atom -5589.604825 kJ/mol
# Density = 2.269383 g / cm^3
# Si number density = 22.745604 Si / 1000 Ang^3
#
#
#
# Elastic Constant Matrix: (Units=GPa)
#
#
# Indices 1 2 3 4 5 6 
#
# 1 105.4396 -3.5982 56.7463 0.0000 -22.1841 0.0000
# 2 -3.5982 56.6468 3.0394 0.0000 -5.6390 0.0000
# 3 56.7463 3.0394 174.6617 0.0000 -10.3026 0.0000
# 4 0.0000 0.0000 0.0000 8.4723 0.0000 -0.8139
# 5 -22.1841 -5.6390 -10.3026 0.0000 43.8773 0.0000
# 6 0.0000 0.0000 0.0000 -0.8139 0.0000 22.1640
#
#
#
# Elastic Compliance Matrix: (Units=1/GPa)
#
#
# Indices 1 2 3 4 5 6 
#
# 1 0.012831 0.001598 -0.003855 0.000000 0.005788 0.000000
# 2 0.001598 0.018087 -0.000658 0.000000 0.002978 0.000000
# 3 -0.003855 -0.000658 0.006966 0.000000 -0.000398 0.000000
# 4 0.000000 0.000000 0.000000 0.118450 0.000000 0.004350
# 5 0.005788 0.002978 -0.000398 0.000000 0.026006 0.000000
# 6 0.000000 0.000000 0.000000 0.004350 0.000000 0.045278
#
#
# Mechanical properties :
#
#
# Convention : Reuss Voigt Hill
#
# Bulk Modulus (GPa) = 31.19868 49.90255 40.55061
# Shear Modulus (GPa) = 20.48067 33.60675 27.04371
#
# Velocity S-wave (km/s) = 3.00396 3.84800 3.45188
# Velocity P-wave (km/s) = 5.07719 6.45987 5.80981
#
# Compressibility (1/GPa) = 0.03205264
#
# Stress axis : x y z
#
# Youngs Moduli (GPa) = 77.93560 55.28981 143.55779
#
# Poissons Ratio (x) = -0.08835 0.55344
# Poissons Ratio (y) = -0.12454 0.09450
# Poissons Ratio (z) = 0.30045 0.03640
#
# Static dielectric constant tensor:
#      x y z
#    x 1.814080 0.000000 0.012130 
#    y 0.000000 1.932770 0.000000 
#    z 0.012130 0.000000 1.858990 
# 
# From -- ./inp_files/14398.got.cif
#   From: 2010.05.17/outbox.cif.g08.bks.cpg/sg11_8_cif.got.tgz:14398.got - 2010.06.03 12:22:45.
