data_PCOD9157848
_publ_section_title
;
Structure prediction by ZEFSAII (Michael W. Deem and Ramdas Pophale) SiO2 
 PCOD9157848
Probable space group: P 21/M
;
_chemical_formula_sum "Si O2"
_cell_formula_units_Z 32
_cell_length_a 23.894133
_cell_length_b 7.550966
_cell_length_c 14.698910
_cell_angle_alpha 90.000000
_cell_angle_beta 143.372740
_cell_angle_gamma 90.000000
_cell_volume 1582.220835
_symmetry_space_group_name_H-M "P 21/M"
_symmetry_group_IT_number 11
_symmetry_cell_setting 'monoclinic'
loop_
_space_group_symop_operation_xyz
x,y,z
-x,1/2+y,-z
-x,-y,-z
x,1/2-y,z
loop_
_atom_site_type_symbol
_atom_site_label
_atom_site_fract_x
_atom_site_fract_y
_atom_site_fract_z
Si Si1 0.889874 0.964908 0.258659
Si Si2 0.704540 0.545224 0.915648
Si Si3 0.496569 0.036256 0.387164
Si Si4 0.812054 0.537237 0.544274
Si Si5 0.198601 0.534749 0.138670
Si Si6 0.100087 0.040894 0.521085
Si Si7 0.312904 0.961677 0.458046
Si Si8 0.994703 0.961830 0.886369
O O1 0.889630 0.750000 0.256583
O O2 0.889682 0.030140 0.363275
O O3 0.795894 0.030351 0.086007
O O4 0.990957 0.018914 0.350134
O O5 0.698491 0.750000 0.937134
O O6 0.600155 0.467502 0.783687
O O7 0.730236 0.535114 0.842957
O O8 0.494831 0.250000 0.377561
O O9 0.588378 0.971495 0.452841
O O10 0.500000 0.000000 0.500000
O O11 0.818896 0.750000 0.549109
O O12 0.830119 0.470901 0.465429
O O13 0.719257 0.500254 0.481480
O O14 0.901108 0.467264 0.718207
O O15 0.200086 0.750000 0.137869
O O16 0.232230 0.476657 0.282330
O O17 0.094214 0.472395 0.978605
O O18 0.117476 0.250000 0.551703
O O19 0.316093 0.750000 0.454438
O O20 0.993563 0.750000 0.873076
O O21 0.000000 0.000000 0.000000
#
# Coordination Sequence:
#
# PCOD9157848 Si02
#       8
#     4   4   4   4   4   4   4   4
#     4   9  18  33  53  78 102 127 161 201 246 294
#     4  10  20  32  50  74  98 125 160 203 247 291
#     4  10  20  34  50  70  97 129 166 205 247 290
#     4  10  20  32  48  69  94 129 165 197 239 288
#     4  10  19  31  46  67  96 129 162 195 237 287
#     4   9  18  34  54  75 102 131 161 199 244 294
#     4  10  20  33  48  67  94 129 165 200 240 286
#     4  10  19  29  41  61  91 123 154 186 225 275
#
# _framework density 20.224737000000001
#
# number of rings (size 3 to 8) (size 9 to 14) (size 15 to 20)
#    0.000    2.250    2.500    0.750    0.000    3.500 
#    0.000    0.000    0.000    0.750    0.000    0.000 
#    0.000    0.000    0.000    0.000    0.000    0.000 
#
# Total GULP energy -178498.527472 kJ/mol
# GULP energy per Si atom -5578.078983 kJ/mol
# Density = 2.017870 g / cm^3
# Si number density = 20.224737 Si / 1000 Ang^3
#
#
#
# Elastic Constant Matrix: (Units=GPa)
#
#
# Indices 1 2 3 4 5 6 
#
# 1 141.0559 -6.6275 37.1892 0.0000 17.3036 0.0000
# 2 -6.6275 47.2871 -5.2274 0.0000 1.8969 0.0000
# 3 37.1892 -5.2274 70.8069 0.0000 11.7683 0.0000
# 4 0.0000 0.0000 0.0000 8.8995 0.0000 0.4950
# 5 17.3036 1.8969 11.7683 0.0000 30.9955 0.0000
# 6 0.0000 0.0000 0.0000 0.4950 0.0000 17.0702
#
#
#
# Elastic Compliance Matrix: (Units=1/GPa)
#
#
# Indices 1 2 3 4 5 6 
#
# 1 0.008566 0.000908 -0.003872 0.000000 -0.003367 0.000000
# 2 0.000908 0.021538 0.001512 0.000000 -0.002399 0.000000
# 3 -0.003872 0.001512 0.016997 0.000000 -0.004384 0.000000
# 4 0.000000 0.000000 0.000000 0.112548 0.000000 -0.003264
# 5 -0.003367 -0.002399 -0.004384 0.000000 0.035954 0.000000
# 6 0.000000 0.000000 0.000000 -0.003264 0.000000 0.058676
#
#
# Mechanical properties :
#
#
# Convention : Reuss Voigt Hill
#
# Bulk Modulus (GPa) = 22.62665 34.42428 28.52546
# Shear Modulus (GPa) = 18.38800 26.98074 22.68437
#
# Velocity S-wave (km/s) = 3.01854 3.65642 3.35269
# Velocity P-wave (km/s) = 4.83329 5.90625 5.39650
#
# Compressibility (1/GPa) = 0.04419568
#
# Stress axis : x y z
#
# Youngs Moduli (GPa) = 116.73968 46.42960 58.83365
#
# Poissons Ratio (x) = -0.04214 0.22783
# Poissons Ratio (y) = -0.10595 -0.08896
# Poissons Ratio (z) = 0.45206 -0.07021
#
# Static dielectric constant tensor:
#      x y z
#    x 1.746180 0.000000 0.013410 
#    y 0.000000 1.758440 0.000000 
#    z 0.013410 0.000000 1.734030 
# 
# From -- ./inp_files/54344.got.cif
#   From: 2010.05.17/outbox.cif.g08.bks.cpg/sg11_28_cif.got.tgz:54344.got - 2010.06.03 12:22:45.
