data_PCOD9157211
_publ_section_title
;
Structure prediction by ZEFSAII (Michael W. Deem and Ramdas Pophale) SiO2 
 PCOD9157211
Probable space group: P 21/M
;
_chemical_formula_sum "Si O2"
_cell_formula_units_Z 32
_cell_length_a 29.010852
_cell_length_b 8.123980
_cell_length_c 22.471098
_cell_angle_alpha 90.000000
_cell_angle_beta 18.785768
_cell_angle_gamma 90.000000
_cell_volume 1705.495924
_symmetry_space_group_name_H-M "P 21/M"
_symmetry_group_IT_number 11
_symmetry_cell_setting 'monoclinic'
loop_
_space_group_symop_operation_xyz
x,y,z
-x,1/2+y,-z
-x,-y,-z
x,1/2-y,z
loop_
_atom_site_type_symbol
_atom_site_label
_atom_site_fract_x
_atom_site_fract_y
_atom_site_fract_z
Si Si1 0.192543 0.948508 0.510619
Si Si2 0.053496 0.054465 0.499143
Si Si3 0.341228 0.445543 0.211419
Si Si4 0.340712 0.451561 0.815031
Si Si5 0.176481 0.448560 0.896831
Si Si6 0.098842 0.051484 0.198002
Si Si7 0.667822 0.448893 0.414214
Si Si8 0.152596 0.548443 0.691611
O O1 0.195273 0.750000 0.507184
O O2 0.211565 0.004272 0.555149
O O3 0.034975 0.999650 0.680059
O O4 0.303083 0.007408 0.325830
O O5 0.065638 0.250000 0.482942
O O6 0.208959 0.987902 0.332087
O O7 0.000000 0.000000 0.500000
O O8 0.939107 0.007448 0.689805
O O9 0.337196 0.250000 0.211418
O O10 0.500000 0.500000 0.000000
O O11 0.341075 0.250000 0.814652
O O12 0.262666 0.504851 0.849762
O O13 0.504109 0.507368 0.616143
O O14 0.244947 0.504233 0.988317
O O15 0.173848 0.250000 0.902093
O O16 0.254098 0.500615 0.741716
O O17 0.012057 0.504851 0.100299
O O18 0.100155 0.250000 0.197420
O O19 0.665491 0.250000 0.418853
O O20 0.754768 0.507351 0.365647
O O21 0.152932 0.750000 0.691287
#
# Coordination Sequence:
#
# PCOD9157211 Si02
#       8
#     4   4   4   4   4   4   4   4
#     4   9  16  31  55  76  97 134 177 213 252 306
#     4  10  21  37  57  83 112 142 177 217 262 315
#     4  10  21  37  57  83 112 142 177 217 262 315
#     4   9  17  31  51  72  97 131 171 209 251 306
#     4  10  18  32  52  70  93 132 175 206 245 310
#     4   9  16  31  55  76  97 134 177 213 252 306
#     4  10  20  32  46  72 103 128 161 214 265 298
#     4   9  17  31  51  72  97 131 171 209 251 306
#
# _framework density 18.762869999999999
#
# number of rings (size 3 to 8) (size 9 to 14) (size 15 to 20)
#    0.000    2.500    1.250    1.500    0.000    1.500 
#    2.250    2.500    0.000    0.000    0.000    0.000 
#    0.000    0.000    0.000    0.000    0.000    0.000 
#
# Total GULP energy -178506.812034 kJ/mol
# GULP energy per Si atom -5578.337876 kJ/mol
# Density = 1.872016 g / cm^3
# Si number density = 18.762870 Si / 1000 Ang^3
#
#
#
# Elastic Constant Matrix: (Units=GPa)
#
#
# Indices 1 2 3 4 5 6 
#
# 1 185.1669 16.9663 118.0251 0.0000 11.1846 0.0000
# 2 16.9663 8.4825 17.0297 0.0000 0.8451 0.0000
# 3 118.0251 17.0297 187.7827 0.0000 10.4814 0.0000
# 4 0.0000 0.0000 0.0000 21.8690 0.0000 10.7759
# 5 11.1846 0.8451 10.4814 0.0000 29.6179 0.0000
# 6 0.0000 0.0000 0.0000 10.7759 0.0000 20.1686
#
#
#
# Elastic Compliance Matrix: (Units=1/GPa)
#
#
# Indices 1 2 3 4 5 6 
#
# 1 0.009563 -0.008655 -0.005139 0.000000 -0.001545 0.000000
# 2 -0.008655 0.151974 -0.008449 0.000000 0.001922 0.000000
# 3 -0.005139 -0.008449 0.009385 0.000000 -0.001140 0.000000
# 4 0.000000 0.000000 0.000000 0.062067 0.000000 -0.033162
# 5 -0.001545 0.001922 -0.001140 0.000000 0.034695 0.000000
# 6 0.000000 0.000000 0.000000 -0.033162 0.000000 0.067300
#
#
# Mechanical properties :
#
#
# Convention : Reuss Voigt Hill
#
# Bulk Modulus (GPa) = 7.90928 76.16383 42.03655
# Shear Modulus (GPa) = 11.85911 29.62518 20.74214
#
# Velocity S-wave (km/s) = 2.51679 3.97788 3.32850
# Velocity P-wave (km/s) = 3.55952 7.85996 6.10120
#
# Compressibility (1/GPa) = 0.12643381
#
# Stress axis : x y z
#
# Youngs Moduli (GPa) = 104.57419 6.58008 106.55092
#
# Poissons Ratio (x) = 0.05695 0.54757
# Poissons Ratio (y) = 0.90513 0.90030
# Poissons Ratio (z) = 0.53741 0.05560
#
# Static dielectric constant tensor:
#      x y z
#    x 1.659390 0.000000 -0.032180 
#    y 0.000000 1.666480 0.000000 
#    z -0.032180 0.000000 1.654650 
# 
# From -- ./inp_files/61337.got.cif
#   From: 2010.05.17/outbox.cif.g08.bks.cpg/sg11_31_cif.got.tgz:61337.got - 2010.06.03 12:22:45.
