data_PCOD9157959
_publ_section_title
;
Structure prediction by ZEFSAII (Michael W. Deem and Ramdas Pophale) SiO2 
 PCOD9157959
Probable space group: P 21/M
;
_chemical_formula_sum "Si O2"
_cell_formula_units_Z 32
_cell_length_a 6.766779
_cell_length_b 7.440410
_cell_length_c 23.497662
_cell_angle_alpha 90.000000
_cell_angle_beta 106.476110
_cell_angle_gamma 90.000000
_cell_volume 1134.472768
_symmetry_space_group_name_H-M "P 21/M"
_symmetry_group_IT_number 11
_symmetry_cell_setting 'monoclinic'
loop_
_space_group_symop_operation_xyz
x,y,z
-x,1/2+y,-z
-x,-y,-z
x,1/2-y,z
loop_
_atom_site_type_symbol
_atom_site_label
_atom_site_fract_x
_atom_site_fract_y
_atom_site_fract_z
Si Si1 0.462988 0.533397 0.829661
Si Si2 0.772846 0.452482 0.667841
Si Si3 0.219728 0.533345 0.451939
Si Si4 0.675554 0.535406 0.953639
Si Si5 0.893976 0.533841 0.078892
Si Si6 0.771517 0.461276 0.300804
Si Si7 0.880822 0.461298 0.797631
Si Si8 0.747818 0.962398 0.419566
O O1 0.449388 0.750000 0.830698
O O2 0.495030 0.464522 0.897016
O O3 0.313455 0.470965 0.766700
O O4 0.681271 0.481440 0.819894
O O5 0.688370 0.250000 0.668552
O O6 0.016243 0.438450 0.672348
O O7 0.695121 0.534652 0.602100
O O8 0.803296 0.542948 0.731767
O O9 0.218923 0.750000 0.446525
O O10 0.320768 0.494528 0.521064
O O11 0.983331 0.462179 0.438336
O O12 0.652516 0.750000 0.956009
O O13 0.891707 0.504755 0.937531
O O14 0.720849 0.462890 0.020777
O O15 0.879237 0.750000 0.081200
O O16 0.933986 0.465543 0.147114
O O17 0.808150 0.250000 0.296832
O O18 0.647733 0.478229 0.350576
O O19 0.922501 0.250000 0.790856
O O20 0.757190 0.750000 0.415651
#
# Coordination Sequence:
#
# PCOD9157959 Si02
#       8
#     4   4   4   4   4   4   4   4
#     4   9  18  30  44  65  91 118 148 181 218 260
#     4   9  18  31  46  66  91 117 146 180 218 260
#     4   8  14  25  41  61  85 111 139 175 217 257
#     4   8  13  23  39  59  84 111 140 177 216 252
#     4   8  13  22  39  62  84 108 140 177 216 255
#     4  10  19  30  45  65  89 118 150 181 215 258
#     4   9  17  29  46  68  91 115 145 181 221 263
#     4   9  16  26  42  64  87 110 140 180 221 257
#
# _framework density 28.206935000000001
#
# number of rings (size 3 to 8) (size 9 to 14) (size 15 to 20)
#    0.000    3.250    0.000    1.500    0.000    4.500 
#    0.000    0.000    0.000    1.500    0.000    0.000 
#    0.000    0.000    0.000    0.000    0.000    0.125 
#
# Total GULP energy -178644.713635 kJ/mol
# GULP energy per Si atom -5582.647301 kJ/mol
# Density = 2.814273 g / cm^3
# Si number density = 28.206935 Si / 1000 Ang^3
#
#
#
# Elastic Constant Matrix: (Units=GPa)
#
#
# Indices 1 2 3 4 5 6 
#
# 1 39.3215 5.7740 56.0416 0.0000 12.3442 0.0000
# 2 5.7740 134.8333 11.3371 0.0000 0.7713 0.0000
# 3 56.0416 11.3371 379.4024 0.0000 1.1242 0.0000
# 4 0.0000 0.0000 0.0000 10.9485 0.0000 -7.2236
# 5 12.3442 0.7713 1.1242 0.0000 54.8598 0.0000
# 6 0.0000 0.0000 0.0000 -7.2236 0.0000 17.6665
#
#
#
# Elastic Compliance Matrix: (Units=1/GPa)
#
#
# Indices 1 2 3 4 5 6 
#
# 1 0.035430 -0.001037 -0.005179 0.000000 -0.007851 0.000000
# 2 -0.001037 0.007466 -0.000070 0.000000 0.000130 0.000000
# 3 -0.005179 -0.000070 0.003400 0.000000 0.001097 0.000000
# 4 0.000000 0.000000 0.000000 0.125081 0.000000 0.051144
# 5 -0.007851 0.000130 0.001097 0.000000 0.019971 0.000000
# 6 0.000000 0.000000 0.000000 0.051144 0.000000 0.077517
#
#
# Mechanical properties :
#
#
# Convention : Reuss Voigt Hill
#
# Bulk Modulus (GPa) = 29.65339 77.76252 53.70795
# Shear Modulus (GPa) = 17.08369 48.72194 32.90281
#
# Velocity S-wave (km/s) = 2.46368 4.16059 3.41908
# Velocity P-wave (km/s) = 4.31608 7.12104 5.88803
#
# Compressibility (1/GPa) = 0.03372296
#
# Stress axis : x y z
#
# Youngs Moduli (GPa) = 28.22485 133.93807 294.15403
#
# Poissons Ratio (x) = 0.13887 1.52345
# Poissons Ratio (y) = 0.02926 0.02069
# Poissons Ratio (z) = 0.14618 0.00942
#
# Static dielectric constant tensor:
#      x y z
#    x 4.351130 0.000000 -0.844990 
#    y 0.000000 1.965150 0.000000 
#    z -0.844990 0.000000 2.717190 
# 
# From -- ./inp_files/68248.got.cif
#   From: 2010.05.17/outbox.cif.g08.bks.cpg/sg11_35_cif.got.tgz:68248.got - 2010.06.03 12:22:45.
