data_PCOD9157919
_publ_section_title
;
Structure prediction by ZEFSAII (Michael W. Deem and Ramdas Pophale) SiO2 
 PCOD9157919
Probable space group: P 21/M
;
_chemical_formula_sum "Si O2"
_cell_formula_units_Z 28
_cell_length_a 11.307796
_cell_length_b 7.591275
_cell_length_c 14.427592
_cell_angle_alpha 90.000000
_cell_angle_beta 98.947721
_cell_angle_gamma 90.000000
_cell_volume 1223.401605
_symmetry_space_group_name_H-M "P 21/M"
_symmetry_group_IT_number 11
_symmetry_cell_setting 'monoclinic'
loop_
_space_group_symop_operation_xyz
x,y,z
-x,1/2+y,-z
-x,-y,-z
x,1/2-y,z
loop_
_atom_site_type_symbol
_atom_site_label
_atom_site_fract_x
_atom_site_fract_y
_atom_site_fract_z
Si Si1 0.038588 0.043068 0.722593
Si Si2 0.790339 0.047914 0.103249
Si Si3 0.863685 0.959526 0.451804
Si Si4 0.583537 0.535897 0.222397
Si Si5 0.393117 0.539547 0.059042
Si Si6 0.478079 0.961910 0.390678
Si Si7 0.218831 0.953870 0.362483
O O1 0.028214 0.250000 0.698935
O O2 0.130345 0.976108 0.653935
O O3 0.905376 0.967414 0.691566
O O4 0.094884 0.028593 0.830718
O O5 0.819097 0.250000 0.087342
O O6 0.685661 0.038400 0.168470
O O7 0.727874 0.968274 0.003534
O O8 0.837743 0.750000 0.450514
O O9 0.787944 0.040692 0.525980
O O10 0.000000 0.000000 0.500000
O O11 0.597689 0.750000 0.218826
O O12 0.453994 0.486093 0.162558
O O13 0.577139 0.479833 0.328415
O O14 0.377673 0.750000 0.062209
O O15 0.500000 0.500000 0.000000
O O16 0.474760 0.750000 0.380982
O O17 0.345823 0.032864 0.350679
O O18 0.500000 0.000000 0.500000
O O19 0.220739 0.750000 0.332511
#
# Coordination Sequence:
#
# PCOD9157919 Si02
#       7
#     4   4   4   4   4   4   4
#     4   9  18  31  47  68  96 128 160 196 243 296
#     4  10  19  29  48  78 104 124 157 204 248 290
#     4   9  17  29  46  67  91 123 161 198 239 285
#     4   9  18  34  53  71  98 133 164 196 244 298
#     4   8  15  29  48  71  97 126 158 196 243 293
#     4  10  22  37  53  73  97 130 169 206 241 287
#     4   9  19  35  50  67  94 128 167 204 240 287
#
# _framework density 22.887007000000001
#
# number of rings (size 3 to 8) (size 9 to 14) (size 15 to 20)
#    0.000    2.857    0.000    1.714    2.000    4.571 
#    0.000    0.000    0.000    0.857    0.000    0.000 
#    0.000    0.000    0.000    0.000    0.000    1.000 
#
# Total GULP energy -155995.066347 kJ/mol
# GULP energy per Si atom -5571.252370 kJ/mol
# Density = 2.283492 g / cm^3
# Si number density = 22.887007 Si / 1000 Ang^3
#
#
#
# Elastic Constant Matrix: (Units=GPa)
#
#
# Indices 1 2 3 4 5 6 
#
# 1 59.0149 -2.0221 -2.7745 0.0000 13.8940 0.0000
# 2 -2.0221 47.6163 -6.7161 0.0000 1.6133 0.0000
# 3 -2.7745 -6.7161 71.3105 0.0000 25.3190 0.0000
# 4 0.0000 0.0000 0.0000 16.7895 0.0000 6.4509
# 5 13.8940 1.6133 25.3190 0.0000 35.5959 0.0000
# 6 0.0000 0.0000 0.0000 6.4509 0.0000 9.2021
#
#
#
# Elastic Compliance Matrix: (Units=1/GPa)
#
#
# Indices 1 2 3 4 5 6 
#
# 1 0.019942 0.001943 0.005022 0.000000 -0.011444 0.000000
# 2 0.001943 0.021749 0.003670 0.000000 -0.004355 0.000000
# 3 0.005022 0.003670 0.020495 0.000000 -0.016705 0.000000
# 4 0.000000 0.000000 0.000000 0.081518 0.000000 -0.057146
# 5 -0.011444 -0.004355 -0.016705 0.000000 0.044639 0.000000
# 6 0.000000 0.000000 0.000000 -0.057146 0.000000 0.148731
#
#
# Mechanical properties :
#
#
# Convention : Reuss Voigt Hill
#
# Bulk Modulus (GPa) = 11.98229 17.21290 14.59759
# Shear Modulus (GPa) = 14.55082 24.94780 19.74931
#
# Velocity S-wave (km/s) = 2.52418 3.30516 2.94071
# Velocity P-wave (km/s) = 3.70703 4.70134 4.23348
#
# Compressibility (1/GPa) = 0.08345653
#
# Stress axis : x y z
#
# Youngs Moduli (GPa) = 50.14568 45.97929 48.79164
#
# Poissons Ratio (x) = -0.08934 -0.24504
# Poissons Ratio (y) = -0.09743 -0.17907
# Poissons Ratio (z) = -0.25184 -0.16875
#
# Static dielectric constant tensor:
#      x y z
#    x 1.875690 0.000000 0.042480 
#    y 0.000000 1.925610 0.000000 
#    z 0.042480 0.000000 1.916010 
# 
# From -- ./inp_files/49038.got.cif
#   From: 2010.05.17/outbox.cif.g08.bks.cpg/sg11_25_cif.got.tgz:49038.got - 2010.06.03 12:22:45.
