data_PCOD9157988
_publ_section_title
;
Structure prediction by ZEFSAII (Michael W. Deem and Ramdas Pophale) SiO2 
 PCOD9157988
Probable space group: P 21/M
;
_chemical_formula_sum "Si O2"
_cell_formula_units_Z 24
_cell_length_a 27.001524
_cell_length_b 8.747693
_cell_length_c 11.703360
_cell_angle_alpha 90.000000
_cell_angle_beta 30.500459
_cell_angle_gamma 90.000000
_cell_volume 1403.030640
_symmetry_space_group_name_H-M "P 21/M"
_symmetry_group_IT_number 11
_symmetry_cell_setting 'monoclinic'
loop_
_space_group_symop_operation_xyz
x,y,z
-x,1/2+y,-z
-x,-y,-z
x,1/2-y,z
loop_
_atom_site_type_symbol
_atom_site_label
_atom_site_fract_x
_atom_site_fract_y
_atom_site_fract_z
Si Si1 0.122190 0.067221 0.873768
Si Si2 0.250020 0.928999 0.807055
Si Si3 0.098145 0.422313 0.267632
Si Si4 0.239600 0.077853 0.202479
Si Si5 0.391596 0.434639 0.714943
Si Si6 0.900759 0.432774 0.333030
O O1 0.129071 0.250000 0.863148
O O2 0.214701 0.998051 0.756890
O O3 0.119795 0.008460 0.748675
O O4 0.013794 0.024532 0.139462
O O5 0.270023 0.750000 0.757899
O O6 0.334628 0.008325 0.714484
O O7 0.154482 0.965839 0.071734
O O8 0.086522 0.250000 0.242133
O O9 0.163707 0.409034 0.249478
O O10 0.000000 0.500000 0.500000
O O11 0.261085 0.250000 0.202775
O O12 0.182014 0.984811 0.413257
O O13 0.334152 0.015762 0.945600
O O14 0.500000 0.500000 0.500000
O O15 0.390114 0.250000 0.717693
O O16 0.898890 0.250000 0.325918
#
# Coordination Sequence:
#
# PCOD9157988 Si02
#       6
#     4   4   4   4   4   4
#     4  10  20  34  51  73 106 144 179 215 253 298
#     4  11  21  33  51  75 103 135 172 213 258 309
#     4  10  19  30  45  69 101 135 170 208 253 305
#     4   9  19  33  49  71 101 134 167 207 254 306
#     4  10  21  38  58  80 104 132 170 215 267 319
#     4  10  20  32  50  76 105 140 180 215 250 299
#
# _framework density 17.105827000000001
#
# number of rings (size 3 to 8) (size 9 to 14) (size 15 to 20)
#    0.000    2.000    0.000    5.500    0.000    8.667 
#    0.000    0.000    0.000    1.000    0.000    0.000 
#    0.000    0.000    0.000    0.000    0.000    0.000 
#
# Total GULP energy -133737.934250 kJ/mol
# GULP energy per Si atom -5572.413927 kJ/mol
# Density = 1.706689 g / cm^3
# Si number density = 17.105827 Si / 1000 Ang^3
#
#
#
# Elastic Constant Matrix: (Units=GPa)
#
#
# Indices 1 2 3 4 5 6 
#
# 1 91.1850 35.2653 41.6115 0.0000 -5.0652 0.0000
# 2 35.2653 79.3468 33.3677 0.0000 -0.0990 0.0000
# 3 41.6115 33.3677 106.5299 0.0000 -8.6632 0.0000
# 4 0.0000 0.0000 0.0000 24.9671 0.0000 1.0174
# 5 -5.0652 -0.0990 -8.6632 0.0000 22.2755 0.0000
# 6 0.0000 0.0000 0.0000 1.0174 0.0000 30.2241
#
#
#
# Elastic Compliance Matrix: (Units=1/GPa)
#
#
# Indices 1 2 3 4 5 6 
#
# 1 0.014824 -0.004850 -0.004129 0.000000 0.001743 0.000000
# 2 -0.004850 0.016168 -0.003360 0.000000 -0.002338 0.000000
# 3 -0.004129 -0.003360 0.012366 0.000000 0.003855 0.000000
# 4 0.000000 0.000000 0.000000 0.040108 0.000000 -0.001350
# 5 0.001743 -0.002338 0.003855 0.000000 0.046778 0.000000
# 6 0.000000 0.000000 0.000000 -0.001350 0.000000 0.033132
#
#
# Mechanical properties :
#
#
# Convention : Reuss Voigt Hill
#
# Bulk Modulus (GPa) = 53.53411 55.28342 54.40876
# Shear Modulus (GPa) = 25.73606 26.61447 26.17527
#
# Velocity S-wave (km/s) = 3.88302 3.94873 3.91602
# Velocity P-wave (km/s) = 7.17409 7.29237 7.23347
#
# Compressibility (1/GPa) = 0.01867968
#
# Stress axis : x y z
#
# Youngs Moduli (GPa) = 67.46043 61.84908 80.86666
#
# Poissons Ratio (x) = 0.29994 0.33393
# Poissons Ratio (y) = 0.32715 0.27173
# Poissons Ratio (z) = 0.27857 0.20782
#
# Static dielectric constant tensor:
#      x y z
#    x 1.594730 0.000000 -0.004240 
#    y 0.000000 1.587780 0.000000 
#    z -0.004240 0.000000 1.569220 
# 
# From -- ./inp_files/40804.got.cif
#   From: 2010.05.17/outbox.cif.g08.bks.cpg/sg11_21_cif.got.tgz:40804.got - 2010.06.03 12:22:45.
