data_PCOD9157174
_publ_section_title
;
Structure prediction by ZEFSAII (Michael W. Deem and Ramdas Pophale) SiO2 
 PCOD9157174
Probable space group: P 21/M
;
_chemical_formula_sum "Si O2"
_cell_formula_units_Z 32
_cell_length_a 12.493914
_cell_length_b 24.417225
_cell_length_c 12.036340
_cell_angle_alpha 90.000000
_cell_angle_beta 149.238522
_cell_angle_gamma 90.000000
_cell_volume 1878.042378
_symmetry_space_group_name_H-M "P 21/M"
_symmetry_group_IT_number 11
_symmetry_cell_setting 'monoclinic'
loop_
_space_group_symop_operation_xyz
x,y,z
-x,1/2+y,-z
-x,-y,-z
x,1/2-y,z
loop_
_atom_site_type_symbol
_atom_site_label
_atom_site_fract_x
_atom_site_fract_y
_atom_site_fract_z
Si Si1 0.870453 0.312370 0.516692
Si Si2 0.682436 0.417046 0.472601
Si Si3 0.959792 0.086605 0.336581
Si Si4 0.293890 0.810063 0.883160
Si Si5 0.418125 0.950327 0.853392
Si Si6 0.331361 0.037674 0.286870
Si Si7 0.009302 0.008906 0.173323
Si Si8 0.285057 0.360274 0.784596
O O1 0.861095 0.250000 0.551922
O O2 0.766424 0.359356 0.500048
O O3 0.758479 0.312045 0.295831
O O4 0.107841 0.329731 0.697610
O O5 0.614782 0.454495 0.306651
O O6 0.474724 0.414383 0.363498
O O7 0.865461 0.451923 0.695278
O O8 0.838893 0.140483 0.183589
O O9 0.806799 0.064667 0.296272
O O10 0.984313 0.041015 0.265522
O O11 0.169788 0.106180 0.584271
O O12 0.235291 0.750000 0.871927
O O13 0.540550 0.820775 0.112022
O O14 0.584080 0.902079 0.023247
O O15 0.500000 0.000000 0.000000
O O16 0.148637 0.046270 0.214315
O O17 0.500000 0.000000 0.500000
O O18 0.209274 0.005761 0.080023
#
# Coordination Sequence:
#
# PCOD9157174 Si02
#       8
#     4   4   4   4   4   4   4   4
#     4  10  20  33  49  74 106 143 183 215 251 310
#     4  11  20  33  52  77 107 140 174 215 263 312
#     4  10  20  32  49  79 106 136 172 211 256 310
#     4   9  18  33  48  70 107 144 179 212 247 300
#     4  11  21  29  46  78 112 140 165 208 261 313
#     4   9  21  38  54  76  97 134 174 212 261 313
#     4  10  21  36  56  75 105 136 172 216 265 317
#     4  10  18  32  46  74 107 143 176 201 257 302
#
# _framework density 17.039019
#
# number of rings (size 3 to 8) (size 9 to 14) (size 15 to 20)
#    0.000    2.000    3.750    1.875    3.500    4.500 
#    0.000    0.000    0.000    0.750    0.000   10.500 
#    0.000    0.000    0.000    0.000    0.000    0.000 
#
# Total GULP energy -178294.541801 kJ/mol
# GULP energy per Si atom -5571.704431 kJ/mol
# Density = 1.700024 g / cm^3
# Si number density = 17.039019 Si / 1000 Ang^3
#
#
#
# Elastic Constant Matrix: (Units=GPa)
#
#
# Indices 1 2 3 4 5 6 
#
# 1 57.8975 13.3852 22.2739 0.0000 9.9065 0.0000
# 2 13.3852 62.7787 17.0598 0.0000 6.6740 0.0000
# 3 22.2739 17.0598 93.0361 0.0000 8.5697 0.0000
# 4 0.0000 0.0000 0.0000 11.4027 0.0000 2.2573
# 5 9.9065 6.6740 8.5697 0.0000 21.8156 0.0000
# 6 0.0000 0.0000 0.0000 2.2573 0.0000 8.2797
#
#
#
# Elastic Compliance Matrix: (Units=1/GPa)
#
#
# Indices 1 2 3 4 5 6 
#
# 1 0.020536 -0.002600 -0.003791 0.000000 -0.007041 0.000000
# 2 -0.002600 0.017449 -0.002277 0.000000 -0.003263 0.000000
# 3 -0.003791 -0.002277 0.012296 0.000000 -0.002412 0.000000
# 4 0.000000 0.000000 0.000000 0.092702 0.000000 -0.025273
# 5 -0.007041 -0.003263 -0.002412 0.000000 0.050982 0.000000
# 6 0.000000 0.000000 0.000000 -0.025273 0.000000 0.127668
#
#
# Mechanical properties :
#
#
# Convention : Reuss Voigt Hill
#
# Bulk Modulus (GPa) = 30.35314 35.46114 32.90714
# Shear Modulus (GPa) = 14.28776 19.03248 16.66012
#
# Velocity S-wave (km/s) = 2.89888 3.34577 3.13031
# Velocity P-wave (km/s) = 5.39048 5.98185 5.69385
#
# Compressibility (1/GPa) = 0.03294552
#
# Stress axis : x y z
#
# Youngs Moduli (GPa) = 48.69445 57.31043 81.32845
#
# Poissons Ratio (x) = 0.14900 0.30834
# Poissons Ratio (y) = 0.12660 0.18515
# Poissons Ratio (z) = 0.18462 0.13047
#
# Static dielectric constant tensor:
#      x y z
#    x 1.578250 0.000000 0.016420 
#    y 0.000000 1.629030 0.000000 
#    z 0.016420 0.000000 1.597150 
# 
# From -- ./inp_files/36636.got.cif
#   From: 2010.05.17/outbox.cif.g08.bks.cpg/sg11_19_cif.got.tgz:36636.got - 2010.06.03 12:22:45.
