data_PCOD9157177
_publ_section_title
;
Structure prediction by ZEFSAII (Michael W. Deem and Ramdas Pophale) SiO2 
 PCOD9157177
Probable space group: P 21/M
;
_chemical_formula_sum "Si O2"
_cell_formula_units_Z 24
_cell_length_a 12.260224
_cell_length_b 8.713495
_cell_length_c 14.683553
_cell_angle_alpha 90.000000
_cell_angle_beta 70.936972
_cell_angle_gamma 90.000000
_cell_volume 1482.610998
_symmetry_space_group_name_H-M "P 21/M"
_symmetry_group_IT_number 11
_symmetry_cell_setting 'monoclinic'
loop_
_space_group_symop_operation_xyz
x,y,z
-x,1/2+y,-z
-x,-y,-z
x,1/2-y,z
loop_
_atom_site_type_symbol
_atom_site_label
_atom_site_fract_x
_atom_site_fract_y
_atom_site_fract_z
Si Si1 0.248491 0.563816 0.168668
Si Si2 0.425818 0.432056 0.438027
Si Si3 0.603938 0.434613 0.033591
Si Si4 0.471956 0.565783 0.228022
Si Si5 0.047496 0.566538 0.348637
Si Si6 0.825888 0.430929 0.492573
O O1 0.246636 0.750000 0.172489
O O2 0.354010 0.517526 0.206897
O O3 0.127377 0.511947 0.243489
O O4 0.283256 0.521129 0.056178
O O5 0.500000 0.500000 0.500000
O O6 0.437579 0.250000 0.432260
O O7 0.466839 0.502115 0.330764
O O8 0.292198 0.478397 0.486876
O O9 0.597238 0.250000 0.038936
O O10 0.578809 0.503325 0.139327
O O11 0.500000 0.500000 0.000000
O O12 0.474247 0.750000 0.228353
O O13 0.027853 0.750000 0.346922
O O14 0.122687 0.541712 0.420079
O O15 0.926473 0.483158 0.396615
O O16 0.802888 0.250000 0.490595
#
# Coordination Sequence:
#
# PCOD9157177 Si02
#       6
#     4   4   4   4   4   4
#     4   8  14  26  45  68  98 131 161 195 239 287
#     4  12  24  37  53  72  95 129 169 207 247 295
#     4   9  16  26  42  67  96 130 165 200 243 293
#     4  10  18  32  48  67  97 130 162 205 248 290
#     4   9  16  29  48  70  99 134 164 197 243 291
#     4  10  19  32  48  70  99 129 164 205 245 289
#
# _framework density 16.187657999999999
#
# number of rings (size 3 to 8) (size 9 to 14) (size 15 to 20)
#    0.000    2.333    1.667    4.000    0.000    0.667 
#    0.000    1.667    0.000    0.000    0.000    1.167 
#    0.000    0.000    0.000    0.000    0.000    0.000 
#
# Total GULP energy -133753.922025 kJ/mol
# GULP energy per Si atom -5573.080084 kJ/mol
# Density = 1.615081 g / cm^3
# Si number density = 16.187658 Si / 1000 Ang^3
#
#
#
# Elastic Constant Matrix: (Units=GPa)
#
#
# Indices 1 2 3 4 5 6 
#
# 1 36.5068 30.5680 51.3700 0.0000 -5.2931 0.0000
# 2 30.5680 69.6917 45.3010 0.0000 -4.4844 0.0000
# 3 51.3700 45.3010 156.9432 0.0000 -29.2590 0.0000
# 4 0.0000 0.0000 0.0000 26.7262 0.0000 -2.5273
# 5 -5.2931 -4.4844 -29.2590 0.0000 25.1272 0.0000
# 6 0.0000 0.0000 0.0000 -2.5273 0.0000 19.4525
#
#
#
# Elastic Compliance Matrix: (Units=1/GPa)
#
#
# Indices 1 2 3 4 5 6 
#
# 1 0.067594 -0.018016 -0.018992 0.000000 -0.011091 0.000000
# 2 -0.018016 0.022717 -0.000782 0.000000 -0.000651 0.000000
# 3 -0.018992 -0.000782 0.015381 0.000000 0.013770 0.000000
# 4 0.000000 0.000000 0.000000 0.037882 0.000000 0.004922
# 5 -0.011091 -0.000651 0.013770 0.000000 0.053379 0.000000
# 6 0.000000 0.000000 0.000000 0.004922 0.000000 0.052047
#
#
# Mechanical properties :
#
#
# Convention : Reuss Voigt Hill
#
# Bulk Modulus (GPa) = 33.20921 57.51330 45.36126
# Shear Modulus (GPa) = 14.94248 23.32136 19.13192
#
# Velocity S-wave (km/s) = 3.04152 3.79976 3.44158
# Velocity P-wave (km/s) = 5.73534 7.40656 6.62387
#
# Compressibility (1/GPa) = 0.03011213
#
# Stress axis : x y z
#
# Youngs Moduli (GPa) = 14.79427 44.01918 65.01616
#
# Poissons Ratio (x) = 0.79306 1.23478
# Poissons Ratio (y) = 0.26654 0.05082
# Poissons Ratio (z) = 0.28097 0.03441
#
# Static dielectric constant tensor:
#      x y z
#    x 1.528890 0.000000 -0.012560 
#    y 0.000000 1.540270 0.000000 
#    z -0.012560 0.000000 1.598280 
# 
# From -- ./inp_files/36984.got.cif
#   From: 2010.05.17/outbox.cif.g08.bks.cpg/sg11_19_cif.got.tgz:36984.got - 2010.06.03 12:22:45.
