data_PCOD9157003
_publ_section_title
;
Structure prediction by ZEFSAII (Michael W. Deem and Ramdas Pophale) SiO2 
 PCOD9157003
Probable space group: P 21/M
;
_chemical_formula_sum "Si O2"
_cell_formula_units_Z 32
_cell_length_a 11.666340
_cell_length_b 30.870090
_cell_length_c 5.185575
_cell_angle_alpha 90.000000
_cell_angle_beta 119.927891
_cell_angle_gamma 90.000000
_cell_volume 1618.509245
_symmetry_space_group_name_H-M "P 21/M"
_symmetry_group_IT_number 11
_symmetry_cell_setting 'monoclinic'
loop_
_space_group_symop_operation_xyz
x,y,z
-x,1/2+y,-z
-x,-y,-z
x,1/2-y,z
loop_
_atom_site_type_symbol
_atom_site_label
_atom_site_fract_x
_atom_site_fract_y
_atom_site_fract_z
Si Si1 0.354041 0.203361 0.824942
Si Si2 0.121638 0.056791 0.048393
Si Si3 0.383322 0.454226 0.650267
Si Si4 0.271513 0.115921 0.922072
Si Si5 0.109344 0.536991 0.882228
Si Si6 0.535298 0.202359 0.530986
Si Si7 0.711110 0.451854 0.404992
Si Si8 0.539108 0.391013 0.509992
O O1 0.286261 0.250000 0.783956
O O2 0.266124 0.160969 0.766221
O O3 0.422033 0.202624 0.622930
O O4 0.470239 0.201685 0.172441
O O5 0.271065 0.046735 0.302929
O O6 0.079668 0.014669 0.838154
O O7 0.137102 0.100123 0.902916
O O8 0.027834 0.059385 0.190931
O O9 0.324282 0.422890 0.801335
O O10 0.378004 0.504623 0.722207
O O11 0.514045 0.430622 0.683844
O O12 0.389491 0.121406 0.262217
O O13 0.199823 0.544132 0.237482
O O14 0.190537 0.551440 0.725471
O O15 0.603319 0.250000 0.632222
O O16 0.603206 0.155290 0.654055
O O17 0.616385 0.411620 0.357468
#
# Coordination Sequence:
#
# PCOD9157003 Si02
#       8
#     4   4   4   4   4   4   4   4
#     4   9  17  29  46  70  99 124 154 194 243 297
#     4   9  20  34  51  70  96 128 174 208 243 279
#     4  10  19  32  48  73 100 135 163 197 245 296
#     4  10  18  31  51  72 101 131 160 197 249 295
#     4  10  22  36  51  70  95 134 171 213 236 272
#     4   9  17  30  47  68  95 128 160 195 236 286
#     4  11  23  34  49  71 102 136 169 199 241 287
#     4  10  21  32  47  74 104 133 158 198 244 305
#
# _framework density 19.771279
#
# number of rings (size 3 to 8) (size 9 to 14) (size 15 to 20)
#    0.000    2.250    2.500    0.375    3.500    2.000 
#    0.000    0.000    0.000    0.000    0.000    1.750 
#    0.000    0.000    0.000    0.000    0.000    0.000 
#
# Total GULP energy -178294.636676 kJ/mol
# GULP energy per Si atom -5571.707396 kJ/mol
# Density = 1.972628 g / cm^3
# Si number density = 19.771279 Si / 1000 Ang^3
#
#
#
# Elastic Constant Matrix: (Units=GPa)
#
#
# Indices 1 2 3 4 5 6 
#
# 1 107.1647 53.3394 18.5272 0.0000 -29.6010 0.0000
# 2 53.3394 137.6502 -9.3814 0.0000 -17.1164 0.0000
# 3 18.5272 -9.3814 46.7459 0.0000 -16.7574 0.0000
# 4 0.0000 0.0000 0.0000 16.1017 0.0000 -10.6353
# 5 -29.6010 -17.1164 -16.7574 0.0000 31.7442 0.0000
# 6 0.0000 0.0000 0.0000 -10.6353 0.0000 16.2096
#
#
#
# Elastic Compliance Matrix: (Units=1/GPa)
#
#
# Indices 1 2 3 4 5 6 
#
# 1 0.014982 -0.004864 -0.003511 0.000000 0.009495 0.000000
# 2 -0.004864 0.009949 0.005207 0.000000 0.003578 0.000000
# 3 -0.003511 0.005207 0.029184 0.000000 0.014940 0.000000
# 4 0.000000 0.000000 0.000000 0.109604 0.000000 0.071912
# 5 0.009495 0.003578 0.014940 0.000000 0.050171 0.000000
# 6 0.000000 0.000000 0.000000 0.071912 0.000000 0.108874
#
#
# Mechanical properties :
#
#
# Convention : Reuss Voigt Hill
#
# Bulk Modulus (GPa) = 20.92898 46.28127 33.60512
# Shear Modulus (GPa) = 14.49160 28.08279 21.28719
#
# Velocity S-wave (km/s) = 2.71026 3.77289 3.28483
# Velocity P-wave (km/s) = 4.51692 6.51450 5.60541
#
# Compressibility (1/GPa) = 0.04778064
#
# Stress axis : x y z
#
# Youngs Moduli (GPa) = 66.74678 100.50843 34.26493
#
# Poissons Ratio (x) = 0.48889 0.12029
# Poissons Ratio (y) = 0.32467 -0.17842
# Poissons Ratio (z) = 0.23432 -0.52336
#
# Static dielectric constant tensor:
#      x y z
#    x 1.691370 0.000000 -0.002020 
#    y 0.000000 1.793930 0.000000 
#    z -0.002020 0.000000 1.805980 
# 
# From -- ./inp_files/5716.got.cif
#   From: 2010.05.17/outbox.cif.g08.bks.cpg/sg11_3_cif.got.tgz:5716.got - 2010.06.03 12:22:45.
