data_PCOD9157157
_publ_section_title
;
Structure prediction by ZEFSAII (Michael W. Deem and Ramdas Pophale) SiO2 
 PCOD9157157
Probable space group: P 21/M
;
_chemical_formula_sum "Si O2"
_cell_formula_units_Z 28
_cell_length_a 9.212451
_cell_length_b 13.546612
_cell_length_c 17.085807
_cell_angle_alpha 90.000000
_cell_angle_beta 147.983455
_cell_angle_gamma 90.000000
_cell_volume 1130.450939
_symmetry_space_group_name_H-M "P 21/M"
_symmetry_group_IT_number 11
_symmetry_cell_setting 'monoclinic'
loop_
_space_group_symop_operation_xyz
x,y,z
-x,1/2+y,-z
-x,-y,-z
x,1/2-y,z
loop_
_atom_site_type_symbol
_atom_site_label
_atom_site_fract_x
_atom_site_fract_y
_atom_site_fract_z
Si Si1 0.252429 0.370159 0.270551
Si Si2 0.028773 0.367681 0.415225
Si Si3 0.136041 0.368840 0.880879
Si Si4 0.211212 0.952416 0.410037
Si Si5 0.759065 0.868165 0.320537
Si Si6 0.389727 0.369515 0.156270
Si Si7 0.373150 0.630823 0.011718
O O1 0.280495 0.250000 0.290086
O O2 0.309666 0.400266 0.206544
O O3 0.484740 0.421739 0.428051
O O4 0.938062 0.396997 0.144232
O O5 0.055968 0.250000 0.414060
O O6 0.138720 0.434739 0.396480
O O7 0.708136 0.390369 0.282810
O O8 0.191919 0.398963 0.568195
O O9 0.111684 0.250000 0.868150
O O10 0.884359 0.411753 0.717298
O O11 0.410193 0.395552 0.956713
O O12 0.190419 0.400270 0.994599
O O13 0.016369 0.895957 0.384322
O O14 0.747439 0.750000 0.318941
O O15 0.494516 0.902406 0.150989
O O16 0.374657 0.250000 0.150183
O O17 0.373723 0.750000 0.013742
#
# Coordination Sequence:
#
# PCOD9157157 Si02
#       7
#     4   4   4   4   4   4   4
#     4  10  18  31  55  87 116 142 182 233 279 326
#     4  10  20  33  52  79 110 143 190 238 277 325
#     4   9  18  34  56  82 113 149 185 221 275 343
#     4  11  19  30  56  82 106 144 191 234 275 323
#     4   9  16  30  51  79 108 141 184 226 268 329
#     4   9  18  32  53  80 112 146 183 229 276 328
#     4   8  16  30  52  79 113 149 181 220 273 335
#
# _framework density 24.768877
#
# number of rings (size 3 to 8) (size 9 to 14) (size 15 to 20)
#    0.000    2.571    1.429    2.571    0.000    0.571 
#    0.000    0.714    3.143    0.857    0.000    0.000 
#    0.000    0.000    0.000    0.000    0.000    0.000 
#
# Total GULP energy -156895.646277 kJ/mol
# GULP energy per Si atom -5603.415938 kJ/mol
# Density = 2.471250 g / cm^3
# Si number density = 24.768877 Si / 1000 Ang^3
#
#
#
# Elastic Constant Matrix: (Units=GPa)
#
#
# Indices 1 2 3 4 5 6 
#
# 1 86.1094 1.5556 86.8873 0.0000 4.3337 0.0000
# 2 1.5556 91.1874 39.5869 0.0000 -0.7537 0.0000
# 3 86.8873 39.5869 205.5835 0.0000 1.6655 0.0000
# 4 0.0000 0.0000 0.0000 37.9220 0.0000 8.0729
# 5 4.3337 -0.7537 1.6655 0.0000 44.8103 0.0000
# 6 0.0000 0.0000 0.0000 8.0729 0.0000 21.4488
#
#
#
# Elastic Compliance Matrix: (Units=1/GPa)
#
#
# Indices 1 2 3 4 5 6 
#
# 1 0.021566 0.003895 -0.009851 0.000000 -0.001654 0.000000
# 2 0.003895 0.012674 -0.004087 0.000000 -0.000012 0.000000
# 3 -0.009851 -0.004087 0.009811 0.000000 0.000519 0.000000
# 4 0.000000 0.000000 0.000000 0.028667 0.000000 -0.010790
# 5 -0.001654 -0.000012 0.000519 0.000000 0.022457 0.000000
# 6 0.000000 0.000000 0.000000 -0.010790 0.000000 0.050684
#
#
# Mechanical properties :
#
#
# Convention : Reuss Voigt Hill
#
# Bulk Modulus (GPa) = 41.72719 70.99333 56.36026
# Shear Modulus (GPa) = 28.74679 37.82626 33.28652
#
# Velocity S-wave (km/s) = 3.41046 3.91214 3.66988
# Velocity P-wave (km/s) = 5.69135 7.00935 6.38445
#
# Compressibility (1/GPa) = 0.02396519
#
# Stress axis : x y z
#
# Youngs Moduli (GPa) = 46.36823 78.90157 101.93139
#
# Poissons Ratio (x) = -0.30734 1.00417
# Poissons Ratio (y) = -0.18061 0.41656
# Poissons Ratio (z) = 0.45680 0.32244
#
# Static dielectric constant tensor:
#      x y z
#    x 1.908810 0.000000 -0.016580 
#    y 0.000000 1.988530 0.000000 
#    z -0.016580 0.000000 1.925670 
# 
# From -- ./inp_files/47685.got.cif
#   From: 2010.05.17/outbox.cif.g08.bks.cpg/sg11_24_cif.got.tgz:47685.got - 2010.06.03 12:22:45.
