data_PCOD9157357
_publ_section_title
;
Structure prediction by ZEFSAII (Michael W. Deem and Ramdas Pophale) SiO2 
 PCOD9157357
Probable space group: P 21/M
;
_chemical_formula_sum "Si O2"
_cell_formula_units_Z 20
_cell_length_a 6.795093
_cell_length_b 14.999017
_cell_length_c 9.523836
_cell_angle_alpha 90.000000
_cell_angle_beta 89.663511
_cell_angle_gamma 90.000000
_cell_volume 970.649916
_symmetry_space_group_name_H-M "P 21/M"
_symmetry_group_IT_number 11
_symmetry_cell_setting 'monoclinic'
loop_
_space_group_symop_operation_xyz
x,y,z
-x,1/2+y,-z
-x,-y,-z
x,1/2-y,z
loop_
_atom_site_type_symbol
_atom_site_label
_atom_site_fract_x
_atom_site_fract_y
_atom_site_fract_z
Si Si1 0.174382 0.750000 0.741328
Si Si2 0.764967 0.250000 0.575518
Si Si3 0.693186 0.904363 0.417872
Si Si4 0.816353 0.620007 0.724440
Si Si5 0.629076 0.750000 0.234470
Si Si6 0.437763 0.250000 0.094549
Si Si7 0.773424 0.444282 0.591618
O O1 0.283520 0.750000 0.590209
O O2 0.335350 0.750000 0.861182
O O3 0.026575 0.665999 0.745582
O O4 0.578481 0.250000 0.679671
O O5 0.866438 0.346467 0.595432
O O6 0.734234 0.857177 0.567872
O O7 0.735128 0.839090 0.289695
O O8 0.461939 0.927626 0.405978
O O9 0.803480 0.998339 0.447409
O O10 0.668858 0.664354 0.835397
O O11 0.818370 0.512824 0.716854
O O12 0.593511 0.750000 0.070751
#
# Coordination Sequence:
#
# PCOD9157357 Si02
#       7
#     2   2   4   4   2   2   4
#     4  11  22  33  59  84 116 155 197 236 275 348
#     4  10  19  35  55  86 115 142 192 250 288 328
#     4   8  15  32  58  84 108 142 186 241 281 332
#     4   9  19  38  58  86 112 154 199 229 285 344
#     4  10  18  32  56  86 122 146 187 236 289 339
#     4  11  21  34  56  84 119 165 186 224 284 347
#     4   8  16  31  62  85 114 139 191 248 282 338
#
# _framework density 20.604751
#
# number of rings (size 3 to 8) (size 9 to 14) (size 15 to 20)
#    1.200    1.600    0.000    3.600    0.000    0.800 
#    0.000    8.000    0.000    4.800    0.000    0.000 
#    0.000    0.000    0.000    0.000    0.000    0.000 
#
# Total GULP energy -111344.768408 kJ/mol
# GULP energy per Si atom -5567.238420 kJ/mol
# Density = 2.055785 g / cm^3
# Si number density = 20.604751 Si / 1000 Ang^3
#
#
#
# Elastic Constant Matrix: (Units=GPa)
#
#
# Indices 1 2 3 4 5 6 
#
# 1 117.1017 34.4353 55.9740 0.0000 14.5810 0.0000
# 2 34.4353 206.5959 53.5081 0.0000 13.6023 0.0000
# 3 55.9740 53.5081 94.3031 0.0000 25.1479 0.0000
# 4 0.0000 0.0000 0.0000 9.8259 0.0000 0.8223
# 5 14.5810 13.6023 25.1479 0.0000 14.2711 0.0000
# 6 0.0000 0.0000 0.0000 0.8223 0.0000 6.0112
#
#
#
# Elastic Compliance Matrix: (Units=1/GPa)
#
#
# Indices 1 2 3 4 5 6 
#
# 1 0.011930 -0.000179 -0.007121 0.000000 0.000529 0.000000
# 2 -0.000179 0.005679 -0.003247 0.000000 0.000492 0.000000
# 3 -0.007121 -0.003247 0.026237 0.000000 -0.035863 0.000000
# 4 0.000000 0.000000 0.000000 0.102951 0.000000 -0.014083
# 5 0.000529 0.000492 -0.035863 0.000000 0.132257 0.000000
# 6 0.000000 0.000000 0.000000 -0.014083 0.000000 0.168283
#
#
# Mechanical properties :
#
#
# Convention : Reuss Voigt Hill
#
# Bulk Modulus (GPa) = 43.95299 78.42617 61.18958
# Shear Modulus (GPa) = 10.50391 24.29387 17.39889
#
# Velocity S-wave (km/s) = 2.26028 3.43744 2.90903
# Velocity P-wave (km/s) = 5.30939 7.34163 6.40660
#
# Compressibility (1/GPa) = 0.02275158
#
# Stress axis : x y z
#
# Youngs Moduli (GPa) = 83.82265 176.09298 38.11480
#
# Poissons Ratio (x) = 0.03154 0.27140
# Poissons Ratio (y) = 0.01501 0.12377
# Poissons Ratio (z) = 0.59687 0.57181
#
# Static dielectric constant tensor:
#      x y z
#    x 1.797000 0.000000 -0.022840 
#    y 0.000000 1.854100 0.000000 
#    z -0.022840 0.000000 1.663660 
# 
# From -- ./inp_files/10104.got.cif
#   From: 2010.05.17/outbox.cif.g08.bks.cpg/sg11_6_cif.got.tgz:10104.got - 2010.06.03 12:22:45.
