data_PCOD9157821
_publ_section_title
;
Structure prediction by ZEFSAII (Michael W. Deem and Ramdas Pophale) SiO2 
 PCOD9157821
Probable space group: P 21/M
;
_chemical_formula_sum "Si O2"
_cell_formula_units_Z 32
_cell_length_a 17.625481
_cell_length_b 8.889198
_cell_length_c 13.850708
_cell_angle_alpha 90.000000
_cell_angle_beta 79.481354
_cell_angle_gamma 90.000000
_cell_volume 2133.611951
_symmetry_space_group_name_H-M "P 21/M"
_symmetry_group_IT_number 11
_symmetry_cell_setting 'monoclinic'
loop_
_space_group_symop_operation_xyz
x,y,z
-x,1/2+y,-z
-x,-y,-z
x,1/2-y,z
loop_
_atom_site_type_symbol
_atom_site_label
_atom_site_fract_x
_atom_site_fract_y
_atom_site_fract_z
Si Si1 0.081997 0.074518 0.085213
Si Si2 0.496856 0.430811 0.893378
Si Si3 0.971894 0.568685 0.606540
Si Si4 0.661770 0.069567 0.078236
Si Si5 0.818354 0.924822 0.742565
Si Si6 0.947164 0.571043 0.227920
Si Si7 0.332605 0.929945 0.149501
Si Si8 0.814576 0.568906 0.121890
O O1 0.058702 0.250000 0.080129
O O2 0.139658 0.065610 0.163027
O O3 0.129433 0.027360 0.980511
O O4 0.008746 0.975502 0.130995
O O5 0.490673 0.250000 0.899507
O O6 0.419301 0.500075 0.867653
O O7 0.581596 0.469834 0.832728
O O8 0.500000 0.500000 0.000000
O O9 0.972719 0.750000 0.604027
O O10 0.025736 0.512984 0.682008
O O11 0.000000 0.500000 0.500000
O O12 0.884099 0.519657 0.653394
O O13 0.657224 0.250000 0.080378
O O14 0.733642 0.011191 0.123190
O O15 0.673693 0.021272 0.962334
O O16 0.803753 0.750000 0.725264
O O17 0.737433 0.007162 0.772012
O O18 0.951120 0.750000 0.241966
O O19 0.862519 0.532216 0.207185
O O20 0.327492 0.750000 0.149328
O O21 0.803992 0.750000 0.120215
#
# Coordination Sequence:
#
# PCOD9157821 Si02
#       8
#     4   4   4   4   4   4   4   4
#     4   9  17  29  42  60  88 121 154 187 223 259
#     4   9  17  28  40  57  83 117 155 192 226 262
#     4  10  21  37  53  69  89 115 147 186 233 278
#     4  10  19  28  40  61  86 120 160 192 226 263
#     4   9  17  28  45  66  88 115 147 183 225 267
#     4  10  20  31  46  67  88 116 151 186 227 271
#     4   9  17  27  40  61  86 114 152 189 221 261
#     4  10  19  30  43  61  89 123 156 188 223 263
#
# _framework density 14.998042
#
# number of rings (size 3 to 8) (size 9 to 14) (size 15 to 20)
#    0.000    2.500    1.250    3.375    0.000    6.500 
#    0.000    0.000    0.000    0.000    0.000    0.000 
#    0.000    1.000    0.000    3.250    0.000    4.000 
#
# Total GULP energy -178277.329139 kJ/mol
# GULP energy per Si atom -5571.166536 kJ/mol
# Density = 1.496391 g / cm^3
# Si number density = 14.998042 Si / 1000 Ang^3
#
#
#
# Elastic Constant Matrix: (Units=GPa)
#
#
# Indices 1 2 3 4 5 6 
#
# 1 145.5280 51.7781 49.0655 0.0000 -11.3058 0.0000
# 2 51.7781 42.2582 24.0090 0.0000 -3.8478 0.0000
# 3 49.0655 24.0090 54.7975 0.0000 -12.6150 0.0000
# 4 0.0000 0.0000 0.0000 17.5474 0.0000 -3.0155
# 5 -11.3058 -3.8478 -12.6150 0.0000 14.2346 0.0000
# 6 0.0000 0.0000 0.0000 -3.0155 0.0000 28.5872
#
#
#
# Elastic Compliance Matrix: (Units=1/GPa)
#
#
# Indices 1 2 3 4 5 6 
#
# 1 0.013798 -0.013269 -0.006085 0.000000 0.001979 0.000000
# 2 -0.013269 0.044516 -0.009145 0.000000 -0.006610 0.000000
# 3 -0.006085 -0.009145 0.032693 0.000000 0.021668 0.000000
# 4 0.000000 0.000000 0.000000 0.058041 0.000000 0.006122
# 5 0.001979 -0.006610 0.021668 0.000000 0.089239 0.000000
# 6 0.000000 0.000000 0.000000 0.006122 0.000000 0.035627
#
#
# Mechanical properties :
#
#
# Convention : Reuss Voigt Hill
#
# Bulk Modulus (GPa) = 29.40479 54.69878 42.05179
# Shear Modulus (GPa) = 14.60930 19.92257 17.26594
#
# Velocity S-wave (km/s) = 3.12441 3.64860 3.39663
# Velocity P-wave (km/s) = 5.71526 7.36882 6.59408
#
# Compressibility (1/GPa) = 0.03400807
#
# Stress axis : x y z
#
# Youngs Moduli (GPa) = 72.47453 22.46391 30.58769
#
# Poissons Ratio (x) = 0.29807 0.18614
# Poissons Ratio (y) = 0.96164 0.27973
# Poissons Ratio (z) = 0.44104 0.20544
#
# Static dielectric constant tensor:
#      x y z
#    x 1.526930 0.000000 -0.002130 
#    y 0.000000 1.496580 0.000000 
#    z -0.002130 0.000000 1.476300 
# 
# From -- ./inp_files/51249.got.cif
#   From: 2010.05.17/outbox.cif.g08.bks.cpg/sg11_26_cif.got.tgz:51249.got - 2010.06.03 12:22:45.
