data_PCOD9157590
_publ_section_title
;
Structure prediction by ZEFSAII (Michael W. Deem and Ramdas Pophale) SiO2 
 PCOD9157590
Probable space group: P 21/M
;
_chemical_formula_sum "Si O2"
_cell_formula_units_Z 32
_cell_length_a 15.717843
_cell_length_b 7.748402
_cell_length_c 11.911927
_cell_angle_alpha 90.000000
_cell_angle_beta 93.497832
_cell_angle_gamma 90.000000
_cell_volume 1448.029188
_symmetry_space_group_name_H-M "P 21/M"
_symmetry_group_IT_number 11
_symmetry_cell_setting 'monoclinic'
loop_
_space_group_symop_operation_xyz
x,y,z
-x,1/2+y,-z
-x,-y,-z
x,1/2-y,z
loop_
_atom_site_type_symbol
_atom_site_label
_atom_site_fract_x
_atom_site_fract_y
_atom_site_fract_z
Si Si1 0.864294 0.960833 0.731705
Si Si2 0.712037 0.962250 0.875560
Si Si3 0.445537 0.045057 0.609119
Si Si4 0.519083 0.544602 0.866795
Si Si5 0.776256 0.548077 0.117373
Si Si6 0.736872 0.537380 0.349896
Si Si7 0.900411 0.956556 0.489127
Si Si8 0.970107 0.455938 0.122756
O O1 0.865854 0.750000 0.737155
O O2 0.781492 0.019093 0.791208
O O3 0.862098 0.013732 0.604070
O O4 0.953779 0.018980 0.791762
O O5 0.712316 0.750000 0.873594
O O6 0.615684 0.018562 0.853666
O O7 0.746530 0.025827 0.997760
O O8 0.443634 0.250000 0.607646
O O9 0.346998 0.982018 0.589759
O O10 0.500000 0.000000 0.500000
O O11 0.473255 0.002250 0.742209
O O12 0.516252 0.750000 0.867926
O O13 0.500000 0.500000 0.000000
O O14 0.754569 0.750000 0.111022
O O15 0.728847 0.476858 0.221232
O O16 0.877770 0.533365 0.137574
O O17 0.738520 0.750000 0.352341
O O18 0.831133 0.478166 0.394905
O O19 0.898301 0.750000 0.482126
O O20 0.000000 0.000000 0.500000
O O21 0.962696 0.250000 0.133796
O O22 0.000000 0.500000 0.000000
#
# Coordination Sequence:
#
# PCOD9157590 Si02
#       8
#     4   4   4   4   4   4   4   4
#     4   9  18  32  53  77 104 143 192 233 275 347
#     4   9  18  33  57  83 109 150 196 238 294 371
#     4  11  24  44  68  97 131 170 220 272 325 388
#     4  11  23  41  68  96 127 167 212 265 325 386
#     4  10  18  34  57  82 111 146 193 242 291 355
#     4   9  20  37  62  87 114 158 203 242 296 375
#     4  10  20  36  58  83 112 149 195 240 289 354
#     4  11  20  32  50  77 111 149 188 235 291 350
#
# _framework density 22.099004000000001
#
# number of rings (size 3 to 8) (size 9 to 14) (size 15 to 20)
#    0.000    2.000    1.250    2.625    1.750    2.000 
#    0.000    5.625    0.000    0.000    0.000    0.000 
#    0.000    0.000    0.000    0.000    0.000    0.000 
#
# Total GULP energy -178308.473459 kJ/mol
# GULP energy per Si atom -5572.139796 kJ/mol
# Density = 2.204871 g / cm^3
# Si number density = 22.099004 Si / 1000 Ang^3
#
#
#
# Elastic Constant Matrix: (Units=GPa)
#
#
# Indices 1 2 3 4 5 6 
#
# 1 149.2040 -3.5079 64.5131 0.0000 -6.5751 0.0000
# 2 -3.5079 41.6510 11.2914 0.0000 2.4194 0.0000
# 3 64.5131 11.2914 133.1959 0.0000 -11.1475 0.0000
# 4 0.0000 0.0000 0.0000 18.1113 0.0000 0.7811
# 5 -6.5751 2.4194 -11.1475 0.0000 25.2840 0.0000
# 6 0.0000 0.0000 0.0000 0.7811 0.0000 20.3653
#
#
#
# Elastic Compliance Matrix: (Units=1/GPa)
#
#
# Indices 1 2 3 4 5 6 
#
# 1 0.008623 0.001889 -0.004324 0.000000 0.000155 0.000000
# 2 0.001889 0.025272 -0.003342 0.000000 -0.003400 0.000000
# 3 -0.004324 -0.003342 0.010194 0.000000 0.003690 0.000000
# 4 0.000000 0.000000 0.000000 0.055306 0.000000 -0.002121
# 5 0.000155 -0.003400 0.003690 0.000000 0.041543 0.000000
# 6 0.000000 0.000000 0.000000 -0.002121 0.000000 0.049184
#
#
# Mechanical properties :
#
#
# Convention : Reuss Voigt Hill
#
# Bulk Modulus (GPa) = 30.73522 52.07156 41.40339
# Shear Modulus (GPa) = 23.52717 29.53574 26.53145
#
# Velocity S-wave (km/s) = 3.26640 3.65981 3.46869
# Velocity P-wave (km/s) = 5.30698 6.43995 5.90072
#
# Compressibility (1/GPa) = 0.03253596
#
# Stress axis : x y z
#
# Youngs Moduli (GPa) = 115.96927 39.56996 98.09665
#
# Poissons Ratio (x) = -0.07476 0.42414
# Poissons Ratio (y) = -0.21911 0.32784
# Poissons Ratio (z) = 0.50141 0.13224
#
# Static dielectric constant tensor:
#      x y z
#    x 1.846320 0.000000 0.055070 
#    y 0.000000 1.746470 0.000000 
#    z 0.055070 0.000000 1.890270 
# 
# From -- ./inp_files/38088.got.cif
#   From: 2010.05.17/outbox.cif.g08.bks.cpg/sg11_20_cif.got.tgz:38088.got - 2010.06.03 12:22:45.
