data_PCOD9157061
_publ_section_title
;
Structure prediction by ZEFSAII (Michael W. Deem and Ramdas Pophale) SiO2 
 PCOD9157061
Probable space group: P 21/M
;
_chemical_formula_sum "Si O2"
_cell_formula_units_Z 32
_cell_length_a 15.696793
_cell_length_b 8.450027
_cell_length_c 27.741623
_cell_angle_alpha 90.000000
_cell_angle_beta 151.100063
_cell_angle_gamma 90.000000
_cell_volume 1778.283474
_symmetry_space_group_name_H-M "P 21/M"
_symmetry_group_IT_number 11
_symmetry_cell_setting 'monoclinic'
loop_
_space_group_symop_operation_xyz
x,y,z
-x,1/2+y,-z
-x,-y,-z
x,1/2-y,z
loop_
_atom_site_type_symbol
_atom_site_label
_atom_site_fract_x
_atom_site_fract_y
_atom_site_fract_z
Si Si1 0.941377 0.941729 0.855991
Si Si2 0.689202 0.062298 0.533526
Si Si3 0.290545 0.566283 0.623811
Si Si4 0.297342 0.063513 0.733280
Si Si5 0.066644 0.433418 0.428884
Si Si6 0.334147 0.560402 0.202031
Si Si7 0.714230 0.558927 0.652709
Si Si8 0.310502 0.942193 0.078543
O O1 0.937742 0.750000 0.856354
O O2 0.857466 0.988323 0.763350
O O3 0.815931 0.005590 0.836015
O O4 0.141228 0.995340 0.964735
O O5 0.704291 0.250000 0.532894
O O6 0.482637 0.017548 0.426222
O O7 0.813432 0.974853 0.557385
O O8 0.738592 0.019751 0.612869
O O9 0.289612 0.750000 0.636805
O O10 0.274546 0.465388 0.664587
O O11 0.140137 0.530853 0.510771
O O12 0.478581 0.520072 0.693651
O O13 0.286655 0.250000 0.737887
O O14 0.495863 0.005015 0.842552
O O15 0.137057 0.976774 0.679744
O O16 0.083802 0.250000 0.449484
O O17 0.354577 0.750000 0.214061
O O18 0.289860 0.514698 0.124753
O O19 0.718113 0.750000 0.648708
O O20 0.314193 0.750000 0.079059
#
# Coordination Sequence:
#
# PCOD9157061 Si02
#       8
#     4   4   4   4   4   4   4   4
#     4  10  18  31  52  76 102 135 174 212 255 305
#     4  10  20  35  54  77 105 135 165 201 250 305
#     4  11  21  34  51  74 104 138 174 210 252 300
#     4  10  20  36  53  73 103 137 174 213 254 298
#     4  12  23  35  53  77 103 133 170 210 254 303
#     4  10  19  31  47  73 107 140 174 211 253 299
#     4   9  19  34  53  77 104 132 163 203 252 305
#     4   8  17  32  50  72 101 137 174 214 255 296
#
# _framework density 17.994880999999999
#
# number of rings (size 3 to 8) (size 9 to 14) (size 15 to 20)
#    0.000    2.000    0.000    5.625    0.000    2.000 
#    0.000    3.125    0.000    0.750    0.000    0.000 
#    0.000    0.000    0.000    0.000    0.000    0.000 
#
# Total GULP energy -178705.006505 kJ/mol
# GULP energy per Si atom -5584.531453 kJ/mol
# Density = 1.795392 g / cm^3
# Si number density = 17.994881 Si / 1000 Ang^3
#
#
#
# Elastic Constant Matrix: (Units=GPa)
#
#
# Indices 1 2 3 4 5 6 
#
# 1 37.0891 -3.2752 22.2758 0.0000 14.0512 0.0000
# 2 -3.2752 23.5070 5.7454 0.0000 0.4892 0.0000
# 3 22.2758 5.7454 117.8423 0.0000 5.7892 0.0000
# 4 0.0000 0.0000 0.0000 18.2327 0.0000 2.1663
# 5 14.0512 0.4892 5.7892 0.0000 20.4763 0.0000
# 6 0.0000 0.0000 0.0000 2.1663 0.0000 24.5490
#
#
#
# Elastic Compliance Matrix: (Units=1/GPa)
#
#
# Indices 1 2 3 4 5 6 
#
# 1 0.042204 0.008167 -0.007041 0.000000 -0.027165 0.000000
# 2 0.008167 0.044638 -0.003440 0.000000 -0.005698 0.000000
# 3 -0.007041 -0.003440 0.009881 0.000000 0.002121 0.000000
# 4 0.000000 0.000000 0.000000 0.055428 0.000000 -0.004891
# 5 -0.027165 -0.005698 0.002121 0.000000 0.067015 0.000000
# 6 0.000000 0.000000 0.000000 -0.004891 0.000000 0.041166
#
#
# Mechanical properties :
#
#
# Convention : Reuss Voigt Hill
#
# Bulk Modulus (GPa) = 10.85869 25.32560 18.09215
# Shear Modulus (GPa) = 16.91140 22.89777 19.90458
#
# Velocity S-wave (km/s) = 3.06892 3.57103 3.32945
# Velocity P-wave (km/s) = 4.31337 5.57739 4.98560
#
# Compressibility (1/GPa) = 0.09209212
#
# Stress axis : x y z
#
# Youngs Moduli (GPa) = 23.69447 22.40258 101.20937
#
# Poissons Ratio (x) = -0.18295 0.71266
# Poissons Ratio (y) = -0.19350 0.34817
# Poissons Ratio (z) = 0.16684 0.07707
#
# Static dielectric constant tensor:
#      x y z
#    x 1.590240 0.000000 0.019080 
#    y 0.000000 1.611980 0.000000 
#    z 0.019080 0.000000 1.632350 
# 
# From -- ./inp_files/51628.got.cif
#   From: 2010.05.17/outbox.cif.g08.bks.cpg/sg11_26_cif.got.tgz:51628.got - 2010.06.03 12:22:45.
