data_PCOD9157591
_publ_section_title
;
Structure prediction by ZEFSAII (Michael W. Deem and Ramdas Pophale) SiO2 
 PCOD9157591
Probable space group: P 21/M
;
_chemical_formula_sum "Si O2"
_cell_formula_units_Z 28
_cell_length_a 15.403014
_cell_length_b 7.847338
_cell_length_c 11.531438
_cell_angle_alpha 90.000000
_cell_angle_beta 66.832247
_cell_angle_gamma 90.000000
_cell_volume 1281.432346
_symmetry_space_group_name_H-M "P 21/M"
_symmetry_group_IT_number 11
_symmetry_cell_setting 'monoclinic'
loop_
_space_group_symop_operation_xyz
x,y,z
-x,1/2+y,-z
-x,-y,-z
x,1/2-y,z
loop_
_atom_site_type_symbol
_atom_site_label
_atom_site_fract_x
_atom_site_fract_y
_atom_site_fract_z
Si Si1 0.913192 0.545260 0.464104
Si Si2 0.248710 0.458386 0.820710
Si Si3 0.455273 0.453145 0.149764
Si Si4 0.155818 0.453601 0.090602
Si Si5 0.946474 0.955711 0.189230
Si Si6 0.548399 0.952970 0.351310
Si Si7 0.760084 0.959227 0.716156
O O1 0.907407 0.750000 0.458641
O O2 0.936096 0.479278 0.325666
O O3 0.815177 0.485883 0.572039
O O4 0.000000 0.500000 0.500000
O O5 0.249761 0.250000 0.814359
O O6 0.149368 0.515996 0.820202
O O7 0.343675 0.520117 0.710802
O O8 0.238844 0.508840 0.960317
O O9 0.452488 0.250000 0.150958
O O10 0.503417 0.501377 0.248502
O O11 0.347031 0.517612 0.213642
O O12 0.500000 0.500000 0.000000
O O13 0.160167 0.250000 0.093697
O O14 0.176996 0.518557 0.207755
O O15 0.051883 0.494360 0.097097
O O16 0.944763 0.750000 0.185562
O O17 0.551720 0.750000 0.350532
O O18 0.500000 0.000000 0.500000
O O19 0.759141 0.750000 0.716838
#
# Coordination Sequence:
#
# PCOD9157591 Si02
#       7
#     4   4   4   4   4   4   4
#     4  10  19  33  53  77 109 146 189 233 282 345
#     4   9  20  37  59  80 109 154 196 232 289 367
#     4  11  23  42  68  95 125 163 210 262 314 371
#     4  10  18  34  57  82 111 148 189 231 283 352
#     4  10  20  33  53  82 112 146 187 232 284 346
#     4  11  24  44  67  92 124 164 212 263 315 372
#     4   9  19  34  57  82 110 153 195 231 290 368
#
# _framework density 21.850549000000001
#
# number of rings (size 3 to 8) (size 9 to 14) (size 15 to 20)
#    0.000    2.000    1.429    2.143    2.000    2.286 
#    0.000    7.143    0.000    0.000    0.000    0.000 
#    0.000    0.000    0.000    0.000    0.000    0.000 
#
# Total GULP energy -156155.636398 kJ/mol
# GULP energy per Si atom -5576.987014 kJ/mol
# Density = 2.180082 g / cm^3
# Si number density = 21.850549 Si / 1000 Ang^3
#
#
#
# Elastic Constant Matrix: (Units=GPa)
#
#
# Indices 1 2 3 4 5 6 
#
# 1 117.8030 0.4501 73.3757 0.0000 -16.6251 0.0000
# 2 0.4501 32.6811 10.5761 0.0000 -0.1025 0.0000
# 3 73.3757 10.5761 178.6172 0.0000 -28.6333 0.0000
# 4 0.0000 0.0000 0.0000 21.9994 0.0000 1.0452
# 5 -16.6251 -0.1025 -28.6333 0.0000 42.7860 0.0000
# 6 0.0000 0.0000 0.0000 1.0452 0.0000 25.3845
#
#
#
# Elastic Compliance Matrix: (Units=1/GPa)
#
#
# Indices 1 2 3 4 5 6 
#
# 1 0.011545 0.001332 -0.004595 0.000000 0.001414 0.000000
# 2 0.001332 0.031415 -0.002590 0.000000 -0.001141 0.000000
# 3 -0.004595 -0.002590 0.008236 0.000000 0.003720 0.000000
# 4 0.000000 0.000000 0.000000 0.045545 0.000000 -0.001875
# 5 0.001414 -0.001141 0.003720 0.000000 0.026408 0.000000
# 6 0.000000 0.000000 0.000000 -0.001875 0.000000 0.039471
#
#
# Mechanical properties :
#
#
# Convention : Reuss Voigt Hill
#
# Bulk Modulus (GPa) = 25.32248 55.32276 40.32262
# Shear Modulus (GPa) = 26.66805 34.34726 30.50766
#
# Velocity S-wave (km/s) = 3.49732 3.96904 3.74062
# Velocity P-wave (km/s) = 5.28417 6.81014 6.09510
#
# Compressibility (1/GPa) = 0.03949060
#
# Stress axis : x y z
#
# Youngs Moduli (GPa) = 86.61525 31.83182 121.41989
#
# Poissons Ratio (x) = -0.04241 0.55792
# Poissons Ratio (y) = -0.11541 0.31452
# Poissons Ratio (z) = 0.39800 0.08245
#
# Static dielectric constant tensor:
#      x y z
#    x 1.810230 0.000000 0.024930 
#    y 0.000000 1.798020 0.000000 
#    z 0.024930 0.000000 1.837860 
# 
# From -- ./inp_files/37497.got.cif
#   From: 2010.05.17/outbox.cif.g08.bks.cpg/sg11_19_cif.got.tgz:37497.got - 2010.06.03 12:22:45.
