data_PCOD9157779
_publ_section_title
;
Structure prediction by ZEFSAII (Michael W. Deem and Ramdas Pophale) SiO2 
 PCOD9157779
Probable space group: P 21/M
;
_chemical_formula_sum "Si O2"
_cell_formula_units_Z 32
_cell_length_a 8.275351
_cell_length_b 14.696380
_cell_length_c 13.639875
_cell_angle_alpha 90.000000
_cell_angle_beta 116.282930
_cell_angle_gamma 90.000000
_cell_volume 1487.355661
_symmetry_space_group_name_H-M "P 21/M"
_symmetry_group_IT_number 11
_symmetry_cell_setting 'monoclinic'
loop_
_space_group_symop_operation_xyz
x,y,z
-x,1/2+y,-z
-x,-y,-z
x,1/2-y,z
loop_
_atom_site_type_symbol
_atom_site_label
_atom_site_fract_x
_atom_site_fract_y
_atom_site_fract_z
Si Si1 0.620753 0.052988 0.932564
Si Si2 0.212892 0.109312 0.263655
Si Si3 0.272688 0.355091 0.050042
Si Si4 0.200829 0.850607 0.833015
Si Si5 0.572497 0.065610 0.435127
Si Si6 0.286558 0.479461 0.724828
Si Si7 0.110136 0.581820 0.344244
Si Si8 0.871975 0.348966 0.859048
O O1 0.424816 0.072700 0.834060
O O2 0.752696 0.073290 0.876039
O O3 0.624206 0.945255 0.960706
O O4 0.714405 0.110987 0.043391
O O5 0.256254 0.125372 0.161158
O O6 0.406210 0.132152 0.365025
O O7 0.016208 0.153811 0.220978
O O8 0.167544 0.011886 0.302924
O O9 0.332692 0.250000 0.049297
O O10 0.074935 0.361661 0.950209
O O11 0.269005 0.750000 0.831111
O O12 0.252722 0.922031 0.763966
O O13 0.754920 0.104955 0.531221
O O14 0.500000 0.000000 0.500000
O O15 0.623314 0.003087 0.354957
O O16 0.093047 0.430785 0.671070
O O17 0.124635 0.649141 0.256951
O O18 0.805776 0.250000 0.876190
#
# Coordination Sequence:
#
# PCOD9157779 Si02
#       8
#     4   4   4   4   4   4   4   4
#     4  12  21  39  61  93 132 177 216 264 322 394
#     4  10  18  37  62  93 123 161 210 270 315 378
#     4  11  20  33  61  95 127 163 213 274 327 377
#     4  11  24  40  60  95 137 177 216 265 332 395
#     4  10  20  40  68  95 117 163 223 269 322 384
#     4  11  23  39  62  92 129 173 215 273 328 391
#     4  10  21  39  63  89 127 168 214 260 322 383
#     4  11  22  38  63  92 126 170 218 267 319 384
#
# _framework density 21.514693000000001
#
# number of rings (size 3 to 8) (size 9 to 14) (size 15 to 20)
#    0.000    1.250    3.750    4.125    0.000    0.500 
#    0.000    4.375    0.000    0.000    0.000    0.875 
#    0.000    0.000    0.000    0.000    0.000    0.000 
#
# Total GULP energy -178451.754329 kJ/mol
# GULP energy per Si atom -5576.617323 kJ/mol
# Density = 2.146572 g / cm^3
# Si number density = 21.514693 Si / 1000 Ang^3
#
#
#
# Elastic Constant Matrix: (Units=GPa)
#
#
# Indices 1 2 3 4 5 6 
#
# 1 103.0003 4.2777 54.1544 0.0000 25.2527 0.0000
# 2 4.2777 60.7960 -2.4272 0.0000 22.1589 0.0000
# 3 54.1544 -2.4272 110.9274 0.0000 21.6848 0.0000
# 4 0.0000 0.0000 0.0000 5.9543 0.0000 -16.4370
# 5 25.2527 22.1589 21.6848 0.0000 54.1934 0.0000
# 6 0.0000 0.0000 0.0000 -16.4370 0.0000 3.2629
#
#
#
# Elastic Compliance Matrix: (Units=1/GPa)
#
#
# Indices 1 2 3 4 5 6 
#
# 1 0.013845 0.000324 -0.005929 0.000000 -0.004212 0.000000
# 2 0.000324 0.019814 0.002049 0.000000 -0.009073 0.000000
# 3 -0.005929 0.002049 0.012560 0.000000 -0.003101 0.000000
# 4 0.000000 0.000000 0.000000 -0.013013 0.000000 -0.065552
# 5 -0.004212 -0.009073 -0.003101 0.000000 0.025365 0.000000
# 6 0.000000 0.000000 0.000000 -0.065552 0.000000 -0.023746
#
#
# Mechanical properties :
#
#
# Convention : Reuss Voigt Hill
#
# Bulk Modulus (GPa) = 25.57006 42.97042 34.27024
# Shear Modulus (GPa) = 90.95358 27.26338 59.10848
#
# Velocity S-wave (km/s) = 6.50898 3.56363 5.24721
# Velocity P-wave (km/s) = 8.27042 6.07854 7.25770
#
# Compressibility (1/GPa) = 0.03910825
#
# Stress axis : x y z
#
# Youngs Moduli (GPa) = 72.22871 50.46884 79.61609
#
# Poissons Ratio (x) = -0.01636 0.47201
# Poissons Ratio (y) = -0.02342 -0.16312
# Poissons Ratio (z) = 0.42822 -0.10340
#
# Static dielectric constant tensor:
#      x y z
#    x 1.818890 0.000000 0.020100 
#    y 0.000000 1.813340 0.000000 
#    z 0.020100 0.000000 1.777090 
# 
# From -- ./inp_files/47657.got.cif
#   From: 2010.05.17/outbox.cif.g08.bks.cpg/sg11_24_cif.got.tgz:47657.got - 2010.06.03 12:22:45.
