data_PCOD9157359
_publ_section_title
;
Structure prediction by ZEFSAII (Michael W. Deem and Ramdas Pophale) SiO2 
 PCOD9157359
Probable space group: P 21/M
;
_chemical_formula_sum "Si O2"
_cell_formula_units_Z 26
_cell_length_a 13.880974
_cell_length_b 7.584784
_cell_length_c 11.325897
_cell_angle_alpha 90.000000
_cell_angle_beta 122.406280
_cell_angle_gamma 90.000000
_cell_volume 1006.738568
_symmetry_space_group_name_H-M "P 21/M"
_symmetry_group_IT_number 11
_symmetry_cell_setting 'monoclinic'
loop_
_space_group_symop_operation_xyz
x,y,z
-x,1/2+y,-z
-x,-y,-z
x,1/2-y,z
loop_
_atom_site_type_symbol
_atom_site_label
_atom_site_fract_x
_atom_site_fract_y
_atom_site_fract_z
Si Si1 0.585816 0.046428 0.810059
Si Si2 0.845528 0.961842 0.718190
Si Si3 0.264578 0.535084 0.724101
Si Si4 0.500000 0.500000 0.000000
Si Si5 0.626212 0.458684 0.449337
Si Si6 0.953320 0.450478 0.290408
Si Si7 0.847701 0.955833 0.975848
O O1 0.593483 0.250000 0.856834
O O2 0.521167 0.952891 0.875253
O O3 0.499799 0.038784 0.643185
O O4 0.710760 0.973124 0.877505
O O5 0.858059 0.750000 0.728356
O O6 0.885816 0.027090 0.872787
O O7 0.925260 0.033469 0.665000
O O8 0.713468 0.001753 0.610784
O O9 0.262112 0.750000 0.725826
O O10 0.304243 0.475813 0.621077
O O11 0.139499 0.470386 0.681813
O O12 0.361768 0.479370 0.881079
O O13 0.611644 0.250000 0.432855
O O14 0.973872 0.250000 0.343676
O O15 0.891350 0.448640 0.121232
O O16 0.876196 0.750000 0.006726
#
# Coordination Sequence:
#
# PCOD9157359 Si02
#       7
#     4   4   4   2   4   4   4
#     4  11  22  38  62  89 119 156 196 239 297 358
#     4  10  23  41  60  82 118 162 204 247 291 349
#     4   9  18  34  56  86 118 147 187 238 292 347
#     4  10  18  32  56  88 118 144 186 234 286 346
#     4  10  22  39  59  87 121 157 198 246 295 353
#     4  10  20  39  63  87 116 156 200 244 298 355
#     4  11  23  38  58  90 122 152 198 251 298 348
#
# _framework density 25.825972
#
# number of rings (size 3 to 8) (size 9 to 14) (size 15 to 20)
#    0.000    1.846    1.538    2.308    0.000    4.923 
#    0.000    0.769    0.000    0.000    0.000    0.000 
#    0.000    0.000    0.000    0.000    0.000    0.000 
#
# Total GULP energy -144943.489810 kJ/mol
# GULP energy per Si atom -5574.749608 kJ/mol
# Density = 2.576719 g / cm^3
# Si number density = 25.825972 Si / 1000 Ang^3
#
#
#
# Elastic Constant Matrix: (Units=GPa)
#
#
# Indices 1 2 3 4 5 6 
#
# 1 122.3306 3.5294 -4.4606 0.0000 15.9023 0.0000
# 2 3.5294 86.8509 -6.8855 0.0000 1.0278 0.0000
# 3 -4.4606 -6.8855 96.2215 0.0000 17.1001 0.0000
# 4 0.0000 0.0000 0.0000 12.0816 0.0000 13.4717
# 5 15.9023 1.0278 17.1001 0.0000 41.9256 0.0000
# 6 0.0000 0.0000 0.0000 13.4717 0.0000 4.9250
#
#
#
# Elastic Compliance Matrix: (Units=1/GPa)
#
#
# Indices 1 2 3 4 5 6 
#
# 1 0.008703 -0.000226 0.001049 0.000000 -0.003723 0.000000
# 2 -0.000226 0.011603 0.000922 0.000000 -0.000575 0.000000
# 3 0.001049 0.000922 0.011409 0.000000 -0.005074 0.000000
# 4 0.000000 0.000000 0.000000 -0.040374 0.000000 0.110437
# 5 -0.003723 -0.000575 -0.005074 0.000000 0.027348 0.000000
# 6 0.000000 0.000000 0.000000 0.110437 0.000000 -0.099042
#
#
# Mechanical properties :
#
#
# Convention : Reuss Voigt Hill
#
# Bulk Modulus (GPa) = 28.40559 32.19661 30.30110
# Shear Modulus (GPa) = -69.34212 32.66775 -18.33718
#
# Velocity S-wave (km/s) = -5.18730 3.56043 -2.66753
# Velocity P-wave (km/s) = 4.98545 5.42181 1.50687
#
# Compressibility (1/GPa) = 0.03520434
#
# Stress axis : x y z
#
# Youngs Moduli (GPa) = 114.89784 86.18401 87.65018
#
# Poissons Ratio (x) = 0.01952 -0.09194
# Poissons Ratio (y) = 0.02602 -0.08081
# Poissons Ratio (z) = -0.12053 -0.07945
#
# Static dielectric constant tensor:
#      x y z
#    x 2.073700 0.000000 -0.004210 
#    y 0.000000 1.980390 0.000000 
#    z -0.004210 0.000000 2.010530 
# 
# From -- ./inp_files/37780.got.cif
#   From: 2010.05.17/outbox.cif.g08.bks.cpg/sg11_19_cif.got.tgz:37780.got - 2010.06.03 12:22:45.
