data_PCOD9157671
_publ_section_title
;
Structure prediction by ZEFSAII (Michael W. Deem and Ramdas Pophale) SiO2 
 PCOD9157671
Probable space group: P 21/M
;
_chemical_formula_sum "Si O2"
_cell_formula_units_Z 24
_cell_length_a 9.360241
_cell_length_b 10.293043
_cell_length_c 11.642481
_cell_angle_alpha 90.000000
_cell_angle_beta 126.419140
_cell_angle_gamma 90.000000
_cell_volume 902.626205
_symmetry_space_group_name_H-M "P 21/M"
_symmetry_group_IT_number 11
_symmetry_cell_setting 'monoclinic'
loop_
_space_group_symop_operation_xyz
x,y,z
-x,1/2+y,-z
-x,-y,-z
x,1/2-y,z
loop_
_atom_site_type_symbol
_atom_site_label
_atom_site_fract_x
_atom_site_fract_y
_atom_site_fract_z
Si Si1 0.196574 0.898235 0.181427
Si Si2 0.752974 0.461453 0.560338
Si Si3 0.114525 0.468045 0.668087
Si Si4 0.618536 0.750000 0.985371
Si Si5 0.406535 0.250000 0.775548
Si Si6 0.453348 0.750000 0.656548
Si Si7 0.167253 0.982243 0.925438
Si Si8 0.356741 0.250000 0.499217
O O1 0.132594 0.750000 0.157373
O O2 0.325511 0.928135 0.351048
O O3 0.037411 0.001835 0.130191
O O4 0.260233 0.917341 0.080742
O O5 0.656346 0.381841 0.415480
O O6 0.752159 0.615387 0.546009
O O7 0.950369 0.401362 0.657507
O O8 0.275791 0.375087 0.717600
O O9 0.172317 0.569881 0.796159
O O10 0.000000 0.500000 0.500000
O O11 0.525025 0.750000 0.817914
O O12 0.512482 0.750000 0.056294
O O13 0.738694 0.621261 0.041214
O O14 0.472982 0.250000 0.674700
O O15 0.575388 0.750000 0.600499
#
# Coordination Sequence:
#
# PCOD9157671 Si02
#       8
#     4   4   4   2   2   2   4   2
#     4  10  18  35  57  86 126 156 198 270 325 376
#     4  11  23  41  66  95 127 168 216 270 323 379
#     4  10  19  38  64  92 125 158 203 271 328 385
#     4  10  20  40  64  82 122 170 218 248 320 394
#     4  10  21  40  66  97 129 169 210 270 333 382
#     4  12  25  42  66  91 125 183 226 264 311 378
#     4   9  19  32  56  87 118 158 201 253 322 384
#     4  12  24  40  64  98 130 166 224 262 314 390
#
# _framework density 26.589078000000001
#
# number of rings (size 3 to 8) (size 9 to 14) (size 15 to 20)
#    0.000    1.667    3.333    2.000    2.333    0.000 
#   10.500    0.833    3.667    0.000    0.000    0.000 
#    0.000    0.000    0.000    0.000    0.000    0.000 
#
# Total GULP energy -133821.150107 kJ/mol
# GULP energy per Si atom -5575.881254 kJ/mol
# Density = 2.652856 g / cm^3
# Si number density = 26.589078 Si / 1000 Ang^3
#
#
#
# Elastic Constant Matrix: (Units=GPa)
#
#
# Indices 1 2 3 4 5 6 
#
# 1 76.7366 10.8815 31.4203 0.0000 -29.7830 0.0000
# 2 10.8815 114.4358 31.5728 0.0000 -7.0880 0.0000
# 3 31.4203 31.5728 265.1274 0.0000 -64.1502 0.0000
# 4 0.0000 0.0000 0.0000 42.3530 0.0000 -7.4877
# 5 -29.7830 -7.0880 -64.1502 0.0000 53.5523 0.0000
# 6 0.0000 0.0000 0.0000 -7.4877 0.0000 21.7396
#
#
#
# Elastic Compliance Matrix: (Units=1/GPa)
#
#
# Indices 1 2 3 4 5 6 
#
# 1 0.016786 -0.001132 0.000518 0.000000 0.009806 0.000000
# 2 -0.001132 0.009112 -0.001143 0.000000 -0.000792 0.000000
# 3 0.000518 -0.001143 0.005463 0.000000 0.006681 0.000000
# 4 0.000000 0.000000 0.000000 0.025142 0.000000 0.008660
# 5 0.009806 -0.000792 0.006681 0.000000 0.032026 0.000000
# 6 0.000000 0.000000 0.000000 0.008660 0.000000 0.048982
#
#
# Mechanical properties :
#
#
# Convention : Reuss Voigt Hill
#
# Bulk Modulus (GPa) = 35.90805 67.11655 51.51230
# Shear Modulus (GPa) = 33.26549 49.02399 41.14474
#
# Velocity S-wave (km/s) = 3.54092 4.29857 3.93801
# Velocity P-wave (km/s) = 5.50015 7.06639 6.33188
#
# Compressibility (1/GPa) = 0.02784891
#
# Stress axis : x y z
#
# Youngs Moduli (GPa) = 59.57361 109.74130 183.05010
#
# Poissons Ratio (x) = 0.12420 -0.09486
# Poissons Ratio (y) = 0.06742 0.20917
# Poissons Ratio (z) = -0.03087 0.12540
#
# Static dielectric constant tensor:
#      x y z
#    x 2.257390 0.000000 -0.072290 
#    y 0.000000 2.087850 0.000000 
#    z -0.072290 0.000000 2.277710 
# 
# From -- ./inp_files/34945.got.cif
#   From: 2010.05.17/outbox.cif.g08.bks.cpg/sg11_18_cif.got.tgz:34945.got - 2010.06.03 12:22:45.
