data_PCOD9157888
_publ_section_title
;
Structure prediction by ZEFSAII (Michael W. Deem and Ramdas Pophale) SiO2 
 PCOD9157888
Probable space group: P 21/M
;
_chemical_formula_sum "Si O2"
_cell_formula_units_Z 32
_cell_length_a 23.885022
_cell_length_b 8.898507
_cell_length_c 29.951538
_cell_angle_alpha 90.000000
_cell_angle_beta 16.758893
_cell_angle_gamma 90.000000
_cell_volume 1835.583654
_symmetry_space_group_name_H-M "P 21/M"
_symmetry_group_IT_number 11
_symmetry_cell_setting 'monoclinic'
loop_
_space_group_symop_operation_xyz
x,y,z
-x,1/2+y,-z
-x,-y,-z
x,1/2-y,z
loop_
_atom_site_type_symbol
_atom_site_label
_atom_site_fract_x
_atom_site_fract_y
_atom_site_fract_z
Si Si1 0.078249 0.569851 0.583254
Si Si2 0.088774 0.569203 0.886768
Si Si3 0.129236 0.571084 0.648410
Si Si4 0.522038 0.430463 0.765997
Si Si5 0.309628 0.430755 0.017752
Si Si6 0.522023 0.070303 0.370347
Si Si7 0.736887 0.429876 0.113314
Si Si8 0.333758 0.929022 0.096423
O O1 0.045023 0.750000 0.606888
O O2 0.139450 0.533800 0.587646
O O3 0.256963 0.530240 0.414930
O O4 0.878370 0.486014 0.726118
O O5 0.073041 0.750000 0.899819
O O6 0.316744 0.528569 0.715629
O O7 0.000000 0.500000 0.000000
O O8 0.950405 0.502615 0.954463
O O9 0.147332 0.750000 0.638853
O O10 0.308823 0.497523 0.536475
O O11 0.910326 0.528325 0.829244
O O12 0.502078 0.250000 0.775136
O O13 0.379899 0.510971 0.839823
O O14 0.457980 0.466369 0.865059
O O15 0.309498 0.250000 0.025657
O O16 0.353915 0.511846 0.030279
O O17 0.506692 0.250000 0.381972
O O18 0.614928 0.026247 0.251182
O O19 0.753274 0.250000 0.100694
O O20 0.343326 0.750000 0.090428
O O21 0.500000 0.000000 0.000000
#
# Coordination Sequence:
#
# PCOD9157888 Si02
#       8
#     4   4   4   4   4   4   4   4
#     4   9  18  33  54  82 108 136 175 213 255 306
#     4   9  17  28  41  63  95 131 172 219 270 319
#     4   9  16  28  48  73 101 131 169 214 257 307
#     4  10  19  34  56  78 107 143 173 213 264 310
#     4   9  20  37  55  80 110 139 175 213 255 310
#     4   9  17  27  42  67  97 129 169 219 264 307
#     4  10  19  29  44  70 103 135 171 217 265 317
#     4  11  22  38  61  84 109 142 174 211 253 298
#
# _framework density 17.433147999999999
#
# number of rings (size 3 to 8) (size 9 to 14) (size 15 to 20)
#    0.000    2.500    1.250    3.375    0.000    5.500 
#    0.000    0.625    0.000    0.750    0.000    0.000 
#    0.000    0.000    0.000    0.000    0.000    0.000 
#
# Total GULP energy -178403.938949 kJ/mol
# GULP energy per Si atom -5575.123092 kJ/mol
# Density = 1.739347 g / cm^3
# Si number density = 17.433148 Si / 1000 Ang^3
#
#
#
# Elastic Constant Matrix: (Units=GPa)
#
#
# Indices 1 2 3 4 5 6 
#
# 1 73.1592 44.5542 67.3895 0.0000 -20.4209 0.0000
# 2 44.5542 51.5607 52.5374 0.0000 -12.4594 0.0000
# 3 67.3895 52.5374 130.4579 0.0000 -13.8486 0.0000
# 4 0.0000 0.0000 0.0000 26.3340 0.0000 -9.4173
# 5 -20.4209 -12.4594 -13.8486 0.0000 34.4137 0.0000
# 6 0.0000 0.0000 0.0000 -9.4173 0.0000 24.7133
#
#
#
# Elastic Compliance Matrix: (Units=1/GPa)
#
#
# Indices 1 2 3 4 5 6 
#
# 1 0.039059 -0.019747 -0.010992 0.000000 0.011605 0.000000
# 2 -0.019747 0.044507 -0.007580 0.000000 0.001346 0.000000
# 3 -0.010992 -0.007580 0.016100 0.000000 -0.002788 0.000000
# 4 0.000000 0.000000 0.000000 0.043965 0.000000 0.016753
# 5 0.011605 0.001346 -0.002788 0.000000 0.035310 0.000000
# 6 0.000000 0.000000 0.000000 0.016753 0.000000 0.046848
#
#
# Mechanical properties :
#
#
# Convention : Reuss Voigt Hill
#
# Bulk Modulus (GPa) = 43.42590 64.90443 54.16516
# Shear Modulus (GPa) = 16.12356 23.13864 19.63110
#
# Velocity S-wave (km/s) = 3.04448 3.64714 3.35935
# Velocity P-wave (km/s) = 6.10922 7.41935 6.79593
#
# Compressibility (1/GPa) = 0.02302773
#
# Stress axis : x y z
#
# Youngs Moduli (GPa) = 25.60199 22.46813 62.11068
#
# Poissons Ratio (x) = 0.44368 0.68274
# Poissons Ratio (y) = 0.50556 0.47083
# Poissons Ratio (z) = 0.28142 0.17032
#
# Static dielectric constant tensor:
#      x y z
#    x 1.578030 0.000000 -0.004210 
#    y 0.000000 1.587400 0.000000 
#    z -0.004210 0.000000 1.608200 
# 
# From -- ./inp_files/66460.got.cif
#   From: 2010.05.17/outbox.cif.g08.bks.cpg/sg11_34_cif.got.tgz:66460.got - 2010.06.03 12:22:45.
