data_PCOD9157143
_publ_section_title
;
Structure prediction by ZEFSAII (Michael W. Deem and Ramdas Pophale) SiO2 
 PCOD9157143
Probable space group: P 21/M
;
_chemical_formula_sum "Si O2"
_cell_formula_units_Z 32
_cell_length_a 10.540341
_cell_length_b 8.803987
_cell_length_c 25.755770
_cell_angle_alpha 90.000000
_cell_angle_beta 128.713621
_cell_angle_gamma 90.000000
_cell_volume 1864.919281
_symmetry_space_group_name_H-M "P 21/M"
_symmetry_group_IT_number 11
_symmetry_cell_setting 'monoclinic'
loop_
_space_group_symop_operation_xyz
x,y,z
-x,1/2+y,-z
-x,-y,-z
x,1/2-y,z
loop_
_atom_site_type_symbol
_atom_site_label
_atom_site_fract_x
_atom_site_fract_y
_atom_site_fract_z
Si Si1 0.656310 0.433678 0.294479
Si Si2 0.967204 0.430881 0.171356
Si Si3 0.943281 0.929906 0.430976
Si Si4 0.264176 0.930543 0.801049
Si Si5 0.636428 0.929879 0.071490
Si Si6 0.242757 0.070779 0.454858
Si Si7 0.541007 0.568315 0.590286
Si Si8 0.331242 0.434621 0.263918
O O1 0.668425 0.250000 0.300346
O O2 0.773707 0.502120 0.367938
O O3 0.713532 0.482721 0.251855
O O4 0.470356 0.477307 0.258757
O O5 0.959485 0.250000 0.159289
O O6 0.914272 0.451891 0.218564
O O7 0.818249 0.511189 0.103817
O O8 0.147840 0.488428 0.207273
O O9 0.933293 0.750000 0.433072
O O10 0.000000 0.000000 0.500000
O O11 0.080088 0.978800 0.424399
O O12 0.297061 0.750000 0.810760
O O13 0.378340 0.011755 0.872693
O O14 0.630046 0.750000 0.067903
O O15 0.500000 0.000000 0.000000
O O16 0.209458 0.250000 0.451482
O O17 0.323276 0.043069 0.419308
O O18 0.379725 0.018767 0.531091
O O19 0.506117 0.750000 0.582335
O O20 0.606352 0.520949 0.662996
O O21 0.322238 0.250000 0.262133
#
# Coordination Sequence:
#
# PCOD9157143 Si02
#       8
#     4   4   4   4   4   4   4   4
#     4  10  20  35  56  80 107 141 178 219 270 322
#     4   8  16  31  51  78 107 137 172 209 251 304
#     4  12  25  39  54  73 100 136 181 230 281 335
#     4   8  17  32  52  79 110 140 174 212 256 312
#     4  10  18  31  54  83 112 142 177 218 260 303
#     4  10  20  33  51  73  98 130 171 222 273 325
#     4   9  18  32  51  74 101 134 172 215 267 321
#     4   9  17  31  53  75  99 135 174 211 254 312
#
# _framework density 17.158919999999998
#
# number of rings (size 3 to 8) (size 9 to 14) (size 15 to 20)
#    0.750    1.750    0.000    3.000    1.750    2.000 
#    0.000    1.250    0.000    0.750    0.000    0.000 
#    0.000    0.000    0.000    0.000    0.000    0.000 
#
# Total GULP energy -178277.588732 kJ/mol
# GULP energy per Si atom -5571.174648 kJ/mol
# Density = 1.711987 g / cm^3
# Si number density = 17.158920 Si / 1000 Ang^3
#
#
#
# Elastic Constant Matrix: (Units=GPa)
#
#
# Indices 1 2 3 4 5 6 
#
# 1 88.9280 35.3210 43.9170 0.0000 20.5578 0.0000
# 2 35.3210 45.2661 28.4550 0.0000 3.3894 0.0000
# 3 43.9170 28.4550 79.7797 0.0000 12.9102 0.0000
# 4 0.0000 0.0000 0.0000 24.4122 0.0000 4.6445
# 5 20.5578 3.3894 12.9102 0.0000 21.1816 0.0000
# 6 0.0000 0.0000 0.0000 4.6445 0.0000 18.5241
#
#
#
# Elastic Compliance Matrix: (Units=1/GPa)
#
#
# Indices 1 2 3 4 5 6 
#
# 1 0.023112 -0.013531 -0.005123 0.000000 -0.017144 0.000000
# 2 -0.013531 0.036460 -0.007474 0.000000 0.011853 0.000000
# 3 -0.005123 -0.007474 0.018885 0.000000 -0.005343 0.000000
# 4 0.000000 0.000000 0.000000 0.043015 0.000000 -0.010785
# 5 -0.017144 0.011853 -0.005343 0.000000 0.065210 0.000000
# 6 0.000000 0.000000 0.000000 -0.010785 0.000000 0.056688
#
#
# Mechanical properties :
#
#
# Convention : Reuss Voigt Hill
#
# Bulk Modulus (GPa) = 38.16390 47.70665 42.93527
# Shear Modulus (GPa) = 16.42799 19.90898 18.16848
#
# Velocity S-wave (km/s) = 3.09755 3.40997 3.25751
# Velocity P-wave (km/s) = 5.92307 6.58536 6.26298
#
# Compressibility (1/GPa) = 0.02620277
#
# Stress axis : x y z
#
# Youngs Moduli (GPa) = 43.26699 27.42712 52.95300
#
# Poissons Ratio (x) = 0.37111 0.27125
# Poissons Ratio (y) = 0.58543 0.39577
# Poissons Ratio (z) = 0.22164 0.20499
#
# Static dielectric constant tensor:
#      x y z
#    x 1.614940 0.000000 -0.005470 
#    y 0.000000 1.573950 0.000000 
#    z -0.005470 0.000000 1.559570 
# 
# From -- ./inp_files/68337.got.cif
#   From: 2010.05.17/outbox.cif.g08.bks.cpg/sg11_35_cif.got.tgz:68337.got - 2010.06.03 12:22:45.
