data_PCOD9157546
_publ_section_title
;
Structure prediction by ZEFSAII (Michael W. Deem and Ramdas Pophale) SiO2 
 PCOD9157546
Probable space group: P 21/M
;
_chemical_formula_sum "Si O2"
_cell_formula_units_Z 28
_cell_length_a 14.057071
_cell_length_b 12.238729
_cell_length_c 9.534314
_cell_angle_alpha 90.000000
_cell_angle_beta 60.444043
_cell_angle_gamma 90.000000
_cell_volume 1426.846122
_symmetry_space_group_name_H-M "P 21/M"
_symmetry_group_IT_number 11
_symmetry_cell_setting 'monoclinic'
loop_
_space_group_symop_operation_xyz
x,y,z
-x,1/2+y,-z
-x,-y,-z
x,1/2-y,z
loop_
_atom_site_type_symbol
_atom_site_label
_atom_site_fract_x
_atom_site_fract_y
_atom_site_fract_z
Si Si1 0.901027 0.128642 0.061878
Si Si2 0.969483 0.523410 0.254804
Si Si3 0.288042 0.469765 0.874230
Si Si4 0.352857 0.048324 0.245957
Si Si5 0.584331 0.123964 0.010077
Si Si6 0.725829 0.880389 0.417150
Si Si7 0.146015 0.376406 0.229729
O O1 0.882173 0.250000 0.119378
O O2 0.967412 0.069229 0.135151
O O3 0.789494 0.065726 0.124099
O O4 0.963484 0.120007 0.868677
O O5 0.846170 0.566266 0.358820
O O6 0.045364 0.462246 0.312700
O O7 0.377685 0.535283 0.899887
O O8 0.312537 0.403047 0.715090
O O9 0.213351 0.399558 0.036073
O O10 0.453151 0.116313 0.106888
O O11 0.353388 0.062869 0.412168
O O12 0.237442 0.096615 0.278837
O O13 0.368046 0.927641 0.168544
O O14 0.618407 0.250000 0.008358
O O15 0.730475 0.750000 0.436585
O O16 0.111715 0.250000 0.262387
#
# Coordination Sequence:
#
# PCOD9157546 Si02
#       7
#     4   4   4   4   4   4   4
#     4   9  15  28  45  70 103 139 175 221 270 321
#     4   9  19  28  47  76 106 143 187 222 268 330
#     4   9  20  32  55  84 108 140 189 230 275 334
#     4  10  23  38  59  84 111 146 192 227 279 348
#     4  10  20  41  63  82 109 147 188 238 282 330
#     4  11  21  37  55  83 120 150 181 235 287 332
#     4  10  18  34  54  78 109 151 196 234 267 323
#
# _framework density 19.623699999999999
#
# number of rings (size 3 to 8) (size 9 to 14) (size 15 to 20)
#    0.000    2.286    0.000    3.857    0.000    1.143 
#    0.000    5.714    0.000    0.000    0.000    0.000 
#    0.000    0.000    0.000    0.000    0.000    0.000 
#
# Total GULP energy -155932.844465 kJ/mol
# GULP energy per Si atom -5569.030159 kJ/mol
# Density = 1.957904 g / cm^3
# Si number density = 19.623700 Si / 1000 Ang^3
#
#
#
# Elastic Constant Matrix: (Units=GPa)
#
#
# Indices 1 2 3 4 5 6 
#
# 1 57.8087 17.4840 4.3767 0.0000 8.3093 0.0000
# 2 17.4840 72.0527 26.7227 0.0000 -0.7643 0.0000
# 3 4.3767 26.7227 89.9510 0.0000 14.9277 0.0000
# 4 0.0000 0.0000 0.0000 4.3224 0.0000 18.1573
# 5 8.3093 -0.7643 14.9277 0.0000 19.7066 0.0000
# 6 0.0000 0.0000 0.0000 18.1573 0.0000 -11.9806
#
#
#
# Elastic Compliance Matrix: (Units=1/GPa)
#
#
# Indices 1 2 3 4 5 6 
#
# 1 0.020491 -0.006052 0.002601 0.000000 -0.010845 0.000000
# 2 -0.006052 0.017776 -0.006319 0.000000 0.008027 0.000000
# 3 0.002601 -0.006319 0.014973 0.000000 -0.012683 0.000000
# 4 0.000000 0.000000 0.000000 0.031406 0.000000 0.047598
# 5 -0.010845 0.008027 -0.012683 0.000000 0.065236 0.000000
# 6 0.000000 0.000000 0.000000 0.047598 0.000000 -0.011331
#
#
# Mechanical properties :
#
#
# Convention : Reuss Voigt Hill
#
# Bulk Modulus (GPa) = 29.67395 35.21989 32.44692
# Shear Modulus (GPa) = 29.52938 13.82495 21.67716
#
# Velocity S-wave (km/s) = 3.88336 2.65713 3.32722
# Velocity P-wave (km/s) = 5.93815 5.23453 5.59741
#
# Compressibility (1/GPa) = 0.03369959
#
# Stress axis : x y z
#
# Youngs Moduli (GPa) = 48.80277 56.25640 66.78872
#
# Poissons Ratio (x) = 0.34045 -0.17369
# Poissons Ratio (y) = 0.29534 0.42201
# Poissons Ratio (z) = -0.12691 0.35546
#
# Static dielectric constant tensor:
#      x y z
#    x 1.756170 0.000000 0.066310 
#    y 0.000000 1.699650 0.000000 
#    z 0.066310 0.000000 1.825090 
# 
# From -- ./inp_files/21413.got.cif
#   From: 2010.05.17/outbox.cif.g08.bks.cpg/sg11_11_cif.got.tgz:21413.got - 2010.06.03 12:22:45.
