data_PCOD9157623
_publ_section_title
;
Structure prediction by ZEFSAII (Michael W. Deem and Ramdas Pophale) SiO2 
 PCOD9157623
Probable space group: P 21/M
;
_chemical_formula_sum "Si O2"
_cell_formula_units_Z 32
_cell_length_a 20.213622
_cell_length_b 13.240871
_cell_length_c 14.378618
_cell_angle_alpha 90.000000
_cell_angle_beta 159.431066
_cell_angle_gamma 90.000000
_cell_volume 1352.066637
_symmetry_space_group_name_H-M "P 21/M"
_symmetry_group_IT_number 11
_symmetry_cell_setting 'monoclinic'
loop_
_space_group_symop_operation_xyz
x,y,z
-x,1/2+y,-z
-x,-y,-z
x,1/2-y,z
loop_
_atom_site_type_symbol
_atom_site_label
_atom_site_fract_x
_atom_site_fract_y
_atom_site_fract_z
Si Si1 0.319284 0.054600 0.069483
Si Si2 0.293508 0.129048 0.663698
Si Si3 0.614203 0.138242 0.602309
Si Si4 0.267648 0.870079 0.766942
Si Si5 0.057104 0.956197 0.317233
Si Si6 0.517674 0.643469 0.356879
Si Si7 0.899447 0.630788 0.391782
Si Si8 0.863698 0.557192 0.887181
O O1 0.440196 0.120240 0.302130
O O2 0.439670 0.955244 0.204822
O O3 0.248468 0.113594 0.886281
O O4 0.129992 0.017892 0.871076
O O5 0.274400 0.250000 0.624788
O O6 0.166406 0.057775 0.431582
O O7 0.203868 0.101390 0.647664
O O8 0.512692 0.099852 0.941713
O O9 0.697590 0.250000 0.690895
O O10 0.556451 0.141686 0.634339
O O11 0.732466 0.035625 0.749548
O O12 0.268681 0.750000 0.778512
O O13 0.106147 0.909142 0.627714
O O14 0.188629 0.894307 0.559928
O O15 0.979919 0.898409 0.125922
O O16 0.463840 0.750000 0.241345
O O17 0.738330 0.633767 0.664364
O O18 0.930207 0.750000 0.443975
O O19 0.000000 0.500000 0.000000
#
# Coordination Sequence:
#
# PCOD9157623 Si02
#       8
#     4   4   4   4   4   4   4   4
#     4  10  18  34  59  89 117 147 201 245 295 356
#     4  10  22  40  61  85 119 158 198 248 306 363
#     4  10  19  36  61  84 116 157 197 246 295 352
#     4   9  20  37  58  84 118 152 194 250 300 355
#     4  11  21  37  60  84 111 154 200 233 304 356
#     4  10  20  37  60  85 118 158 201 244 293 355
#     4   9  19  36  61  91 117 153 203 249 297 359
#     4  11  23  39  57  87 124 155 198 248 297 364
#
# _framework density 23.667473000000001
#
# number of rings (size 3 to 8) (size 9 to 14) (size 15 to 20)
#    0.000    2.000    2.500    1.500    0.000    6.500 
#    0.000    3.750    0.000    3.750    0.000    0.000 
#    0.000    0.000    0.000    0.000    0.000    0.000 
#
# Total GULP energy -178791.760409 kJ/mol
# GULP energy per Si atom -5587.242513 kJ/mol
# Density = 2.361361 g / cm^3
# Si number density = 23.667473 Si / 1000 Ang^3
#
#
#
# Elastic Constant Matrix: (Units=GPa)
#
#
# Indices 1 2 3 4 5 6 
#
# 1 84.8223 6.8462 25.7100 0.0000 5.2499 0.0000
# 2 6.8462 65.6495 7.9155 0.0000 10.4362 0.0000
# 3 25.7100 7.9155 74.8894 0.0000 -4.1626 0.0000
# 4 0.0000 0.0000 0.0000 24.0120 0.0000 8.4564
# 5 5.2499 10.4362 -4.1626 0.0000 29.6847 0.0000
# 6 0.0000 0.0000 0.0000 8.4564 0.0000 8.7031
#
#
#
# Elastic Compliance Matrix: (Units=1/GPa)
#
#
# Indices 1 2 3 4 5 6 
#
# 1 0.013434 -0.000367 -0.004735 0.000000 -0.002911 0.000000
# 2 -0.000367 0.016458 -0.001947 0.000000 -0.005994 0.000000
# 3 -0.004735 -0.001947 0.015389 0.000000 0.003680 0.000000
# 4 0.000000 0.000000 0.000000 0.063310 0.000000 -0.061516
# 5 -0.002911 -0.005994 0.003680 0.000000 0.036826 0.000000
# 6 0.000000 0.000000 0.000000 -0.061516 0.000000 0.174674
#
#
# Mechanical properties :
#
#
# Convention : Reuss Voigt Hill
#
# Bulk Modulus (GPa) = 32.06828 34.03384 33.05106
# Shear Modulus (GPa) = 14.51026 24.80591 19.65809
#
# Velocity S-wave (km/s) = 2.47875 3.24095 2.88513
# Velocity P-wave (km/s) = 4.66596 5.33069 5.00936
#
# Compressibility (1/GPa) = 0.03118347
#
# Stress axis : x y z
#
# Youngs Moduli (GPa) = 74.43590 60.75951 64.98197
#
# Poissons Ratio (x) = 0.02232 0.30769
# Poissons Ratio (y) = 0.02734 0.12650
# Poissons Ratio (z) = 0.35246 0.11828
#
# Static dielectric constant tensor:
#      x y z
#    x 1.926530 0.000000 0.007600 
#    y 0.000000 1.890530 0.000000 
#    z 0.007600 0.000000 1.860070 
# 
# From -- ./inp_files/55012.got.cif
#   From: 2010.05.17/outbox.cif.g08.bks.cpg/sg11_28_cif.got.tgz:55012.got - 2010.06.03 12:22:45.
