data_PCOD9157894
_publ_section_title
;
Structure prediction by ZEFSAII (Michael W. Deem and Ramdas Pophale) SiO2 
 PCOD9157894
Probable space group: P 21/M
;
_chemical_formula_sum "Si O2"
_cell_formula_units_Z 32
_cell_length_a 11.783342
_cell_length_b 8.568141
_cell_length_c 21.698075
_cell_angle_alpha 90.000000
_cell_angle_beta 59.258806
_cell_angle_gamma 90.000000
_cell_volume 1882.845077
_symmetry_space_group_name_H-M "P 21/M"
_symmetry_group_IT_number 11
_symmetry_cell_setting 'monoclinic'
loop_
_space_group_symop_operation_xyz
x,y,z
-x,1/2+y,-z
-x,-y,-z
x,1/2-y,z
loop_
_atom_site_type_symbol
_atom_site_label
_atom_site_fract_x
_atom_site_fract_y
_atom_site_fract_z
Si Si1 0.393761 0.935327 0.233328
Si Si2 0.059203 0.932696 0.421657
Si Si3 0.861871 0.435419 0.778032
Si Si4 0.899764 0.431716 0.356271
Si Si5 0.662030 0.564782 0.628074
Si Si6 0.629203 0.439237 0.498684
Si Si7 0.289575 0.071342 0.068139
Si Si8 0.448099 0.928005 0.918846
O O1 0.384191 0.750000 0.246975
O O2 0.254359 0.988871 0.238528
O O3 0.427303 0.025365 0.287558
O O4 0.506413 0.969485 0.151489
O O5 0.029917 0.750000 0.419573
O O6 0.212641 0.961746 0.386826
O O7 0.000000 0.000000 0.500000
O O8 0.996314 0.037670 0.386742
O O9 0.859278 0.250000 0.774321
O O10 0.815184 0.488931 0.858297
O O11 0.010391 0.490776 0.721499
O O12 0.884675 0.250000 0.346228
O O13 0.757933 0.488218 0.422053
O O14 0.689765 0.750000 0.618837
O O15 0.628753 0.509903 0.568035
O O16 0.500000 0.500000 0.500000
O O17 0.631883 0.250000 0.502446
O O18 0.251471 0.250000 0.068228
O O19 0.424504 0.071029 0.071109
O O20 0.327735 0.989968 0.993544
O O21 0.425915 0.750000 0.905581
#
# Coordination Sequence:
#
# PCOD9157894 Si02
#       8
#     4   4   4   4   4   4   4   4
#     4  10  19  30  45  69 101 133 170 210 252 299
#     4  12  22  33  50  75 102 131 165 205 254 305
#     4  10  19  29  45  69 100 133 169 210 252 299
#     4  11  22  35  53  75 102 132 167 211 257 306
#     4  12  23  35  54  76 103 134 169 212 259 305
#     4  11  25  43  60  76  99 131 172 214 259 311
#     4   9  16  26  40  59  90 131 172 207 245 293
#     4   9  16  26  40  60  90 130 173 207 245 294
#
# _framework density 16.995557000000002
#
# number of rings (size 3 to 8) (size 9 to 14) (size 15 to 20)
#    0.000    1.500    2.500    4.500    0.000    5.500 
#    0.000    0.000    0.000    0.000    0.000    0.000 
#    0.000    1.000    0.000    3.750    0.000    5.750 
#
# Total GULP energy -178261.662139 kJ/mol
# GULP energy per Si atom -5570.676942 kJ/mol
# Density = 1.695687 g / cm^3
# Si number density = 16.995557 Si / 1000 Ang^3
#
#
#
# Elastic Constant Matrix: (Units=GPa)
#
#
# Indices 1 2 3 4 5 6 
#
# 1 48.2884 3.5581 33.1507 0.0000 -6.5430 0.0000
# 2 3.5581 65.6282 36.2306 0.0000 -3.8913 0.0000
# 3 33.1507 36.2306 144.7672 0.0000 -11.0451 0.0000
# 4 0.0000 0.0000 0.0000 32.6913 0.0000 0.8207
# 5 -6.5430 -3.8913 -11.0451 0.0000 5.7933 0.0000
# 6 0.0000 0.0000 0.0000 0.8207 0.0000 15.4397
#
#
#
# Elastic Compliance Matrix: (Units=1/GPa)
#
#
# Indices 1 2 3 4 5 6 
#
# 1 0.027118 0.002722 -0.005166 0.000000 0.022606 0.000000
# 2 0.002722 0.018034 -0.004655 0.000000 0.006313 0.000000
# 3 -0.005166 -0.004655 0.010031 0.000000 0.010163 0.000000
# 4 0.000000 0.000000 0.000000 0.030630 0.000000 -0.001628
# 5 0.022606 0.006313 0.010163 0.000000 0.221759 0.000000
# 6 0.000000 0.000000 0.000000 -0.001628 0.000000 0.064854
#
#
# Mechanical properties :
#
#
# Convention : Reuss Voigt Hill
#
# Bulk Modulus (GPa) = 24.39919 44.95139 34.67529
# Shear Modulus (GPa) = 12.49103 23.16783 17.82943
#
# Velocity S-wave (km/s) = 2.71395 3.69612 3.24244
# Velocity P-wave (km/s) = 4.92017 6.68740 5.87067
#
# Compressibility (1/GPa) = 0.04098496
#
# Stress axis : x y z
#
# Youngs Moduli (GPa) = 36.87544 55.45097 99.68980
#
# Poissons Ratio (x) = -0.15096 0.51504
# Poissons Ratio (y) = -0.10039 0.46407
# Poissons Ratio (z) = 0.19052 0.25813
#
# Static dielectric constant tensor:
#      x y z
#    x 1.541150 0.000000 -0.005460 
#    y 0.000000 1.585740 0.000000 
#    z -0.005460 0.000000 1.637440 
# 
# From -- ./inp_files/68252.got.cif
#   From: 2010.05.17/outbox.cif.g08.bks.cpg/sg11_35_cif.got.tgz:68252.got - 2010.06.03 12:22:45.
