data_PCOD9157231
_publ_section_title
;
Structure prediction by ZEFSAII (Michael W. Deem and Ramdas Pophale) SiO2 
 PCOD9157231
Probable space group: P 21/M
;
_chemical_formula_sum "Si O2"
_cell_formula_units_Z 32
_cell_length_a 22.168332
_cell_length_b 14.915875
_cell_length_c 5.669957
_cell_angle_alpha 90.000000
_cell_angle_beta 122.220668
_cell_angle_gamma 90.000000
_cell_volume 1586.106471
_symmetry_space_group_name_H-M "P 21/M"
_symmetry_group_IT_number 11
_symmetry_cell_setting 'monoclinic'
loop_
_space_group_symop_operation_xyz
x,y,z
-x,1/2+y,-z
-x,-y,-z
x,1/2-y,z
loop_
_atom_site_type_symbol
_atom_site_label
_atom_site_fract_x
_atom_site_fract_y
_atom_site_fract_z
Si Si1 0.342301 0.980185 0.946308
Si Si2 0.810098 0.482014 0.620570
Si Si3 0.157944 0.151340 0.613223
Si Si4 0.617560 0.650585 0.272442
Si Si5 0.959496 0.097862 0.915938
Si Si6 0.013450 0.392028 0.529559
Si Si7 0.491489 0.554384 0.231669
Si Si8 0.269008 0.422993 0.167972
O O1 0.266035 0.959420 0.663463
O O2 0.373341 0.072589 0.900743
O O3 0.324934 0.006851 0.176624
O O4 0.408789 0.913605 0.061332
O O5 0.843258 0.571263 0.573194
O O6 0.874028 0.412709 0.736345
O O7 0.790163 0.513209 0.840006
O O8 0.150500 0.250000 0.495487
O O9 0.095864 0.133653 0.672867
O O10 0.233462 0.137689 0.896796
O O11 0.608462 0.750000 0.156751
O O12 0.553355 0.627523 0.320252
O O13 0.691819 0.639508 0.565736
O O14 0.983531 0.140371 0.717878
O O15 0.980463 0.140185 0.211220
O O16 0.000000 0.000000 0.000000
O O17 0.000000 0.500000 0.500000
O O18 0.500000 0.500000 0.500000
O O19 0.500000 0.500000 0.000000
#
# Coordination Sequence:
#
# PCOD9157231 Si02
#       8
#     4   4   4   4   4   4   4   4
#     4   9  20  33  50  74 111 138 179 214 263 315
#     4  10  20  32  50  75 102 138 175 214 263 310
#     4  11  22  32  46  73 108 140 170 210 262 317
#     4  10  20  33  52  77 107 145 181 216 265 318
#     4  10  18  32  53  71  97 127 175 220 249 293
#     4  10  19  34  52  70  96 135 173 217 251 293
#     4  10  19  37  54  76 104 143 177 226 259 307
#     4  10  19  32  48  72 108 145 173 200 254 320
#
# _framework density 20.175190000000001
#
# number of rings (size 3 to 8) (size 9 to 14) (size 15 to 20)
#    0.000    2.000    3.750    1.875    1.750    5.500 
#    0.000    0.000    0.000    0.000    0.000    1.750 
#    0.000    0.000    0.000    0.000    0.000    0.000 
#
# Total GULP energy -178148.030710 kJ/mol
# GULP energy per Si atom -5567.125960 kJ/mol
# Density = 2.012927 g / cm^3
# Si number density = 20.175190 Si / 1000 Ang^3
#
#
#
# Elastic Constant Matrix: (Units=GPa)
#
#
# Indices 1 2 3 4 5 6 
#
# 1 137.7688 3.2756 24.3056 0.0000 -0.8856 0.0000
# 2 3.2756 17.5801 -2.2804 0.0000 -0.2043 0.0000
# 3 24.3056 -2.2804 68.4285 0.0000 -11.8773 0.0000
# 4 0.0000 0.0000 0.0000 3.2087 0.0000 -0.0109
# 5 -0.8856 -0.2043 -11.8773 0.0000 44.7307 0.0000
# 6 0.0000 0.0000 0.0000 -0.0109 0.0000 8.7491
#
#
#
# Elastic Compliance Matrix: (Units=1/GPa)
#
#
# Indices 1 2 3 4 5 6 
#
# 1 0.007819 -0.001847 -0.002949 0.000000 -0.000637 0.000000
# 2 -0.001847 0.057593 0.002741 0.000000 0.000954 0.000000
# 3 -0.002949 0.002741 0.016505 0.000000 0.004337 0.000000
# 4 0.000000 0.000000 0.000000 0.311650 0.000000 0.000388
# 5 -0.000637 0.000954 0.004337 0.000000 0.023499 0.000000
# 6 0.000000 0.000000 0.000000 0.000388 0.000000 0.114298
#
#
# Mechanical properties :
#
#
# Convention : Reuss Voigt Hill
#
# Bulk Modulus (GPa) = 12.85228 30.48655 21.66942
# Shear Modulus (GPa) = 8.90614 24.56948 16.73781
#
# Velocity S-wave (km/s) = 2.10333 3.49349 2.88344
# Velocity P-wave (km/s) = 3.50468 5.60503 4.67436
#
# Compressibility (1/GPa) = 0.07780718
#
# Stress axis : x y z
#
# Youngs Moduli (GPa) = 127.89902 17.36315 60.58612
#
# Poissons Ratio (x) = 0.03207 0.17868
# Poissons Ratio (y) = 0.23620 -0.16606
# Poissons Ratio (z) = 0.37720 -0.04759
#
# Static dielectric constant tensor:
#      x y z
#    x 1.775200 0.000000 0.015510 
#    y 0.000000 1.759580 0.000000 
#    z 0.015510 0.000000 1.794760 
# 
# From -- ./inp_files/8233.got.cif
#   From: 2010.05.17/outbox.cif.g08.bks.cpg/sg11_5_cif.got.tgz:8233.got - 2010.06.03 12:22:45.
