data_PCOD9157322
_publ_section_title
;
Structure prediction by ZEFSAII (Michael W. Deem and Ramdas Pophale) SiO2 
 PCOD9157322
Probable space group: P 21/M
;
_chemical_formula_sum "Si O2"
_cell_formula_units_Z 32
_cell_length_a 8.974361
_cell_length_b 14.438310
_cell_length_c 13.978921
_cell_angle_alpha 90.000000
_cell_angle_beta 44.779612
_cell_angle_gamma 90.000000
_cell_volume 1275.855811
_symmetry_space_group_name_H-M "P 21/M"
_symmetry_group_IT_number 11
_symmetry_cell_setting 'monoclinic'
loop_
_space_group_symop_operation_xyz
x,y,z
-x,1/2+y,-z
-x,-y,-z
x,1/2-y,z
loop_
_atom_site_type_symbol
_atom_site_label
_atom_site_fract_x
_atom_site_fract_y
_atom_site_fract_z
Si Si1 0.078463 0.894464 0.963892
Si Si2 0.628357 0.850881 0.239674
Si Si3 0.362354 0.936411 0.201974
Si Si4 0.935892 0.901096 0.483846
Si Si5 0.181094 0.851799 0.699547
Si Si6 0.234392 0.058260 0.635048
Si Si7 0.785982 0.357594 0.902633
Si Si8 0.238094 0.349932 0.239191
O O1 0.868696 0.843031 0.094682
O O2 0.247852 0.876637 0.969996
O O3 0.150118 0.863386 0.827342
O O4 0.000000 0.000000 0.000000
O O5 0.525500 0.750000 0.280841
O O6 0.524842 0.921749 0.213035
O O7 0.635613 0.886629 0.344512
O O8 0.403074 0.888239 0.081394
O O9 0.157479 0.877926 0.332775
O O10 0.324296 0.044653 0.201058
O O11 0.767598 0.910115 0.474373
O O12 0.856514 0.845050 0.609804
O O13 0.000000 0.000000 0.500000
O O14 0.279257 0.750000 0.635844
O O15 0.955110 0.851339 0.748434
O O16 0.281269 0.949159 0.621025
O O17 0.989446 0.078243 0.781368
O O18 0.839589 0.250000 0.864429
O O19 0.352704 0.250000 0.170704
#
# Coordination Sequence:
#
# PCOD9157322 Si02
#       8
#     4   4   4   4   4   4   4   4
#     4  11  19  36  59  82 111 156 195 242 286 336
#     4  11  23  37  57  87 121 153 192 240 297 347
#     4  10  20  38  57  87 121 151 187 248 295 338
#     4   9  17  35  61  85 110 146 196 239 285 335
#     4  11  19  33  58  85 112 147 195 243 283 336
#     4  10  18  35  57  82 114 146 190 239 287 337
#     4  10  18  32  55  80 107 145 197 237 275 333
#     4  10  20  36  61  88 115 153 196 237 286 351
#
# _framework density 25.081204
#
# number of rings (size 3 to 8) (size 9 to 14) (size 15 to 20)
#    0.000    1.750    6.250    2.625    0.000    3.000 
#    0.000    5.625    0.000    1.500    0.000    0.000 
#    0.000    0.000    0.000    0.000    0.000    0.000 
#
# Total GULP energy -178801.410634 kJ/mol
# GULP energy per Si atom -5587.544082 kJ/mol
# Density = 2.502412 g / cm^3
# Si number density = 25.081204 Si / 1000 Ang^3
#
#
#
# Elastic Constant Matrix: (Units=GPa)
#
#
# Indices 1 2 3 4 5 6 
#
# 1 131.4250 32.2706 37.7104 0.0000 57.6864 0.0000
# 2 32.2706 200.4333 8.7772 0.0000 8.4736 0.0000
# 3 37.7104 8.7772 71.6144 0.0000 19.7266 0.0000
# 4 0.0000 0.0000 0.0000 4.0994 0.0000 -29.7661
# 5 57.6864 8.4736 19.7266 0.0000 39.9059 0.0000
# 6 0.0000 0.0000 0.0000 -29.7661 0.0000 -19.2796
#
#
#
# Elastic Compliance Matrix: (Units=1/GPa)
#
#
# Indices 1 2 3 4 5 6 
#
# 1 0.022330 -0.002178 -0.003157 0.000000 -0.030256 0.000000
# 2 -0.002178 0.005255 -0.000066 0.000000 0.002065 0.000000
# 3 -0.003157 -0.000066 0.016639 0.000000 -0.003647 0.000000
# 4 0.000000 0.000000 0.000000 0.019978 0.000000 -0.030844
# 5 -0.030256 0.002065 -0.003647 0.000000 0.070160 0.000000
# 6 0.000000 0.000000 0.000000 -0.030844 0.000000 -0.004248
#
#
# Mechanical properties :
#
#
# Convention : Reuss Voigt Hill
#
# Bulk Modulus (GPa) = 29.92056 62.33212 46.12634
# Shear Modulus (GPa) = 32.88231 26.59278 29.73754
#
# Velocity S-wave (km/s) = 3.62475 3.25971 3.44706
# Velocity P-wave (km/s) = 5.42898 6.25089 5.85438
#
# Compressibility (1/GPa) = 0.03342184
#
# Stress axis : x y z
#
# Youngs Moduli (GPa) = 44.78304 190.27939 60.10009
#
# Poissons Ratio (x) = 0.41440 0.18975
# Poissons Ratio (y) = 0.09753 0.00397
# Poissons Ratio (z) = 0.14139 0.01258
#
# Static dielectric constant tensor:
#      x y z
#    x 2.058270 0.000000 -0.045580 
#    y 0.000000 1.941210 0.000000 
#    z -0.045580 0.000000 2.111300 
# 
# From -- ./inp_files/47602.got.cif
#   From: 2010.05.17/outbox.cif.g08.bks.cpg/sg11_24_cif.got.tgz:47602.got - 2010.06.03 12:22:45.
