data_PCOD9157991
_publ_section_title
;
Structure prediction by ZEFSAII (Michael W. Deem and Ramdas Pophale) SiO2 
 PCOD9157991
Probable space group: P 21/M
;
_chemical_formula_sum "Si O2"
_cell_formula_units_Z 32
_cell_length_a 16.538859
_cell_length_b 8.853269
_cell_length_c 12.253427
_cell_angle_alpha 90.000000
_cell_angle_beta 100.444282
_cell_angle_gamma 90.000000
_cell_volume 1764.456509
_symmetry_space_group_name_H-M "P 21/M"
_symmetry_group_IT_number 11
_symmetry_cell_setting 'monoclinic'
loop_
_space_group_symop_operation_xyz
x,y,z
-x,1/2+y,-z
-x,-y,-z
x,1/2-y,z
loop_
_atom_site_type_symbol
_atom_site_label
_atom_site_fract_x
_atom_site_fract_y
_atom_site_fract_z
Si Si1 0.949604 0.578982 0.895664
Si Si2 0.278685 0.569919 0.270593
Si Si3 0.198791 0.931376 0.799790
Si Si4 0.851684 0.068419 0.575374
Si Si5 0.012778 0.932556 0.680991
Si Si6 0.590056 0.068569 0.510299
Si Si7 0.718752 0.930811 0.379692
Si Si8 0.229418 0.077015 0.044423
O O1 0.979350 0.750000 0.895325
O O2 0.971497 0.513524 0.784793
O O3 0.856930 0.577942 0.912160
O O4 0.000000 0.500000 0.000000
O O5 0.273819 0.750000 0.254401
O O6 0.198076 0.527916 0.324493
O O7 0.355096 0.534418 0.368614
O O8 0.285420 0.496528 0.152662
O O9 0.203620 0.750000 0.801242
O O10 0.108707 0.970578 0.725111
O O11 0.266268 0.004363 0.737055
O O12 0.212929 0.991442 0.926431
O O13 0.849918 0.250000 0.564390
O O14 0.945146 0.010012 0.586410
O O15 0.795202 0.993158 0.469539
O O16 0.007863 0.750000 0.664183
O O17 0.587780 0.250000 0.498010
O O18 0.500000 0.000000 0.500000
O O19 0.638632 0.996466 0.420347
O O20 0.717674 0.750000 0.379740
O O21 0.253374 0.250000 0.027096
#
# Coordination Sequence:
#
# PCOD9157991 Si02
#       8
#     4   4   4   4   4   4   4   4
#     4  10  19  30  45  70 102 141 191 243 286 325
#     4   9  19  34  54  83 116 146 180 224 275 328
#     4  11  23  38  54  74 109 154 198 238 281 335
#     4  10  20  34  54  78 107 145 190 241 291 335
#     4  10  20  33  49  73 104 146 195 243 290 332
#     4  10  21  40  67  98 122 144 176 217 272 333
#     4  11  23  40  60  82 112 147 186 231 280 336
#     4  11  21  32  51  78 110 147 191 236 281 330
#
# _framework density 18.135897
#
# number of rings (size 3 to 8) (size 9 to 14) (size 15 to 20)
#    0.000    1.750    2.500    3.375    0.000    5.000 
#    0.000    0.000    0.000    0.750    0.000    0.000 
#    0.000    0.000    0.000    0.000    0.000    0.000 
#
# Total GULP energy -178369.731168 kJ/mol
# GULP energy per Si atom -5574.054099 kJ/mol
# Density = 1.809462 g / cm^3
# Si number density = 18.135897 Si / 1000 Ang^3
#
#
#
# Elastic Constant Matrix: (Units=GPa)
#
#
# Indices 1 2 3 4 5 6 
#
# 1 108.2158 50.1452 58.6389 0.0000 -4.4200 0.0000
# 2 50.1452 69.5622 49.5540 0.0000 -4.8621 0.0000
# 3 58.6389 49.5540 65.3221 0.0000 -12.9510 0.0000
# 4 0.0000 0.0000 0.0000 28.6669 0.0000 1.8690
# 5 -4.4200 -4.8621 -12.9510 0.0000 19.8685 0.0000
# 6 0.0000 0.0000 0.0000 1.8690 0.0000 25.6952
#
#
#
# Elastic Compliance Matrix: (Units=1/GPa)
#
#
# Indices 1 2 3 4 5 6 
#
# 1 0.019175 -0.002256 -0.016956 0.000000 -0.007339 0.000000
# 2 -0.002256 0.033002 -0.024701 0.000000 -0.008527 0.000000
# 3 -0.016956 -0.024701 0.054346 0.000000 0.025608 0.000000
# 4 0.000000 0.000000 0.000000 0.035050 0.000000 -0.002549
# 5 -0.007339 -0.008527 0.025608 0.000000 0.063304 0.000000
# 6 0.000000 0.000000 0.000000 -0.002549 0.000000 0.039103
#
#
# Mechanical properties :
#
#
# Convention : Reuss Voigt Hill
#
# Bulk Modulus (GPa) = 53.48878 62.19735 57.84306
# Shear Modulus (GPa) = 14.79116 20.49691 17.64404
#
# Velocity S-wave (km/s) = 2.85892 3.36547 3.12249
# Velocity P-wave (km/s) = 6.36045 7.03359 6.70547
#
# Compressibility (1/GPa) = 0.01869551
#
# Stress axis : x y z
#
# Youngs Moduli (GPa) = 52.15215 30.30075 18.40056
#
# Poissons Ratio (x) = 0.06836 0.31201
# Poissons Ratio (y) = 0.11766 0.45452
# Poissons Ratio (z) = 0.88432 0.74847
#
# Static dielectric constant tensor:
#      x y z
#    x 1.620960 0.000000 0.016620 
#    y 0.000000 1.623050 0.000000 
#    z 0.016620 0.000000 1.649760 
# 
# From -- ./inp_files/38123.got.cif
#   From: 2010.05.17/outbox.cif.g08.bks.cpg/sg11_20_cif.got.tgz:38123.got - 2010.06.03 12:22:45.
