data_PCOD9157474
_publ_section_title
;
Structure prediction by ZEFSAII (Michael W. Deem and Ramdas Pophale) SiO2 
 PCOD9157474
Probable space group: P 21/M
;
_chemical_formula_sum "Si O2"
_cell_formula_units_Z 32
_cell_length_a 11.291054
_cell_length_b 21.068798
_cell_length_c 14.011380
_cell_angle_alpha 90.000000
_cell_angle_beta 31.263144
_cell_angle_gamma 90.000000
_cell_volume 1729.803927
_symmetry_space_group_name_H-M "P 21/M"
_symmetry_group_IT_number 11
_symmetry_cell_setting 'monoclinic'
loop_
_space_group_symop_operation_xyz
x,y,z
-x,1/2+y,-z
-x,-y,-z
x,1/2-y,z
loop_
_atom_site_type_symbol
_atom_site_label
_atom_site_fract_x
_atom_site_fract_y
_atom_site_fract_z
Si Si1 0.480136 0.514068 0.256887
Si Si2 0.972917 0.180038 0.040295
Si Si3 0.316667 0.951160 0.168315
Si Si4 0.928871 0.359886 0.291079
Si Si5 0.934183 0.449402 0.963295
Si Si6 0.878432 0.512274 0.350539
Si Si7 0.445171 0.179350 0.967267
Si Si8 0.483555 0.342852 0.718595
O O1 0.316147 0.531216 0.281400
O O2 0.350477 0.479979 0.431575
O O3 0.559049 0.581840 0.242176
O O4 0.701676 0.475077 0.075330
O O5 0.879234 0.250000 0.082284
O O6 0.247963 0.182793 0.839615
O O7 0.896278 0.120097 0.031252
O O8 0.923349 0.163295 0.185439
O O9 0.410318 0.879549 0.092180
O O10 0.080027 0.962345 0.278957
O O11 0.500000 0.000000 0.000000
O O12 0.916877 0.436737 0.305288
O O13 0.713281 0.333941 0.499647
O O14 0.175582 0.337611 0.160217
O O15 0.119944 0.452777 0.751706
O O16 0.000000 0.500000 0.000000
O O17 0.487369 0.250000 0.977190
O O18 0.502675 0.180372 0.814333
#
# Coordination Sequence:
#
# PCOD9157474 Si02
#       8
#     4   4   4   4   4   4   4   4
#     4  10  21  35  60  90 112 142 187 234 284 330
#     4  11  23  36  52  79 114 150 188 229 274 332
#     4  11  19  38  61  82 113 148 184 238 280 326
#     4  10  18  33  57  83 109 143 182 233 289 331
#     4  12  21  38  58  81 115 149 186 229 275 332
#     4  11  21  36  61  87 112 146 189 237 284 327
#     4  10  20  33  51  81 114 145 182 227 280 339
#     4   9  18  33  55  82 111 142 179 230 286 334
#
# _framework density 18.499206000000001
#
# number of rings (size 3 to 8) (size 9 to 14) (size 15 to 20)
#    0.000    1.500    5.000    2.625    0.000    3.500 
#    0.000    0.625    0.000    0.750    0.000    0.000 
#    0.000    0.000    0.000    0.000    0.000    0.000 
#
# Total GULP energy -178552.568491 kJ/mol
# GULP energy per Si atom -5579.767765 kJ/mol
# Density = 1.845710 g / cm^3
# Si number density = 18.499206 Si / 1000 Ang^3
#
#
#
# Elastic Constant Matrix: (Units=GPa)
#
#
# Indices 1 2 3 4 5 6 
#
# 1 36.2438 13.4119 -2.5751 0.0000 5.8444 0.0000
# 2 13.4119 108.5764 15.6232 0.0000 0.8391 0.0000
# 3 -2.5751 15.6232 91.0698 0.0000 14.4014 0.0000
# 4 0.0000 0.0000 0.0000 13.5564 0.0000 2.3357
# 5 5.8444 0.8391 14.4014 0.0000 18.6200 0.0000
# 6 0.0000 0.0000 0.0000 2.3357 0.0000 10.7196
#
#
#
# Elastic Compliance Matrix: (Units=1/GPa)
#
#
# Indices 1 2 3 4 5 6 
#
# 1 0.031449 -0.004306 0.003598 0.000000 -0.012460 0.000000
# 2 -0.004306 0.010047 -0.002265 0.000000 0.002650 0.000000
# 3 0.003598 -0.002265 0.013254 0.000000 -0.011279 0.000000
# 4 0.000000 0.000000 0.000000 0.076643 0.000000 -0.016699
# 5 -0.012460 0.002650 -0.011279 0.000000 0.066221 0.000000
# 6 0.000000 0.000000 0.000000 -0.016699 0.000000 0.096925
#
#
# Mechanical properties :
#
#
# Convention : Reuss Voigt Hill
#
# Bulk Modulus (GPa) = 20.48909 32.08999 26.28954
# Shear Modulus (GPa) = 15.78513 22.54121 19.16317
#
# Velocity S-wave (km/s) = 2.92428 3.49448 3.22202
# Velocity P-wave (km/s) = 4.74358 5.80226 5.29942
#
# Compressibility (1/GPa) = 0.04880645
#
# Stress axis : x y z
#
# Youngs Moduli (GPa) = 31.79717 99.52818 75.44651
#
# Poissons Ratio (x) = 0.42860 -0.27149
# Poissons Ratio (y) = 0.13693 0.17085
# Poissons Ratio (z) = -0.11442 0.22538
#
# Static dielectric constant tensor:
#      x y z
#    x 1.644660 0.000000 0.009000 
#    y 0.000000 1.675300 0.000000 
#    z 0.009000 0.000000 1.643060 
# 
# From -- ./inp_files/50787.got.cif
#   From: 2010.05.17/outbox.cif.g08.bks.cpg/sg11_26_cif.got.tgz:50787.got - 2010.06.03 12:22:45.
