data_PCOD9157363
_publ_section_title
;
Structure prediction by ZEFSAII (Michael W. Deem and Ramdas Pophale) SiO2 
 PCOD9157363
Probable space group: P 21/M
;
_chemical_formula_sum "Si O2"
_cell_formula_units_Z 24
_cell_length_a 8.851068
_cell_length_b 14.764422
_cell_length_c 16.520662
_cell_angle_alpha 90.000000
_cell_angle_beta 31.686555
_cell_angle_gamma 90.000000
_cell_volume 1134.028090
_symmetry_space_group_name_H-M "P 21/M"
_symmetry_group_IT_number 11
_symmetry_cell_setting 'monoclinic'
loop_
_space_group_symop_operation_xyz
x,y,z
-x,1/2+y,-z
-x,-y,-z
x,1/2-y,z
loop_
_atom_site_type_symbol
_atom_site_label
_atom_site_fract_x
_atom_site_fract_y
_atom_site_fract_z
Si Si1 0.819124 0.352766 0.542949
Si Si2 0.505825 0.644552 0.722853
Si Si3 0.374555 0.347214 0.895440
Si Si4 0.689858 0.460384 0.034992
Si Si5 0.200853 0.924184 0.189128
Si Si6 0.635606 0.524953 0.523308
O O1 0.797794 0.250000 0.519479
O O2 0.601185 0.357095 0.718538
O O3 0.728593 0.432567 0.524790
O O4 0.150234 0.367511 0.417430
O O5 0.454538 0.750000 0.731905
O O6 0.347309 0.608790 0.875398
O O7 0.447186 0.583283 0.671195
O O8 0.226500 0.250000 0.955366
O O9 0.207511 0.441944 0.978008
O O10 0.568873 0.349793 0.888262
O O11 0.372852 0.485271 0.141165
O O12 0.859170 0.427741 0.878784
O O13 0.916264 0.917302 0.371050
O O14 0.500000 0.500000 0.500000
#
# Coordination Sequence:
#
# PCOD9157363 Si02
#       6
#     4   4   4   4   4   4
#     4  10  18  32  57  81 104 136 182 228 262 306
#     4  11  20  35  59  80 102 139 185 226 264 312
#     4   9  15  27  55  81 103 132 172 225 268 305
#     4   9  17  33  54  78 110 131 178 232 257 315
#     4   9  18  32  49  82 111 135 175 217 274 308
#     4  12  22  36  54  79 114 145 171 221 265 325
#
# _framework density 21.163495000000001
#
# number of rings (size 3 to 8) (size 9 to 14) (size 15 to 20)
#    1.000    1.000    5.000    0.500    0.000    1.333 
#    0.000    1.667    0.000    0.000    0.000    0.000 
#    0.000    0.000    0.000    0.000    0.000    0.000 
#
# Total GULP energy -133797.213956 kJ/mol
# GULP energy per Si atom -5574.883915 kJ/mol
# Density = 2.111533 g / cm^3
# Si number density = 21.163495 Si / 1000 Ang^3
#
#
#
# Elastic Constant Matrix: (Units=GPa)
#
#
# Indices 1 2 3 4 5 6 
#
# 1 74.7522 49.0688 30.7044 0.0000 21.4631 0.0000
# 2 49.0688 122.9036 32.6712 0.0000 28.9489 0.0000
# 3 30.7044 32.6712 94.6145 0.0000 28.2168 0.0000
# 4 0.0000 0.0000 0.0000 9.6784 0.0000 0.2055
# 5 21.4631 28.9489 28.2168 0.0000 36.7331 0.0000
# 6 0.0000 0.0000 0.0000 0.2055 0.0000 -2.6610
#
#
#
# Elastic Compliance Matrix: (Units=1/GPa)
#
#
# Indices 1 2 3 4 5 6 
#
# 1 0.019905 -0.006081 -0.003010 0.000000 -0.004526 0.000000
# 2 -0.006081 0.012000 -0.000531 0.000000 -0.005496 0.000000
# 3 -0.003010 -0.000531 0.014373 0.000000 -0.008863 0.000000
# 4 0.000000 0.000000 0.000000 0.103153 0.000000 0.007967
# 5 -0.004526 -0.005496 -0.008863 0.000000 0.041007 0.000000
# 6 0.000000 0.000000 0.000000 0.007967 0.000000 -0.375190
#
#
# Mechanical properties :
#
#
# Convention : Reuss Voigt Hill
#
# Bulk Modulus (GPa) = 36.99126 57.46211 47.22669
# Shear Modulus (GPa) = -31.94959 20.73851 -5.60554
#
# Velocity S-wave (km/s) = -3.88964 3.13376 -1.62924
# Velocity P-wave (km/s) = 1.62963 6.34858 4.33871
#
# Compressibility (1/GPa) = 0.02703341
#
# Stress axis : x y z
#
# Youngs Moduli (GPa) = 50.23867 83.33397 69.57639
#
# Poissons Ratio (x) = 0.50673 0.20943
# Poissons Ratio (y) = 0.30549 0.03697
# Poissons Ratio (z) = 0.15122 0.04428
#
# Static dielectric constant tensor:
#      x y z
#    x 1.788240 0.000000 -0.031700 
#    y 0.000000 1.756770 0.000000 
#    z -0.031700 0.000000 1.760120 
# 
# From -- ./inp_files/47527.got.cif
#   From: 2010.05.17/outbox.cif.g08.bks.cpg/sg11_24_cif.got.tgz:47527.got - 2010.06.03 12:22:45.
