data_PCOD9157949
_publ_section_title
;
Structure prediction by ZEFSAII (Michael W. Deem and Ramdas Pophale) SiO2 
 PCOD9157949
Probable space group: P 21/M
;
_chemical_formula_sum "Si O2"
_cell_formula_units_Z 32
_cell_length_a 28.900416
_cell_length_b 7.873797
_cell_length_c 23.533341
_cell_angle_alpha 90.000000
_cell_angle_beta 17.931995
_cell_angle_gamma 90.000000
_cell_volume 1648.787165
_symmetry_space_group_name_H-M "P 21/M"
_symmetry_group_IT_number 11
_symmetry_cell_setting 'monoclinic'
loop_
_space_group_symop_operation_xyz
x,y,z
-x,1/2+y,-z
-x,-y,-z
x,1/2-y,z
loop_
_atom_site_type_symbol
_atom_site_label
_atom_site_fract_x
_atom_site_fract_y
_atom_site_fract_z
Si Si1 0.667829 0.450112 0.320694
Si Si2 0.168510 0.545700 0.323179
Si Si3 0.724642 0.047563 0.918363
Si Si4 0.962652 0.041922 0.915454
Si Si5 0.259703 0.045199 0.635311
Si Si6 0.862498 0.545497 0.398255
Si Si7 0.434179 0.042317 0.322161
Si Si8 0.943744 0.048325 0.430413
O O1 0.500000 0.500000 0.500000
O O2 0.675631 0.250000 0.304237
O O3 0.704418 0.489934 0.343289
O O4 0.802108 0.522301 0.124566
O O5 0.185837 0.750000 0.303387
O O6 0.271850 0.479822 0.150835
O O7 0.000000 0.500000 0.500000
O O8 0.169116 0.484648 0.387743
O O9 0.701085 0.250000 0.941989
O O10 0.889289 0.021097 0.752575
O O11 0.591960 0.979886 0.113153
O O12 0.961834 0.250000 0.916176
O O13 0.096386 0.990629 0.802453
O O14 0.013880 0.988099 0.792581
O O15 0.259286 0.250000 0.635182
O O16 0.383151 0.987388 0.444659
O O17 0.864544 0.750000 0.395409
O O18 0.700936 0.492767 0.562238
O O19 0.892014 0.489903 0.427548
O O20 0.437638 0.250000 0.319810
O O21 0.954557 0.250000 0.424639
#
# Coordination Sequence:
#
# PCOD9157949 Si02
#       8
#     4   4   4   4   4   4   4   4
#     4  11  22  35  50  73 101 128 156 192 233 277
#     4   8  15  27  44  64  91 123 157 192 230 275
#     4   9  16  30  51  71  89 121 163 198 231 278
#     4   8  17  34  55  72  91 123 163 196 228 274
#     4   9  17  34  56  75  94 121 155 196 239 280
#     4   9  17  33  53  71  91 123 162 196 228 276
#     4   8  16  31  53  75  94 118 157 200 235 273
#     4  10  19  30  44  69 100 127 154 194 240 279
#
# _framework density 19.408206
#
# number of rings (size 3 to 8) (size 9 to 14) (size 15 to 20)
#    0.000    3.000    0.000    2.625    0.000    1.500 
#    0.000   11.250    0.000    0.000    0.000    0.000 
#    0.000    0.000    0.000    0.000    0.000    0.000 
#
# Total GULP energy -178278.978515 kJ/mol
# GULP energy per Si atom -5571.218079 kJ/mol
# Density = 1.936403 g / cm^3
# Si number density = 19.408206 Si / 1000 Ang^3
#
#
#
# Elastic Constant Matrix: (Units=GPa)
#
#
# Indices 1 2 3 4 5 6 
#
# 1 7.9878 -4.5920 -84.3242 0.0000 -0.0313 0.0000
# 2 -4.5920 16.7318 8.6616 0.0000 1.4559 0.0000
# 3 -84.3242 8.6616 -46.6475 0.0000 -13.1306 0.0000
# 4 0.0000 0.0000 0.0000 11.9486 0.0000 4.6568
# 5 -0.0313 1.4559 -13.1306 0.0000 11.2590 0.0000
# 6 0.0000 0.0000 0.0000 4.6568 0.0000 14.7074
#
#
#
# Elastic Compliance Matrix: (Units=1/GPa)
#
#
# Indices 1 2 3 4 5 6 
#
# 1 0.009641 0.009861 -0.011477 0.000000 -0.014633 0.000000
# 2 0.009861 0.064804 -0.002591 0.000000 -0.011373 0.000000
# 3 -0.011477 -0.002591 -0.000946 0.000000 -0.000800 0.000000
# 4 0.000000 0.000000 0.000000 0.095473 0.000000 -0.030230
# 5 -0.014633 -0.011373 -0.000800 0.000000 0.089314 0.000000
# 6 0.000000 0.000000 0.000000 -0.030230 0.000000 0.077565
#
#
# Mechanical properties :
#
#
# Convention : Reuss Voigt Hill
#
# Bulk Modulus (GPa) = 15.36484 -20.27081 -2.45299
# Shear Modulus (GPa) = 13.66269 11.47147 12.56708
#
# Velocity S-wave (km/s) = 2.65611 2.43382 2.54739
# Velocity P-wave (km/s) = 4.16418 1.60287 2.71765
#
# Compressibility (1/GPa) = 0.06508366
#
# Stress axis : x y z
#
# Youngs Moduli (GPa) = 103.72741 15.43125 -1057.27368
#
# Poissons Ratio (x) = -0.15216 -12.13466
# Poissons Ratio (y) = -1.02282 -2.73909
# Poissons Ratio (z) = 1.19051 0.03998
#
# Static dielectric constant tensor:
#      x y z
#    x 1.625430 0.000000 0.076600 
#    y 0.000000 1.711660 0.000000 
#    z 0.076600 0.000000 1.677760 
# 
# From -- ./inp_files/67008.got.cif
#   From: 2010.05.17/outbox.cif.g08.bks.cpg/sg11_34_cif.got.tgz:67008.got - 2010.06.03 12:22:45.
