data_PCOD9157981
_publ_section_title
;
Structure prediction by ZEFSAII (Michael W. Deem and Ramdas Pophale) SiO2 
 PCOD9157981
Probable space group: P 21/M
;
_chemical_formula_sum "Si O2"
_cell_formula_units_Z 28
_cell_length_a 13.993336
_cell_length_b 8.595572
_cell_length_c 14.960818
_cell_angle_alpha 90.000000
_cell_angle_beta 103.345657
_cell_angle_gamma 90.000000
_cell_volume 1750.903063
_symmetry_space_group_name_H-M "P 21/M"
_symmetry_group_IT_number 11
_symmetry_cell_setting 'monoclinic'
loop_
_space_group_symop_operation_xyz
x,y,z
-x,1/2+y,-z
-x,-y,-z
x,1/2-y,z
loop_
_atom_site_type_symbol
_atom_site_label
_atom_site_fract_x
_atom_site_fract_y
_atom_site_fract_z
Si Si1 0.225519 0.437986 0.071746
Si Si2 0.866993 0.435694 0.401441
Si Si3 0.756664 0.936871 0.216349
Si Si4 0.076302 0.438081 0.892438
Si Si5 0.911841 0.935867 0.600873
Si Si6 0.865152 0.063710 0.780822
Si Si7 0.609000 0.937759 0.034432
O O1 0.223783 0.250000 0.074448
O O2 0.217629 0.503661 0.169346
O O3 0.129892 0.492934 0.994103
O O4 0.319484 0.484416 0.032316
O O5 0.869103 0.250000 0.409756
O O6 0.781342 0.487478 0.316118
O O7 0.861415 0.509092 0.498413
O O8 0.973303 0.486592 0.383584
O O9 0.753287 0.750000 0.225976
O O10 0.848426 0.974127 0.171169
O O11 0.661620 0.986798 0.138656
O O12 0.070862 0.250000 0.897102
O O13 0.969020 0.496632 0.844247
O O14 0.910245 0.750000 0.606057
O O15 0.863494 0.005581 0.679002
O O16 0.865898 0.250000 0.781136
O O17 0.607851 0.750000 0.034652
O O18 0.500000 0.000000 0.000000
#
# Coordination Sequence:
#
# PCOD9157981 Si02
#       7
#     4   4   4   4   4   4   4
#     4   9  18  32  46  64  92 126 158 191 235 286
#     4  10  19  30  45  68  93 123 164 204 235 270
#     4   9  16  30  49  68  94 128 158 192 240 286
#     4   8  15  27  43  62  90 125 159 190 224 270
#     4  10  20  31  44  63  93 132 165 196 234 276
#     4  11  19  28  44  67  93 126 162 198 231 268
#     4   9  19  34  53  73  96 124 156 197 243 286
#
# _framework density 15.991747
#
# number of rings (size 3 to 8) (size 9 to 14) (size 15 to 20)
#    0.000    2.571    1.429    3.429    0.000    2.286 
#    0.000    2.857    0.000    0.000    0.000    1.000 
#    0.000    0.000    0.000    0.000    0.000    0.000 
#
# Total GULP energy -156058.609062 kJ/mol
# GULP energy per Si atom -5573.521752 kJ/mol
# Density = 1.595535 g / cm^3
# Si number density = 15.991747 Si / 1000 Ang^3
#
#
#
# Elastic Constant Matrix: (Units=GPa)
#
#
# Indices 1 2 3 4 5 6 
#
# 1 64.7700 18.9895 55.9818 0.0000 6.6798 0.0000
# 2 18.9895 26.2801 32.1803 0.0000 -3.0363 0.0000
# 3 55.9818 32.1803 142.1067 0.0000 -9.2536 0.0000
# 4 0.0000 0.0000 0.0000 24.6953 0.0000 0.2167
# 5 6.6798 -3.0363 -9.2536 0.0000 19.0231 0.0000
# 6 0.0000 0.0000 0.0000 0.2167 0.0000 19.7890
#
#
#
# Elastic Compliance Matrix: (Units=1/GPa)
#
#
# Indices 1 2 3 4 5 6 
#
# 1 0.029019 -0.010477 -0.010154 0.000000 -0.016801 0.000000
# 2 -0.010477 0.056568 -0.008112 0.000000 0.008762 0.000000
# 3 -0.010154 -0.008112 0.013448 0.000000 0.008812 0.000000
# 4 0.000000 0.000000 0.000000 0.040497 0.000000 -0.000443
# 5 -0.016801 0.008762 0.008812 0.000000 0.064152 0.000000
# 6 0.000000 0.000000 0.000000 -0.000443 0.000000 0.050538
#
#
# Mechanical properties :
#
#
# Convention : Reuss Voigt Hill
#
# Bulk Modulus (GPa) = 24.06746 49.71775 36.89260
# Shear Modulus (GPa) = 15.35828 21.10182 18.23005
#
# Velocity S-wave (km/s) = 3.10237 3.63649 3.38000
# Velocity P-wave (km/s) = 5.28352 6.98493 6.19293
#
# Compressibility (1/GPa) = 0.04154987
#
# Stress axis : x y z
#
# Youngs Moduli (GPa) = 34.45959 17.67796 74.36235
#
# Poissons Ratio (x) = 0.18521 0.75504
# Poissons Ratio (y) = 0.36103 0.60323
# Poissons Ratio (z) = 0.34989 0.14340
#
# Static dielectric constant tensor:
#      x y z
#    x 1.522020 0.000000 0.001620 
#    y 0.000000 1.538360 0.000000 
#    z 0.001620 0.000000 1.547900 
# 
# From -- ./inp_files/50968.got.cif
#   From: 2010.05.17/outbox.cif.g08.bks.cpg/sg11_26_cif.got.tgz:50968.got - 2010.06.03 12:22:45.
