data_PCOD9157181
_publ_section_title
;
Structure prediction by ZEFSAII (Michael W. Deem and Ramdas Pophale) SiO2 
 PCOD9157181
Probable space group: P 21/M
;
_chemical_formula_sum "Si O2"
_cell_formula_units_Z 32
_cell_length_a 16.105622
_cell_length_b 8.621181
_cell_length_c 21.719357
_cell_angle_alpha 90.000000
_cell_angle_beta 137.640486
_cell_angle_gamma 90.000000
_cell_volume 2031.934073
_symmetry_space_group_name_H-M "P 21/M"
_symmetry_group_IT_number 11
_symmetry_cell_setting 'monoclinic'
loop_
_space_group_symop_operation_xyz
x,y,z
-x,1/2+y,-z
-x,-y,-z
x,1/2-y,z
loop_
_atom_site_type_symbol
_atom_site_label
_atom_site_fract_x
_atom_site_fract_y
_atom_site_fract_z
Si Si1 0.696821 0.064362 0.599988
Si Si2 0.950708 0.935997 0.784160
Si Si3 0.901538 0.937111 0.897733
Si Si4 0.395476 0.563810 0.896596
Si Si5 0.500765 0.064367 0.597736
Si Si6 0.625319 0.937859 0.784262
Si Si7 0.419748 0.061602 0.101198
Si Si8 0.213159 0.064071 0.888393
O O1 0.703446 0.250000 0.602424
O O2 0.612878 0.017414 0.613100
O O3 0.831675 0.994380 0.682023
O O4 0.622230 0.004267 0.500022
O O5 0.953849 0.750000 0.784879
O O6 0.933262 0.987636 0.845745
O O7 0.077999 0.001334 0.827850
O O8 0.904524 0.750000 0.900805
O O9 0.763744 0.986059 0.841090
O O10 0.000000 0.000000 0.000000
O O11 0.391026 0.750000 0.897490
O O12 0.450905 0.518640 0.860459
O O13 0.270162 0.495468 0.855285
O O14 0.500000 0.500000 0.000000
O O15 0.493911 0.250000 0.593959
O O16 0.532698 0.002310 0.682498
O O17 0.620925 0.750000 0.780528
O O18 0.596722 0.991189 0.837990
O O19 0.415412 0.250000 0.099507
O O20 0.307090 0.012146 0.994745
O O21 0.212906 0.250000 0.888006
#
# Coordination Sequence:
#
# PCOD9157181 Si02
#       8
#     4   4   4   4   4   4   4   4
#     4  10  20  34  52  70  92 125 161 201 247 292
#     4  11  21  33  48  71  98 128 164 204 244 286
#     4  10  21  32  45  65  96 134 168 197 233 279
#     4   9  16  29  47  70  97 127 164 205 248 288
#     4  10  20  33  50  72  95 121 158 205 248 285
#     4  10  18  32  49  68  95 130 165 197 237 288
#     4   8  16  29  48  70  96 130 165 200 239 284
#     4  10  19  32  49  70  97 132 169 205 246 290
#
# _framework density 15.748544000000001
#
# number of rings (size 3 to 8) (size 9 to 14) (size 15 to 20)
#    0.000    2.250    1.250    3.375    0.000    3.500 
#    0.000    3.750    0.000    0.000    0.000    0.875 
#    0.000    0.000    0.000    0.000    0.000    0.000 
#
# Total GULP energy -178459.077765 kJ/mol
# GULP energy per Si atom -5576.846180 kJ/mol
# Density = 1.571270 g / cm^3
# Si number density = 15.748544 Si / 1000 Ang^3
#
#
#
# Elastic Constant Matrix: (Units=GPa)
#
#
# Indices 1 2 3 4 5 6 
#
# 1 144.1238 35.3409 73.1475 0.0000 15.7775 0.0000
# 2 35.3409 35.8933 28.8047 0.0000 4.8182 0.0000
# 3 73.1475 28.8047 114.5476 0.0000 8.6137 0.0000
# 4 0.0000 0.0000 0.0000 27.0784 0.0000 1.4470
# 5 15.7775 4.8182 8.6137 0.0000 10.3858 0.0000
# 6 0.0000 0.0000 0.0000 1.4470 0.0000 18.2915
#
#
#
# Elastic Compliance Matrix: (Units=1/GPa)
#
#
# Indices 1 2 3 4 5 6 
#
# 1 0.012594 -0.006380 -0.005569 0.000000 -0.011554 0.000000
# 2 -0.006380 0.039039 -0.005449 0.000000 -0.003899 0.000000
# 3 -0.005569 -0.005449 0.013684 0.000000 -0.000360 0.000000
# 4 0.000000 0.000000 0.000000 0.037087 0.000000 -0.002934
# 5 -0.011554 -0.003899 -0.000360 0.000000 0.115945 0.000000
# 6 0.000000 0.000000 0.000000 -0.002934 0.000000 0.054902
#
#
# Mechanical properties :
#
#
# Convention : Reuss Voigt Hill
#
# Bulk Modulus (GPa) = 32.76614 63.23900 48.00257
# Shear Modulus (GPa) = 15.71230 21.63590 18.67410
#
# Velocity S-wave (km/s) = 3.16206 3.71055 3.44723
# Velocity P-wave (km/s) = 5.84658 7.65508 6.81112
#
# Compressibility (1/GPa) = 0.03051931
#
# Stress axis : x y z
#
# Youngs Moduli (GPa) = 79.40060 25.61544 73.07883
#
# Poissons Ratio (x) = 0.16343 0.40700
# Poissons Ratio (y) = 0.50659 0.39824
# Poissons Ratio (z) = 0.44220 0.13959
#
# Static dielectric constant tensor:
#      x y z
#    x 1.538750 0.000000 -0.007690 
#    y 0.000000 1.529610 0.000000 
#    z -0.007690 0.000000 1.488320 
# 
# From -- ./inp_files/45328.got.cif
#   From: 2010.05.17/outbox.cif.g08.bks.cpg/sg11_23_cif.got.tgz:45328.got - 2010.06.03 12:22:45.
