data_PCOD9157304
_publ_section_title
;
Structure prediction by ZEFSAII (Michael W. Deem and Ramdas Pophale) SiO2 
 PCOD9157304
Probable space group: P 21/M
;
_chemical_formula_sum "Si O2"
_cell_formula_units_Z 32
_cell_length_a 8.489995
_cell_length_b 13.624925
_cell_length_c 26.501203
_cell_angle_alpha 90.000000
_cell_angle_beta 34.972260
_cell_angle_gamma 90.000000
_cell_volume 1757.106154
_symmetry_space_group_name_H-M "P 21/M"
_symmetry_group_IT_number 11
_symmetry_cell_setting 'monoclinic'
loop_
_space_group_symop_operation_xyz
x,y,z
-x,1/2+y,-z
-x,-y,-z
x,1/2-y,z
loop_
_atom_site_type_symbol
_atom_site_label
_atom_site_fract_x
_atom_site_fract_y
_atom_site_fract_z
Si Si1 0.432522 0.999123 0.361570
Si Si2 0.050001 0.367809 0.952627
Si Si3 0.888840 0.641441 0.680957
Si Si4 0.600570 0.996968 0.209549
Si Si5 0.903962 0.365395 0.480072
Si Si6 0.515659 0.631699 0.954099
Si Si7 0.103722 0.368438 0.057948
Si Si8 0.063937 0.861278 0.748883
O O1 0.500270 0.953641 0.289069
O O2 0.698579 0.061874 0.304309
O O3 0.182402 0.077002 0.422098
O O4 0.340522 0.919374 0.426526
O O5 0.061201 0.250000 0.946394
O O6 0.294666 0.417304 0.857384
O O7 0.767064 0.401124 0.998569
O O8 0.076030 0.391487 0.005421
O O9 0.763272 0.750000 0.704469
O O10 0.652136 0.561296 0.743446
O O11 0.098738 0.624482 0.579912
O O12 0.024582 0.643334 0.699408
O O13 0.853718 0.073381 0.149616
O O14 0.916801 0.250000 0.488990
O O15 0.490694 0.750000 0.961713
O O16 0.616975 0.604426 0.984404
O O17 0.775449 0.609182 0.850178
O O18 0.071672 0.250000 0.071028
O O19 0.129925 0.750000 0.749748
#
# Coordination Sequence:
#
# PCOD9157304 Si02
#       8
#     4   4   4   4   4   4   4   4
#     4  10  20  33  54  82 105 135 177 217 267 325
#     4  10  22  37  51  75 110 149 190 225 267 323
#     4   9  19  34  56  81 105 134 173 224 276 319
#     4  11  20  34  53  78 105 141 179 223 268 317
#     4   9  19  36  55  77 106 138 173 214 264 327
#     4   9  18  33  52  76 106 138 180 228 269 312
#     4  10  19  33  53  75 102 140 180 228 276 310
#     4  10  18  32  54  82 109 133 168 225 275 312
#
# _framework density 18.211762
#
# number of rings (size 3 to 8) (size 9 to 14) (size 15 to 20)
#    0.000    2.250    1.250    1.875    0.000    4.500 
#    2.250    0.000    0.000    0.750    0.000    0.000 
#    0.000    0.000    0.000    0.000    0.000    0.000 
#
# Total GULP energy -178397.841516 kJ/mol
# GULP energy per Si atom -5574.932547 kJ/mol
# Density = 1.817031 g / cm^3
# Si number density = 18.211762 Si / 1000 Ang^3
#
#
#
# Elastic Constant Matrix: (Units=GPa)
#
#
# Indices 1 2 3 4 5 6 
#
# 1 101.4835 32.0419 49.6828 0.0000 22.0722 0.0000
# 2 32.0419 59.9223 45.8480 0.0000 10.9307 0.0000
# 3 49.6828 45.8480 113.8259 0.0000 18.5309 0.0000
# 4 0.0000 0.0000 0.0000 36.3208 0.0000 1.2070
# 5 22.0722 10.9307 18.5309 0.0000 18.1117 0.0000
# 6 0.0000 0.0000 0.0000 1.2070 0.0000 21.3049
#
#
#
# Elastic Compliance Matrix: (Units=1/GPa)
#
#
# Indices 1 2 3 4 5 6 
#
# 1 0.015401 -0.003340 -0.003179 0.000000 -0.013500 0.000000
# 2 -0.003340 0.025319 -0.008298 0.000000 -0.002720 0.000000
# 3 -0.003179 -0.008298 0.014481 0.000000 -0.005935 0.000000
# 4 0.000000 0.000000 0.000000 0.027584 0.000000 -0.001563
# 5 -0.013500 -0.002720 -0.005935 0.000000 0.079379 0.000000
# 6 0.000000 0.000000 0.000000 -0.001563 0.000000 0.047026
#
#
# Mechanical properties :
#
#
# Convention : Reuss Voigt Hill
#
# Bulk Modulus (GPa) = 39.11160 58.93081 49.02120
# Shear Modulus (GPa) = 20.21449 24.99141 22.60295
#
# Velocity S-wave (km/s) = 3.33523 3.70843 3.52677
# Velocity P-wave (km/s) = 6.02946 7.12499 6.60000
#
# Compressibility (1/GPa) = 0.02556786
#
# Stress axis : x y z
#
# Youngs Moduli (GPa) = 64.93068 39.49553 69.05497
#
# Poissons Ratio (x) = 0.13193 0.21952
# Poissons Ratio (y) = 0.21689 0.57299
# Poissons Ratio (z) = 0.20641 0.32772
#
# Static dielectric constant tensor:
#      x y z
#    x 1.661410 0.000000 0.021950 
#    y 0.000000 1.640770 0.000000 
#    z 0.021950 0.000000 1.605050 
# 
# From -- ./inp_files/26805.got.cif
#   From: 2010.05.17/outbox.cif.g08.bks.cpg/sg11_14_cif.got.tgz:26805.got - 2010.06.03 12:22:45.
