data_PCOD9157823
_publ_section_title
;
Structure prediction by ZEFSAII (Michael W. Deem and Ramdas Pophale) SiO2 
 PCOD9157823
Probable space group: P 21/M
;
_chemical_formula_sum "Si O2"
_cell_formula_units_Z 32
_cell_length_a 24.504936
_cell_length_b 8.912126
_cell_length_c 16.880617
_cell_angle_alpha 90.000000
_cell_angle_beta 151.238417
_cell_angle_gamma 90.000000
_cell_volume 1773.855089
_symmetry_space_group_name_H-M "P 21/M"
_symmetry_group_IT_number 11
_symmetry_cell_setting 'monoclinic'
loop_
_space_group_symop_operation_xyz
x,y,z
-x,1/2+y,-z
-x,-y,-z
x,1/2-y,z
loop_
_atom_site_type_symbol
_atom_site_label
_atom_site_fract_x
_atom_site_fract_y
_atom_site_fract_z
Si Si1 0.992660 0.069842 0.904514
Si Si2 0.689098 0.568796 0.956614
Si Si3 0.232254 0.929753 0.482825
Si Si4 0.586233 0.080143 0.052158
Si Si5 0.805256 0.927278 0.268710
Si Si6 0.125595 0.067588 0.924517
Si Si7 0.534466 0.918352 0.271087
Si Si8 0.092255 0.569393 0.456636
O O1 0.999988 0.250000 0.920352
O O2 0.873769 0.035872 0.709483
O O3 0.090249 0.017614 0.967225
O O4 0.000000 0.000000 0.000000
O O5 0.681827 0.750000 0.950751
O O6 0.562837 0.503736 0.803337
O O7 0.769818 0.523973 0.134546
O O8 0.755913 0.520822 0.962881
O O9 0.246690 0.750000 0.503462
O O10 0.191613 0.975715 0.520009
O O11 0.346012 0.001939 0.593263
O O12 0.618470 0.250000 0.118628
O O13 0.523703 0.091907 0.888904
O O14 0.500000 0.000000 0.000000
O O15 0.692904 0.973805 0.174305
O O16 0.825121 0.750000 0.291903
O O17 0.898713 0.004574 0.443430
O O18 0.125191 0.250000 0.925375
O O19 0.023965 0.025285 0.735264
O O20 0.552508 0.750000 0.324968
O O21 0.094658 0.750000 0.465093
#
# Coordination Sequence:
#
# PCOD9157823 Si02
#       8
#     4   4   4   4   4   4   4   4
#     4   9  18  34  57  83 105 123 149 188 236 291
#     4   9  18  33  50  66  92 134 174 201 233 283
#     4   9  18  32  50  72  98 129 161 192 235 293
#     4  10  19  29  41  59  86 122 163 207 251 288
#     4  10  19  28  40  63  93 126 167 208 242 278
#     4   8  16  33  54  73  95 128 165 195 233 292
#     4  10  20  31  45  68  96 125 161 206 246 278
#     4   9  17  30  48  68  93 127 166 207 247 285
#
# _framework density 18.039805000000001
#
# number of rings (size 3 to 8) (size 9 to 14) (size 15 to 20)
#    0.000    2.750    0.000    3.375    0.000    5.500 
#    0.000    3.125    0.000    0.750    0.000    0.000 
#    0.000    0.000    0.000    0.000    0.000    0.000 
#
# Total GULP energy -178256.086012 kJ/mol
# GULP energy per Si atom -5570.502688 kJ/mol
# Density = 1.799875 g / cm^3
# Si number density = 18.039805 Si / 1000 Ang^3
#
#
#
# Elastic Constant Matrix: (Units=GPa)
#
#
# Indices 1 2 3 4 5 6 
#
# 1 126.2106 29.4924 45.6222 0.0000 20.4862 0.0000
# 2 29.4924 26.2261 20.0819 0.0000 3.1916 0.0000
# 3 45.6222 20.0819 42.8317 0.0000 8.3006 0.0000
# 4 0.0000 0.0000 0.0000 22.3384 0.0000 -6.4385
# 5 20.4862 3.1916 8.3006 0.0000 30.2850 0.0000
# 6 0.0000 0.0000 0.0000 -6.4385 0.0000 16.5868
#
#
#
# Elastic Compliance Matrix: (Units=1/GPa)
#
#
# Indices 1 2 3 4 5 6 
#
# 1 0.014556 -0.007269 -0.010916 0.000000 -0.006088 0.000000
# 2 -0.007269 0.063177 -0.022749 0.000000 0.004494 0.000000
# 3 -0.010916 -0.022749 0.046199 0.000000 -0.002881 0.000000
# 4 0.000000 0.000000 0.000000 0.050405 0.000000 0.019566
# 5 -0.006088 0.004494 -0.002881 0.000000 0.037454 0.000000
# 6 0.000000 0.000000 0.000000 0.019566 0.000000 0.067884
#
#
# Mechanical properties :
#
#
# Convention : Reuss Voigt Hill
#
# Bulk Modulus (GPa) = 23.77397 42.85127 33.31262
# Shear Modulus (GPa) = 13.31326 20.51351 16.91338
#
# Velocity S-wave (km/s) = 2.71955 3.37579 3.06528
# Velocity P-wave (km/s) = 4.80297 6.24499 5.57083
#
# Compressibility (1/GPa) = 0.04206282
#
# Stress axis : x y z
#
# Youngs Moduli (GPa) = 68.69916 15.82860 21.64545
#
# Poissons Ratio (x) = 0.11506 0.23629
# Poissons Ratio (y) = 0.49939 0.49241
# Poissons Ratio (z) = 0.74995 0.36008
#
# Static dielectric constant tensor:
#      x y z
#    x 1.598230 0.000000 -0.020310 
#    y 0.000000 1.644810 0.000000 
#    z -0.020310 0.000000 1.606500 
# 
# From -- ./inp_files/61812.got.cif
#   From: 2010.05.17/outbox.cif.g08.bks.cpg/sg11_31_cif.got.tgz:61812.got - 2010.06.03 12:22:45.
