data_PCOD9157183
_publ_section_title
;
Structure prediction by ZEFSAII (Michael W. Deem and Ramdas Pophale) SiO2 
 PCOD9157183
Probable space group: P 21/M
;
_chemical_formula_sum "Si O2"
_cell_formula_units_Z 32
_cell_length_a 5.588008
_cell_length_b 27.951603
_cell_length_c 10.005801
_cell_angle_alpha 90.000000
_cell_angle_beta 99.934181
_cell_angle_gamma 90.000000
_cell_volume 1539.411522
_symmetry_space_group_name_H-M "P 21/M"
_symmetry_group_IT_number 11
_symmetry_cell_setting 'monoclinic'
loop_
_space_group_symop_operation_xyz
x,y,z
-x,1/2+y,-z
-x,-y,-z
x,1/2-y,z
loop_
_atom_site_type_symbol
_atom_site_label
_atom_site_fract_x
_atom_site_fract_y
_atom_site_fract_z
Si Si1 0.730710 0.932636 0.267036
Si Si2 0.626848 0.194912 0.742934
Si Si3 0.679719 0.460798 0.952972
Si Si4 0.085738 0.193503 0.442725
Si Si5 0.591310 0.148680 0.447141
Si Si6 0.401814 0.052639 0.452762
Si Si7 0.994478 0.474489 0.209284
Si Si8 0.873460 0.667033 0.238017
O O1 0.488217 0.928228 0.155083
O O2 0.689793 0.924576 0.418376
O O3 0.902934 0.890339 0.234615
O O4 0.822573 0.987070 0.265985
O O5 0.590830 0.250000 0.698054
O O6 0.623648 0.162694 0.607644
O O7 0.903169 0.189531 0.819801
O O8 0.406129 0.180576 0.818768
O O9 0.850242 0.490378 0.870570
O O10 0.500000 0.500000 0.000000
O O11 0.838597 0.442021 0.092590
O O12 0.092946 0.250000 0.417862
O O13 0.816249 0.172538 0.391174
O O14 0.113468 0.185102 0.606199
O O15 0.317333 0.168207 0.394501
O O16 0.597625 0.091526 0.423826
O O17 0.182568 0.048876 0.327850
O O18 0.500000 0.000000 0.500000
#
# Coordination Sequence:
#
# PCOD9157183 Si02
#       8
#     4   4   4   4   4   4   4   4
#     4  11  21  35  55  79 113 146 193 235 284 336
#     4  10  18  32  49  71 111 150 180 226 287 342
#     4   9  20  40  54  75  97 151 198 242 266 335
#     4  10  18  32  51  72 109 150 184 230 287 340
#     4  10  20  32  47  75 113 146 188 225 274 345
#     4  12  23  34  53  85 118 157 185 232 288 342
#     4  10  22  36  57  72 110 152 197 231 280 326
#     4  10  19  28  50  76 107 141 182 230 276 341
#
# _framework density 20.787165000000002
#
# number of rings (size 3 to 8) (size 9 to 14) (size 15 to 20)
#    0.000    1.750    3.750    4.125    5.250    1.000 
#    0.000    0.000    0.000    0.000    0.000    0.000 
#    0.000   11.000    0.000    0.000    0.000    0.000 
#
# Total GULP energy -178363.851761 kJ/mol
# GULP energy per Si atom -5573.870368 kJ/mol
# Density = 2.073985 g / cm^3
# Si number density = 20.787165 Si / 1000 Ang^3
#
#
#
# Elastic Constant Matrix: (Units=GPa)
#
#
# Indices 1 2 3 4 5 6 
#
# 1 134.3440 29.0499 15.9197 0.0000 4.5605 0.0000
# 2 29.0499 104.6694 9.8704 0.0000 16.5315 0.0000
# 3 15.9197 9.8704 61.7324 0.0000 26.8600 0.0000
# 4 0.0000 0.0000 0.0000 -3.8401 0.0000 -0.5456
# 5 4.5605 16.5315 26.8600 0.0000 27.1822 0.0000
# 6 0.0000 0.0000 0.0000 -0.5456 0.0000 34.3237
#
#
#
# Elastic Compliance Matrix: (Units=1/GPa)
#
#
# Indices 1 2 3 4 5 6 
#
# 1 0.008247 -0.002504 -0.003135 0.000000 0.003237 0.000000
# 2 -0.002504 0.011464 0.002918 0.000000 -0.009436 0.000000
# 3 -0.003135 0.002918 0.029969 0.000000 -0.030863 0.000000
# 4 0.000000 0.000000 0.000000 -0.259820 0.000000 -0.004130
# 5 0.003237 -0.009436 -0.030863 0.000000 0.072481 0.000000
# 6 0.000000 0.000000 0.000000 -0.004130 0.000000 0.029069
#
#
# Mechanical properties :
#
#
# Convention : Reuss Voigt Hill
#
# Bulk Modulus (GPa) = 22.60474 45.60287 34.10380
# Shear Modulus (GPa) = -56.55979 27.92687 -14.31646
#
# Velocity S-wave (km/s) = -5.22188 3.66931 -2.62719
# Velocity P-wave (km/s) = 5.04573 6.31960 2.69054
#
# Compressibility (1/GPa) = 0.04423851
#
# Stress axis : x y z
#
# Youngs Moduli (GPa) = 121.26057 87.22910 33.36746
#
# Poissons Ratio (x) = 0.21846 0.10460
# Poissons Ratio (y) = 0.30369 -0.09738
# Poissons Ratio (z) = 0.38012 -0.25457
#
# Static dielectric constant tensor:
#      x y z
#    x 1.896150 0.000000 0.013010 
#    y 0.000000 1.469970 0.000000 
#    z 0.013010 0.000000 1.712480 
# 
# From -- ./inp_files/30195.got.cif
#   From: 2010.05.17/outbox.cif.g08.bks.cpg/sg11_16_cif.got.tgz:30195.got - 2010.06.03 12:22:45.
