data_PCOD9157372
_publ_section_title
;
Structure prediction by ZEFSAII (Michael W. Deem and Ramdas Pophale) SiO2 
 PCOD9157372
Probable space group: P 21/M
;
_chemical_formula_sum "Si O2"
_cell_formula_units_Z 32
_cell_length_a 8.669518
_cell_length_b 18.270351
_cell_length_c 10.330601
_cell_angle_alpha 90.000000
_cell_angle_beta 125.337174
_cell_angle_gamma 90.000000
_cell_volume 1334.846012
_symmetry_space_group_name_H-M "P 21/M"
_symmetry_group_IT_number 11
_symmetry_cell_setting 'monoclinic'
loop_
_space_group_symop_operation_xyz
x,y,z
-x,1/2+y,-z
-x,-y,-z
x,1/2-y,z
loop_
_atom_site_type_symbol
_atom_site_label
_atom_site_fract_x
_atom_site_fract_y
_atom_site_fract_z
Si Si1 0.547974 0.885342 0.566223
Si Si2 0.167670 0.392851 0.649884
Si Si3 0.615710 0.663921 0.997160
Si Si4 0.504426 0.474767 0.723479
Si Si5 0.755383 0.093819 0.064586
Si Si6 0.845541 0.330564 0.609298
Si Si7 0.976479 0.665736 0.023397
Si Si8 0.932296 0.832948 0.664143
O O1 0.497317 0.915233 0.395980
O O2 0.375387 0.834405 0.520247
O O3 0.750011 0.846574 0.665125
O O4 0.543879 0.952280 0.664001
O O5 0.274134 0.349353 0.814912
O O6 0.295525 0.463191 0.682746
O O7 0.154092 0.341966 0.519173
O O8 0.953306 0.397770 0.594376
O O9 0.584999 0.750000 0.959759
O O10 0.415472 0.626644 0.931811
O O11 0.769883 0.635144 0.966899
O O12 0.648735 0.461910 0.914242
O O13 0.883911 0.136927 0.019684
O O14 0.926528 0.097308 0.251492
O O15 0.912758 0.250000 0.598804
O O16 0.899511 0.337571 0.785500
O O17 0.941279 0.750000 0.977822
O O18 0.011668 0.750000 0.716632
#
# Coordination Sequence:
#
# PCOD9157372 Si02
#       8
#     4   4   4   4   4   4   4   4
#     4  10  20  37  56  82 111 142 194 234 280 334
#     4   9  19  35  55  82 109 142 184 230 282 338
#     4   9  17  31  53  78 106 140 183 232 274 326
#     4   9  20  37  59  80 105 149 193 236 273 335
#     4  11  20  35  55  79 112 152 186 225 288 335
#     4  10  18  32  57  86 112 141 180 240 293 327
#     4   9  17  30  51  82 108 137 184 229 276 335
#     4  11  22  35  53  82 116 148 182 224 285 352
#
# _framework density 23.972804
#
# number of rings (size 3 to 8) (size 9 to 14) (size 15 to 20)
#    0.000    2.250    1.250    3.375    0.000    1.000 
#    2.250    0.000    0.000    0.750    0.000    0.000 
#    0.000    0.000    0.000    0.000    0.000    0.000 
#
# Total GULP energy -178190.104669 kJ/mol
# GULP energy per Si atom -5568.440771 kJ/mol
# Density = 2.391824 g / cm^3
# Si number density = 23.972804 Si / 1000 Ang^3
#
#
#
# Elastic Constant Matrix: (Units=GPa)
#
#
# Indices 1 2 3 4 5 6 
#
# 1 124.8641 13.1367 21.7477 0.0000 28.3862 0.0000
# 2 13.1367 41.8098 16.2131 0.0000 2.5552 0.0000
# 3 21.7477 16.2131 66.0069 0.0000 12.1390 0.0000
# 4 0.0000 0.0000 0.0000 23.0494 0.0000 0.0736
# 5 28.3862 2.5552 12.1390 0.0000 44.7282 0.0000
# 6 0.0000 0.0000 0.0000 0.0736 0.0000 15.1870
#
#
#
# Elastic Compliance Matrix: (Units=1/GPa)
#
#
# Indices 1 2 3 4 5 6 
#
# 1 0.009804 -0.002084 -0.001680 0.000000 -0.005647 0.000000
# 2 -0.002084 0.026882 -0.006186 0.000000 0.001466 0.000000
# 3 -0.001680 -0.006186 0.017853 0.000000 -0.003426 0.000000
# 4 0.000000 0.000000 0.000000 0.043386 0.000000 -0.000210
# 5 -0.005647 0.001466 -0.003426 0.000000 0.026787 0.000000
# 6 0.000000 0.000000 0.000000 -0.000210 0.000000 0.065847
#
#
# Mechanical properties :
#
#
# Convention : Reuss Voigt Hill
#
# Bulk Modulus (GPa) = 28.86865 37.20842 33.03854
# Shear Modulus (GPa) = 22.52207 28.69848 25.61027
#
# Velocity S-wave (km/s) = 3.06843 3.46371 3.27204
# Velocity P-wave (km/s) = 4.96206 5.61704 5.29968
#
# Compressibility (1/GPa) = 0.03463965
#
# Stress axis : x y z
#
# Youngs Moduli (GPa) = 101.99526 37.19987 56.01358
#
# Poissons Ratio (x) = 0.07752 0.09410
# Poissons Ratio (y) = 0.21256 0.34649
# Poissons Ratio (z) = 0.17134 0.23011
#
# Static dielectric constant tensor:
#      x y z
#    x 1.987540 0.000000 -0.041430 
#    y 0.000000 1.891340 0.000000 
#    z -0.041430 0.000000 2.003270 
# 
# From -- ./inp_files/32838.got.cif
#   From: 2010.05.17/outbox.cif.g08.bks.cpg/sg11_17_cif.got.tgz:32838.got - 2010.06.03 12:22:45.
