data_PCOD9157375
_publ_section_title
;
Structure prediction by ZEFSAII (Michael W. Deem and Ramdas Pophale) SiO2 
 PCOD9157375
Probable space group: P 21/M
;
_chemical_formula_sum "Si O2"
_cell_formula_units_Z 16
_cell_length_a 19.160385
_cell_length_b 8.652123
_cell_length_c 7.225701
_cell_angle_alpha 90.000000
_cell_angle_beta 40.261980
_cell_angle_gamma 90.000000
_cell_volume 774.158710
_symmetry_space_group_name_H-M "P 21/M"
_symmetry_group_IT_number 11
_symmetry_cell_setting 'monoclinic'
loop_
_space_group_symop_operation_xyz
x,y,z
-x,1/2+y,-z
-x,-y,-z
x,1/2-y,z
loop_
_atom_site_type_symbol
_atom_site_label
_atom_site_fract_x
_atom_site_fract_y
_atom_site_fract_z
Si Si1 0.299526 0.434680 0.675347
Si Si2 0.478841 0.065176 0.835458
Si Si3 0.887909 0.934780 0.651965
Si Si4 0.256253 0.565938 0.355179
O O1 0.311971 0.250000 0.638409
O O2 0.416888 0.505203 0.485205
O O3 0.264257 0.498984 0.546053
O O4 0.206060 0.471448 0.009627
O O5 0.476683 0.250000 0.839552
O O6 0.500000 0.000000 0.000000
O O7 0.360202 0.001019 0.034460
O O8 0.893784 0.750000 0.619511
O O9 0.849807 0.010449 0.537211
O O10 0.000000 0.000000 0.500000
O O11 0.263396 0.750000 0.347599
#
# Coordination Sequence:
#
# PCOD9157375 Si02
#       4
#     4   4   4   4
#     4  10  21  39  62  88 119 154 193 239 291 346
#     4  10  18  32  57  88 121 153 189 235 287 347
#     4  11  25  43  62  85 115 153 199 247 290 341
#     4  11  22  38  62  89 120 156 192 237 291 347
#
# _framework density 20.667597000000001
#
# number of rings (size 3 to 8) (size 9 to 14) (size 15 to 20)
#    0.000    1.500    0.000    9.000    0.000    6.000 
#    0.000    0.000    0.000    0.000    0.000    0.000 
#    0.000    0.000    0.000    0.000    0.000    0.000 
#
# Total GULP energy -89487.229241 kJ/mol
# GULP energy per Si atom -5592.951828 kJ/mol
# Density = 2.062056 g / cm^3
# Si number density = 20.667597 Si / 1000 Ang^3
#
#
#
# Elastic Constant Matrix: (Units=GPa)
#
#
# Indices 1 2 3 4 5 6 
#
# 1 104.0356 15.0526 22.4999 0.0000 -21.4996 0.0000
# 2 15.0526 90.8709 34.6802 0.0000 -2.1006 0.0000
# 3 22.4999 34.6802 57.8716 0.0000 -9.2741 0.0000
# 4 0.0000 0.0000 0.0000 32.4382 0.0000 -11.9105
# 5 -21.4996 -2.1006 -9.2741 0.0000 38.1970 0.0000
# 6 0.0000 0.0000 0.0000 -11.9105 0.0000 24.4444
#
#
#
# Elastic Compliance Matrix: (Units=1/GPa)
#
#
# Indices 1 2 3 4 5 6 
#
# 1 0.011572 -0.000540 -0.003264 0.000000 0.005691 0.000000
# 2 -0.000540 0.014359 -0.008654 0.000000 -0.001615 0.000000
# 3 -0.003264 -0.008654 0.024310 0.000000 0.003589 0.000000
# 4 0.000000 0.000000 0.000000 0.037545 0.000000 0.018294
# 5 0.005691 -0.001615 0.003589 0.000000 0.030166 0.000000
# 6 0.000000 0.000000 0.000000 0.018294 0.000000 0.049823
#
#
# Mechanical properties :
#
#
# Convention : Reuss Voigt Hill
#
# Bulk Modulus (GPa) = 39.48439 44.13817 41.81128
# Shear Modulus (GPa) = 24.85928 31.05229 27.95578
#
# Velocity S-wave (km/s) = 3.47192 3.88037 3.68181
# Velocity P-wave (km/s) = 5.93450 6.44041 6.19262
#
# Compressibility (1/GPa) = 0.02532647
#
# Stress axis : x y z
#
# Youngs Moduli (GPa) = 86.41406 69.64057 41.13584
#
# Poissons Ratio (x) = 0.03759 0.13425
# Poissons Ratio (y) = 0.04665 0.35599
# Poissons Ratio (z) = 0.28202 0.60267
#
# Static dielectric constant tensor:
#      x y z
#    x 1.687400 0.000000 0.002180 
#    y 0.000000 1.683010 0.000000 
#    z 0.002180 0.000000 1.755120 
# 
# From -- ./inp_files/15556.got.cif
#   From: 2010.05.17/outbox.cif.g08.bks.cpg/sg11_8_cif.got.tgz:15556.got - 2010.06.03 12:22:45.
