data_PCOD9157243
_publ_section_title
;
Structure prediction by ZEFSAII (Michael W. Deem and Ramdas Pophale) SiO2 
 PCOD9157243
Probable space group: P 21/M
;
_chemical_formula_sum "Si O2"
_cell_formula_units_Z 28
_cell_length_a 12.856675
_cell_length_b 8.640904
_cell_length_c 15.582792
_cell_angle_alpha 90.000000
_cell_angle_beta 105.857831
_cell_angle_gamma 90.000000
_cell_volume 1665.261010
_symmetry_space_group_name_H-M "P 21/M"
_symmetry_group_IT_number 11
_symmetry_cell_setting 'monoclinic'
loop_
_space_group_symop_operation_xyz
x,y,z
-x,1/2+y,-z
-x,-y,-z
x,1/2-y,z
loop_
_atom_site_type_symbol
_atom_site_label
_atom_site_fract_x
_atom_site_fract_y
_atom_site_fract_z
Si Si1 0.250689 0.064428 0.590714
Si Si2 0.895038 0.938590 0.285170
Si Si3 0.135232 0.936720 0.397982
Si Si4 0.846557 0.436369 0.905678
Si Si5 0.302475 0.936777 0.282437
Si Si6 0.482091 0.933939 0.591557
Si Si7 0.911147 0.563384 0.095929
O O1 0.258122 0.250000 0.592751
O O2 0.194417 0.012193 0.666442
O O3 0.175635 0.012453 0.494585
O O4 0.368932 0.995400 0.602286
O O5 0.895387 0.750000 0.284128
O O6 0.878000 0.989678 0.183324
O O7 0.014551 0.984848 0.344089
O O8 0.135992 0.750000 0.407932
O O9 0.219190 0.974626 0.340746
O O10 0.845587 0.250000 0.908163
O O11 0.753127 0.485929 0.819209
O O12 0.963716 0.482733 0.893297
O O13 0.842573 0.500045 0.000976
O O14 0.314023 0.750000 0.284313
O O15 0.417053 0.011680 0.328580
O O16 0.478594 0.750000 0.585215
O O17 0.500000 0.000000 0.500000
O O18 0.907603 0.750000 0.093237
#
# Coordination Sequence:
#
# PCOD9157243 Si02
#       7
#     4   4   4   4   4   4   4
#     4  11  22  35  52  76 106 140 180 217 255 308
#     4   9  18  33  53  77 107 144 177 209 257 313
#     4  10  18  32  53  76 106 142 174 209 257 309
#     4   9  17  30  50  78 107 136 167 207 259 308
#     4  10  19  33  55  78 106 139 171 210 261 310
#     4  12  24  38  55  75 102 135 177 221 262 304
#     4   9  16  30  51  75 105 139 171 205 250 307
#
# _framework density 16.814181000000001
#
# number of rings (size 3 to 8) (size 9 to 14) (size 15 to 20)
#    0.000    2.000    2.857    2.143    0.000    0.571 
#    0.000    2.857    0.000    0.857    0.000    0.000 
#    0.000    0.000    0.000    0.000    0.000    0.000 
#
# Total GULP energy -156271.434855 kJ/mol
# GULP energy per Si atom -5581.122673 kJ/mol
# Density = 1.677591 g / cm^3
# Si number density = 16.814181 Si / 1000 Ang^3
#
#
#
# Elastic Constant Matrix: (Units=GPa)
#
#
# Indices 1 2 3 4 5 6 
#
# 1 108.2506 28.9393 85.3077 0.0000 -16.8034 0.0000
# 2 28.9393 30.0615 40.3524 0.0000 -4.2502 0.0000
# 3 85.3077 40.3524 183.7701 0.0000 -6.5965 0.0000
# 4 0.0000 0.0000 0.0000 29.1613 0.0000 4.2568
# 5 -16.8034 -4.2502 -6.5965 0.0000 21.7434 0.0000
# 6 0.0000 0.0000 0.0000 4.2568 0.0000 18.6576
#
#
#
# Elastic Compliance Matrix: (Units=1/GPa)
#
#
# Indices 1 2 3 4 5 6 
#
# 1 0.017709 -0.007154 -0.006277 0.000000 0.010383 0.000000
# 2 -0.007154 0.050884 -0.007778 0.000000 0.002058 0.000000
# 3 -0.006277 -0.007778 0.009943 0.000000 -0.003355 0.000000
# 4 0.000000 0.000000 0.000000 0.035473 0.000000 -0.008093
# 5 0.010383 0.002058 -0.003355 0.000000 0.053399 0.000000
# 6 0.000000 0.000000 0.000000 -0.008093 0.000000 0.055444
#
#
# Mechanical properties :
#
#
# Convention : Reuss Voigt Hill
#
# Bulk Modulus (GPa) = 27.68760 70.14233 48.91497
# Shear Modulus (GPa) = 18.03035 25.07797 21.55416
#
# Velocity S-wave (km/s) = 3.27820 3.86615 3.58425
# Velocity P-wave (km/s) = 5.55260 7.85724 6.80322
#
# Compressibility (1/GPa) = 0.03611725
#
# Stress axis : x y z
#
# Youngs Moduli (GPa) = 56.46982 19.65245 100.57379
#
# Poissons Ratio (x) = 0.14059 0.63129
# Poissons Ratio (y) = 0.40398 0.78230
# Poissons Ratio (z) = 0.35446 0.15286
#
# Static dielectric constant tensor:
#      x y z
#    x 1.548610 0.000000 -0.006620 
#    y 0.000000 1.572770 0.000000 
#    z -0.006620 0.000000 1.563550 
# 
# From -- ./inp_files/48925.got.cif
#   From: 2010.05.17/outbox.cif.g08.bks.cpg/sg11_25_cif.got.tgz:48925.got - 2010.06.03 12:22:45.
