data_PCOD9157705
_publ_section_title
;
Structure prediction by ZEFSAII (Michael W. Deem and Ramdas Pophale) SiO2 
 PCOD9157705
Probable space group: P 21/M
;
_chemical_formula_sum "Si O2"
_cell_formula_units_Z 16
_cell_length_a 6.384161
_cell_length_b 16.825383
_cell_length_c 6.901397
_cell_angle_alpha 90.000000
_cell_angle_beta 47.244104
_cell_angle_gamma 90.000000
_cell_volume 544.316282
_symmetry_space_group_name_H-M "P 21/M"
_symmetry_group_IT_number 11
_symmetry_cell_setting 'monoclinic'
loop_
_space_group_symop_operation_xyz
x,y,z
-x,1/2+y,-z
-x,-y,-z
x,1/2-y,z
loop_
_atom_site_type_symbol
_atom_site_label
_atom_site_fract_x
_atom_site_fract_y
_atom_site_fract_z
Si Si1 0.512841 0.750000 0.978769
Si Si2 0.188559 0.750000 0.588987
Si Si3 0.157368 0.494508 0.694464
Si Si4 0.687100 0.660320 0.331013
Si Si5 0.341938 0.414507 0.084045
O O1 0.508015 0.840684 0.897809
O O2 0.856378 0.750000 0.803755
O O3 0.301522 0.750000 0.296069
O O4 0.354631 0.677323 0.586720
O O5 0.500000 0.500000 0.500000
O O6 0.139857 0.401306 0.650199
O O7 0.984150 0.556831 0.674349
O O8 0.000000 0.500000 0.000000
O O9 0.812081 0.750000 0.254595
O O10 0.665725 0.622188 0.129440
O O11 0.500000 0.500000 0.000000
#
# Coordination Sequence:
#
# PCOD9157705 Si02
#       5
#     2   2   4   4   4
#     4  10  18  36  51  80 111 156 180 230 288 356
#     4   8  16  30  57  74 105 150 192 218 288 338
#     4  10  20  37  59  89 113 151 201 241 290 354
#     4   8  17  36  57  83 114 158 193 239 291 352
#     4  10  20  36  61  89 121 156 196 247 298 355
#
# _framework density 29.394673000000001
#
# number of rings (size 3 to 8) (size 9 to 14) (size 15 to 20)
#    0.750    2.000    1.250    1.500    0.000    0.000 
#    2.250   20.000    0.000    0.000    0.000    0.000 
#    0.000    0.000    0.000    0.000    0.000    0.000 
#
# Total GULP energy -89148.721634 kJ/mol
# GULP energy per Si atom -5571.795102 kJ/mol
# Density = 2.932777 g / cm^3
# Si number density = 29.394673 Si / 1000 Ang^3
#
#
#
# Elastic Constant Matrix: (Units=GPa)
#
#
# Indices 1 2 3 4 5 6 
#
# 1 120.3997 60.7682 53.3690 0.0000 16.7596 0.0000
# 2 60.7682 287.8793 46.0418 0.0000 -27.8872 0.0000
# 3 53.3690 46.0418 165.7143 0.0000 -20.4130 0.0000
# 4 0.0000 0.0000 0.0000 64.7761 0.0000 -22.6271
# 5 16.7596 -27.8872 -20.4130 0.0000 43.9633 0.0000
# 6 0.0000 0.0000 0.0000 -22.6271 0.0000 55.0170
#
#
#
# Elastic Compliance Matrix: (Units=1/GPa)
#
#
# Indices 1 2 3 4 5 6 
#
# 1 0.012971 -0.002881 -0.004467 0.000000 -0.008846 0.000000
# 2 -0.002881 0.004439 0.000187 0.000000 0.004001 0.000000
# 3 -0.004467 0.000187 0.008109 0.000000 0.005587 0.000000
# 4 0.000000 0.000000 0.000000 0.018028 0.000000 0.007414
# 5 -0.008846 0.004001 0.005587 0.000000 0.031250 0.000000
# 6 0.000000 0.000000 0.000000 0.007414 0.000000 0.021226
#
#
# Mechanical properties :
#
#
# Convention : Reuss Voigt Hill
#
# Bulk Modulus (GPa) = 89.29175 99.37238 94.33207
# Shear Modulus (GPa) = 43.83042 60.33892 52.08467
#
# Velocity S-wave (km/s) = 3.86567 4.53561 4.21397
# Velocity P-wave (km/s) = 7.09699 7.82998 7.47248
#
# Compressibility (1/GPa) = 0.01119924
#
# Stress axis : x y z
#
# Youngs Moduli (GPa) = 77.09658 225.25658 123.31726
#
# Poissons Ratio (x) = 0.64886 0.55081
# Poissons Ratio (y) = 0.22208 -0.02307
# Poissons Ratio (z) = 0.34436 -0.04215
#
# Static dielectric constant tensor:
#      x y z
#    x 2.477300 0.000000 0.064570 
#    y 0.000000 2.718390 0.000000 
#    z 0.064570 0.000000 2.343320 
# 
# From -- ./inp_files/32017.got.cif
#   From: 2010.05.17/outbox.cif.g08.bks.cpg/sg11_17_cif.got.tgz:32017.got - 2010.06.03 12:22:45.
