data_PCOD9157358
_publ_section_title
;
Structure prediction by ZEFSAII (Michael W. Deem and Ramdas Pophale) SiO2 
 PCOD9157358
Probable space group: P 21/M
;
_chemical_formula_sum "Si O2"
_cell_formula_units_Z 24
_cell_length_a 16.788939
_cell_length_b 8.017889
_cell_length_c 7.264689
_cell_angle_alpha 90.000000
_cell_angle_beta 101.584281
_cell_angle_gamma 90.000000
_cell_volume 957.993499
_symmetry_space_group_name_H-M "P 21/M"
_symmetry_group_IT_number 11
_symmetry_cell_setting 'monoclinic'
loop_
_space_group_symop_operation_xyz
x,y,z
-x,1/2+y,-z
-x,-y,-z
x,1/2-y,z
loop_
_atom_site_type_symbol
_atom_site_label
_atom_site_fract_x
_atom_site_fract_y
_atom_site_fract_z
Si Si1 0.818942 0.063129 0.021188
Si Si2 0.059907 0.437837 0.184391
Si Si3 0.479676 0.951078 0.702148
Si Si4 0.870058 0.553435 0.422773
Si Si5 0.650978 0.550058 0.869437
Si Si6 0.307176 0.951698 0.532944
O O1 0.828698 0.250000 0.956022
O O2 0.871242 0.036667 0.228512
O O3 0.853149 0.945252 0.878722
O O4 0.724621 0.028974 0.017474
O O5 0.037405 0.250000 0.212573
O O6 0.073119 0.519962 0.389254
O O7 0.000000 0.500000 0.000000
O O8 0.479123 0.750000 0.712724
O O9 0.558022 0.010795 0.854347
O O10 0.386980 0.008622 0.685950
O O11 0.500000 0.000000 0.500000
O O12 0.885590 0.750000 0.400902
O O13 0.777153 0.532534 0.447728
O O14 0.653610 0.750000 0.889628
O O15 0.673177 0.499652 0.669208
O O16 0.299536 0.750000 0.542113
#
# Coordination Sequence:
#
# PCOD9157358 Si02
#       6
#     4   4   4   4   4   4
#     4  12  25  41  65  95 128 165 209 259 310 367
#     4  11  25  46  72  98 127 161 201 249 309 376
#     4   8  16  28  48  80 117 159 207 257 305 359
#     4  11  24  42  65  93 127 167 208 253 309 370
#     4  10  18  33  56  84 122 166 210 256 310 367
#     4  10  18  32  56  87 122 162 210 259 309 364
#
# _framework density 25.052363
#
# number of rings (size 3 to 8) (size 9 to 14) (size 15 to 20)
#    0.000    1.667    1.667    3.500    0.000    4.000 
#    0.000    0.833    0.000    0.000    0.000    0.000 
#    0.000    0.000    0.000    0.000    0.000    0.000 
#
# Total GULP energy -134230.363852 kJ/mol
# GULP energy per Si atom -5592.931827 kJ/mol
# Density = 2.499534 g / cm^3
# Si number density = 25.052363 Si / 1000 Ang^3
#
#
#
# Elastic Constant Matrix: (Units=GPa)
#
#
# Indices 1 2 3 4 5 6 
#
# 1 93.2393 -0.8034 30.1378 0.0000 10.0581 0.0000
# 2 -0.8034 70.2109 4.5654 0.0000 13.3407 0.0000
# 3 30.1378 4.5654 147.3480 0.0000 32.7595 0.0000
# 4 0.0000 0.0000 0.0000 25.4207 0.0000 6.2623
# 5 10.0581 13.3407 32.7595 0.0000 48.3743 0.0000
# 6 0.0000 0.0000 0.0000 6.2623 0.0000 25.9438
#
#
#
# Elastic Compliance Matrix: (Units=1/GPa)
#
#
# Indices 1 2 3 4 5 6 
#
# 1 0.011536 0.000477 -0.002133 0.000000 -0.001086 0.000000
# 2 0.000477 0.015086 0.000450 0.000000 -0.004564 0.000000
# 3 -0.002133 0.000450 0.008403 0.000000 -0.005371 0.000000
# 4 0.000000 0.000000 0.000000 0.041825 0.000000 -0.010096
# 5 -0.001086 -0.004564 -0.005371 0.000000 0.025794 0.000000
# 6 0.000000 0.000000 0.000000 -0.010096 0.000000 0.040982
#
#
# Mechanical properties :
#
#
# Convention : Reuss Voigt Hill
#
# Bulk Modulus (GPa) = 30.66269 42.06643 36.36456
# Shear Modulus (GPa) = 31.86556 38.40765 35.13661
#
# Velocity S-wave (km/s) = 3.57032 3.91972 3.74910
# Velocity P-wave (km/s) = 5.40946 6.10848 5.76957
#
# Compressibility (1/GPa) = 0.03261293
#
# Stress axis : x y z
#
# Youngs Moduli (GPa) = 86.68718 66.28542 119.00324
#
# Poissons Ratio (x) = -0.03162 0.25382
# Poissons Ratio (y) = -0.04135 -0.05352
# Poissons Ratio (z) = 0.18489 -0.02981
#
# Static dielectric constant tensor:
#      x y z
#    x 2.039910 0.000000 0.048220 
#    y 0.000000 1.879400 0.000000 
#    z 0.048220 0.000000 2.051870 
# 
# From -- ./inp_files/25604.got.cif
#   From: 2010.05.17/outbox.cif.g08.bks.cpg/sg11_13_cif.got.tgz:25604.got - 2010.06.03 12:22:45.
