data_PCOD9157545
_publ_section_title
;
Structure prediction by ZEFSAII (Michael W. Deem and Ramdas Pophale) SiO2 
 PCOD9157545
Probable space group: P 21/M
;
_chemical_formula_sum "Si O2"
_cell_formula_units_Z 32
_cell_length_a 13.341207
_cell_length_b 13.803576
_cell_length_c 14.078681
_cell_angle_alpha 90.000000
_cell_angle_beta 45.684782
_cell_angle_gamma 90.000000
_cell_volume 1855.080303
_symmetry_space_group_name_H-M "P 21/M"
_symmetry_group_IT_number 11
_symmetry_cell_setting 'monoclinic'
loop_
_space_group_symop_operation_xyz
x,y,z
-x,1/2+y,-z
-x,-y,-z
x,1/2-y,z
loop_
_atom_site_type_symbol
_atom_site_label
_atom_site_fract_x
_atom_site_fract_y
_atom_site_fract_z
Si Si1 0.606627 0.490746 0.132912
Si Si2 0.043565 0.002865 0.741408
Si Si3 0.215200 0.361715 0.506340
Si Si4 0.368361 0.361003 0.208581
Si Si5 0.501598 0.060447 0.402026
Si Si6 0.208730 0.642938 0.744659
Si Si7 0.119627 0.863972 0.011911
Si Si8 0.223960 0.136592 0.099375
O O1 0.488634 0.439783 0.146773
O O2 0.543933 0.501649 0.280412
O O3 0.734992 0.414720 0.054648
O O4 0.669884 0.587838 0.046260
O O5 0.171479 0.938305 0.694070
O O6 0.915784 0.928915 0.809204
O O7 0.093915 0.065764 0.619180
O O8 0.998666 0.078036 0.853482
O O9 0.176989 0.250000 0.549257
O O10 0.258860 0.372284 0.367589
O O11 0.355605 0.388089 0.473309
O O12 0.424299 0.250000 0.179881
O O13 0.294959 0.370609 0.155882
O O14 0.630789 0.134465 0.328761
O O15 0.500000 0.000000 0.500000
O O16 0.180652 0.750000 0.726026
O O17 0.114148 0.626547 0.901305
O O18 0.118872 0.750000 0.034539
O O19 0.196327 0.250000 0.097496
#
# Coordination Sequence:
#
# PCOD9157545 Si02
#       8
#     4   4   4   4   4   4   4   4
#     4   9  18  32  57  78 100 129 168 214 256 304
#     4  11  20  32  50  71 105 138 170 209 251 304
#     4  10  20  34  54  78 102 132 174 218 257 302
#     4   9  18  34  57  79 101 131 170 216 264 306
#     4  10  18  34  54  76 103 129 164 208 258 302
#     4  10  19  32  50  69  97 136 171 202 246 305
#     4   9  18  31  49  74  99 128 169 212 251 294
#     4  10  21  36  52  75 105 138 174 212 257 308
#
# _framework density 17.249928000000001
#
# number of rings (size 3 to 8) (size 9 to 14) (size 15 to 20)
#    0.000    2.250    1.250    2.250    0.000    3.500 
#    0.000    1.250    0.000    0.750    0.000    0.000 
#    0.000    0.000    0.000    0.000    0.000    0.000 
#
# Total GULP energy -178390.931177 kJ/mol
# GULP energy per Si atom -5574.716599 kJ/mol
# Density = 1.721067 g / cm^3
# Si number density = 17.249928 Si / 1000 Ang^3
#
#
#
# Elastic Constant Matrix: (Units=GPa)
#
#
# Indices 1 2 3 4 5 6 
#
# 1 37.7451 30.6793 16.3630 0.0000 7.2818 0.0000
# 2 30.6793 118.9930 50.8406 0.0000 8.3123 0.0000
# 3 16.3630 50.8406 60.3090 0.0000 0.4404 0.0000
# 4 0.0000 0.0000 0.0000 25.7419 0.0000 1.8435
# 5 7.2818 8.3123 0.4404 0.0000 20.1297 0.0000
# 6 0.0000 0.0000 0.0000 1.8435 0.0000 21.6748
#
#
#
# Elastic Compliance Matrix: (Units=1/GPa)
#
#
# Indices 1 2 3 4 5 6 
#
# 1 0.035652 -0.006866 -0.003812 0.000000 -0.009978 0.000000
# 2 -0.006866 0.015021 -0.010774 0.000000 -0.003483 0.000000
# 3 -0.003812 -0.010774 0.026660 0.000000 0.005245 0.000000
# 4 0.000000 0.000000 0.000000 0.039085 0.000000 -0.003324
# 5 -0.009978 -0.003483 0.005245 0.000000 0.054611 0.000000
# 6 0.000000 0.000000 0.000000 -0.003324 0.000000 0.046419
#
#
# Mechanical properties :
#
#
# Convention : Reuss Voigt Hill
#
# Bulk Modulus (GPa) = 29.04624 45.86808 37.45716
# Shear Modulus (GPa) = 18.39396 21.45357 19.92377
#
# Velocity S-wave (km/s) = 3.26900 3.53043 3.40222
# Velocity P-wave (km/s) = 5.57884 6.57773 6.09877
#
# Compressibility (1/GPa) = 0.03442787
#
# Stress axis : x y z
#
# Youngs Moduli (GPa) = 28.04900 66.57447 37.50960
#
# Poissons Ratio (x) = 0.45711 0.14299
# Poissons Ratio (y) = 0.19259 0.40413
# Poissons Ratio (z) = 0.10692 0.71728
#
# Static dielectric constant tensor:
#      x y z
#    x 1.571950 0.000000 -0.007990 
#    y 0.000000 1.572730 0.000000 
#    z -0.007990 0.000000 1.593250 
# 
# From -- ./inp_files/43154.got.cif
#   From: 2010.05.17/outbox.cif.g08.bks.cpg/sg11_22_cif.got.tgz:43154.got - 2010.06.03 12:22:45.
