data_PCOD9157122
_publ_section_title
;
Structure prediction by ZEFSAII (Michael W. Deem and Ramdas Pophale) SiO2 
 PCOD9157122
Probable space group: P 21/M
;
_chemical_formula_sum "Si O2"
_cell_formula_units_Z 32
_cell_length_a 20.452649
_cell_length_b 8.949117
_cell_length_c 12.356205
_cell_angle_alpha 90.000000
_cell_angle_beta 127.897731
_cell_angle_gamma 90.000000
_cell_volume 1784.643723
_symmetry_space_group_name_H-M "P 21/M"
_symmetry_group_IT_number 11
_symmetry_cell_setting 'monoclinic'
loop_
_space_group_symop_operation_xyz
x,y,z
-x,1/2+y,-z
-x,-y,-z
x,1/2-y,z
loop_
_atom_site_type_symbol
_atom_site_label
_atom_site_fract_x
_atom_site_fract_y
_atom_site_fract_z
Si Si1 0.544228 0.073849 0.875384
Si Si2 0.804881 0.570748 0.097524
Si Si3 0.372156 0.928005 0.678605
Si Si4 0.958858 0.570808 0.119018
Si Si5 0.336429 0.927742 0.197453
Si Si6 0.692120 0.570759 0.604009
Si Si7 0.706804 0.071280 0.182762
Si Si8 0.884091 0.570928 0.808746
O O1 0.524176 0.250000 0.866235
O O2 0.582881 0.048891 0.795349
O O3 0.463387 0.976042 0.810005
O O4 0.619650 0.039387 0.033263
O O5 0.798064 0.750000 0.085452
O O6 0.897131 0.527986 0.152949
O O7 0.777117 0.511839 0.186254
O O8 0.740063 0.501102 0.945641
O O9 0.368887 0.750000 0.660931
O O10 0.306844 0.969521 0.706407
O O11 0.353202 0.010734 0.547915
O O12 0.967357 0.750000 0.127948
O O13 0.049194 0.498853 0.204724
O O14 0.912688 0.528187 0.959498
O O15 0.322690 0.750000 0.191194
O O16 0.342654 0.000185 0.321210
O O17 0.687124 0.750000 0.605130
O O18 0.789249 0.526535 0.695136
O O19 0.719739 0.250000 0.187433
O O20 0.888677 0.750000 0.806578
#
# Coordination Sequence:
#
# PCOD9157122 Si02
#       8
#     4   4   4   4   4   4   4   4
#     4   9  19  36  56  78 103 132 170 219 267 310
#     4  10  18  31  53  81 110 137 170 213 261 310
#     4  11  23  37  54  77 103 137 179 219 262 311
#     4   9  17  30  49  78 109 134 167 208 253 305
#     4  10  20  34  53  78 107 139 174 212 261 312
#     4  11  22  37  54  74 107 143 177 215 255 313
#     4   9  20  37  55  78 106 134 174 222 262 307
#     4   9  18  32  49  74 106 138 170 207 252 304
#
# _framework density 17.930748999999999
#
# number of rings (size 3 to 8) (size 9 to 14) (size 15 to 20)
#    0.000    2.250    1.250    2.625    0.000    6.000 
#    0.000    0.000    0.000    0.750    0.000    0.000 
#    0.000    0.000    0.000    0.000    0.000    0.000 
#
# Total GULP energy -178566.501502 kJ/mol
# GULP energy per Si atom -5580.203172 kJ/mol
# Density = 1.788994 g / cm^3
# Si number density = 17.930749 Si / 1000 Ang^3
#
#
#
# Elastic Constant Matrix: (Units=GPa)
#
#
# Indices 1 2 3 4 5 6 
#
# 1 92.4173 35.7347 7.0016 0.0000 -17.6775 0.0000
# 2 35.7347 38.5623 8.6093 0.0000 -9.7054 0.0000
# 3 7.0016 8.6093 16.3192 0.0000 -16.3225 0.0000
# 4 0.0000 0.0000 0.0000 18.0942 0.0000 2.3898
# 5 -17.6775 -9.7054 -16.3225 0.0000 26.2849 0.0000
# 6 0.0000 0.0000 0.0000 2.3898 0.0000 33.0463
#
#
#
# Elastic Compliance Matrix: (Units=1/GPa)
#
#
# Indices 1 2 3 4 5 6 
#
# 1 0.020054 -0.018260 0.020521 0.000000 0.019488 0.000000
# 2 -0.018260 0.046125 -0.031005 0.000000 -0.014503 0.000000
# 3 0.020521 -0.031005 0.187872 0.000000 0.119018 0.000000
# 4 0.000000 0.000000 0.000000 0.055799 0.000000 -0.004035
# 5 0.019488 -0.014503 0.119018 0.000000 0.119704 0.000000
# 6 0.000000 0.000000 0.000000 -0.004035 0.000000 0.030552
#
#
# Mechanical properties :
#
#
# Convention : Reuss Voigt Hill
#
# Bulk Modulus (GPa) = 5.08744 27.77667 16.43206
# Shear Modulus (GPa) = 8.57460 21.88195 15.22827
#
# Velocity S-wave (km/s) = 2.18916 3.49715 2.91741
# Velocity P-wave (km/s) = 3.03864 5.64194 4.53127
#
# Compressibility (1/GPa) = 0.19656238
#
# Stress axis : x y z
#
# Youngs Moduli (GPa) = 49.86527 21.68000 5.32276
#
# Poissons Ratio (x) = 0.39588 -0.10923
# Poissons Ratio (y) = 0.91056 0.16503
# Poissons Ratio (z) = -1.02328 0.67220
#
# Static dielectric constant tensor:
#      x y z
#    x 1.626810 0.000000 -0.010190 
#    y 0.000000 1.594840 0.000000 
#    z -0.010190 0.000000 1.598010 
# 
# From -- ./inp_files/42872.got.cif
#   From: 2010.05.17/outbox.cif.g08.bks.cpg/sg11_22_cif.got.tgz:42872.got - 2010.06.03 12:22:45.
