data_PCOD9157210
_publ_section_title
;
Structure prediction by ZEFSAII (Michael W. Deem and Ramdas Pophale) SiO2 
 PCOD9157210
Probable space group: P 21/M
;
_chemical_formula_sum "Si O2"
_cell_formula_units_Z 28
_cell_length_a 5.051125
_cell_length_b 19.714834
_cell_length_c 13.660396
_cell_angle_alpha 90.000000
_cell_angle_beta 110.664121
_cell_angle_gamma 90.000000
_cell_volume 1272.814181
_symmetry_space_group_name_H-M "P 21/M"
_symmetry_group_IT_number 11
_symmetry_cell_setting 'monoclinic'
loop_
_space_group_symop_operation_xyz
x,y,z
-x,1/2+y,-z
-x,-y,-z
x,1/2-y,z
loop_
_atom_site_type_symbol
_atom_site_label
_atom_site_fract_x
_atom_site_fract_y
_atom_site_fract_z
Si Si1 0.869804 0.828454 0.353674
Si Si2 0.282802 0.026382 0.183492
Si Si3 0.933914 0.630062 0.578065
Si Si4 0.568180 0.448182 0.425005
Si Si5 0.515506 0.250000 0.044084
Si Si6 0.109006 0.750000 0.086824
Si Si7 0.774929 0.382531 0.175992
Si Si8 0.763190 0.121312 0.768606
O O1 0.876718 0.750000 0.321212
O O2 0.563700 0.861335 0.294933
O O3 0.932815 0.827172 0.478304
O O4 0.081914 0.874235 0.316616
O O5 0.410009 0.025436 0.309172
O O6 0.533929 0.059775 0.154604
O O7 0.027584 0.079819 0.152463
O O8 0.200046 0.947687 0.163677
O O9 0.109468 0.565095 0.560666
O O10 0.107454 0.642558 0.701541
O O11 0.609883 0.618747 0.567680
O O12 0.500000 0.500000 0.500000
O O13 0.649183 0.317229 0.107743
O O14 0.612058 0.250000 0.943817
O O15 0.178907 0.250000 0.012891
O O16 0.112114 0.683056 0.152669
#
# Coordination Sequence:
#
# PCOD9157210 Si02
#       8
#     4   4   4   4   2   2   4   4
#     4  12  22  37  60  95 133 175 216 254 312 373
#     4  10  21  39  65  93 132 167 210 264 320 367
#     4  10  21  33  56  88 129 163 205 251 294 369
#     4  10  18  32  51  84 125 171 209 237 295 363
#     4  12  26  48  74  88 128 160 214 274 328 398
#     4  12  26  48  68  96 116 174 212 264 340 384
#     4  10  23  43  65 100 127 169 213 261 323 380
#     4  12  24  44  65  95 134 168 214 270 307 385
#
# _framework density 21.998495999999999
#
# number of rings (size 3 to 8) (size 9 to 14) (size 15 to 20)
#    0.000    1.143    1.429    5.571    1.000    2.286 
#    0.000    4.286    0.000    0.000    0.000    0.000 
#    0.000    0.000    0.000    0.000    0.000    0.000 
#
# Total GULP energy -156326.093641 kJ/mol
# GULP energy per Si atom -5583.074773 kJ/mol
# Density = 2.194843 g / cm^3
# Si number density = 21.998496 Si / 1000 Ang^3
#
#
#
# Elastic Constant Matrix: (Units=GPa)
#
#
# Indices 1 2 3 4 5 6 
#
# 1 82.5686 -3.4983 -1.6210 0.0000 24.6507 0.0000
# 2 -3.4983 91.1963 21.8197 0.0000 14.9339 0.0000
# 3 -1.6210 21.8197 35.9128 0.0000 3.3238 0.0000
# 4 0.0000 0.0000 0.0000 11.8338 0.0000 2.1085
# 5 24.6507 14.9339 3.3238 0.0000 25.8303 0.0000
# 6 0.0000 0.0000 0.0000 2.1085 0.0000 17.0297
#
#
#
# Elastic Compliance Matrix: (Units=1/GPa)
#
#
# Indices 1 2 3 4 5 6 
#
# 1 0.018110 0.003820 0.000304 0.000000 -0.019530 0.000000
# 2 0.003820 0.014811 -0.007789 0.000000 -0.011206 0.000000
# 3 0.000304 -0.007789 0.032590 0.000000 0.000020 0.000000
# 4 0.000000 0.000000 0.000000 0.086410 0.000000 -0.010699
# 5 -0.019530 -0.011206 0.000020 0.000000 0.063829 0.000000
# 6 0.000000 0.000000 0.000000 -0.010699 0.000000 0.060045
#
#
# Mechanical properties :
#
#
# Convention : Reuss Voigt Hill
#
# Bulk Modulus (GPa) = 17.18798 27.00871 22.09834
# Shear Modulus (GPa) = 16.52799 23.80394 20.16596
#
# Velocity S-wave (km/s) = 2.74400 3.29305 3.03099
# Velocity P-wave (km/s) = 4.22725 5.17331 4.72402
#
# Compressibility (1/GPa) = 0.05818021
#
# Stress axis : x y z
#
# Youngs Moduli (GPa) = 55.21898 67.51929 30.68473
#
# Poissons Ratio (x) = -0.25794 -0.00933
# Poissons Ratio (y) = -0.21095 0.23900
# Poissons Ratio (z) = -0.01678 0.52590
#
# Static dielectric constant tensor:
#      x y z
#    x 1.632250 0.000000 -0.141280 
#    y 0.000000 1.787610 0.000000 
#    z -0.141280 0.000000 1.689710 
# 
# From -- ./inp_files/46106.got.cif
#   From: 2010.05.17/outbox.cif.g08.bks.cpg/sg11_24_cif.got.tgz:46106.got - 2010.06.03 12:22:45.
