data_PCOD9157997
_publ_section_title
;
Structure prediction by ZEFSAII (Michael W. Deem and Ramdas Pophale) SiO2 
 PCOD9157997
Probable space group: P 21/M
;
_chemical_formula_sum "Si O2"
_cell_formula_units_Z 32
_cell_length_a 11.596525
_cell_length_b 9.522801
_cell_length_c 22.372662
_cell_angle_alpha 90.000000
_cell_angle_beta 143.005086
_cell_angle_gamma 90.000000
_cell_volume 1486.695750
_symmetry_space_group_name_H-M "P 21/M"
_symmetry_group_IT_number 11
_symmetry_cell_setting 'monoclinic'
loop_
_space_group_symop_operation_xyz
x,y,z
-x,1/2+y,-z
-x,-y,-z
x,1/2-y,z
loop_
_atom_site_type_symbol
_atom_site_label
_atom_site_fract_x
_atom_site_fract_y
_atom_site_fract_z
Si Si1 0.718846 0.585826 0.654198
Si Si2 0.393007 0.909266 0.763046
Si Si3 0.285322 0.411084 0.826123
Si Si4 0.015825 0.590956 0.947465
Si Si5 0.579724 0.909899 0.721035
Si Si6 0.838603 0.086693 0.116698
Si Si7 0.039075 0.092545 0.458339
Si Si8 0.160345 0.910866 0.403802
O O1 0.675838 0.750000 0.622955
O O2 0.593534 0.535951 0.659065
O O3 0.716953 0.484441 0.596940
O O4 0.941705 0.585021 0.768003
O O5 0.473461 0.750000 0.804393
O O6 0.473465 0.974357 0.734377
O O7 0.166864 0.893618 0.658532
O O8 0.408210 0.005528 0.827558
O O9 0.346361 0.250000 0.856820
O O10 0.279678 0.491097 0.886925
O O11 0.062940 0.409642 0.710784
O O12 0.076842 0.750000 0.987185
O O13 0.800585 0.597631 0.832657
O O14 0.145722 0.539189 0.945855
O O15 0.000000 0.500000 0.000000
O O16 0.502198 0.750000 0.684755
O O17 0.778036 0.250000 0.093573
O O18 0.109869 0.250000 0.500917
O O19 0.000000 0.000000 0.500000
O O20 0.166943 0.004358 0.465794
O O21 0.214537 0.750000 0.436964
#
# Coordination Sequence:
#
# PCOD9157997 Si02
#       8
#     4   4   4   4   4   4   4   4
#     4   8  13  24  43  64  85 110 143 181 217 254
#     4   9  17  30  48  67  88 118 151 179 215 266
#     4   9  16  25  40  64  90 113 141 183 226 256
#     4   9  17  29  46  68  93 119 147 181 220 262
#     4   8  15  29  48  68  90 118 150 181 216 262
#     4   8  14  25  41  61  85 114 146 178 214 258
#     4  10  19  30  46  67  90 117 148 182 220 262
#     4   9  16  26  41  63  90 115 142 179 220 260
#
# _framework density 21.524242000000001
#
# number of rings (size 3 to 8) (size 9 to 14) (size 15 to 20)
#    0.000    3.250    0.000    2.625    0.000    4.000 
#    0.000    3.125    0.000    1.500    0.000    0.000 
#    0.000    0.000    0.000    0.000    0.000    0.000 
#
# Total GULP energy -178471.467061 kJ/mol
# GULP energy per Si atom -5577.233346 kJ/mol
# Density = 2.147525 g / cm^3
# Si number density = 21.524242 Si / 1000 Ang^3
#
#
#
# Elastic Constant Matrix: (Units=GPa)
#
#
# Indices 1 2 3 4 5 6 
#
# 1 182.8318 98.8783 43.7185 0.0000 -65.9582 0.0000
# 2 98.8783 145.7962 41.3146 0.0000 -55.4757 0.0000
# 3 43.7185 41.3146 46.6133 0.0000 -13.0251 0.0000
# 4 0.0000 0.0000 0.0000 9.1857 0.0000 -12.7737
# 5 -65.9582 -55.4757 -13.0251 0.0000 61.5399 0.0000
# 6 0.0000 0.0000 0.0000 -12.7737 0.0000 19.1966
#
#
#
# Elastic Compliance Matrix: (Units=1/GPa)
#
#
# Indices 1 2 3 4 5 6 
#
# 1 0.011493 -0.002933 -0.005821 0.000000 0.008443 0.000000
# 2 -0.002933 0.013933 -0.007405 0.000000 0.007849 0.000000
# 3 -0.005821 -0.007405 0.031745 0.000000 -0.006196 0.000000
# 4 0.000000 0.000000 0.000000 1.457941 0.000000 0.970134
# 5 0.008443 0.007849 -0.006196 0.000000 0.031063 0.000000
# 6 0.000000 0.000000 0.000000 0.970134 0.000000 0.697633
#
#
# Mechanical properties :
#
#
# Convention : Reuss Voigt Hill
#
# Bulk Modulus (GPa) = 40.23636 82.56267 61.39951
# Shear Modulus (GPa) = 2.18875 30.73977 16.46426
#
# Velocity S-wave (km/s) = 1.00950 3.78318 2.76871
# Velocity P-wave (km/s) = 4.48251 7.58449 6.22966
#
# Compressibility (1/GPa) = 0.02485314
#
# Stress axis : x y z
#
# Youngs Moduli (GPa) = 87.00760 71.77211 31.50113
#
# Poissons Ratio (x) = 0.21049 0.18337
# Poissons Ratio (y) = 0.25517 0.23327
# Poissons Ratio (z) = 0.50647 0.53149
#
# Static dielectric constant tensor:
#      x y z
#    x 1.797290 0.000000 0.029600 
#    y 0.000000 1.758190 0.000000 
#    z 0.029600 0.000000 1.849880 
# 
# From -- ./inp_files/42577.got.cif
#   From: 2010.05.17/outbox.cif.g08.bks.cpg/sg11_22_cif.got.tgz:42577.got - 2010.06.03 12:22:45.
