data_PCOD9157461
_publ_section_title
;
Structure prediction by ZEFSAII (Michael W. Deem and Ramdas Pophale) SiO2 
 PCOD9157461
Probable space group: P 21/M
;
_chemical_formula_sum "Si O2"
_cell_formula_units_Z 24
_cell_length_a 9.413601
_cell_length_b 15.125313
_cell_length_c 11.742244
_cell_angle_alpha 90.000000
_cell_angle_beta 122.394328
_cell_angle_gamma 90.000000
_cell_volume 1411.723657
_symmetry_space_group_name_H-M "P 21/M"
_symmetry_group_IT_number 11
_symmetry_cell_setting 'monoclinic'
loop_
_space_group_symop_operation_xyz
x,y,z
-x,1/2+y,-z
-x,-y,-z
x,1/2-y,z
loop_
_atom_site_type_symbol
_atom_site_label
_atom_site_fract_x
_atom_site_fract_y
_atom_site_fract_z
Si Si1 0.201784 0.750000 0.994493
Si Si2 0.672253 0.594114 0.722642
Si Si3 0.967549 0.603471 0.007380
Si Si4 0.802777 0.403590 0.696858
Si Si5 0.857840 0.250000 0.292351
Si Si6 0.746151 0.750000 0.577460
Si Si7 0.573704 0.250000 0.702023
Si Si8 0.698161 0.351651 0.415471
O O1 0.217810 0.750000 0.866294
O O2 0.092041 0.665021 0.986691
O O3 0.371529 0.750000 0.142190
O O4 0.781275 0.620712 0.880684
O O5 0.738200 0.500219 0.705165
O O6 0.707677 0.665307 0.639605
O O7 0.475012 0.595081 0.665667
O O8 0.000000 0.500000 0.000000
O O9 0.024819 0.618521 0.161997
O O10 0.664652 0.334742 0.684894
O O11 0.809106 0.391544 0.564444
O O12 0.793662 0.334262 0.338260
O O13 0.058375 0.250000 0.370357
O O14 0.620058 0.750000 0.416350
O O15 0.652188 0.250000 0.430228
#
# Coordination Sequence:
#
# PCOD9157461 Si02
#       8
#     2   4   4   4   2   2   2   4
#     4  10  18  34  55  73 108 152 160 215 285 305
#     4  11  18  32  59  83 103 137 186 223 259 309
#     4   9  19  30  54  87 106 128 183 229 258 306
#     4  10  18  33  56  83 109 134 174 236 268 295
#     4  10  22  36  54  72 117 147 172 212 274 336
#     4  12  19  34  52  82 103 138 187 219 250 328
#     4  10  19  32  53  81 106 131 187 222 263 309
#     4  10  20  35  52  79 108 139 175 221 266 314
#
# _framework density 17.000492999999999
#
# number of rings (size 3 to 8) (size 9 to 14) (size 15 to 20)
#    0.500    1.333    5.000    0.500    0.000    0.000 
#    0.000    2.500    0.000    9.000    0.000    0.000 
#    0.000    0.000    0.000    0.000    0.000    0.000 
#
# Total GULP energy -133641.597410 kJ/mol
# GULP energy per Si atom -5568.399892 kJ/mol
# Density = 1.696180 g / cm^3
# Si number density = 17.000493 Si / 1000 Ang^3
#
#
#
# Elastic Constant Matrix: (Units=GPa)
#
#
# Indices 1 2 3 4 5 6 
#
# 1 62.4447 16.7191 54.4926 0.0000 -9.7065 0.0000
# 2 16.7191 81.3404 20.8424 0.0000 -8.4672 0.0000
# 3 54.4926 20.8424 184.4710 0.0000 1.3261 0.0000
# 4 0.0000 0.0000 0.0000 24.1075 0.0000 3.0783
# 5 -9.7065 -8.4672 1.3261 0.0000 20.9453 0.0000
# 6 0.0000 0.0000 0.0000 3.0783 0.0000 4.8582
#
#
#
# Elastic Compliance Matrix: (Units=1/GPa)
#
#
# Indices 1 2 3 4 5 6 
#
# 1 0.024430 -0.002075 -0.007061 0.000000 0.010930 0.000000
# 2 -0.002075 0.013432 -0.000937 0.000000 0.004528 0.000000
# 3 -0.007061 -0.000937 0.007642 0.000000 -0.004135 0.000000
# 4 0.000000 0.000000 0.000000 0.045132 0.000000 -0.028597
# 5 0.010930 0.004528 -0.004135 0.000000 0.054901 0.000000
# 6 0.000000 0.000000 0.000000 -0.028597 0.000000 0.223958
#
#
# Mechanical properties :
#
#
# Convention : Reuss Voigt Hill
#
# Bulk Modulus (GPa) = 39.43363 56.92938 48.18150
# Shear Modulus (GPa) = 12.55985 25.72899 19.14442
#
# Velocity S-wave (km/s) = 2.72102 3.89450 3.35940
# Velocity P-wave (km/s) = 5.75481 7.33365 6.59167
#
# Compressibility (1/GPa) = 0.02535907
#
# Stress axis : x y z
#
# Youngs Moduli (GPa) = 40.93281 74.44940 130.85039
#
# Poissons Ratio (x) = 0.15445 0.92392
# Poissons Ratio (y) = 0.08492 0.12265
# Poissons Ratio (z) = 0.28902 0.06978
#
# Static dielectric constant tensor:
#      x y z
#    x 1.535880 0.000000 0.012720 
#    y 0.000000 1.581960 0.000000 
#    z 0.012720 0.000000 1.629180 
# 
# From -- ./inp_files/32124.got.cif
#   From: 2010.05.17/outbox.cif.g08.bks.cpg/sg11_17_cif.got.tgz:32124.got - 2010.06.03 12:22:45.
