data_PCOD9157870
_publ_section_title
;
Structure prediction by ZEFSAII (Michael W. Deem and Ramdas Pophale) SiO2 
 PCOD9157870
Probable space group: P 21/M
;
_chemical_formula_sum "Si O2"
_cell_formula_units_Z 32
_cell_length_a 11.282446
_cell_length_b 10.040414
_cell_length_c 17.270672
_cell_angle_alpha 90.000000
_cell_angle_beta 85.305265
_cell_angle_gamma 90.000000
_cell_volume 1949.865138
_symmetry_space_group_name_H-M "P 21/M"
_symmetry_group_IT_number 11
_symmetry_cell_setting 'monoclinic'
loop_
_space_group_symop_operation_xyz
x,y,z
-x,1/2+y,-z
-x,-y,-z
x,1/2-y,z
loop_
_atom_site_type_symbol
_atom_site_label
_atom_site_fract_x
_atom_site_fract_y
_atom_site_fract_z
Si Si1 0.689341 0.396757 0.692602
Si Si2 0.145248 0.093382 0.230919
Si Si3 0.640704 0.398307 0.304562
Si Si4 0.751779 0.902125 0.089923
Si Si5 0.681996 0.592186 0.923076
Si Si6 0.506147 0.909011 0.423602
Si Si7 0.508032 0.976234 0.176739
Si Si8 0.120201 0.594704 0.801654
O O1 0.743691 0.250000 0.688917
O O2 0.785245 0.506778 0.709823
O O3 0.617980 0.419352 0.617057
O O4 0.586935 0.400502 0.764566
O O5 0.154057 0.250000 0.249184
O O6 0.214992 0.072330 0.146174
O O7 0.007744 0.058688 0.226094
O O8 0.624411 0.250000 0.339597
O O9 0.601649 0.517586 0.362700
O O10 0.558116 0.410201 0.232066
O O11 0.775241 0.413221 0.267681
O O12 0.796153 0.750000 0.083057
O O13 0.626112 0.902381 0.142450
O O14 0.840191 0.998347 0.131209
O O15 0.723236 0.953799 0.005212
O O16 0.659737 0.750000 0.930937
O O17 0.564456 0.526686 0.893552
O O18 0.529076 0.750000 0.434305
O O19 0.500000 0.000000 0.500000
O O20 0.114338 0.750000 0.827370
#
# Coordination Sequence:
#
# PCOD9157870 Si02
#       8
#     4   4   4   4   4   4   4   4
#     4   9  18  31  48  72  97 121 152 191 231 272
#     4   9  18  33  50  66  89 124 164 202 238 280
#     4   9  17  30  50  72  94 123 159 194 231 277
#     4  10  19  29  43  65  92 123 159 203 250 291
#     4   9  17  28  43  65  92 122 159 202 247 292
#     4  10  20  33  52  79 109 131 148 177 221 273
#     4   9  16  28  45  65  93 124 156 195 242 292
#     4   9  19  34  49  66  90 124 164 202 239 280
#
# _framework density 16.411390999999998
#
# number of rings (size 3 to 8) (size 9 to 14) (size 15 to 20)
#    0.000    2.750    0.000    1.500    0.000    8.000 
#    0.000    3.125    0.000    0.750    0.000    0.000 
#    0.000    0.000    0.000    0.000    0.000    0.000 
#
# Total GULP energy -178192.162699 kJ/mol
# GULP energy per Si atom -5568.505084 kJ/mol
# Density = 1.637404 g / cm^3
# Si number density = 16.411391 Si / 1000 Ang^3
#
#
#
# Elastic Constant Matrix: (Units=GPa)
#
#
# Indices 1 2 3 4 5 6 
#
# 1 87.0168 50.9190 20.6525 0.0000 20.1586 0.0000
# 2 50.9190 97.8704 51.7297 0.0000 17.0216 0.0000
# 3 20.6525 51.7297 73.9675 0.0000 20.4213 0.0000
# 4 0.0000 0.0000 0.0000 19.8463 0.0000 3.4491
# 5 20.1586 17.0216 20.4213 0.0000 11.8398 0.0000
# 6 0.0000 0.0000 0.0000 3.4491 0.0000 17.0950
#
#
#
# Elastic Compliance Matrix: (Units=1/GPa)
#
#
# Indices 1 2 3 4 5 6 
#
# 1 0.030692 -0.015269 0.019999 0.000000 -0.064800 0.000000
# 2 -0.015269 0.024130 -0.019496 0.000000 0.024933 0.000000
# 3 0.019999 -0.019496 0.044354 0.000000 -0.082525 0.000000
# 4 0.000000 0.000000 0.000000 0.052218 0.000000 -0.010536
# 5 -0.064800 0.024933 -0.082525 0.000000 0.301287 0.000000
# 6 0.000000 0.000000 0.000000 -0.010536 0.000000 0.060622
#
#
# Mechanical properties :
#
#
# Convention : Reuss Voigt Hill
#
# Bulk Modulus (GPa) = 14.35849 56.16189 35.26019
# Shear Modulus (GPa) = 8.83319 18.79313 13.81316
#
# Velocity S-wave (km/s) = 2.32251 3.38764 2.90432
# Velocity P-wave (km/s) = 3.99501 7.04252 5.72526
#
# Compressibility (1/GPa) = 0.06964519
#
# Stress axis : x y z
#
# Youngs Moduli (GPa) = 32.58178 41.44298 22.54605
#
# Poissons Ratio (x) = 0.63278 -0.45090
# Poissons Ratio (y) = 0.49748 0.43955
# Poissons Ratio (z) = -0.65161 0.80795
#
# Static dielectric constant tensor:
#      x y z
#    x 1.534230 0.000000 -0.005490 
#    y 0.000000 1.568200 0.000000 
#    z -0.005490 0.000000 1.553600 
# 
# From -- ./inp_files/40696.got.cif
#   From: 2010.05.17/outbox.cif.g08.bks.cpg/sg11_21_cif.got.tgz:40696.got - 2010.06.03 12:22:45.
