data_PCOD9157683
_publ_section_title
;
Structure prediction by ZEFSAII (Michael W. Deem and Ramdas Pophale) SiO2 
 PCOD9157683
Probable space group: P 21/M
;
_chemical_formula_sum "Si O2"
_cell_formula_units_Z 20
_cell_length_a 14.862808
_cell_length_b 15.482936
_cell_length_c 7.204970
_cell_angle_alpha 90.000000
_cell_angle_beta 142.894410
_cell_angle_gamma 90.000000
_cell_volume 1000.252087
_symmetry_space_group_name_H-M "P 21/M"
_symmetry_group_IT_number 11
_symmetry_cell_setting 'monoclinic'
loop_
_space_group_symop_operation_xyz
x,y,z
-x,1/2+y,-z
-x,-y,-z
x,1/2-y,z
loop_
_atom_site_type_symbol
_atom_site_label
_atom_site_fract_x
_atom_site_fract_y
_atom_site_fract_z
Si Si1 0.070484 0.566663 0.765701
Si Si2 0.764147 0.345119 0.277969
Si Si3 0.341613 0.044354 0.204752
Si Si4 0.589074 0.845278 0.370441
Si Si5 0.231996 0.034759 0.602537
O O1 0.136391 0.641809 0.744281
O O2 0.000000 0.500000 0.500000
O O3 0.931117 0.580055 0.670965
O O4 0.211771 0.515666 0.078662
O O5 0.792853 0.250000 0.406798
O O6 0.787865 0.430642 0.442257
O O7 0.590247 0.348871 0.933334
O O8 0.352032 0.134956 0.326546
O O9 0.500000 0.000000 0.500000
O O10 0.303016 0.049853 0.924497
O O11 0.634655 0.750000 0.381399
O O12 0.657524 0.920760 0.358411
#
# Coordination Sequence:
#
# PCOD9157683 Si02
#       5
#     4   4   4   4   4
#     4   8  17  34  55  82 108 147 184 224 284 336
#     4   9  17  32  55  81 110 147 188 227 274 333
#     4  10  18  35  60  79 107 146 188 229 279 330
#     4  11  22  35  57  87 114 146 193 237 273 331
#     4  10  21  37  59  84 116 150 182 232 292 331
#
# _framework density 19.994959999999999
#
# number of rings (size 3 to 8) (size 9 to 14) (size 15 to 20)
#    0.000    2.800    4.000    0.600    0.000    2.400 
#    0.000    8.000    0.000    4.800    0.000    0.000 
#    0.000    0.000    0.000    0.000    0.000    0.000 
#
# Total GULP energy -111356.136280 kJ/mol
# GULP energy per Si atom -5567.806814 kJ/mol
# Density = 1.994945 g / cm^3
# Si number density = 19.994960 Si / 1000 Ang^3
#
#
#
# Elastic Constant Matrix: (Units=GPa)
#
#
# Indices 1 2 3 4 5 6 
#
# 1 55.2706 43.1630 29.8832 0.0000 18.3220 0.0000
# 2 43.1630 124.8409 14.2221 0.0000 6.4365 0.0000
# 3 29.8832 14.2221 82.2062 0.0000 24.1593 0.0000
# 4 0.0000 0.0000 0.0000 18.1751 0.0000 -0.5985
# 5 18.3220 6.4365 24.1593 0.0000 33.4531 0.0000
# 6 0.0000 0.0000 0.0000 -0.5985 0.0000 22.7309
#
#
#
# Elastic Compliance Matrix: (Units=1/GPa)
#
#
# Indices 1 2 3 4 5 6 
#
# 1 0.033735 -0.010264 -0.007157 0.000000 -0.011333 0.000000
# 2 -0.010264 0.011307 0.000968 0.000000 0.002747 0.000000
# 3 -0.007157 0.000968 0.017139 0.000000 -0.008644 0.000000
# 4 0.000000 0.000000 0.000000 0.055068 0.000000 0.001450
# 5 -0.011333 0.002747 -0.008644 0.000000 0.041814 0.000000
# 6 0.000000 0.000000 0.000000 0.001450 0.000000 0.044031
#
#
# Mechanical properties :
#
#
# Convention : Reuss Voigt Hill
#
# Bulk Modulus (GPa) = 34.15946 48.53937 41.34941
# Shear Modulus (GPa) = 20.34524 26.54179 23.44352
#
# Velocity S-wave (km/s) = 3.19332 3.64734 3.42785
# Velocity P-wave (km/s) = 5.54234 6.48582 6.03255
#
# Compressibility (1/GPa) = 0.02927446
#
# Stress axis : x y z
#
# Youngs Moduli (GPa) = 29.64323 88.44073 58.34616
#
# Poissons Ratio (x) = 0.90775 0.41757
# Poissons Ratio (y) = 0.30426 -0.05645
# Poissons Ratio (z) = 0.21215 -0.08557
#
# Static dielectric constant tensor:
#      x y z
#    x 1.806280 0.000000 0.017750 
#    y 0.000000 1.747180 0.000000 
#    z 0.017750 0.000000 1.713250 
# 
# From -- ./inp_files/24854.got.cif
#   From: 2010.05.17/outbox.cif.g08.bks.cpg/sg11_13_cif.got.tgz:24854.got - 2010.06.03 12:22:45.
