data_PCOD9157237
_publ_section_title
;
Structure prediction by ZEFSAII (Michael W. Deem and Ramdas Pophale) SiO2 
 PCOD9157237
Probable space group: P 21/M
;
_chemical_formula_sum "Si O2"
_cell_formula_units_Z 32
_cell_length_a 20.986626
_cell_length_b 8.424163
_cell_length_c 26.166565
_cell_angle_alpha 90.000000
_cell_angle_beta 157.273418
_cell_angle_gamma 90.000000
_cell_volume 1787.224202
_symmetry_space_group_name_H-M "P 21/M"
_symmetry_group_IT_number 11
_symmetry_cell_setting 'monoclinic'
loop_
_space_group_symop_operation_xyz
x,y,z
-x,1/2+y,-z
-x,-y,-z
x,1/2-y,z
loop_
_atom_site_type_symbol
_atom_site_label
_atom_site_fract_x
_atom_site_fract_y
_atom_site_fract_z
Si Si1 0.152162 0.559521 0.146899
Si Si2 0.658064 0.940196 0.148948
Si Si3 0.969301 0.443652 0.832637
Si Si4 0.350402 0.058711 0.120979
Si Si5 0.828433 0.058284 0.619917
Si Si6 0.454593 0.558710 0.090942
Si Si7 0.533278 0.557801 0.681433
Si Si8 0.860716 0.060454 0.210626
O O1 0.151362 0.750000 0.145542
O O2 0.120986 0.506411 0.182177
O O3 0.321622 0.498280 0.248396
O O4 0.000000 0.500000 0.000000
O O5 0.663852 0.750000 0.151404
O O6 0.611660 0.989156 0.172408
O O7 0.812640 0.007029 0.232228
O O8 0.500000 0.000000 0.000000
O O9 0.970191 0.250000 0.832845
O O10 0.882723 0.497467 0.716521
O O11 0.160146 0.495736 0.975465
O O12 0.348171 0.250000 0.119982
O O13 0.425046 0.004193 0.230060
O O14 0.448019 0.004317 0.143226
O O15 0.826357 0.250000 0.619280
O O16 0.646567 0.003197 0.469706
O O17 0.968325 0.005470 0.683779
O O18 0.450875 0.750000 0.089345
O O19 0.287942 0.505623 0.937439
O O20 0.534076 0.750000 0.682115
O O21 0.862558 0.250000 0.210379
#
# Coordination Sequence:
#
# PCOD9157237 Si02
#       8
#     4   4   4   4   4   4   4   4
#     4  11  21  36  57  79 106 136 173 217 262 309
#     4   9  17  29  46  73 108 140 173 214 262 308
#     4   9  18  33  54  78 101 133 175 214 256 309
#     4  10  18  32  53  75 103 135 172 215 256 307
#     4  10  20  36  56  75 103 142 176 211 260 314
#     4   9  18  30  47  77 108 133 170 219 257 300
#     4  10  22  38  54  78 107 136 174 215 260 315
#     4  10  19  31  49  76 109 138 173 217 260 308
#
# _framework density 17.904859999999999
#
# number of rings (size 3 to 8) (size 9 to 14) (size 15 to 20)
#    0.000    2.250    2.500    1.875    0.000    4.000 
#    0.000    1.250    0.000    0.750    0.000    0.000 
#    0.000    0.000    0.000    0.000    0.000    0.000 
#
# Total GULP energy -178474.795496 kJ/mol
# GULP energy per Si atom -5577.337359 kJ/mol
# Density = 1.786411 g / cm^3
# Si number density = 17.904860 Si / 1000 Ang^3
#
#
#
# Elastic Constant Matrix: (Units=GPa)
#
#
# Indices 1 2 3 4 5 6 
#
# 1 203.3603 18.0833 93.1569 0.0000 12.7306 0.0000
# 2 18.0833 8.6411 19.5192 0.0000 -1.1833 0.0000
# 3 93.1569 19.5192 128.0282 0.0000 4.3300 0.0000
# 4 0.0000 0.0000 0.0000 12.5728 0.0000 8.3247
# 5 12.7306 -1.1833 4.3300 0.0000 24.3456 0.0000
# 6 0.0000 0.0000 0.0000 8.3247 0.0000 29.2620
#
#
#
# Elastic Compliance Matrix: (Units=1/GPa)
#
#
# Indices 1 2 3 4 5 6 
#
# 1 0.007816 -0.006523 -0.004571 0.000000 -0.003591 0.000000
# 2 -0.006523 0.186447 -0.024247 0.000000 0.016786 0.000000
# 3 -0.004571 -0.024247 0.014882 0.000000 -0.001435 0.000000
# 4 0.000000 0.000000 0.000000 0.097996 0.000000 -0.027879
# 5 -0.003591 0.016786 -0.001435 0.000000 0.044024 0.000000
# 6 0.000000 0.000000 0.000000 -0.027879 0.000000 0.042105
#
#
# Mechanical properties :
#
#
# Convention : Reuss Voigt Hill
#
# Bulk Modulus (GPa) = 7.22218 66.83872 37.03045
# Shear Modulus (GPa) = 9.80185 27.18744 18.49465
#
# Velocity S-wave (km/s) = 2.34228 3.90094 3.21742
# Velocity P-wave (km/s) = 3.37008 7.59610 5.87615
#
# Compressibility (1/GPa) = 0.13846233
#
# Stress axis : x y z
#
# Youngs Moduli (GPa) = 127.93700 5.36347 67.19336
#
# Poissons Ratio (x) = 0.03498 0.30717
# Poissons Ratio (y) = 0.83449 1.62926
# Poissons Ratio (z) = 0.58486 0.13005
#
# Static dielectric constant tensor:
#      x y z
#    x 1.623980 0.000000 -0.001430 
#    y 0.000000 1.612380 0.000000 
#    z -0.001430 0.000000 1.591500 
# 
# From -- ./inp_files/72129.got.cif
#   From: 2010.05.17/outbox.cif.g08.bks.cpg/sg11_37_cif.got.tgz:72129.got - 2010.06.03 12:22:45.
