data_PCOD9157010
_publ_section_title
;
Structure prediction by ZEFSAII (Michael W. Deem and Ramdas Pophale) SiO2 
 PCOD9157010
Probable space group: P 21/M
;
_chemical_formula_sum "Si O2"
_cell_formula_units_Z 24
_cell_length_a 18.754873
_cell_length_b 8.708563
_cell_length_c 24.732914
_cell_angle_alpha 90.000000
_cell_angle_beta 19.211064
_cell_angle_gamma 90.000000
_cell_volume 1329.218851
_symmetry_space_group_name_H-M "P 21/M"
_symmetry_group_IT_number 11
_symmetry_cell_setting 'monoclinic'
loop_
_space_group_symop_operation_xyz
x,y,z
-x,1/2+y,-z
-x,-y,-z
x,1/2-y,z
loop_
_atom_site_type_symbol
_atom_site_label
_atom_site_fract_x
_atom_site_fract_y
_atom_site_fract_z
Si Si1 0.493109 0.933833 0.835978
Si Si2 0.998690 0.565211 0.168995
Si Si3 0.835256 0.066609 0.662736
Si Si4 0.659261 0.433614 0.339285
Si Si5 0.816326 0.565415 0.505450
Si Si6 0.682494 0.067466 0.487250
O O1 0.499529 0.750000 0.837583
O O2 0.642984 0.971373 0.676831
O O3 0.602487 0.005650 0.810942
O O4 0.247171 0.979955 0.000548
O O5 0.982963 0.750000 0.178163
O O6 0.892454 0.495724 0.190763
O O7 0.856249 0.503804 0.321007
O O8 0.837985 0.250000 0.657282
O O9 0.946676 0.024632 0.639948
O O10 0.000000 0.000000 0.500000
O O11 0.500000 0.500000 0.500000
O O12 0.654671 0.250000 0.343281
O O13 0.550820 0.497078 0.362438
O O14 0.810291 0.750000 0.500851
O O15 0.753256 0.479894 0.496306
O O16 0.676014 0.250000 0.484996
#
# Coordination Sequence:
#
# PCOD9157010 Si02
#       6
#     4   4   4   4   4   4
#     4   9  19  34  54  77 102 131 166 206 251 297
#     4  10  19  34  54  76 102 132 164 205 251 297
#     4   9  17  30  51  74 100 132 168 205 245 295
#     4  10  18  31  51  73  98 131 167 204 244 295
#     4   9  18  34  52  74 101 131 165 205 249 293
#     4  11  21  33  51  76 101 131 169 207 246 295
#
# _framework density 18.055716
#
# number of rings (size 3 to 8) (size 9 to 14) (size 15 to 20)
#    0.000    2.333    0.000    7.000    0.000    4.667 
#    0.000    1.667    0.000    0.000    0.000    0.000 
#    0.000    0.000    0.000    0.000    0.000    0.000 
#
# Total GULP energy -133796.067114 kJ/mol
# GULP energy per Si atom -5574.836130 kJ/mol
# Density = 1.801462 g / cm^3
# Si number density = 18.055716 Si / 1000 Ang^3
#
#
#
# Elastic Constant Matrix: (Units=GPa)
#
#
# Indices 1 2 3 4 5 6 
#
# 1 156.7165 59.8191 55.2966 0.0000 -48.8905 0.0000
# 2 59.8191 88.5063 35.8969 0.0000 -24.1970 0.0000
# 3 55.2966 35.8969 77.1645 0.0000 -43.3852 0.0000
# 4 0.0000 0.0000 0.0000 20.8367 0.0000 -8.9035
# 5 -48.8905 -24.1970 -43.3852 0.0000 37.8486 0.0000
# 6 0.0000 0.0000 0.0000 -8.9035 0.0000 34.3272
#
#
#
# Elastic Compliance Matrix: (Units=1/GPa)
#
#
# Indices 1 2 3 4 5 6 
#
# 1 0.012224 -0.004983 0.001815 0.000000 0.014684 0.000000
# 2 -0.004983 0.016194 -0.004953 0.000000 -0.001761 0.000000
# 3 0.001815 -0.004953 0.037975 0.000000 0.042708 0.000000
# 4 0.000000 0.000000 0.000000 0.053974 0.000000 0.013999
# 5 0.014684 -0.001761 0.042708 0.000000 0.093218 0.000000
# 6 0.000000 0.000000 0.000000 0.013999 0.000000 0.032762
#
#
# Mechanical properties :
#
#
# Convention : Reuss Voigt Hill
#
# Bulk Modulus (GPa) = 19.93996 69.37914 44.65955
# Shear Modulus (GPa) = 17.90146 30.02750 23.96448
#
# Velocity S-wave (km/s) = 3.15216 4.08247 3.64710
# Velocity P-wave (km/s) = 4.93109 7.79298 6.52097
#
# Compressibility (1/GPa) = 0.05015056
#
# Stress axis : x y z
#
# Youngs Moduli (GPa) = 81.80823 61.75195 26.33300
#
# Poissons Ratio (x) = 0.30772 -0.04778
# Poissons Ratio (y) = 0.40766 0.13041
# Poissons Ratio (z) = -0.14845 0.30583
#
# Static dielectric constant tensor:
#      x y z
#    x 1.651100 0.000000 -0.037290 
#    y 0.000000 1.604160 0.000000 
#    z -0.037290 0.000000 1.638800 
# 
# From -- ./inp_files/69501.got.cif
#   From: 2010.05.17/outbox.cif.g08.bks.cpg/sg11_35_cif.got.tgz:69501.got - 2010.06.03 12:22:45.
