data_PCOD9157033
_publ_section_title
;
Structure prediction by ZEFSAII (Michael W. Deem and Ramdas Pophale) SiO2 
 PCOD9157033
Probable space group: P 21/M
;
_chemical_formula_sum "Si O2"
_cell_formula_units_Z 32
_cell_length_a 15.780040
_cell_length_b 7.699633
_cell_length_c 11.735699
_cell_angle_alpha 90.000000
_cell_angle_beta 94.566805
_cell_angle_gamma 90.000000
_cell_volume 1421.366531
_symmetry_space_group_name_H-M "P 21/M"
_symmetry_group_IT_number 11
_symmetry_cell_setting 'monoclinic'
loop_
_space_group_symop_operation_xyz
x,y,z
-x,1/2+y,-z
-x,-y,-z
x,1/2-y,z
loop_
_atom_site_type_symbol
_atom_site_label
_atom_site_fract_x
_atom_site_fract_y
_atom_site_fract_z
Si Si1 0.018811 0.959922 0.366172
Si Si2 0.474249 0.042219 0.625551
Si Si3 0.639827 0.463446 0.773641
Si Si4 0.791991 0.047787 0.638363
Si Si5 0.717789 0.538114 0.388821
Si Si6 0.943974 0.541178 0.107920
Si Si7 0.599889 0.455933 0.016410
Si Si8 0.233102 0.455718 0.842276
O O1 0.014380 0.750000 0.363487
O O2 0.114481 0.027493 0.355338
O O3 0.972252 0.014864 0.240993
O O4 0.000000 0.000000 0.500000
O O5 0.471510 0.250000 0.639990
O O6 0.550396 0.975819 0.711848
O O7 0.379482 0.978167 0.636874
O O8 0.500000 0.000000 0.500000
O O9 0.639131 0.250000 0.767837
O O10 0.721015 0.528131 0.713982
O O11 0.640910 0.518110 0.903178
O O12 0.802008 0.250000 0.671434
O O13 0.753071 0.034625 0.509078
O O14 0.718657 0.750000 0.395652
O O15 0.773669 0.480363 0.288083
O O16 0.946458 0.750000 0.111126
O O17 0.844887 0.478155 0.088891
O O18 0.000000 0.500000 0.000000
O O19 0.602976 0.250000 0.021634
O O20 0.667957 0.518913 0.115266
O O21 0.500000 0.500000 0.000000
O O22 0.221747 0.250000 0.837868
#
# Coordination Sequence:
#
# PCOD9157033 Si02
#       8
#     4   4   4   4   4   4   4   4
#     4  10  22  40  64  91 121 158 202 253 313 374
#     4  10  18  31  51  76 108 147 185 225 278 339
#     4   9  19  35  55  79 111 149 187 234 292 344
#     4  10  20  35  58  86 114 147 191 242 292 356
#     4  10  20  35  57  84 117 156 194 238 296 353
#     4  10  23  42  65  92 125 166 210 263 320 379
#     4  11  23  40  63  88 118 159 201 245 297 355
#     4  10  22  41  62  86 120 159 201 249 300 357
#
# _framework density 22.513545000000001
#
# number of rings (size 3 to 8) (size 9 to 14) (size 15 to 20)
#    0.000    2.000    1.250    1.875    1.750    5.000 
#    0.000    3.750    0.000    0.000    0.000    0.000 
#    0.000    0.000    0.000    0.000    0.000    0.000 
#
# Total GULP energy -178365.450733 kJ/mol
# GULP energy per Si atom -5573.920335 kJ/mol
# Density = 2.246230 g / cm^3
# Si number density = 22.513545 Si / 1000 Ang^3
#
#
#
# Elastic Constant Matrix: (Units=GPa)
#
#
# Indices 1 2 3 4 5 6 
#
# 1 152.4043 4.6597 50.0216 0.0000 -19.2919 0.0000
# 2 4.6597 39.1948 0.4511 0.0000 -5.3374 0.0000
# 3 50.0216 0.4511 119.5784 0.0000 -10.5861 0.0000
# 4 0.0000 0.0000 0.0000 23.0588 0.0000 -3.6024
# 5 -19.2919 -5.3374 -10.5861 0.0000 21.6256 0.0000
# 6 0.0000 0.0000 0.0000 -3.6024 0.0000 13.8799
#
#
#
# Elastic Compliance Matrix: (Units=1/GPa)
#
#
# Indices 1 2 3 4 5 6 
#
# 1 0.008279 -0.000146 -0.002939 0.000000 0.005911 0.000000
# 2 -0.000146 0.026432 0.000551 0.000000 0.006664 0.000000
# 3 -0.002939 0.000551 0.009795 0.000000 0.002308 0.000000
# 4 0.000000 0.000000 0.000000 0.045200 0.000000 0.011731
# 5 0.005911 0.006664 0.002308 0.000000 0.054289 0.000000
# 6 0.000000 0.000000 0.000000 0.011731 0.000000 0.075091
#
#
# Mechanical properties :
#
#
# Convention : Reuss Voigt Hill
#
# Bulk Modulus (GPa) = 25.35638 46.82691 36.09165
# Shear Modulus (GPa) = 21.07043 28.78254 24.92648
#
# Velocity S-wave (km/s) = 3.06257 3.57943 3.33104
# Velocity P-wave (km/s) = 4.87780 6.15854 5.55520
#
# Compressibility (1/GPa) = 0.03943781
#
# Stress axis : x y z
#
# Youngs Moduli (GPa) = 120.78899 37.83297 102.09723
#
# Poissons Ratio (x) = 0.00550 0.30010
# Poissons Ratio (y) = 0.01758 -0.05626
# Poissons Ratio (z) = 0.35505 -0.02085
#
# Static dielectric constant tensor:
#      x y z
#    x 1.872770 0.000000 0.024980 
#    y 0.000000 1.898300 0.000000 
#    z 0.024980 0.000000 1.887980 
# 
# From -- ./inp_files/38242.got.cif
#   From: 2010.05.17/outbox.cif.g08.bks.cpg/sg11_20_cif.got.tgz:38242.got - 2010.06.03 12:22:45.
