data_PCOD9157834
_publ_section_title
;
Structure prediction by ZEFSAII (Michael W. Deem and Ramdas Pophale) SiO2 
 PCOD9157834
Probable space group: P 21/M
;
_chemical_formula_sum "Si O2"
_cell_formula_units_Z 32
_cell_length_a 13.666472
_cell_length_b 9.663842
_cell_length_c 21.585871
_cell_angle_alpha 90.000000
_cell_angle_beta 145.875995
_cell_angle_gamma 90.000000
_cell_volume 1599.291909
_symmetry_space_group_name_H-M "P 21/M"
_symmetry_group_IT_number 11
_symmetry_cell_setting 'monoclinic'
loop_
_space_group_symop_operation_xyz
x,y,z
-x,1/2+y,-z
-x,-y,-z
x,1/2-y,z
loop_
_atom_site_type_symbol
_atom_site_label
_atom_site_fract_x
_atom_site_fract_y
_atom_site_fract_z
Si Si1 0.622662 0.918135 0.455641
Si Si2 0.230131 0.594054 0.261941
Si Si3 0.573391 0.089775 0.305638
Si Si4 0.662943 0.083801 0.058098
Si Si5 0.910558 0.090054 0.085768
Si Si6 0.996356 0.917046 0.685935
Si Si7 0.744436 0.403811 0.872915
Si Si8 0.901537 0.410364 0.398409
O O1 0.623560 0.750000 0.447326
O O2 0.429009 0.952980 0.379400
O O3 0.792689 0.958958 0.584830
O O4 0.636054 0.994841 0.396195
O O5 0.208179 0.750000 0.274350
O O6 0.215383 0.599423 0.178926
O O7 0.070799 0.496979 0.196288
O O8 0.564401 0.250000 0.320791
O O9 0.701603 0.081401 0.314456
O O10 0.389045 0.028321 0.189776
O O11 0.634011 0.250000 0.050531
O O12 0.723242 0.056498 0.018767
O O13 0.841992 0.041086 0.186872
O O14 0.500000 0.000000 0.000000
O O15 0.945147 0.250000 0.119230
O O16 0.893092 0.078769 0.002328
O O17 0.993972 0.750000 0.688495
O O18 0.054707 0.957592 0.647283
O O19 0.666755 0.250000 0.845723
O O20 0.956157 0.250000 0.431655
O O21 0.000000 0.500000 0.500000
#
# Coordination Sequence:
#
# PCOD9157834 Si02
#       8
#     4   4   4   4   4   4   4   4
#     4   9  17  33  55  77 106 144 176 208 262 330
#     4   9  18  32  54  83 109 139 179 220 269 329
#     4  10  19  28  44  78 112 137 174 220 266 317
#     4  10  23  42  61  81 106 143 189 230 270 315
#     4  10  21  37  56  79 108 144 185 229 274 316
#     4   9  18  35  57  75 103 145 183 217 262 324
#     4   9  19  34  52  76 110 148 182 213 264 332
#     4  10  19  30  48  76 106 139 177 216 264 323
#
# _framework density 20.008856999999999
#
# number of rings (size 3 to 8) (size 9 to 14) (size 15 to 20)
#    0.000    2.500    1.250    1.500    1.750    3.500 
#    0.000    1.875    0.000    0.000    0.000    0.000 
#    0.000    0.000    0.000    0.000    0.000    0.000 
#
# Total GULP energy -178244.366699 kJ/mol
# GULP energy per Si atom -5570.136459 kJ/mol
# Density = 1.996332 g / cm^3
# Si number density = 20.008857 Si / 1000 Ang^3
#
#
#
# Elastic Constant Matrix: (Units=GPa)
#
#
# Indices 1 2 3 4 5 6 
#
# 1 56.9908 24.4805 26.2243 0.0000 19.9341 0.0000
# 2 24.4805 42.8112 25.6534 0.0000 22.5876 0.0000
# 3 26.2243 25.6534 93.7388 0.0000 18.3626 0.0000
# 4 0.0000 0.0000 0.0000 27.4378 0.0000 12.1303
# 5 19.9341 22.5876 18.3626 0.0000 34.4660 0.0000
# 6 0.0000 0.0000 0.0000 12.1303 0.0000 20.3650
#
#
#
# Elastic Compliance Matrix: (Units=1/GPa)
#
#
# Indices 1 2 3 4 5 6 
#
# 1 0.025316 -0.008719 -0.003291 0.000000 -0.007175 0.000000
# 2 -0.008719 0.041764 -0.005155 0.000000 -0.019582 0.000000
# 3 -0.003291 -0.005155 0.013359 0.000000 -0.001836 0.000000
# 4 0.000000 0.000000 0.000000 0.049474 0.000000 -0.029469
# 5 -0.007175 -0.019582 -0.001836 0.000000 0.046975 0.000000
# 6 0.000000 0.000000 0.000000 -0.029469 0.000000 0.066657
#
#
# Mechanical properties :
#
#
# Convention : Reuss Voigt Hill
#
# Bulk Modulus (GPa) = 21.68702 38.47300 30.08001
# Shear Modulus (GPa) = 17.05071 24.26594 20.65832
#
# Velocity S-wave (km/s) = 2.92234 3.48625 3.21668
# Velocity P-wave (km/s) = 4.71689 5.95609 5.37234
#
# Compressibility (1/GPa) = 0.04611052
#
# Stress axis : x y z
#
# Youngs Moduli (GPa) = 39.50130 23.94393 74.85683
#
# Poissons Ratio (x) = 0.20876 0.24634
# Poissons Ratio (y) = 0.34440 0.38585
# Poissons Ratio (z) = 0.12999 0.12342
#
# Static dielectric constant tensor:
#      x y z
#    x 1.749590 0.000000 0.001550 
#    y 0.000000 1.659760 0.000000 
#    z 0.001550 0.000000 1.732200 
# 
# From -- ./inp_files/69094.got.cif
#   From: 2010.05.17/outbox.cif.g08.bks.cpg/sg11_35_cif.got.tgz:69094.got - 2010.06.03 12:22:45.
