data_PCOD9157309
_publ_section_title
;
Structure prediction by ZEFSAII (Michael W. Deem and Ramdas Pophale) SiO2 
 PCOD9157309
Probable space group: P 21/M
;
_chemical_formula_sum "Si O2"
_cell_formula_units_Z 32
_cell_length_a 10.362344
_cell_length_b 13.985801
_cell_length_c 15.595529
_cell_angle_alpha 90.000000
_cell_angle_beta 37.385382
_cell_angle_gamma 90.000000
_cell_volume 1372.328274
_symmetry_space_group_name_H-M "P 21/M"
_symmetry_group_IT_number 11
_symmetry_cell_setting 'monoclinic'
loop_
_space_group_symop_operation_xyz
x,y,z
-x,1/2+y,-z
-x,-y,-z
x,1/2-y,z
loop_
_atom_site_type_symbol
_atom_site_label
_atom_site_fract_x
_atom_site_fract_y
_atom_site_fract_z
Si Si1 0.502206 0.859111 0.220381
Si Si2 0.428290 0.940032 0.434649
Si Si3 0.816418 0.360731 0.941252
Si Si4 0.000771 0.637182 0.963025
Si Si5 0.147448 0.993170 0.730873
Si Si6 0.886052 0.036321 0.648677
Si Si7 0.320169 0.144734 0.217009
Si Si8 0.705647 0.644115 0.561786
O O1 0.494447 0.750000 0.196056
O O2 0.347670 0.922014 0.244430
O O3 0.405191 0.871585 0.366550
O O4 0.749047 0.887906 0.097448
O O5 0.662733 0.931417 0.349182
O O6 0.414687 0.050430 0.408538
O O7 0.248912 0.932443 0.600668
O O8 0.870872 0.250000 0.892099
O O9 0.943029 0.441312 0.823484
O O10 0.888066 0.376044 0.003167
O O11 0.564495 0.371611 0.062915
O O12 0.018171 0.750000 0.934226
O O13 0.103176 0.573306 0.835607
O O14 0.049435 0.118651 0.589550
O O15 0.838268 0.939286 0.725015
O O16 0.000000 0.000000 0.500000
O O17 0.254027 0.250000 0.221845
O O18 0.321169 0.146247 0.320961
O O19 0.644453 0.750000 0.562334
#
# Coordination Sequence:
#
# PCOD9157309 Si02
#       8
#     4   4   4   4   4   4   4   4
#     4  11  21  36  57  83 113 144 185 235 279 325
#     4  11  23  37  52  85 113 153 183 223 280 335
#     4  10  19  33  55  82 109 147 191 228 271 325
#     4  10  21  35  57  82 108 148 190 226 274 327
#     4  11  23  35  56  80 120 149 183 223 276 334
#     4  10  18  32  54  84 113 137 186 231 286 324
#     4   9  17  29  53  84 112 137 178 235 275 318
#     4  10  20  36  55  81 112 144 189 236 279 329
#
# _framework density 23.318035999999999
#
# number of rings (size 3 to 8) (size 9 to 14) (size 15 to 20)
#    0.000    1.750    3.750    2.250    0.000    3.000 
#    0.000    2.500    0.000    3.000    0.000    3.500 
#    0.000    0.000    0.000    0.000    0.000    0.000 
#
# Total GULP energy -178837.894003 kJ/mol
# GULP energy per Si atom -5588.684188 kJ/mol
# Density = 2.326496 g / cm^3
# Si number density = 23.318036 Si / 1000 Ang^3
#
#
#
# Elastic Constant Matrix: (Units=GPa)
#
#
# Indices 1 2 3 4 5 6 
#
# 1 23.3863 3.8545 13.9863 0.0000 -9.4124 0.0000
# 2 3.8545 87.6798 39.1870 0.0000 -6.1888 0.0000
# 3 13.9863 39.1870 103.6118 0.0000 1.1120 0.0000
# 4 0.0000 0.0000 0.0000 23.1402 0.0000 -5.7418
# 5 -9.4124 -6.1888 1.1120 0.0000 32.1604 0.0000
# 6 0.0000 0.0000 0.0000 -5.7418 0.0000 26.0404
#
#
#
# Elastic Compliance Matrix: (Units=1/GPa)
#
#
# Indices 1 2 3 4 5 6 
#
# 1 0.054077 0.002572 -0.008451 0.000000 0.016614 0.000000
# 2 0.002572 0.014108 -0.005723 0.000000 0.003666 0.000000
# 3 -0.008451 -0.005723 0.013000 0.000000 -0.004024 0.000000
# 4 0.000000 0.000000 0.000000 0.045716 0.000000 0.010080
# 5 0.016614 0.003666 -0.004024 0.000000 0.036801 0.000000
# 6 0.000000 0.000000 0.000000 0.010080 0.000000 0.040624
#
#
# Mechanical properties :
#
#
# Convention : Reuss Voigt Hill
#
# Bulk Modulus (GPa) = 17.24645 36.52594 26.88620
# Shear Modulus (GPa) = 20.25468 26.77819 23.51644
#
# Velocity S-wave (km/s) = 2.95045 3.39247 3.17915
# Velocity P-wave (km/s) = 4.36109 5.57166 5.00312
#
# Compressibility (1/GPa) = 0.05798294
#
# Stress axis : x y z
#
# Youngs Moduli (GPa) = 18.49217 70.87995 76.92498
#
# Poissons Ratio (x) = -0.18233 0.65009
# Poissons Ratio (y) = -0.04757 0.44020
# Poissons Ratio (z) = 0.15628 0.40561
#
# Static dielectric constant tensor:
#      x y z
#    x 1.945780 0.000000 0.010790 
#    y 0.000000 1.856130 0.000000 
#    z 0.010790 0.000000 1.872710 
# 
# From -- ./inp_files/59452.got.cif
#   From: 2010.05.17/outbox.cif.g08.bks.cpg/sg11_30_cif.got.tgz:59452.got - 2010.06.03 12:22:45.
