data_PCOD9157288
_publ_section_title
;
Structure prediction by ZEFSAII (Michael W. Deem and Ramdas Pophale) SiO2 
 PCOD9157288
Probable space group: P 21/M
;
_chemical_formula_sum "Si O2"
_cell_formula_units_Z 24
_cell_length_a 7.426123
_cell_length_b 16.276854
_cell_length_c 12.368677
_cell_angle_alpha 90.000000
_cell_angle_beta 54.606305
_cell_angle_gamma 90.000000
_cell_volume 1218.752492
_symmetry_space_group_name_H-M "P 21/M"
_symmetry_group_IT_number 11
_symmetry_cell_setting 'monoclinic'
loop_
_space_group_symop_operation_xyz
x,y,z
-x,1/2+y,-z
-x,-y,-z
x,1/2-y,z
loop_
_atom_site_type_symbol
_atom_site_label
_atom_site_fract_x
_atom_site_fract_y
_atom_site_fract_z
Si Si1 0.804584 0.340234 0.454617
Si Si2 0.745976 0.009424 0.872575
Si Si3 0.744172 0.487808 0.616257
Si Si4 0.984533 0.156278 0.170946
Si Si5 0.338674 0.340992 0.312163
Si Si6 0.751922 0.341871 0.020446
O O1 0.729145 0.250000 0.514906
O O2 0.682550 0.410533 0.564133
O O3 0.795441 0.347784 0.328688
O O4 0.074292 0.342512 0.379309
O O5 0.737168 0.026098 0.747487
O O6 0.872901 0.925277 0.856857
O O7 0.827990 0.088576 0.911066
O O8 0.500000 0.000000 0.000000
O O9 0.624646 0.574465 0.636148
O O10 0.000000 0.500000 0.500000
O O11 0.082433 0.250000 0.148737
O O12 0.888116 0.151600 0.084440
O O13 0.385358 0.250000 0.341863
O O14 0.497422 0.348547 0.151835
O O15 0.778998 0.250000 0.965964
#
# Coordination Sequence:
#
# PCOD9157288 Si02
#       6
#     4   4   4   4   4   4
#     4   9  17  32  55  76 101 140 180 217 264 318
#     4  12  21  34  58  83 110 138 181 227 268 314
#     4  10  18  32  54  79 108 132 178 225 262 314
#     4  10  20  36  56  77 108 147 181 215 265 332
#     4   9  16  31  53  74 101 138 179 216 255 316
#     4  10  21  35  53  80 110 142 181 221 269 322
#
# _framework density 19.692269
#
# number of rings (size 3 to 8) (size 9 to 14) (size 15 to 20)
#    0.000    2.000    5.000    0.500    0.000    1.333 
#    0.000    0.833    0.000    0.000    0.000    0.000 
#    0.000    0.000    0.000    0.000    0.000    0.000 
#
# Total GULP energy -133616.423980 kJ/mol
# GULP energy per Si atom -5567.350999 kJ/mol
# Density = 1.964745 g / cm^3
# Si number density = 19.692269 Si / 1000 Ang^3
#
#
#
# Elastic Constant Matrix: (Units=GPa)
#
#
# Indices 1 2 3 4 5 6 
#
# 1 31.8664 35.1207 10.6754 0.0000 4.9679 0.0000
# 2 35.1207 241.1350 71.0560 0.0000 16.2249 0.0000
# 3 10.6754 71.0560 100.5171 0.0000 8.4441 0.0000
# 4 0.0000 0.0000 0.0000 44.8686 0.0000 1.3749
# 5 4.9679 16.2249 8.4441 0.0000 12.8060 0.0000
# 6 0.0000 0.0000 0.0000 1.3749 0.0000 22.0921
#
#
#
# Elastic Compliance Matrix: (Units=1/GPa)
#
#
# Indices 1 2 3 4 5 6 
#
# 1 0.038213 -0.005059 0.000238 0.000000 -0.008572 0.000000
# 2 -0.005059 0.006158 -0.003520 0.000000 -0.003518 0.000000
# 3 0.000238 -0.003520 0.012751 0.000000 -0.004040 0.000000
# 4 0.000000 0.000000 0.000000 0.022330 0.000000 -0.001390
# 5 -0.008572 -0.003518 -0.004040 0.000000 0.088536 0.000000
# 6 0.000000 0.000000 0.000000 -0.001390 0.000000 0.045351
#
#
# Mechanical properties :
#
#
# Convention : Reuss Voigt Hill
#
# Bulk Modulus (GPa) = 24.72815 67.46916 46.09865
# Shear Modulus (GPa) = 20.53372 33.06443 26.79907
#
# Velocity S-wave (km/s) = 3.23264 4.10207 3.69303
# Velocity P-wave (km/s) = 5.14954 7.53473 6.45329
#
# Compressibility (1/GPa) = 0.04043975
#
# Stress axis : x y z
#
# Youngs Moduli (GPa) = 26.16887 162.39224 78.42419
#
# Poissons Ratio (x) = 0.82155 -0.01866
# Poissons Ratio (y) = 0.13239 0.27607
# Poissons Ratio (z) = -0.00623 0.57166
#
# Static dielectric constant tensor:
#      x y z
#    x 1.732660 0.000000 0.015230 
#    y 0.000000 1.777890 0.000000 
#    z 0.015230 0.000000 1.656000 
# 
# From -- ./inp_files/32030.got.cif
#   From: 2010.05.17/outbox.cif.g08.bks.cpg/sg11_17_cif.got.tgz:32030.got - 2010.06.03 12:22:45.
