data_PCOD9157125
_publ_section_title
;
Structure prediction by ZEFSAII (Michael W. Deem and Ramdas Pophale) SiO2 
 PCOD9157125
Probable space group: P 21/M
;
_chemical_formula_sum "Si O2"
_cell_formula_units_Z 20
_cell_length_a 9.764611
_cell_length_b 19.484732
_cell_length_c 6.480161
_cell_angle_alpha 90.000000
_cell_angle_beta 101.166837
_cell_angle_gamma 90.000000
_cell_volume 1209.578422
_symmetry_space_group_name_H-M "P 21/M"
_symmetry_group_IT_number 11
_symmetry_cell_setting 'monoclinic'
loop_
_space_group_symop_operation_xyz
x,y,z
-x,1/2+y,-z
-x,-y,-z
x,1/2-y,z
loop_
_atom_site_type_symbol
_atom_site_label
_atom_site_fract_x
_atom_site_fract_y
_atom_site_fract_z
Si Si1 0.778825 0.923438 0.982545
Si Si2 0.293773 0.959284 0.358792
Si Si3 0.993045 0.076202 0.594723
Si Si4 0.806323 0.668926 0.608298
Si Si5 0.592784 0.922580 0.309750
O O1 0.642181 0.922976 0.088078
O O2 0.909890 0.924697 0.174317
O O3 0.789247 0.858335 0.835770
O O4 0.769571 0.989163 0.830966
O O5 0.168248 0.911764 0.398642
O O6 0.428704 0.922614 0.303720
O O7 0.347015 0.008634 0.560483
O O8 0.062608 0.129869 0.458154
O O9 0.000000 0.000000 0.500000
O O10 0.818736 0.750000 0.598697
O O11 0.672696 0.639876 0.444201
#
# Coordination Sequence:
#
# PCOD9157125 Si02
#       5
#     4   4   4   4   4
#     4  10  18  31  54  80 111 137 176 220 270 320
#     4  10  18  31  53  85 109 130 171 223 273 310
#     4  11  19  34  56  84 110 138 176 230 273 314
#     4  10  22  37  53  75 108 149 185 216 267 330
#     4   9  19  33  53  78 108 138 170 219 268 315
#
# _framework density 16.534687999999999
#
# number of rings (size 3 to 8) (size 9 to 14) (size 15 to 20)
#    0.000    2.000    6.000    1.200    0.000    3.200 
#    0.000    1.000    0.000    0.000    0.000    0.000 
#    0.000    0.000    0.000    0.000    0.000    0.000 
#
# Total GULP energy -111532.960047 kJ/mol
# GULP energy per Si atom -5576.648002 kJ/mol
# Density = 1.649705 g / cm^3
# Si number density = 16.534688 Si / 1000 Ang^3
#
#
#
# Elastic Constant Matrix: (Units=GPa)
#
#
# Indices 1 2 3 4 5 6 
#
# 1 156.5727 44.2639 24.3381 0.0000 -26.3486 0.0000
# 2 44.2639 100.5211 24.9910 0.0000 -16.2937 0.0000
# 3 24.3381 24.9910 65.1831 0.0000 -23.2095 0.0000
# 4 0.0000 0.0000 0.0000 7.5884 0.0000 -3.2606
# 5 -26.3486 -16.2937 -23.2095 0.0000 21.6450 0.0000
# 6 0.0000 0.0000 0.0000 -3.2606 0.0000 15.7640
#
#
#
# Elastic Compliance Matrix: (Units=1/GPa)
#
#
# Indices 1 2 3 4 5 6 
#
# 1 0.008559 -0.002480 0.001294 0.000000 0.009941 0.000000
# 2 -0.002480 0.012232 -0.002524 0.000000 0.003484 0.000000
# 3 0.001294 -0.002524 0.025413 0.000000 0.026926 0.000000
# 4 0.000000 0.000000 0.000000 0.144634 0.000000 0.029916
# 5 0.009941 0.003484 0.026926 0.000000 0.089795 0.000000
# 6 0.000000 0.000000 0.000000 0.029916 0.000000 0.069623
#
#
# Mechanical properties :
#
#
# Convention : Reuss Voigt Hill
#
# Bulk Modulus (GPa) = 25.78189 56.60699 41.19444
# Shear Modulus (GPa) = 13.49151 24.24510 18.86830
#
# Velocity S-wave (km/s) = 2.85959 3.83341 3.38173
# Velocity P-wave (km/s) = 5.15067 7.34186 6.34162
#
# Compressibility (1/GPa) = 0.03878692
#
# Stress axis : x y z
#
# Youngs Moduli (GPa) = 116.82957 81.75228 39.34994
#
# Poissons Ratio (x) = 0.20271 -0.05093
# Poissons Ratio (y) = 0.28969 0.09930
# Poissons Ratio (z) = -0.15121 0.20631
#
# Static dielectric constant tensor:
#      x y z
#    x 1.587820 0.000000 -0.014180 
#    y 0.000000 1.525630 0.000000 
#    z -0.014180 0.000000 1.572070 
# 
# From -- ./inp_files/2157.got.cif
#   From: 2010.05.17/outbox.cif.g08.bks.cpg/sg11_2_cif.got.tgz:2157.got - 2010.06.03 12:22:45.
