data_PCOD9157151
_publ_section_title
;
Structure prediction by ZEFSAII (Michael W. Deem and Ramdas Pophale) SiO2 
 PCOD9157151
Probable space group: P 21/M
;
_chemical_formula_sum "Si O2"
_cell_formula_units_Z 26
_cell_length_a 9.262489
_cell_length_b 16.538622
_cell_length_c 6.783851
_cell_angle_alpha 90.000000
_cell_angle_beta 69.504023
_cell_angle_gamma 90.000000
_cell_volume 973.424679
_symmetry_space_group_name_H-M "P 21/M"
_symmetry_group_IT_number 11
_symmetry_cell_setting 'monoclinic'
loop_
_space_group_symop_operation_xyz
x,y,z
-x,1/2+y,-z
-x,-y,-z
x,1/2-y,z
loop_
_atom_site_type_symbol
_atom_site_label
_atom_site_fract_x
_atom_site_fract_y
_atom_site_fract_z
Si Si1 0.371553 0.161387 0.128972
Si Si2 0.900485 0.250000 0.457392
Si Si3 0.805165 0.071438 0.013777
Si Si4 0.620118 0.004064 0.758884
Si Si5 0.830338 0.901097 0.122555
Si Si6 0.128529 0.250000 0.656239
Si Si7 0.818161 0.250000 0.058481
Si Si8 0.399633 0.663635 0.353392
O O1 0.369345 0.250000 0.218076
O O2 0.229038 0.137228 0.053903
O O3 0.508752 0.164329 0.898416
O O4 0.374091 0.090294 0.287845
O O5 0.069124 0.250000 0.463067
O O6 0.905701 0.250000 0.222025
O O7 0.785062 0.176992 0.570229
O O8 0.735604 0.161461 0.088641
O O9 0.764308 0.992634 0.166320
O O10 0.766933 0.038348 0.812722
O O11 0.986348 0.086300 0.957368
O O12 0.580468 0.069278 0.611045
O O13 0.500000 0.000000 0.000000
O O14 0.795442 0.831271 0.297677
O O15 0.951863 0.250000 0.831983
O O16 0.445412 0.750000 0.431544
#
# Coordination Sequence:
#
# PCOD9157151 Si02
#       8
#     4   2   4   4   4   2   2   4
#     4   9  15  26  44  75 102 133 174 213 261 314
#     4  10  20  33  53  79 105 140 177 216 272 304
#     4   9  18  29  47  76 106 138 172 217 263 310
#     4   9  16  27  47  74 107 134 169 216 255 309
#     4   9  16  28  49  75 101 134 177 213 260 313
#     4  10  18  31  55  77 105 138 179 222 260 318
#     4  10  20  34  52  78 112 134 176 224 258 318
#     4   8  16  27  45  70 100 134 171 210 262 313
#
# _framework density 26.709821000000002
#
# number of rings (size 3 to 8) (size 9 to 14) (size 15 to 20)
#    0.462    2.462    0.769    1.846    1.077    0.000 
#    0.000    0.769    0.000    8.308    0.000   28.000 
#    0.000    0.000    0.000    0.000    0.000    0.000 
#
# Total GULP energy -144749.777858 kJ/mol
# GULP energy per Si atom -5567.299148 kJ/mol
# Density = 2.664903 g / cm^3
# Si number density = 26.709821 Si / 1000 Ang^3
#
#
#
# Elastic Constant Matrix: (Units=GPa)
#
#
# Indices 1 2 3 4 5 6 
#
# 1 78.0675 5.5540 21.7553 0.0000 10.4865 0.0000
# 2 5.5540 304.0701 35.2696 0.0000 14.9390 0.0000
# 3 21.7553 35.2696 50.7603 0.0000 2.3261 0.0000
# 4 0.0000 0.0000 0.0000 9.5785 0.0000 -2.0704
# 5 10.4865 14.9390 2.3261 0.0000 27.3749 0.0000
# 6 0.0000 0.0000 0.0000 -2.0704 0.0000 24.4915
#
#
#
# Elastic Compliance Matrix: (Units=1/GPa)
#
#
# Indices 1 2 3 4 5 6 
#
# 1 0.015455 0.000804 -0.006918 0.000000 -0.005771 0.000000
# 2 0.000804 0.003704 -0.002822 0.000000 -0.002089 0.000000
# 3 -0.006918 -0.002822 0.024530 0.000000 0.002106 0.000000
# 4 0.000000 0.000000 0.000000 0.106343 0.000000 0.008990
# 5 -0.005771 -0.002089 0.002106 0.000000 0.039702 0.000000
# 6 0.000000 0.000000 0.000000 0.008990 0.000000 0.041590
#
#
# Mechanical properties :
#
#
# Convention : Reuss Voigt Hill
#
# Bulk Modulus (GPa) = 38.73557 62.00617 50.37087
# Shear Modulus (GPa) = 19.39464 36.97694 28.18579
#
# Velocity S-wave (km/s) = 2.69759 3.72478 3.25200
# Velocity P-wave (km/s) = 4.92306 6.46249 5.74458
#
# Compressibility (1/GPa) = 0.02581607
#
# Stress axis : x y z
#
# Youngs Moduli (GPa) = 64.70272 269.97402 40.76660
#
# Poissons Ratio (x) = -0.21697 0.28202
# Poissons Ratio (y) = -0.05200 0.11506
# Poissons Ratio (z) = 0.44761 0.76197
#
# Static dielectric constant tensor:
#      x y z
#    x 2.111630 0.000000 0.013680 
#    y 0.000000 2.271080 0.000000 
#    z 0.013680 0.000000 2.172200 
# 
# From -- ./inp_files/18355.got.cif
#   From: 2010.05.17/outbox.cif.g08.bks.cpg/sg11_10_cif.got.tgz:18355.got - 2010.06.03 12:22:45.
