data_PCOD9157129
_publ_section_title
;
Structure prediction by ZEFSAII (Michael W. Deem and Ramdas Pophale) SiO2 
 PCOD9157129
Probable space group: P 21/M
;
_chemical_formula_sum "Si O2"
_cell_formula_units_Z 32
_cell_length_a 11.791571
_cell_length_b 23.196779
_cell_length_c 11.861637
_cell_angle_alpha 90.000000
_cell_angle_beta 145.855941
_cell_angle_gamma 90.000000
_cell_volume 1821.042730
_symmetry_space_group_name_H-M "P 21/M"
_symmetry_group_IT_number 11
_symmetry_cell_setting 'monoclinic'
loop_
_space_group_symop_operation_xyz
x,y,z
-x,1/2+y,-z
-x,-y,-z
x,1/2-y,z
loop_
_atom_site_type_symbol
_atom_site_label
_atom_site_fract_x
_atom_site_fract_y
_atom_site_fract_z
Si Si1 0.466561 0.585801 0.906459
Si Si2 0.313317 0.040042 0.700466
Si Si3 0.689176 0.462530 0.872709
Si Si4 0.503981 0.684290 0.532786
Si Si5 0.083012 0.912612 0.722395
Si Si6 0.890862 0.815748 0.713061
Si Si7 0.892253 0.133362 0.888760
Si Si8 0.304900 0.099456 0.129014
O O1 0.381136 0.524245 0.791210
O O2 0.262808 0.611675 0.792077
O O3 0.588600 0.611744 0.902770
O O4 0.620613 0.576862 0.136620
O O5 0.459913 0.055091 0.715824
O O6 0.081928 0.048977 0.477857
O O7 0.787556 0.423641 0.856463
O O8 0.689967 0.530397 0.846569
O O9 0.812898 0.449439 0.090725
O O10 0.527359 0.750000 0.595067
O O11 0.655471 0.679227 0.551228
O O12 0.278332 0.671337 0.309269
O O13 0.574443 0.636163 0.679134
O O14 0.962410 0.860335 0.678967
O O15 0.935534 0.750000 0.719457
O O16 0.008203 0.832902 0.924413
O O17 0.071618 0.117304 0.951027
#
# Coordination Sequence:
#
# PCOD9157129 Si02
#       8
#     4   4   4   4   4   4   4   4
#     4   9  19  32  47  74 103 133 169 200 244 302
#     4   9  17  31  51  73 102 133 166 206 246 298
#     4   9  19  32  49  81 108 127 163 207 259 306
#     4  10  21  36  54  73  94 132 177 207 244 297
#     4  10  18  31  54  76 101 135 167 206 254 302
#     4   9  19  35  53  75 100 124 162 215 258 296
#     4  10  19  33  54  76 102 134 165 205 253 304
#     4  10  21  34  49  74 108 136 165 207 248 296
#
# _framework density 17.572348999999999
#
# number of rings (size 3 to 8) (size 9 to 14) (size 15 to 20)
#    0.000    2.500    0.000    2.625    0.000    4.000 
#    0.000    0.625    0.000    0.750    0.000    0.000 
#    0.000    0.000    0.000    0.000    0.000    0.000 
#
# Total GULP energy -178368.316754 kJ/mol
# GULP energy per Si atom -5574.009899 kJ/mol
# Density = 1.753235 g / cm^3
# Si number density = 17.572349 Si / 1000 Ang^3
#
#
#
# Elastic Constant Matrix: (Units=GPa)
#
#
# Indices 1 2 3 4 5 6 
#
# 1 109.2202 27.6254 26.5703 0.0000 14.2809 0.0000
# 2 27.6254 71.8965 15.9022 0.0000 -2.3161 0.0000
# 3 26.5703 15.9022 47.1823 0.0000 15.1049 0.0000
# 4 0.0000 0.0000 0.0000 16.5562 0.0000 6.2381
# 5 14.2809 -2.3161 15.1049 0.0000 15.5203 0.0000
# 6 0.0000 0.0000 0.0000 6.2381 0.0000 19.1973
#
#
#
# Elastic Compliance Matrix: (Units=1/GPa)
#
#
# Indices 1 2 3 4 5 6 
#
# 1 0.012083 -0.004462 -0.002220 0.000000 -0.009623 0.000000
# 2 -0.004462 0.017934 -0.008284 0.000000 0.014844 0.000000
# 3 -0.002220 -0.008284 0.036283 0.000000 -0.034506 0.000000
# 4 0.000000 0.000000 0.000000 0.068827 0.000000 -0.022365
# 5 -0.009623 0.014844 -0.034506 0.000000 0.109084 0.000000
# 6 0.000000 0.000000 0.000000 -0.022365 0.000000 0.059358
#
#
# Mechanical properties :
#
#
# Convention : Reuss Voigt Hill
#
# Bulk Modulus (GPa) = 27.49607 40.94387 34.21997
# Shear Modulus (GPa) = 14.46671 20.80150 17.63411
#
# Velocity S-wave (km/s) = 2.87237 3.44432 3.17127
# Velocity P-wave (km/s) = 5.16546 6.25848 5.73805
#
# Compressibility (1/GPa) = 0.03636884
#
# Stress axis : x y z
#
# Youngs Moduli (GPa) = 82.76391 55.76113 27.56115
#
# Poissons Ratio (x) = 0.24879 0.06118
# Poissons Ratio (y) = 0.36926 0.22831
# Poissons Ratio (z) = 0.18371 0.46192
#
# Static dielectric constant tensor:
#      x y z
#    x 1.624060 0.000000 0.010170 
#    y 0.000000 1.588150 0.000000 
#    z 0.010170 0.000000 1.588990 
# 
# From -- ./inp_files/5496.got.cif
#   From: 2010.05.17/outbox.cif.g08.bks.cpg/sg11_3_cif.got.tgz:5496.got - 2010.06.03 12:22:45.
