data_PCOD9157739
_publ_section_title
;
Structure prediction by ZEFSAII (Michael W. Deem and Ramdas Pophale) SiO2 
 PCOD9157739
Probable space group: P 21/M
;
_chemical_formula_sum "Si O2"
_cell_formula_units_Z 26
_cell_length_a 8.843417
_cell_length_b 19.842046
_cell_length_c 14.570836
_cell_angle_alpha 90.000000
_cell_angle_beta 151.023691
_cell_angle_gamma 90.000000
_cell_volume 1238.620136
_symmetry_space_group_name_H-M "P 21/M"
_symmetry_group_IT_number 11
_symmetry_cell_setting 'monoclinic'
loop_
_space_group_symop_operation_xyz
x,y,z
-x,1/2+y,-z
-x,-y,-z
x,1/2-y,z
loop_
_atom_site_type_symbol
_atom_site_label
_atom_site_fract_x
_atom_site_fract_y
_atom_site_fract_z
Si Si1 0.883492 0.961157 0.151940
Si Si2 0.695596 0.494581 0.777863
Si Si3 0.267469 0.898999 0.862556
Si Si4 0.129145 0.250000 0.524825
Si Si5 0.377646 0.750000 0.910264
Si Si6 0.952118 0.250000 0.646381
Si Si7 0.771195 0.106057 0.504426
Si Si8 0.181978 0.105657 0.541450
O O1 0.184120 0.955195 0.247829
O O2 0.995501 0.939667 0.311895
O O3 0.766445 0.038642 0.086084
O O4 0.588084 0.913521 0.976763
O O5 0.551727 0.566377 0.674212
O O6 0.432591 0.451829 0.689665
O O7 0.000000 0.500000 0.000000
O O8 0.278111 0.821852 0.901255
O O9 0.985490 0.907850 0.643166
O O10 0.072657 0.250000 0.604340
O O11 0.311170 0.181373 0.601727
O O12 0.810811 0.250000 0.289845
O O13 0.755520 0.750000 0.127143
O O14 0.765814 0.179424 0.549501
O O15 0.925712 0.109460 0.485827
#
# Coordination Sequence:
#
# PCOD9157739 Si02
#       8
#     4   4   4   2   2   2   4   4
#     4  11  23  37  61  92 121 155 202 257 301 366
#     4  12  26  39  59  90 127 162 206 255 312 363
#     4  10  21  37  63  88 121 153 204 249 308 369
#     4   8  20  36  61  90 124 150 208 256 303 368
#     4  10  18  36  60  96 114 162 204 252 308 382
#     4  10  20  38  63  90 124 160 206 258 309 370
#     4  11  22  41  64  88 122 161 207 252 311 368
#     4  10  21  40  62  87 118 161 198 251 306 366
#
# _framework density 20.991102000000001
#
# number of rings (size 3 to 8) (size 9 to 14) (size 15 to 20)
#    0.000    1.538    3.077    1.846    4.308    0.000 
#    0.000    3.077    0.000    0.000    0.000    0.000 
#    0.000    0.000    0.000    0.000    0.000    0.000 
#
# Total GULP energy -144931.976712 kJ/mol
# GULP energy per Si atom -5574.306797 kJ/mol
# Density = 2.094333 g / cm^3
# Si number density = 20.991102 Si / 1000 Ang^3
#
#
#
# Elastic Constant Matrix: (Units=GPa)
#
#
# Indices 1 2 3 4 5 6 
#
# 1 19.6729 -8.6510 -12.7686 0.0000 1.0617 0.0000
# 2 -8.6510 152.6697 36.9346 0.0000 1.3188 0.0000
# 3 -12.7686 36.9346 99.4034 0.0000 3.2796 0.0000
# 4 0.0000 0.0000 0.0000 22.8565 0.0000 -5.9107
# 5 1.0617 1.3188 3.2796 0.0000 21.7597 0.0000
# 6 0.0000 0.0000 0.0000 -5.9107 0.0000 10.4368
#
#
#
# Elastic Compliance Matrix: (Units=1/GPa)
#
#
# Indices 1 2 3 4 5 6 
#
# 1 0.056114 0.001581 0.006748 0.000000 -0.003851 0.000000
# 2 0.001581 0.007242 -0.002483 0.000000 -0.000142 0.000000
# 3 0.006748 -0.002483 0.011915 0.000000 -0.001975 0.000000
# 4 0.000000 0.000000 0.000000 0.051258 0.000000 0.029029
# 5 -0.003851 -0.000142 -0.001975 0.000000 0.046451 0.000000
# 6 0.000000 0.000000 0.000000 0.029029 0.000000 0.112256
#
#
# Mechanical properties :
#
#
# Convention : Reuss Voigt Hill
#
# Bulk Modulus (GPa) = 11.49949 33.64179 22.57064
# Shear Modulus (GPa) = 16.52726 28.09266 22.30996
#
# Velocity S-wave (km/s) = 2.80901 3.66226 3.26364
# Velocity P-wave (km/s) = 4.00136 5.82618 4.99776
#
# Compressibility (1/GPa) = 0.08696038
#
# Stress axis : x y z
#
# Youngs Moduli (GPa) = 17.82091 138.09157 83.93128
#
# Poissons Ratio (x) = -0.21826 -0.56634
# Poissons Ratio (y) = -0.02817 0.20840
# Poissons Ratio (z) = -0.12025 0.34288
#
# Static dielectric constant tensor:
#      x y z
#    x 1.836470 0.000000 -0.025430 
#    y 0.000000 1.839380 0.000000 
#    z -0.025430 0.000000 1.756980 
# 
# From -- ./inp_files/14012.got.cif
#   From: 2010.05.17/outbox.cif.g08.bks.cpg/sg11_8_cif.got.tgz:14012.got - 2010.06.03 12:22:45.
