data_PCOD9157124
_publ_section_title
;
Structure prediction by ZEFSAII (Michael W. Deem and Ramdas Pophale) SiO2 
 PCOD9157124
Probable space group: P 21/M
;
_chemical_formula_sum "Si O2"
_cell_formula_units_Z 28
_cell_length_a 12.814925
_cell_length_b 13.572773
_cell_length_c 9.929822
_cell_angle_alpha 90.000000
_cell_angle_beta 129.953671
_cell_angle_gamma 90.000000
_cell_volume 1323.958912
_symmetry_space_group_name_H-M "P 21/M"
_symmetry_group_IT_number 11
_symmetry_cell_setting 'monoclinic'
loop_
_space_group_symop_operation_xyz
x,y,z
-x,1/2+y,-z
-x,-y,-z
x,1/2-y,z
loop_
_atom_site_type_symbol
_atom_site_label
_atom_site_fract_x
_atom_site_fract_y
_atom_site_fract_z
Si Si1 0.748651 0.044937 0.091212
Si Si2 0.205435 0.630530 0.295550
Si Si3 0.841718 0.866275 0.309541
Si Si4 0.747885 0.630620 0.535749
Si Si5 0.984574 0.369619 0.095765
Si Si6 0.440062 0.869640 0.281321
Si Si7 0.837360 0.368068 0.441408
O O1 0.877299 0.085144 0.112332
O O2 0.759211 0.091308 0.248145
O O3 0.765076 0.929430 0.133421
O O4 0.617445 0.079357 0.900616
O O5 0.204816 0.750000 0.302632
O O6 0.335358 0.603768 0.313294
O O7 0.210279 0.594956 0.452246
O O8 0.069532 0.605203 0.097977
O O9 0.825421 0.750000 0.274793
O O10 0.790839 0.891218 0.417671
O O11 0.001976 0.890561 0.436881
O O12 0.747035 0.750000 0.541963
O O13 0.594145 0.599935 0.437241
O O14 0.863908 0.599668 0.737400
O O15 0.975141 0.250000 0.101391
O O16 0.433806 0.750000 0.258877
O O17 0.825259 0.250000 0.427744
#
# Coordination Sequence:
#
# PCOD9157124 Si02
#       7
#     4   4   4   4   4   4   4
#     4  11  19  31  56  82 104 141 181 225 267 316
#     4   8  16  30  51  78 109 141 175 217 263 316
#     4  10  21  34  52  80 107 137 180 228 279 317
#     4   9  17  31  53  76 107 143 180 223 259 309
#     4   9  16  30  53  82 108 140 185 219 256 316
#     4   9  18  33  54  81 108 142 184 216 256 320
#     4  10  18  31  53  82 113 135 168 225 276 318
#
# _framework density 21.148693000000002
#
# number of rings (size 3 to 8) (size 9 to 14) (size 15 to 20)
#    0.000    2.571    1.429    2.571    0.000    0.571 
#    0.000    2.857    3.143    0.857    0.000    0.000 
#    0.000    0.000    0.000    0.000    0.000    0.000 
#
# Total GULP energy -156525.888163 kJ/mol
# GULP energy per Si atom -5590.210292 kJ/mol
# Density = 2.110056 g / cm^3
# Si number density = 21.148693 Si / 1000 Ang^3
#
#
#
# Elastic Constant Matrix: (Units=GPa)
#
#
# Indices 1 2 3 4 5 6 
#
# 1 95.6540 17.2838 77.3594 0.0000 8.5005 0.0000
# 2 17.2838 89.5721 41.2584 0.0000 -6.4246 0.0000
# 3 77.3594 41.2584 142.6330 0.0000 -1.2913 0.0000
# 4 0.0000 0.0000 0.0000 36.2907 0.0000 -3.4111
# 5 8.5005 -6.4246 -1.2913 0.0000 35.1030 0.0000
# 6 0.0000 0.0000 0.0000 -3.4111 0.0000 8.0836
#
#
#
# Elastic Compliance Matrix: (Units=1/GPa)
#
#
# Indices 1 2 3 4 5 6 
#
# 1 0.019560 0.000896 -0.010913 0.000000 -0.004974 0.000000
# 2 0.000896 0.013097 -0.004256 0.000000 0.002024 0.000000
# 3 -0.010913 -0.004256 0.014182 0.000000 0.002385 0.000000
# 4 0.000000 0.000000 0.000000 0.028693 0.000000 0.012108
# 5 -0.004974 0.002024 0.002385 0.000000 0.030150 0.000000
# 6 0.000000 0.000000 0.000000 0.012108 0.000000 0.128817
#
#
# Mechanical properties :
#
#
# Convention : Reuss Voigt Hill
#
# Bulk Modulus (GPa) = 54.66513 66.62915 60.64714
# Shear Modulus (GPa) = 18.57741 28.69262 23.63502
#
# Velocity S-wave (km/s) = 2.96703 3.68735 3.34663
# Velocity P-wave (km/s) = 6.13529 7.04998 6.60848
#
# Compressibility (1/GPa) = 0.01829320
#
# Stress axis : x y z
#
# Youngs Moduli (GPa) = 51.12380 76.35428 70.50946
#
# Poissons Ratio (x) = -0.06838 0.76947
# Poissons Ratio (y) = -0.04578 0.30008
# Poissons Ratio (z) = 0.55791 0.32495
#
# Static dielectric constant tensor:
#      x y z
#    x 1.731060 0.000000 -0.005160 
#    y 0.000000 1.824980 0.000000 
#    z -0.005160 0.000000 1.725300 
# 
# From -- ./inp_files/18154.got.cif
#   From: 2010.05.17/outbox.cif.g08.bks.cpg/sg11_10_cif.got.tgz:18154.got - 2010.06.03 12:22:45.
