data_PCOD9157065
_publ_section_title
;
Structure prediction by ZEFSAII (Michael W. Deem and Ramdas Pophale) SiO2 
 PCOD9157065
Probable space group: P 21/M
;
_chemical_formula_sum "Si O2"
_cell_formula_units_Z 32
_cell_length_a 24.638302
_cell_length_b 7.827120
_cell_length_c 10.492708
_cell_angle_alpha 90.000000
_cell_angle_beta 125.589267
_cell_angle_gamma 90.000000
_cell_volume 1645.519199
_symmetry_space_group_name_H-M "P 21/M"
_symmetry_group_IT_number 11
_symmetry_cell_setting 'monoclinic'
loop_
_space_group_symop_operation_xyz
x,y,z
-x,1/2+y,-z
-x,-y,-z
x,1/2-y,z
loop_
_atom_site_type_symbol
_atom_site_label
_atom_site_fract_x
_atom_site_fract_y
_atom_site_fract_z
Si Si1 0.353370 0.951076 0.519762
Si Si2 0.157014 0.950130 0.604924
Si Si3 0.501788 0.044298 0.353346
Si Si4 0.701378 0.947924 0.286123
Si Si5 0.736112 0.046579 0.830833
Si Si6 0.641373 0.542137 0.937417
Si Si7 0.987015 0.953716 0.630193
Si Si8 0.131347 0.959375 0.862058
O O1 0.359255 0.750000 0.497071
O O2 0.428362 0.021795 0.607934
O O3 0.302626 0.024926 0.344823
O O4 0.324544 0.967421 0.621063
O O5 0.172440 0.750000 0.632529
O O6 0.148718 0.012907 0.740140
O O7 0.219138 0.037263 0.622260
O O8 0.085624 0.972924 0.438975
O O9 0.500531 0.250000 0.339378
O O10 0.433876 0.982721 0.194177
O O11 0.500000 0.000000 0.500000
O O12 0.682618 0.750000 0.270149
O O13 0.668569 0.017183 0.111197
O O14 0.744361 0.250000 0.823507
O O15 0.689564 0.018451 0.890233
O O16 0.809797 0.979629 0.965599
O O17 0.643131 0.750000 0.938642
O O18 0.982544 0.750000 0.635889
O O19 0.055586 0.012864 0.790701
O O20 0.000000 0.000000 0.500000
O O21 0.131064 0.750000 0.859779
#
# Coordination Sequence:
#
# PCOD9157065 Si02
#       8
#     4   4   4   4   4   4   4   4
#     4  10  22  37  55  79 107 142 181 221 265 320
#     4  10  18  31  52  76 105 141 179 222 270 320
#     4  10  20  36  57  81 109 138 176 221 269 320
#     4  11  23  37  53  77 110 146 180 221 272 322
#     4  10  18  33  56  81 106 139 181 219 263 319
#     4  10  21  35  54  81 109 138 176 224 270 316
#     4   9  16  27  44  73 110 143 175 216 268 319
#     4   8  15  27  48  77 106 135 171 217 262 311
#
# _framework density 19.446750000000002
#
# number of rings (size 3 to 8) (size 9 to 14) (size 15 to 20)
#    0.000    2.250    2.500    1.875    0.000    2.000 
#    0.000    0.625    0.000    0.750    0.000    0.000 
#    0.000    0.000    0.000    0.000    0.000    0.000 
#
# Total GULP energy -178473.686984 kJ/mol
# GULP energy per Si atom -5577.302718 kJ/mol
# Density = 1.940249 g / cm^3
# Si number density = 19.446750 Si / 1000 Ang^3
#
#
#
# Elastic Constant Matrix: (Units=GPa)
#
#
# Indices 1 2 3 4 5 6 
#
# 1 86.1075 -16.8484 68.0632 0.0000 18.6499 0.0000
# 2 -16.8484 19.2533 -7.0150 0.0000 2.9240 0.0000
# 3 68.0632 -7.0150 144.2691 0.0000 30.3982 0.0000
# 4 0.0000 0.0000 0.0000 7.8882 0.0000 -5.8003
# 5 18.6499 2.9240 30.3982 0.0000 36.4303 0.0000
# 6 0.0000 0.0000 0.0000 -5.8003 0.0000 17.9472
#
#
#
# Elastic Compliance Matrix: (Units=1/GPa)
#
#
# Indices 1 2 3 4 5 6 
#
# 1 0.023593 0.018302 -0.008962 0.000000 -0.006069 0.000000
# 2 0.018302 0.068942 -0.002599 0.000000 -0.012734 0.000000
# 3 -0.008962 -0.002599 0.012161 0.000000 -0.005350 0.000000
# 4 0.000000 0.000000 0.000000 0.166290 0.000000 0.053742
# 5 -0.006069 -0.012734 -0.005350 0.000000 0.036043 0.000000
# 6 0.000000 0.000000 0.000000 0.053742 0.000000 0.073088
#
#
# Mechanical properties :
#
#
# Convention : Reuss Voigt Hill
#
# Bulk Modulus (GPa) = 8.46179 37.55881 23.01030
# Shear Modulus (GPa) = 12.31445 26.14846 19.23145
#
# Velocity S-wave (km/s) = 2.51915 3.67088 3.14814
# Velocity P-wave (km/s) = 3.58081 6.10924 5.00724
#
# Compressibility (1/GPa) = 0.11817824
#
# Stress axis : x y z
#
# Youngs Moduli (GPa) = 42.38544 14.50488 82.23313
#
# Poissons Ratio (x) = -0.26547 0.73697
# Poissons Ratio (y) = -0.77576 0.21375
# Poissons Ratio (z) = 0.37986 0.03770
#
# Static dielectric constant tensor:
#      x y z
#    x 1.644580 0.000000 0.043490 
#    y 0.000000 1.707510 0.000000 
#    z 0.043490 0.000000 1.712880 
# 
# From -- ./inp_files/43816.got.cif
#   From: 2010.05.17/outbox.cif.g08.bks.cpg/sg11_22_cif.got.tgz:43816.got - 2010.06.03 12:22:45.
