data_PCOD9157404
_publ_section_title
;
Structure prediction by ZEFSAII (Michael W. Deem and Ramdas Pophale) SiO2 
 PCOD9157404
Probable space group: P 21/M
;
_chemical_formula_sum "Si O2"
_cell_formula_units_Z 32
_cell_length_a 15.538839
_cell_length_b 17.451202
_cell_length_c 20.363125
_cell_angle_alpha 90.000000
_cell_angle_beta 161.685774
_cell_angle_gamma 90.000000
_cell_volume 1735.135795
_symmetry_space_group_name_H-M "P 21/M"
_symmetry_group_IT_number 11
_symmetry_cell_setting 'monoclinic'
loop_
_space_group_symop_operation_xyz
x,y,z
-x,1/2+y,-z
-x,-y,-z
x,1/2-y,z
loop_
_atom_site_type_symbol
_atom_site_label
_atom_site_fract_x
_atom_site_fract_y
_atom_site_fract_z
Si Si1 0.354062 0.667454 0.714156
Si Si2 0.144205 0.504247 0.436318
Si Si3 0.061871 0.535759 0.164324
Si Si4 0.871886 0.664550 0.268110
Si Si5 0.512141 0.004625 0.182931
Si Si6 0.404064 0.572274 0.974134
Si Si7 0.750579 0.834443 0.872879
Si Si8 0.497297 0.432141 0.411353
O O1 0.402778 0.750000 0.781838
O O2 0.426855 0.589262 0.803298
O O3 0.545549 0.664528 0.787168
O O4 0.048685 0.665295 0.463757
O O5 0.271438 0.495861 0.601097
O O6 0.386881 0.508513 0.559378
O O7 0.998116 0.588785 0.324284
O O8 0.922468 0.438537 0.262054
O O9 0.235181 0.468331 0.257016
O O10 0.262280 0.576068 0.361774
O O11 0.790357 0.506823 0.004712
O O12 0.963810 0.598172 0.040704
O O13 0.910503 0.750000 0.266784
O O14 0.557064 0.645527 0.055693
O O15 0.517598 0.943369 0.129407
O O16 0.500000 0.500000 0.000000
O O17 0.870319 0.750000 0.955179
O O18 0.581819 0.856822 0.686148
#
# Coordination Sequence:
#
# PCOD9157404 Si02
#       8
#     4   4   4   4   4   4   4   4
#     4   8  15  28  48  76 105 135 164 205 263 320
#     4  10  19  32  54  80 106 133 177 217 267 314
#     4  10  21  32  54  83 111 139 186 215 266 317
#     4   9  17  32  51  73 102 134 166 214 270 317
#     4  10  18  33  52  75 106 139 172 219 260 309
#     4  10  21  33  51  75 102 135 179 216 262 317
#     4  10  19  33  52  77 115 145 169 214 270 321
#     4  11  19  33  55  84 109 142 177 222 262 320
#
# _framework density 18.442360999999998
#
# number of rings (size 3 to 8) (size 9 to 14) (size 15 to 20)
#    0.000    2.250    5.000    0.375    0.000    5.000 
#    0.000    2.500    0.000    5.250    0.000    0.000 
#    0.000    0.000    0.000    0.000    0.000    0.000 
#
# Total GULP energy -178294.866571 kJ/mol
# GULP energy per Si atom -5571.714580 kJ/mol
# Density = 1.840038 g / cm^3
# Si number density = 18.442361 Si / 1000 Ang^3
#
#
#
# Elastic Constant Matrix: (Units=GPa)
#
#
# Indices 1 2 3 4 5 6 
#
# 1 35.8613 -0.2135 7.6178 0.0000 -8.6266 0.0000
# 2 -0.2135 30.7967 20.1380 0.0000 1.7349 0.0000
# 3 7.6178 20.1380 61.2280 0.0000 -1.2152 0.0000
# 4 0.0000 0.0000 0.0000 6.6554 0.0000 -0.2859
# 5 -8.6266 1.7349 -1.2152 0.0000 25.9180 0.0000
# 6 0.0000 0.0000 0.0000 -0.2859 0.0000 14.6641
#
#
#
# Elastic Compliance Matrix: (Units=1/GPa)
#
#
# Indices 1 2 3 4 5 6 
#
# 1 0.031280 0.002634 -0.004559 0.000000 0.010021 0.000000
# 2 0.002634 0.041893 -0.014158 0.000000 -0.002591 0.000000
# 3 -0.004559 -0.014158 0.021565 0.000000 0.000441 0.000000
# 4 0.000000 0.000000 0.000000 0.150381 0.000000 0.002932
# 5 0.010021 -0.002591 0.000441 0.000000 0.042113 0.000000
# 6 0.000000 0.000000 0.000000 0.002932 0.000000 0.068251
#
#
# Mechanical properties :
#
#
# Convention : Reuss Voigt Hill
#
# Bulk Modulus (GPa) = 15.98175 20.33005 18.15590
# Shear Modulus (GPa) = 12.23972 16.13709 14.18841
#
# Velocity S-wave (km/s) = 2.57898 2.96125 2.77670
# Velocity P-wave (km/s) = 4.18961 4.76860 4.48845
#
# Compressibility (1/GPa) = 0.06257136
#
# Stress axis : x y z
#
# Youngs Moduli (GPa) = 31.96928 23.87030 46.37160
#
# Poissons Ratio (x) = -0.06286 0.21141
# Poissons Ratio (y) = -0.08419 0.65652
# Poissons Ratio (z) = 0.14575 0.33795
#
# Static dielectric constant tensor:
#      x y z
#    x 1.647610 0.000000 -0.010670 
#    y 0.000000 1.657470 0.000000 
#    z -0.010670 0.000000 1.693590 
# 
# From -- ./inp_files/65859.got.cif
#   From: 2010.05.17/outbox.cif.g08.bks.cpg/sg11_33_cif.got.tgz:65859.got - 2010.06.03 12:22:45.
