data_PCOD9157555
_publ_section_title
;
Structure prediction by ZEFSAII (Michael W. Deem and Ramdas Pophale) SiO2 
 PCOD9157555
Probable space group: P 21/M
;
_chemical_formula_sum "Si O2"
_cell_formula_units_Z 20
_cell_length_a 7.383613
_cell_length_b 15.961317
_cell_length_c 14.086661
_cell_angle_alpha 90.000000
_cell_angle_beta 141.241569
_cell_angle_gamma 90.000000
_cell_volume 1039.313487
_symmetry_space_group_name_H-M "P 21/M"
_symmetry_group_IT_number 11
_symmetry_cell_setting 'monoclinic'
loop_
_space_group_symop_operation_xyz
x,y,z
-x,1/2+y,-z
-x,-y,-z
x,1/2-y,z
loop_
_atom_site_type_symbol
_atom_site_label
_atom_site_fract_x
_atom_site_fract_y
_atom_site_fract_z
Si Si1 0.597294 0.907606 0.501669
Si Si2 0.516571 0.012671 0.298621
Si Si3 0.845617 0.341509 0.537768
Si Si4 0.372522 0.076714 0.845955
Si Si5 0.057666 0.563208 0.830166
O O1 0.370791 0.847342 0.459726
O O2 0.907255 0.894177 0.677120
O O3 0.500000 0.000000 0.500000
O O4 0.581492 0.926497 0.384193
O O5 0.743554 0.083128 0.427151
O O6 0.201173 0.046554 0.201224
O O7 0.539101 0.991028 0.198219
O O8 0.821968 0.250000 0.483725
O O9 0.161611 0.358739 0.708597
O O10 0.182798 0.025941 0.845402
O O11 0.667618 0.109256 0.012896
#
# Coordination Sequence:
#
# PCOD9157555 Si02
#       5
#     4   4   4   4   4
#     4   8  15  33  50  72  98 129 172 205 241 305
#     4  10  18  34  55  77  95 137 177 211 240 307
#     4  10  19  33  52  76 106 136 164 216 267 295
#     4  11  18  30  56  78 103 131 170 220 245 303
#     4   9  18  31  51  82  98 127 175 208 256 291
#
# _framework density 19.243471
#
# number of rings (size 3 to 8) (size 9 to 14) (size 15 to 20)
#    0.000    2.800    6.000    1.200    0.000    0.000 
#    0.000    5.000    0.000    4.800    0.000    0.000 
#    0.000    0.000    0.000    0.000    0.000    0.000 
#
# Total GULP energy -111342.499538 kJ/mol
# GULP energy per Si atom -5567.124977 kJ/mol
# Density = 1.919967 g / cm^3
# Si number density = 19.243471 Si / 1000 Ang^3
#
#
#
# Elastic Constant Matrix: (Units=GPa)
#
#
# Indices 1 2 3 4 5 6 
#
# 1 45.5618 2.1398 17.0924 0.0000 4.9485 0.0000
# 2 2.1398 26.6035 -1.4845 0.0000 -0.8938 0.0000
# 3 17.0924 -1.4845 129.7151 0.0000 20.6584 0.0000
# 4 0.0000 0.0000 0.0000 9.1228 0.0000 0.7302
# 5 4.9485 -0.8938 20.6584 0.0000 26.8291 0.0000
# 6 0.0000 0.0000 0.0000 0.7302 0.0000 3.8184
#
#
#
# Elastic Compliance Matrix: (Units=1/GPa)
#
#
# Indices 1 2 3 4 5 6 
#
# 1 0.023319 -0.002104 -0.002736 0.000000 -0.002264 0.000000
# 2 -0.002104 0.037829 0.000510 0.000000 0.001256 0.000000
# 3 -0.002736 0.000510 0.009110 0.000000 -0.006493 0.000000
# 4 0.000000 0.000000 0.000000 0.111319 0.000000 -0.021287
# 5 -0.002264 0.001256 -0.006493 0.000000 0.042732 0.000000
# 6 0.000000 0.000000 0.000000 -0.021287 0.000000 0.265962
#
#
# Mechanical properties :
#
#
# Convention : Reuss Voigt Hill
#
# Bulk Modulus (GPa) = 16.23452 26.37510 21.30481
# Shear Modulus (GPa) = 9.62530 20.22957 14.92744
#
# Velocity S-wave (km/s) = 2.23891 3.24581 2.78819
# Velocity P-wave (km/s) = 3.89080 5.27094 4.63255
#
# Compressibility (1/GPa) = 0.06159716
#
# Stress axis : x y z
#
# Youngs Moduli (GPa) = 42.88268 26.43480 109.77393
#
# Poissons Ratio (x) = 0.05563 0.30037
# Poissons Ratio (y) = 0.09024 -0.05601
# Poissons Ratio (z) = 0.11734 -0.01349
#
# Static dielectric constant tensor:
#      x y z
#    x 1.741440 0.000000 -0.011800 
#    y 0.000000 1.660160 0.000000 
#    z -0.011800 0.000000 1.744720 
# 
# From -- ./inp_files/25078.got.cif
#   From: 2010.05.17/outbox.cif.g08.bks.cpg/sg11_13_cif.got.tgz:25078.got - 2010.06.03 12:22:45.
