data_PCOD9157780
_publ_section_title
;
Structure prediction by ZEFSAII (Michael W. Deem and Ramdas Pophale) SiO2 
 PCOD9157780
Probable space group: P 21/M
;
_chemical_formula_sum "Si O2"
_cell_formula_units_Z 32
_cell_length_a 27.335459
_cell_length_b 8.053860
_cell_length_c 21.363260
_cell_angle_alpha 90.000000
_cell_angle_beta 19.839695
_cell_angle_gamma 90.000000
_cell_volume 1596.234219
_symmetry_space_group_name_H-M "P 21/M"
_symmetry_group_IT_number 11
_symmetry_cell_setting 'monoclinic'
loop_
_space_group_symop_operation_xyz
x,y,z
-x,1/2+y,-z
-x,-y,-z
x,1/2-y,z
loop_
_atom_site_type_symbol
_atom_site_label
_atom_site_fract_x
_atom_site_fract_y
_atom_site_fract_z
Si Si1 0.192787 0.546023 0.098583
Si Si2 0.047755 0.447155 0.043310
Si Si3 0.502347 0.942469 0.686795
Si Si4 0.550304 0.449095 0.008067
Si Si5 0.958765 0.556190 0.281525
Si Si6 0.361889 0.939250 0.351711
Si Si7 0.845550 0.050171 0.712082
Si Si8 0.775400 0.547877 0.287832
O O1 0.196372 0.750000 0.094281
O O2 0.056717 0.495140 0.220751
O O3 0.179210 0.491883 0.186836
O O4 0.342924 0.485812 0.887747
O O5 0.058946 0.250000 0.039718
O O6 0.046161 0.535416 0.111786
O O7 0.896324 0.484564 0.190730
O O8 0.170567 0.500552 0.846209
O O9 0.482647 0.750000 0.692956
O O10 0.618739 0.013394 0.498020
O O11 0.578944 0.951070 0.662494
O O12 0.546360 0.250000 0.017254
O O13 0.712515 0.506647 0.829153
O O14 0.500000 0.500000 0.000000
O O15 0.446058 0.519255 0.187035
O O16 0.926173 0.750000 0.330872
O O17 0.807310 0.465325 0.455448
O O18 0.389601 0.750000 0.336780
O O19 0.840816 0.250000 0.719290
O O20 0.000000 0.000000 0.500000
O O21 0.778105 0.750000 0.287791
#
# Coordination Sequence:
#
# PCOD9157780 Si02
#       8
#     4   4   4   4   4   4   4   4
#     4   9  20  39  61  83 111 150 198 239 280 342
#     4  10  19  32  50  82 120 149 189 244 291 344
#     4  10  18  37  63  85 110 148 196 243 290 344
#     4  11  24  43  65  90 121 153 192 240 289 344
#     4  11  22  37  58  84 115 158 199 238 289 343
#     4  12  24  38  59  89 119 150 193 244 292 341
#     4  10  22  41  62  87 116 153 193 236 284 340
#     4   9  18  31  55  83 111 151 192 236 296 349
#
# _framework density 20.047181999999999
#
# number of rings (size 3 to 8) (size 9 to 14) (size 15 to 20)
#    0.000    1.750    2.500    2.250    1.750    1.500 
#    0.000    2.500    0.000    0.000    0.000    0.000 
#    0.000    0.000    0.000    0.000    0.000    0.000 
#
# Total GULP energy -178738.316266 kJ/mol
# GULP energy per Si atom -5585.572383 kJ/mol
# Density = 2.000155 g / cm^3
# Si number density = 20.047182 Si / 1000 Ang^3
#
#
#
# Elastic Constant Matrix: (Units=GPa)
#
#
# Indices 1 2 3 4 5 6 
#
# 1 72.9116 -5.0589 22.8904 0.0000 -6.7640 0.0000
# 2 -5.0589 26.3800 -1.7661 0.0000 0.4028 0.0000
# 3 22.8904 -1.7661 111.5087 0.0000 10.2078 0.0000
# 4 0.0000 0.0000 0.0000 25.6065 0.0000 5.7701
# 5 -6.7640 0.4028 10.2078 0.0000 26.9975 0.0000
# 6 0.0000 0.0000 0.0000 5.7701 0.0000 11.7378
#
#
#
# Elastic Compliance Matrix: (Units=1/GPa)
#
#
# Indices 1 2 3 4 5 6 
#
# 1 0.015521 0.002654 -0.003622 0.000000 0.005218 0.000000
# 2 0.002654 0.038419 0.000057 0.000000 0.000070 0.000000
# 3 -0.003622 0.000057 0.010147 0.000000 -0.004745 0.000000
# 4 0.000000 0.000000 0.000000 0.043918 0.000000 -0.021589
# 5 0.005218 0.000070 -0.004745 0.000000 0.040141 0.000000
# 6 0.000000 0.000000 0.000000 -0.021589 0.000000 0.095808
#
#
# Mechanical properties :
#
#
# Convention : Reuss Voigt Hill
#
# Bulk Modulus (GPa) = 16.06014 26.99232 21.52623
# Shear Modulus (GPa) = 18.75975 25.85069 22.30522
#
# Velocity S-wave (km/s) = 3.06237 3.59485 3.33924
# Velocity P-wave (km/s) = 4.53130 5.54294 5.06246
#
# Compressibility (1/GPa) = 0.06226595
#
# Stress axis : x y z
#
# Youngs Moduli (GPa) = 64.43083 26.02860 98.55505
#
# Poissons Ratio (x) = -0.06909 0.35694
# Poissons Ratio (y) = -0.17101 -0.00564
# Poissons Ratio (z) = 0.23335 -0.00149
#
# Static dielectric constant tensor:
#      x y z
#    x 1.664890 0.000000 0.012040 
#    y 0.000000 1.715340 0.000000 
#    z 0.012040 0.000000 1.709410 
# 
# From -- ./inp_files/66987.got.cif
#   From: 2010.05.17/outbox.cif.g08.bks.cpg/sg11_34_cif.got.tgz:66987.got - 2010.06.03 12:22:45.
