data_PCOD9157071
_publ_section_title
;
Structure prediction by ZEFSAII (Michael W. Deem and Ramdas Pophale) SiO2 
 PCOD9157071
Probable space group: P 21/M
;
_chemical_formula_sum "Si O2"
_cell_formula_units_Z 24
_cell_length_a 12.147604
_cell_length_b 7.424010
_cell_length_c 22.053500
_cell_angle_alpha 90.000000
_cell_angle_beta 29.489924
_cell_angle_gamma 90.000000
_cell_volume 979.062693
_symmetry_space_group_name_H-M "P 21/M"
_symmetry_group_IT_number 11
_symmetry_cell_setting 'monoclinic'
loop_
_space_group_symop_operation_xyz
x,y,z
-x,1/2+y,-z
-x,-y,-z
x,1/2-y,z
loop_
_atom_site_type_symbol
_atom_site_label
_atom_site_fract_x
_atom_site_fract_y
_atom_site_fract_z
Si Si1 0.894626 0.471066 0.730360
Si Si2 0.732924 0.536411 0.354262
Si Si3 0.583178 0.470091 0.215940
Si Si4 0.581187 0.957258 0.076738
Si Si5 0.145300 0.035954 0.489623
Si Si6 0.937118 0.042731 0.134811
O O1 0.888627 0.250000 0.732668
O O2 0.637329 0.533956 0.851830
O O3 0.054481 0.527562 0.708350
O O4 0.020568 0.532692 0.608795
O O5 0.500000 0.500000 0.500000
O O6 0.750666 0.750000 0.339715
O O7 0.760408 0.458306 0.274282
O O8 0.583529 0.250000 0.213418
O O9 0.534911 0.535937 0.171379
O O10 0.389261 0.531396 0.354666
O O11 0.814746 0.534059 0.134587
O O12 0.596660 0.750000 0.048678
O O13 0.829428 0.040313 0.954158
O O14 0.165840 0.250000 0.488661
O O15 0.000000 0.000000 0.500000
O O16 0.990478 0.250000 0.094476
#
# Coordination Sequence:
#
# PCOD9157071 Si02
#       6
#     4   4   4   4   4   4
#     4   9  19  36  57  82 115 150 183 230 286 330
#     4  11  23  41  63  84 111 148 189 234 284 337
#     4  10  20  34  54  82 118 154 186 234 288 329
#     4  10  20  36  59  84 113 152 192 230 278 341
#     4  10  18  31  52  77 108 143 179 222 275 328
#     4  10  22  39  58  83 116 152 190 232 281 333
#
# _framework density 24.513241000000001
#
# number of rings (size 3 to 8) (size 9 to 14) (size 15 to 20)
#    0.000    2.000    1.667    2.000    0.000    4.667 
#    0.000    5.000    0.000    0.000    0.000    0.000 
#    0.000    0.000    0.000    0.000    0.000    0.000 
#
# Total GULP energy -134154.393898 kJ/mol
# GULP energy per Si atom -5589.766412 kJ/mol
# Density = 2.445745 g / cm^3
# Si number density = 24.513241 Si / 1000 Ang^3
#
#
#
# Elastic Constant Matrix: (Units=GPa)
#
#
# Indices 1 2 3 4 5 6 
#
# 1 103.4739 -10.7801 18.4521 0.0000 -39.0322 0.0000
# 2 -10.7801 89.8718 -4.3741 0.0000 -5.8531 0.0000
# 3 18.4521 -4.3741 115.8397 0.0000 -38.2092 0.0000
# 4 0.0000 0.0000 0.0000 7.9653 0.0000 5.3824
# 5 -39.0322 -5.8531 -38.2092 0.0000 42.6479 0.0000
# 6 0.0000 0.0000 0.0000 5.3824 0.0000 11.9593
#
#
#
# Elastic Compliance Matrix: (Units=1/GPa)
#
#
# Indices 1 2 3 4 5 6 
#
# 1 0.016478 0.003389 0.003734 0.000000 0.018891 0.000000
# 2 0.003389 0.012069 0.002108 0.000000 0.006646 0.000000
# 3 0.003734 0.002108 0.013258 0.000000 0.015585 0.000000
# 4 0.000000 0.000000 0.000000 0.180411 0.000000 -0.081196
# 5 0.018891 0.006646 0.015585 0.000000 0.055613 0.000000
# 6 0.000000 0.000000 0.000000 -0.081196 0.000000 0.120160
#
#
# Mechanical properties :
#
#
# Convention : Reuss Voigt Hill
#
# Bulk Modulus (GPa) = 16.59278 35.08682 25.83980
# Shear Modulus (GPa) = 12.51203 32.90699 22.70951
#
# Velocity S-wave (km/s) = 2.26170 3.66788 3.04701
# Velocity P-wave (km/s) = 3.68836 5.68175 4.78990
#
# Compressibility (1/GPa) = 0.06026718
#
# Stress axis : x y z
#
# Youngs Moduli (GPa) = 60.68880 82.85767 75.42525
#
# Poissons Ratio (x) = -0.28077 -0.28167
# Poissons Ratio (y) = -0.20565 -0.15902
# Poissons Ratio (z) = -0.22664 -0.17469
#
# Static dielectric constant tensor:
#      x y z
#    x 1.909250 0.000000 -0.028610 
#    y 0.000000 1.917070 0.000000 
#    z -0.028610 0.000000 1.974430 
# 
# From -- ./inp_files/33702.got.cif
#   From: 2010.05.17/outbox.cif.g08.bks.cpg/sg11_17_cif.got.tgz:33702.got - 2010.06.03 12:22:45.
