data_PCOD9157419
_publ_section_title
;
Structure prediction by ZEFSAII (Michael W. Deem and Ramdas Pophale) SiO2 
 PCOD9157419
Probable space group: P 21/M
;
_chemical_formula_sum "Si O2"
_cell_formula_units_Z 28
_cell_length_a 9.031849
_cell_length_b 16.607735
_cell_length_c 11.860342
_cell_angle_alpha 90.000000
_cell_angle_beta 62.101992
_cell_angle_gamma 90.000000
_cell_volume 1572.278186
_symmetry_space_group_name_H-M "P 21/M"
_symmetry_group_IT_number 11
_symmetry_cell_setting 'monoclinic'
loop_
_space_group_symop_operation_xyz
x,y,z
-x,1/2+y,-z
-x,-y,-z
x,1/2-y,z
loop_
_atom_site_type_symbol
_atom_site_label
_atom_site_fract_x
_atom_site_fract_y
_atom_site_fract_z
Si Si1 0.470811 0.845423 0.427496
Si Si2 0.543680 0.049873 0.790802
Si Si3 0.360737 0.883164 0.817143
Si Si4 0.815547 0.922078 0.715912
Si Si5 0.682568 0.841928 0.555582
Si Si6 0.530548 0.658836 0.969306
Si Si7 0.862378 0.155052 0.302614
O O1 0.494277 0.750000 0.399646
O O2 0.457727 0.893680 0.317314
O O3 0.623254 0.873405 0.455034
O O4 0.299678 0.854550 0.559395
O O5 0.416744 0.975989 0.810804
O O6 0.725239 0.008625 0.747069
O O7 0.491194 0.098225 0.920148
O O8 0.509995 0.843161 0.689807
O O9 0.375349 0.847749 0.937075
O O10 0.196397 0.867088 0.803018
O O11 0.807426 0.892083 0.588969
O O12 0.689280 0.867855 0.837178
O O13 0.995139 0.904603 0.703663
O O14 0.740165 0.750000 0.524776
O O15 0.549447 0.750000 0.001821
O O16 0.912780 0.250000 0.289399
#
# Coordination Sequence:
#
# PCOD9157419 Si02
#       7
#     4   4   4   4   4   4   4
#     4   9  18  32  50  72  99 130 162 195 239 294
#     4  10  20  33  48  72 102 130 161 196 241 292
#     4   9  17  30  50  72  94 121 160 205 239 274
#     4  10  19  31  51  75  98 122 161 209 246 278
#     4   8  14  27  47  69  91 120 159 198 233 273
#     4  10  18  33  54  72  94 127 166 202 239 285
#     4  10  19  32  51  75  99 126 162 202 243 285
#
# _framework density 17.808551999999999
#
# number of rings (size 3 to 8) (size 9 to 14) (size 15 to 20)
#    0.000    2.857    0.000    6.429    0.000    5.714 
#    0.000    2.857    0.000    0.000    0.000    6.000 
#    0.000    0.000    0.000    0.000    0.000    0.000 
#
# Total GULP energy -155952.073193 kJ/mol
# GULP energy per Si atom -5569.716900 kJ/mol
# Density = 1.776802 g / cm^3
# Si number density = 17.808552 Si / 1000 Ang^3
#
#
#
# Elastic Constant Matrix: (Units=GPa)
#
#
# Indices 1 2 3 4 5 6 
#
# 1 58.5855 8.7944 16.7276 0.0000 20.1213 0.0000
# 2 8.7944 63.4178 28.0059 0.0000 10.1274 0.0000
# 3 16.7276 28.0059 51.0887 0.0000 20.9130 0.0000
# 4 0.0000 0.0000 0.0000 -247.2578 0.0000 -18.4267
# 5 20.1213 10.1274 20.9130 0.0000 16.0161 0.0000
# 6 0.0000 0.0000 0.0000 -18.4267 0.0000 13.0453
#
#
#
# Elastic Compliance Matrix: (Units=1/GPa)
#
#
# Indices 1 2 3 4 5 6 
#
# 1 0.034024 -0.001426 0.014543 0.000000 -0.060832 0.000000
# 2 -0.001426 0.020969 -0.013606 0.000000 0.006299 0.000000
# 3 0.014543 -0.013606 0.056344 0.000000 -0.083238 0.000000
# 4 0.000000 0.000000 0.000000 -0.003659 0.000000 -0.005169
# 5 -0.060832 0.006299 -0.083238 0.000000 0.243566 0.000000
# 6 0.000000 0.000000 0.000000 -0.005169 0.000000 0.069355
#
#
# Mechanical properties :
#
#
# Convention : Reuss Voigt Hill
#
# Bulk Modulus (GPa) = 9.06141 31.12753 20.09447
# Shear Modulus (GPa) = 10.90838 -35.66832 -12.37997
#
# Velocity S-wave (km/s) = 2.47763 -4.48021 -2.63947
# Velocity P-wave (km/s) = 3.64474 3.04073 1.42093
#
# Compressibility (1/GPa) = 0.11035808
#
# Stress axis : x y z
#
# Youngs Moduli (GPa) = 29.39143 47.68949 17.74809
#
# Poissons Ratio (x) = 0.06801 -0.25811
# Poissons Ratio (y) = 0.04191 0.24148
# Poissons Ratio (z) = -0.42744 0.64888
#
# Static dielectric constant tensor:
#      x y z
#    x 1.644100 0.000000 0.020720 
#    y 0.000000 1.633080 0.000000 
#    z 0.020720 0.000000 1.590370 
# 
# From -- ./inp_files/31647.got.cif
#   From: 2010.05.17/outbox.cif.g08.bks.cpg/sg11_16_cif.got.tgz:31647.got - 2010.06.03 12:22:45.
