data_PCOD9157342
_publ_section_title
;
Structure prediction by ZEFSAII (Michael W. Deem and Ramdas Pophale) SiO2 
 PCOD9157342
Probable space group: P 21/M
;
_chemical_formula_sum "Si O2"
_cell_formula_units_Z 32
_cell_length_a 12.915677
_cell_length_b 8.651662
_cell_length_c 19.451681
_cell_angle_alpha 90.000000
_cell_angle_beta 48.911699
_cell_angle_gamma 90.000000
_cell_volume 1638.215357
_symmetry_space_group_name_H-M "P 21/M"
_symmetry_group_IT_number 11
_symmetry_cell_setting 'monoclinic'
loop_
_space_group_symop_operation_xyz
x,y,z
-x,1/2+y,-z
-x,-y,-z
x,1/2-y,z
loop_
_atom_site_type_symbol
_atom_site_label
_atom_site_fract_x
_atom_site_fract_y
_atom_site_fract_z
Si Si1 0.562731 0.933958 0.762604
Si Si2 0.140554 0.938598 0.147564
Si Si3 0.421357 0.936684 0.967106
Si Si4 0.563322 0.934823 0.322302
Si Si5 0.083088 0.426070 0.524842
Si Si6 0.811380 0.428333 0.722284
Si Si7 0.676980 0.938128 0.489581
Si Si8 0.173444 0.062031 0.717541
O O1 0.552895 0.750000 0.761681
O O2 0.496807 0.004087 0.723064
O O3 0.720699 0.981275 0.706862
O O4 0.487862 0.986690 0.865907
O O5 0.135492 0.750000 0.152960
O O6 0.260126 0.980625 0.042199
O O7 0.197569 0.991641 0.196930
O O8 0.983821 0.992405 0.206036
O O9 0.430075 0.750000 0.966106
O O10 0.500000 0.000000 0.000000
O O11 0.556691 0.750000 0.325562
O O12 0.720625 0.982712 0.268586
O O13 0.470375 0.996148 0.426122
O O14 0.112488 0.250000 0.492974
O O15 0.972448 0.427230 0.634718
O O16 0.000000 0.500000 0.500000
O O17 0.222797 0.494738 0.492561
O O18 0.764372 0.250000 0.741068
O O19 0.671686 0.750000 0.492597
O O20 0.751879 0.984542 0.386333
O O21 0.167706 0.250000 0.718373
#
# Coordination Sequence:
#
# PCOD9157342 Si02
#       8
#     4   4   4   4   4   4   4   4
#     4  11  23  37  53  80 116 148 178 221 276 328
#     4   9  16  32  58  84 107 136 175 221 271 325
#     4  10  20  34  58  86 111 141 177 219 272 330
#     4  11  23  37  55  80 108 146 191 230 265 316
#     4  10  20  31  47  74 106 141 177 215 264 320
#     4  10  18  32  56  80 105 139 179 220 265 323
#     4  10  19  35  57  80 108 142 179 227 279 323
#     4   9  18  35  59  83 108 141 187 230 269 319
#
# _framework density 19.533450999999999
#
# number of rings (size 3 to 8) (size 9 to 14) (size 15 to 20)
#    0.000    2.000    2.500    1.875    0.000    3.500 
#    0.000    1.250    0.000    3.750    0.000    0.000 
#    0.000    0.000    0.000    0.000    0.000    0.000 
#
# Total GULP energy -178496.121623 kJ/mol
# GULP energy per Si atom -5578.003801 kJ/mol
# Density = 1.948899 g / cm^3
# Si number density = 19.533451 Si / 1000 Ang^3
#
#
#
# Elastic Constant Matrix: (Units=GPa)
#
#
# Indices 1 2 3 4 5 6 
#
# 1 124.4641 16.9842 40.0720 0.0000 -21.9483 0.0000
# 2 16.9842 18.1417 11.3783 0.0000 -1.2763 0.0000
# 3 40.0720 11.3783 86.4773 0.0000 -15.1248 0.0000
# 4 0.0000 0.0000 0.0000 18.3827 0.0000 -2.0512
# 5 -21.9483 -1.2763 -15.1248 0.0000 29.9645 0.0000
# 6 0.0000 0.0000 0.0000 -2.0512 0.0000 12.4570
#
#
#
# Elastic Compliance Matrix: (Units=1/GPa)
#
#
# Indices 1 2 3 4 5 6 
#
# 1 0.011247 -0.008186 -0.003021 0.000000 0.006364 0.000000
# 2 -0.008186 0.066106 -0.005990 0.000000 -0.006204 0.000000
# 3 -0.003021 -0.005990 0.014610 0.000000 0.004906 0.000000
# 4 0.000000 0.000000 0.000000 0.055417 0.000000 0.009125
# 5 0.006364 -0.006204 0.004906 0.000000 0.040247 0.000000
# 6 0.000000 0.000000 0.000000 0.009125 0.000000 0.081779
#
#
# Mechanical properties :
#
#
# Convention : Reuss Voigt Hill
#
# Bulk Modulus (GPa) = 17.37081 40.66136 29.01608
# Shear Modulus (GPa) = 15.48045 22.87075 19.17560
#
# Velocity S-wave (km/s) = 2.81821 3.42548 3.13658
# Velocity P-wave (km/s) = 4.41609 6.04208 5.29191
#
# Compressibility (1/GPa) = 0.05756785
#
# Stress axis : x y z
#
# Youngs Moduli (GPa) = 88.91651 15.12729 68.44673
#
# Poissons Ratio (x) = 0.12384 0.20679
# Poissons Ratio (y) = 0.72790 0.40997
# Poissons Ratio (z) = 0.26864 0.09061
#
# Static dielectric constant tensor:
#      x y z
#    x 1.694600 0.000000 0.002220 
#    y 0.000000 1.685970 0.000000 
#    z 0.002220 0.000000 1.726080 
# 
# From -- ./inp_files/42914.got.cif
#   From: 2010.05.17/outbox.cif.g08.bks.cpg/sg11_22_cif.got.tgz:42914.got - 2010.06.03 12:22:45.
