data_PCOD9157223
_publ_section_title
;
Structure prediction by ZEFSAII (Michael W. Deem and Ramdas Pophale) SiO2 
 PCOD9157223
Probable space group: P 21/M
;
_chemical_formula_sum "Si O2"
_cell_formula_units_Z 28
_cell_length_a 13.855868
_cell_length_b 8.585882
_cell_length_c 14.898493
_cell_angle_alpha 90.000000
_cell_angle_beta 76.684144
_cell_angle_gamma 90.000000
_cell_volume 1724.746362
_symmetry_space_group_name_H-M "P 21/M"
_symmetry_group_IT_number 11
_symmetry_cell_setting 'monoclinic'
loop_
_space_group_symop_operation_xyz
x,y,z
-x,1/2+y,-z
-x,-y,-z
x,1/2-y,z
loop_
_atom_site_type_symbol
_atom_site_label
_atom_site_fract_x
_atom_site_fract_y
_atom_site_fract_z
Si Si1 0.135445 0.563383 0.397320
Si Si2 0.924369 0.562148 0.892508
Si Si3 0.389526 0.564269 0.033510
Si Si4 0.771912 0.562695 0.070493
Si Si5 0.090086 0.063373 0.599164
Si Si6 0.750988 0.563931 0.789001
Si Si7 0.862408 0.062999 0.219938
O O1 0.138152 0.750000 0.398275
O O2 0.139049 0.498261 0.497257
O O3 0.221052 0.499226 0.314545
O O4 0.026551 0.515052 0.382059
O O5 0.931293 0.750000 0.896793
O O6 0.846571 0.525573 0.830486
O O7 0.032130 0.503027 0.842865
O O8 0.870648 0.507248 0.994701
O O9 0.388788 0.750000 0.029104
O O10 0.340753 0.509689 0.138033
O O11 0.500000 0.500000 0.000000
O O12 0.319873 0.496819 0.969030
O O13 0.770639 0.750000 0.070835
O O14 0.779771 0.499300 0.169320
O O15 0.093348 0.250000 0.600404
O O16 0.139630 0.995977 0.677852
O O17 0.739714 0.750000 0.789768
O O18 0.861932 0.250000 0.219696
#
# Coordination Sequence:
#
# PCOD9157223 Si02
#       7
#     4   4   4   4   4   4   4
#     4  10  19  31  47  70  98 134 176 215 253 297
#     4   8  16  28  44  66  96 132 168 203 241 287
#     4  11  22  38  57  79 102 129 164 208 257 306
#     4  10  20  34  49  71  99 132 168 207 250 302
#     4  10  20  31  45  67  98 138 177 215 253 293
#     4  10  18  32  52  75 102 134 168 209 254 302
#     4  11  19  30  46  69  99 137 174 209 248 295
#
# _framework density 16.234272000000001
#
# number of rings (size 3 to 8) (size 9 to 14) (size 15 to 20)
#    0.000    2.000    1.429    4.714    0.000    1.143 
#    0.000    1.429    0.000    0.000    0.000    1.000 
#    0.000    0.000    0.000    0.000    0.000    0.000 
#
# Total GULP energy -156222.450410 kJ/mol
# GULP energy per Si atom -5579.373229 kJ/mol
# Density = 1.619732 g / cm^3
# Si number density = 16.234272 Si / 1000 Ang^3
#
#
#
# Elastic Constant Matrix: (Units=GPa)
#
#
# Indices 1 2 3 4 5 6 
#
# 1 61.3163 28.7872 59.3180 0.0000 -6.7133 0.0000
# 2 28.7872 76.2091 51.4029 0.0000 -0.7103 0.0000
# 3 59.3180 51.4029 153.1179 0.0000 6.9416 0.0000
# 4 0.0000 0.0000 0.0000 28.6259 0.0000 0.9339
# 5 -6.7133 -0.7103 6.9416 0.0000 20.0064 0.0000
# 6 0.0000 0.0000 0.0000 0.9339 0.0000 20.2160
#
#
#
# Elastic Compliance Matrix: (Units=1/GPa)
#
#
# Indices 1 2 3 4 5 6 
#
# 1 0.030390 -0.003857 -0.011109 0.000000 0.013916 0.000000
# 2 -0.003857 0.017588 -0.004450 0.000000 0.000874 0.000000
# 3 -0.011109 -0.004450 0.012705 0.000000 -0.008294 0.000000
# 4 0.000000 0.000000 0.000000 0.034986 0.000000 -0.001616
# 5 0.013916 0.000874 -0.008294 0.000000 0.057562 0.000000
# 6 0.000000 0.000000 0.000000 -0.001616 0.000000 0.049540
#
#
# Mechanical properties :
#
#
# Convention : Reuss Voigt Hill
#
# Bulk Modulus (GPa) = 45.76443 63.29547 54.52995
# Shear Modulus (GPa) = 20.08932 23.84534 21.96733
#
# Velocity S-wave (km/s) = 3.52158 3.83669 3.68250
# Velocity P-wave (km/s) = 6.69227 7.66161 7.19329
#
# Compressibility (1/GPa) = 0.02185103
#
# Stress axis : x y z
#
# Youngs Moduli (GPa) = 32.90507 56.85580 78.71127
#
# Poissons Ratio (x) = 0.21928 0.87444
# Poissons Ratio (y) = 0.12690 0.35027
# Poissons Ratio (z) = 0.36556 0.25301
#
# Static dielectric constant tensor:
#      x y z
#    x 1.527180 0.000000 0.000800 
#    y 0.000000 1.537320 0.000000 
#    z 0.000800 0.000000 1.556460 
# 
# From -- ./inp_files/48742.got.cif
#   From: 2010.05.17/outbox.cif.g08.bks.cpg/sg11_25_cif.got.tgz:48742.got - 2010.06.03 12:22:45.
