data_PCOD9157328
_publ_section_title
;
Structure prediction by ZEFSAII (Michael W. Deem and Ramdas Pophale) SiO2 
 PCOD9157328
Probable space group: P 21/M
;
_chemical_formula_sum "Si O2"
_cell_formula_units_Z 28
_cell_length_a 8.503295
_cell_length_b 17.904056
_cell_length_c 12.672227
_cell_angle_alpha 90.000000
_cell_angle_beta 137.299905
_cell_angle_gamma 90.000000
_cell_volume 1308.351259
_symmetry_space_group_name_H-M "P 21/M"
_symmetry_group_IT_number 11
_symmetry_cell_setting 'monoclinic'
loop_
_space_group_symop_operation_xyz
x,y,z
-x,1/2+y,-z
-x,-y,-z
x,1/2-y,z
loop_
_atom_site_type_symbol
_atom_site_label
_atom_site_fract_x
_atom_site_fract_y
_atom_site_fract_z
Si Si1 0.622853 0.832554 0.197158
Si Si2 0.829898 0.389947 0.962850
Si Si3 0.053194 0.117100 0.293756
Si Si4 0.270231 0.060279 0.095167
Si Si5 0.008034 0.539503 0.388729
Si Si6 0.494598 0.424682 0.431638
Si Si7 0.397421 0.670129 0.852586
O O1 0.725038 0.750000 0.265659
O O2 0.798985 0.901549 0.282759
O O3 0.409982 0.847743 0.172774
O O4 0.498403 0.831057 0.021166
O O5 0.954872 0.361326 0.129951
O O6 0.024682 0.396054 0.968347
O O7 0.763709 0.475718 0.955810
O O8 0.879855 0.160955 0.284815
O O9 0.329919 0.128915 0.421247
O O10 0.005998 0.030141 0.304624
O O11 0.343392 0.058930 0.253228
O O12 0.475356 0.101973 0.138940
O O13 0.243419 0.586143 0.478941
O O14 0.000000 0.500000 0.500000
O O15 0.500000 0.500000 0.500000
O O16 0.461795 0.750000 0.835572
#
# Coordination Sequence:
#
# PCOD9157328 Si02
#       7
#     4   4   4   4   4   4   4
#     4  10  21  36  52  75 109 143 174 217 279 334
#     4   9  18  32  55  80 102 131 171 225 277 319
#     4   9  18  34  53  75 103 134 175 222 271 318
#     4  10  18  32  55  83 105 132 180 226 266 315
#     4  11  20  33  55  78 106 144 186 225 261 316
#     4   9  19  33  51  77 106 138 174 217 266 315
#     4  10  20  34  54  79 107 138 176 227 281 326
#
# _framework density 21.400980000000001
#
# number of rings (size 3 to 8) (size 9 to 14) (size 15 to 20)
#    0.000    2.286    0.000    3.429    0.000    4.000 
#    0.000    5.714    0.000    0.000    0.000    1.000 
#    0.000    0.000    0.000    0.000    0.000    0.000 
#
# Total GULP energy -155931.936352 kJ/mol
# GULP energy per Si atom -5568.997727 kJ/mol
# Density = 2.135227 g / cm^3
# Si number density = 21.400980 Si / 1000 Ang^3
#
#
#
# Elastic Constant Matrix: (Units=GPa)
#
#
# Indices 1 2 3 4 5 6 
#
# 1 91.3293 15.5028 24.1681 0.0000 33.8939 0.0000
# 2 15.5028 41.5613 11.7203 0.0000 10.8739 0.0000
# 3 24.1681 11.7203 49.6985 0.0000 23.9598 0.0000
# 4 0.0000 0.0000 0.0000 14.5756 0.0000 3.0706
# 5 33.8939 10.8739 23.9598 0.0000 37.3548 0.0000
# 6 0.0000 0.0000 0.0000 3.0706 0.0000 2.9602
#
#
#
# Elastic Compliance Matrix: (Units=1/GPa)
#
#
# Indices 1 2 3 4 5 6 
#
# 1 0.016762 -0.002354 -0.000860 0.000000 -0.013972 0.000000
# 2 -0.002354 0.026828 -0.003542 0.000000 -0.003401 0.000000
# 3 -0.000860 -0.003542 0.029679 0.000000 -0.017225 0.000000
# 4 0.000000 0.000000 0.000000 0.087793 0.000000 -0.091067
# 5 -0.013972 -0.003401 -0.017225 0.000000 0.051486 0.000000
# 6 0.000000 0.000000 0.000000 -0.091067 0.000000 0.432274
#
#
# Mechanical properties :
#
#
# Convention : Reuss Voigt Hill
#
# Bulk Modulus (GPa) = 16.73467 31.70793 24.22130
# Shear Modulus (GPa) = 7.37187 19.72465 13.54826
#
# Velocity S-wave (km/s) = 1.85799 3.03920 2.51881
# Velocity P-wave (km/s) = 3.52695 5.21190 4.44990
#
# Compressibility (1/GPa) = 0.05975619
#
# Stress axis : x y z
#
# Youngs Moduli (GPa) = 59.65930 37.27472 33.69359
#
# Poissons Ratio (x) = 0.08775 0.02898
# Poissons Ratio (y) = 0.14045 0.11934
# Poissons Ratio (z) = 0.05131 0.13203
#
# Static dielectric constant tensor:
#      x y z
#    x 1.879700 0.000000 0.020160 
#    y 0.000000 1.779970 0.000000 
#    z 0.020160 0.000000 1.806060 
# 
# From -- ./inp_files/48021.got.cif
#   From: 2010.05.17/outbox.cif.g08.bks.cpg/sg11_25_cif.got.tgz:48021.got - 2010.06.03 12:22:45.
