data_PCOD9157429
_publ_section_title
;
Structure prediction by ZEFSAII (Michael W. Deem and Ramdas Pophale) SiO2 
 PCOD9157429
Probable space group: P 21/M
;
_chemical_formula_sum "Si O2"
_cell_formula_units_Z 32
_cell_length_a 26.812411
_cell_length_b 7.796177
_cell_length_c 20.869803
_cell_angle_alpha 90.000000
_cell_angle_beta 21.491616
_cell_angle_gamma 90.000000
_cell_volume 1598.269368
_symmetry_space_group_name_H-M "P 21/M"
_symmetry_group_IT_number 11
_symmetry_cell_setting 'monoclinic'
loop_
_space_group_symop_operation_xyz
x,y,z
-x,1/2+y,-z
-x,-y,-z
x,1/2-y,z
loop_
_atom_site_type_symbol
_atom_site_label
_atom_site_fract_x
_atom_site_fract_y
_atom_site_fract_z
Si Si1 0.345984 0.452256 0.701228
Si Si2 0.575009 0.045966 0.999800
Si Si3 0.415040 0.457130 0.868730
Si Si4 0.277379 0.539950 0.528683
Si Si5 0.286694 0.950415 0.291777
Si Si6 0.911590 0.039695 0.364037
Si Si7 0.775372 0.539367 0.019969
Si Si8 0.841755 0.046293 0.194095
O O1 0.500000 0.500000 0.500000
O O2 0.345253 0.250000 0.710258
O O3 0.292712 0.523817 0.832650
O O4 0.243870 0.493335 0.765532
O O5 0.558780 0.250000 0.009839
O O6 0.622601 0.011821 0.014610
O O7 0.426223 0.965305 0.165856
O O8 0.674189 0.978631 0.824930
O O9 0.416533 0.250000 0.865935
O O10 0.568743 0.515931 0.669559
O O11 0.312197 0.515663 0.936633
O O12 0.278085 0.750000 0.528387
O O13 0.175975 0.486975 0.593165
O O14 0.224181 0.478608 0.661189
O O15 0.255211 0.750000 0.320007
O O16 0.165584 0.022750 0.479787
O O17 0.909328 0.250000 0.367526
O O18 0.067666 0.986073 0.172332
O O19 0.774652 0.750000 0.021177
O O20 0.833090 0.250000 0.208181
O O21 0.000000 0.000000 0.000000
#
# Coordination Sequence:
#
# PCOD9157429 Si02
#       8
#     4   4   4   4   4   4   4   4
#     4  11  22  39  60  82 109 145 188 234 281 334
#     4  10  19  30  48  78 109 134 166 215 266 311
#     4  10  18  33  54  76  99 133 178 220 255 303
#     4   9  17  30  53  76  99 134 179 220 256 309
#     4   9  17  31  53  76 102 137 175 210 254 314
#     4   9  15  29  53  78  99 130 178 221 252 296
#     4   9  19  33  54  79 103 135 181 224 258 311
#     4  11  22  37  57  84 114 145 182 230 282 335
#
# _framework density 20.021657999999999
#
# number of rings (size 3 to 8) (size 9 to 14) (size 15 to 20)
#    0.000    2.250    1.250    2.625    0.000    4.500 
#    0.000    4.375    0.000    1.500    0.000    0.000 
#    0.000    0.000    0.000    0.000    0.000    0.000 
#
# Total GULP energy -178661.693873 kJ/mol
# GULP energy per Si atom -5583.177934 kJ/mol
# Density = 1.997609 g / cm^3
# Si number density = 20.021658 Si / 1000 Ang^3
#
#
#
# Elastic Constant Matrix: (Units=GPa)
#
#
# Indices 1 2 3 4 5 6 
#
# 1 185.6871 -1.8103 120.1960 0.0000 9.5567 0.0000
# 2 -1.8103 25.1424 2.7891 0.0000 1.6503 0.0000
# 3 120.1960 2.7891 165.4805 0.0000 9.9551 0.0000
# 4 0.0000 0.0000 0.0000 12.5471 0.0000 1.5916
# 5 9.5567 1.6503 9.9551 0.0000 40.2039 0.0000
# 6 0.0000 0.0000 0.0000 1.5916 0.0000 20.0483
#
#
#
# Elastic Compliance Matrix: (Units=1/GPa)
#
#
# Indices 1 2 3 4 5 6 
#
# 1 0.010243 0.001605 -0.007427 0.000000 -0.000662 0.000000
# 2 0.001605 0.040188 -0.001747 0.000000 -0.001599 0.000000
# 3 -0.007427 -0.001747 0.011528 0.000000 -0.001017 0.000000
# 4 0.000000 0.000000 0.000000 0.080511 0.000000 -0.006391
# 5 -0.000662 -0.001599 -0.001017 0.000000 0.025348 0.000000
# 6 0.000000 0.000000 0.000000 -0.006391 0.000000 0.050387
#
#
# Mechanical properties :
#
#
# Convention : Reuss Voigt Hill
#
# Bulk Modulus (GPa) = 21.35811 68.73994 45.04903
# Shear Modulus (GPa) = 20.08447 31.56886 25.82666
#
# Velocity S-wave (km/s) = 3.17067 3.97512 3.59546
# Velocity P-wave (km/s) = 4.90865 7.44823 6.30757
#
# Compressibility (1/GPa) = 0.04682062
#
# Stress axis : x y z
#
# Youngs Moduli (GPa) = 97.63203 24.88322 86.74438
#
# Poissons Ratio (x) = -0.03993 0.64424
# Poissons Ratio (y) = -0.15668 0.15153
# Poissons Ratio (z) = 0.72510 0.04347
#
# Static dielectric constant tensor:
#      x y z
#    x 1.684390 0.000000 0.041100 
#    y 0.000000 1.742350 0.000000 
#    z 0.041100 0.000000 1.690370 
# 
# From -- ./inp_files/66940.got.cif
#   From: 2010.05.17/outbox.cif.g08.bks.cpg/sg11_34_cif.got.tgz:66940.got - 2010.06.03 12:22:45.
