data_PCOD9157743
_publ_section_title
;
Structure prediction by ZEFSAII (Michael W. Deem and Ramdas Pophale) SiO2 
 PCOD9157743
Probable space group: P 21/M
;
_chemical_formula_sum "Si O2"
_cell_formula_units_Z 28
_cell_length_a 12.415688
_cell_length_b 14.650895
_cell_length_c 8.916328
_cell_angle_alpha 90.000000
_cell_angle_beta 60.545022
_cell_angle_gamma 90.000000
_cell_volume 1412.246989
_symmetry_space_group_name_H-M "P 21/M"
_symmetry_group_IT_number 11
_symmetry_cell_setting 'monoclinic'
loop_
_space_group_symop_operation_xyz
x,y,z
-x,1/2+y,-z
-x,-y,-z
x,1/2-y,z
loop_
_atom_site_type_symbol
_atom_site_label
_atom_site_fract_x
_atom_site_fract_y
_atom_site_fract_z
Si Si1 0.193817 0.153645 0.086741
Si Si2 0.313169 0.853048 0.797701
Si Si3 0.043158 0.593563 0.896909
Si Si4 0.398471 0.858049 0.393166
Si Si5 0.416134 0.481363 0.910908
Si Si6 0.150857 0.952237 0.496909
Si Si7 0.069721 0.145282 0.496600
O O1 0.261789 0.250000 0.019685
O O2 0.124057 0.155854 0.292991
O O3 0.085631 0.146653 0.036876
O O4 0.287872 0.070659 0.030406
O O5 0.339915 0.750000 0.824985
O O6 0.163570 0.866342 0.897145
O O7 0.366613 0.866460 0.592100
O O8 0.379340 0.924316 0.858964
O O9 0.094085 0.577700 0.694608
O O10 0.000000 0.500000 0.000000
O O11 0.407827 0.750000 0.354063
O O12 0.513812 0.915949 0.255889
O O13 0.282420 0.905193 0.390563
O O14 0.500000 0.500000 0.000000
O O15 0.061948 0.907136 0.431425
O O16 0.152995 0.062642 0.504957
O O17 0.063263 0.250000 0.563320
#
# Coordination Sequence:
#
# PCOD9157743 Si02
#       7
#     4   4   4   4   4   4   4
#     4  10  20  35  58  83 112 150 189 235 295 350
#     4  10  22  41  64  87 115 155 202 247 297 352
#     4  10  18  36  62  84 112 145 186 247 295 347
#     4  10  21  39  61  83 111 156 205 243 285 349
#     4  12  24  38  59  87 125 158 197 242 294 348
#     4   9  18  32  56  80 110 149 193 235 292 342
#     4   9  17  32  53  80 113 147 187 234 292 354
#
# _framework density 19.826560000000001
#
# number of rings (size 3 to 8) (size 9 to 14) (size 15 to 20)
#    0.000    2.000    1.429    2.571    0.000    4.571 
#    0.000    2.143    0.000    0.000    0.000    0.000 
#    0.000    0.000    0.000    0.000    0.000    0.000 
#
# Total GULP energy -155999.366586 kJ/mol
# GULP energy per Si atom -5571.405950 kJ/mol
# Density = 1.978143 g / cm^3
# Si number density = 19.826560 Si / 1000 Ang^3
#
#
#
# Elastic Constant Matrix: (Units=GPa)
#
#
# Indices 1 2 3 4 5 6 
#
# 1 96.2906 67.0494 20.1426 0.0000 0.6988 0.0000
# 2 67.0494 176.6685 16.7418 0.0000 3.9930 0.0000
# 3 20.1426 16.7418 17.7622 0.0000 -13.2466 0.0000
# 4 0.0000 0.0000 0.0000 25.2986 0.0000 1.7253
# 5 0.6988 3.9930 -13.2466 0.0000 18.4485 0.0000
# 6 0.0000 0.0000 0.0000 1.7253 0.0000 21.8359
#
#
#
# Elastic Compliance Matrix: (Units=1/GPa)
#
#
# Indices 1 2 3 4 5 6 
#
# 1 0.023726 -0.003275 -0.051582 0.000000 -0.037227 0.000000
# 2 -0.003275 0.008192 -0.011274 0.000000 -0.009744 0.000000
# 3 -0.051582 -0.011274 0.277061 0.000000 0.203333 0.000000
# 4 0.000000 0.000000 0.000000 0.039742 0.000000 -0.003140
# 5 -0.037227 -0.009744 0.203333 0.000000 0.203723 0.000000
# 6 0.000000 0.000000 0.000000 -0.003140 0.000000 0.046044
#
#
# Mechanical properties :
#
#
# Convention : Reuss Voigt Hill
#
# Bulk Modulus (GPa) = 5.65880 55.39877 30.52879
# Shear Modulus (GPa) = 6.33186 25.56909 15.95048
#
# Velocity S-wave (km/s) = 1.78901 3.59505 2.83945
# Velocity P-wave (km/s) = 2.66979 6.72569 5.11677
#
# Compressibility (1/GPa) = 0.17671592
#
# Stress axis : x y z
#
# Youngs Moduli (GPa) = 42.14760 122.07151 3.60931
#
# Poissons Ratio (x) = 0.39979 0.18618
# Poissons Ratio (y) = 0.13804 0.04069
# Poissons Ratio (z) = 2.17407 1.37629
#
# Static dielectric constant tensor:
#      x y z
#    x 1.728060 0.000000 -0.000970 
#    y 0.000000 1.671440 0.000000 
#    z -0.000970 0.000000 1.702920 
# 
# From -- ./inp_files/17947.got.cif
#   From: 2010.05.17/outbox.cif.g08.bks.cpg/sg11_9_cif.got.tgz:17947.got - 2010.06.03 12:22:45.
