data_PCOD9157159
_publ_section_title
;
Structure prediction by ZEFSAII (Michael W. Deem and Ramdas Pophale) SiO2 
 PCOD9157159
Probable space group: P 21/M
;
_chemical_formula_sum "Si O2"
_cell_formula_units_Z 28
_cell_length_a 9.071370
_cell_length_b 15.124344
_cell_length_c 12.773139
_cell_angle_alpha 90.000000
_cell_angle_beta 54.594593
_cell_angle_gamma 90.000000
_cell_volume 1428.379603
_symmetry_space_group_name_H-M "P 21/M"
_symmetry_group_IT_number 11
_symmetry_cell_setting 'monoclinic'
loop_
_space_group_symop_operation_xyz
x,y,z
-x,1/2+y,-z
-x,-y,-z
x,1/2-y,z
loop_
_atom_site_type_symbol
_atom_site_label
_atom_site_fract_x
_atom_site_fract_y
_atom_site_fract_z
Si Si1 0.470985 0.853038 0.074504
Si Si2 0.785288 0.514708 0.881138
Si Si3 0.530714 0.087908 0.695547
Si Si4 0.223010 0.154896 0.542703
Si Si5 0.643669 0.347411 0.423648
Si Si6 0.830912 0.518355 0.253330
Si Si7 0.166706 0.449251 0.378845
O O1 0.468680 0.750000 0.039557
O O2 0.448534 0.854711 0.209173
O O3 0.321097 0.921003 0.088382
O O4 0.654742 0.908669 0.977779
O O5 0.843138 0.548999 0.741518
O O6 0.967532 0.496911 0.870754
O O7 0.616001 0.132253 0.557766
O O8 0.322999 0.062941 0.755278
O O9 0.647860 0.000210 0.668920
O O10 0.157838 0.250000 0.606996
O O11 0.439717 0.151702 0.463104
O O12 0.152510 0.080517 0.650449
O O13 0.171903 0.140060 0.443329
O O14 0.722483 0.250000 0.375929
O O15 0.751967 0.425251 0.324746
O O16 0.000000 0.500000 0.500000
#
# Coordination Sequence:
#
# PCOD9157159 Si02
#       7
#     4   4   4   4   4   4   4
#     4  10  23  43  59  81 112 152 202 245 281 339
#     4  10  23  38  62  83 112 156 191 239 294 340
#     4  10  19  35  60  80 115 154 191 238 283 333
#     4  10  19  31  52  85 120 151 184 226 284 346
#     4  10  18  31  55  88 118 153 186 230 294 345
#     4  11  19  37  58  86 121 146 187 244 296 348
#     4  11  18  35  56  85 118 151 187 227 287 347
#
# _framework density 19.602632
#
# number of rings (size 3 to 8) (size 9 to 14) (size 15 to 20)
#    0.000    1.714    4.286    1.286    0.000    2.857 
#    0.000    2.143    0.000    0.000    0.000    0.000 
#    0.000    0.000    0.000    0.000    0.000    0.000 
#
# Total GULP energy -156140.069240 kJ/mol
# GULP energy per Si atom -5576.431044 kJ/mol
# Density = 1.955802 g / cm^3
# Si number density = 19.602632 Si / 1000 Ang^3
#
#
#
# Elastic Constant Matrix: (Units=GPa)
#
#
# Indices 1 2 3 4 5 6 
#
# 1 42.2517 -6.6531 0.0036 0.0000 -4.1702 0.0000
# 2 -6.6531 95.8333 3.5279 0.0000 9.0667 0.0000
# 3 0.0036 3.5279 29.8675 0.0000 -11.9289 0.0000
# 4 0.0000 0.0000 0.0000 8.1538 0.0000 5.5358
# 5 -4.1702 9.0667 -11.9289 0.0000 21.3187 0.0000
# 6 0.0000 0.0000 0.0000 5.5358 0.0000 10.4047
#
#
#
# Elastic Compliance Matrix: (Units=1/GPa)
#
#
# Indices 1 2 3 4 5 6 
#
# 1 0.024378 0.001103 0.002040 0.000000 0.005441 0.000000
# 2 0.001103 0.011313 -0.004085 0.000000 -0.006881 0.000000
# 3 0.002040 -0.004085 0.044837 0.000000 0.027225 0.000000
# 4 0.000000 0.000000 0.000000 0.191992 0.000000 -0.102149
# 5 0.005441 -0.006881 0.027225 0.000000 0.066132 0.000000
# 6 0.000000 0.000000 0.000000 -0.102149 0.000000 0.150459
#
#
# Mechanical properties :
#
#
# Convention : Reuss Voigt Hill
#
# Bulk Modulus (GPa) = 12.71560 17.96769 15.34165
# Shear Modulus (GPa) = 9.66726 19.38038 14.52382
#
# Velocity S-wave (km/s) = 2.22313 3.14771 2.72492
# Velocity P-wave (km/s) = 3.61808 4.73251 4.21231
#
# Compressibility (1/GPa) = 0.07864356
#
# Stress axis : x y z
#
# Youngs Moduli (GPa) = 41.02028 88.39603 22.30309
#
# Poissons Ratio (x) = -0.09746 -0.04550
# Poissons Ratio (y) = -0.04523 0.09110
# Poissons Ratio (z) = -0.08368 0.36107
#
# Static dielectric constant tensor:
#      x y z
#    x 1.743920 0.000000 -0.006280 
#    y 0.000000 1.715960 0.000000 
#    z -0.006280 0.000000 1.694860 
# 
# From -- ./inp_files/22279.got.cif
#   From: 2010.05.17/outbox.cif.g08.bks.cpg/sg11_12_cif.got.tgz:22279.got - 2010.06.03 12:22:45.
