data_PCOD9157630
_publ_section_title
;
Structure prediction by ZEFSAII (Michael W. Deem and Ramdas Pophale) SiO2 
 PCOD9157630
Probable space group: P 21/M
;
_chemical_formula_sum "Si O2"
_cell_formula_units_Z 28
_cell_length_a 7.625460
_cell_length_b 13.624301
_cell_length_c 21.274234
_cell_angle_alpha 90.000000
_cell_angle_beta 34.339988
_cell_angle_gamma 90.000000
_cell_volume 1246.786829
_symmetry_space_group_name_H-M "P 21/M"
_symmetry_group_IT_number 11
_symmetry_cell_setting 'monoclinic'
loop_
_space_group_symop_operation_xyz
x,y,z
-x,1/2+y,-z
-x,-y,-z
x,1/2-y,z
loop_
_atom_site_type_symbol
_atom_site_label
_atom_site_fract_x
_atom_site_fract_y
_atom_site_fract_z
Si Si1 0.824559 0.137360 0.570701
Si Si2 0.787323 0.358832 0.792779
Si Si3 0.348556 0.956118 0.895751
Si Si4 0.503690 0.868074 0.459264
Si Si5 0.630961 0.015809 0.242291
Si Si6 0.276128 0.590039 0.048725
Si Si7 0.555785 0.137750 0.383562
O O1 0.709204 0.250000 0.614429
O O2 0.733216 0.107521 0.526556
O O3 0.188426 0.138570 0.476156
O O4 0.658033 0.056608 0.662277
O O5 0.718016 0.250000 0.785631
O O6 0.572139 0.449081 0.836128
O O7 0.736884 0.350147 0.882963
O O8 0.143392 0.384225 0.669063
O O9 0.406385 0.917007 0.808344
O O10 0.381660 0.884462 0.946163
O O11 0.000000 0.000000 0.000000
O O12 0.488554 0.750000 0.471436
O O13 0.418351 0.905666 0.553975
O O14 0.700698 0.075980 0.284652
O O15 0.924733 0.946279 0.145628
O O16 0.500000 0.500000 0.000000
O O17 0.669056 0.250000 0.348594
#
# Coordination Sequence:
#
# PCOD9157630 Si02
#       7
#     4   4   4   4   4   4   4
#     4  10  20  35  56  85 119 147 189 248 294 344
#     4  10  18  34  60  84 108 144 188 237 299 351
#     4   9  20  36  54  78 114 147 184 240 293 331
#     4   9  18  34  55  84 116 146 185 242 293 334
#     4  11  20  36  58  82 110 158 192 227 293 357
#     4   9  19  37  54  78 112 141 182 242 286 327
#     4  10  22  38  54  81 123 157 192 237 279 347
#
# _framework density 22.457730000000002
#
# number of rings (size 3 to 8) (size 9 to 14) (size 15 to 20)
#    0.000    2.286    1.429    1.286    0.000    2.286 
#    5.143    9.286    0.000    0.000    0.000    0.000 
#    0.000    0.000    0.000    0.000    0.000    0.000 
#
# Total GULP energy -156198.439553 kJ/mol
# GULP energy per Si atom -5578.515698 kJ/mol
# Density = 2.240662 g / cm^3
# Si number density = 22.457730 Si / 1000 Ang^3
#
#
#
# Elastic Constant Matrix: (Units=GPa)
#
#
# Indices 1 2 3 4 5 6 
#
# 1 70.7508 -4.4640 25.4300 0.0000 37.0469 0.0000
# 2 -4.4640 55.4088 23.0727 0.0000 13.9466 0.0000
# 3 25.4300 23.0727 68.3078 0.0000 47.6920 0.0000
# 4 0.0000 0.0000 0.0000 4.8960 0.0000 5.1545
# 5 37.0469 13.9466 47.6920 0.0000 54.8758 0.0000
# 6 0.0000 0.0000 0.0000 5.1545 0.0000 24.0664
#
#
#
# Elastic Compliance Matrix: (Units=1/GPa)
#
#
# Indices 1 2 3 4 5 6 
#
# 1 0.024139 0.005663 0.003773 0.000000 -0.021014 0.000000
# 2 0.005663 0.022426 -0.007718 0.000000 -0.002816 0.000000
# 3 0.003773 -0.007718 0.041329 0.000000 -0.036504 0.000000
# 4 0.000000 0.000000 0.000000 0.263713 0.000000 -0.056482
# 5 -0.021014 -0.002816 -0.036504 0.000000 0.064850 0.000000
# 6 0.000000 0.000000 0.000000 -0.056482 0.000000 0.053649
#
#
# Mechanical properties :
#
#
# Convention : Reuss Voigt Hill
#
# Bulk Modulus (GPa) = 10.94925 31.39389 21.17157
# Shear Modulus (GPa) = 10.05807 26.79621 18.42714
#
# Velocity S-wave (km/s) = 2.11858 3.45800 2.86759
# Velocity P-wave (km/s) = 3.29706 5.47294 4.51795
#
# Compressibility (1/GPa) = 0.09133046
#
# Stress axis : x y z
#
# Youngs Moduli (GPa) = 41.42656 44.59054 24.19632
#
# Poissons Ratio (x) = -0.25253 -0.09128
# Poissons Ratio (y) = -0.23461 0.18674
# Poissons Ratio (z) = -0.15628 0.34413
#
# Static dielectric constant tensor:
#      x y z
#    x 1.874490 0.000000 0.078660 
#    y 0.000000 1.874170 0.000000 
#    z 0.078660 0.000000 1.840580 
# 
# From -- ./inp_files/63866.got.cif
#   From: 2010.05.17/outbox.cif.g08.bks.cpg/sg11_32_cif.got.tgz:63866.got - 2010.06.03 12:22:45.
