data_PCOD9157224
_publ_section_title
;
Structure prediction by ZEFSAII (Michael W. Deem and Ramdas Pophale) SiO2 
 PCOD9157224
Probable space group: P 21/M
;
_chemical_formula_sum "Si O2"
_cell_formula_units_Z 28
_cell_length_a 31.966797
_cell_length_b 8.573104
_cell_length_c 10.162622
_cell_angle_alpha 90.000000
_cell_angle_beta 32.247690
_cell_angle_gamma 90.000000
_cell_volume 1486.082331
_symmetry_space_group_name_H-M "P 21/M"
_symmetry_group_IT_number 11
_symmetry_cell_setting 'monoclinic'
loop_
_space_group_symop_operation_xyz
x,y,z
-x,1/2+y,-z
-x,-y,-z
x,1/2-y,z
loop_
_atom_site_type_symbol
_atom_site_label
_atom_site_fract_x
_atom_site_fract_y
_atom_site_fract_z
Si Si1 0.795250 0.063920 0.557096
Si Si2 0.917761 0.938234 0.019915
Si Si3 0.645755 0.563821 0.819284
Si Si4 0.144005 0.437631 0.105855
Si Si5 0.317168 0.060359 0.580257
Si Si6 0.514510 0.563065 0.813817
Si Si7 0.908608 0.437758 0.479987
O O1 0.787573 0.250000 0.581629
O O2 0.836290 0.008136 0.582517
O O3 0.856216 0.016915 0.280522
O O4 0.711363 0.992136 0.745730
O O5 0.911312 0.750000 0.052723
O O6 0.895579 0.975495 0.928191
O O7 0.007622 0.988305 0.801807
O O8 0.643262 0.750000 0.823653
O O9 0.672288 0.511180 0.600813
O O10 0.558026 0.501404 0.076350
O O11 0.143598 0.250000 0.119074
O O12 0.101161 0.507510 0.345201
O O13 0.234450 0.493027 0.857107
O O14 0.314884 0.250000 0.583747
O O15 0.395391 0.015310 0.452407
O O16 0.510841 0.750000 0.824394
O O17 0.500000 0.500000 0.000000
O O18 0.909472 0.250000 0.476020
#
# Coordination Sequence:
#
# PCOD9157224 Si02
#       7
#     4   4   4   4   4   4   4
#     4  11  22  35  53  78 108 139 178 221 266 318
#     4  10  20  37  58  77 104 138 177 223 269 314
#     4  10  18  32  52  75 106 138 174 219 268 315
#     4  10  19  34  56  79 104 140 179 215 259 316
#     4   8  15  29  49  75 105 134 167 212 260 306
#     4   9  16  27  46  75 109 139 171 214 265 314
#     4  10  23  38  51  76 110 142 175 220 269 314
#
# _framework density 18.841487000000001
#
# number of rings (size 3 to 8) (size 9 to 14) (size 15 to 20)
#    0.000    2.286    1.429    3.000    0.000    2.286 
#    0.000    1.429    0.000    0.857    0.000    0.000 
#    0.000    0.000    0.000    0.000    0.000    0.000 
#
# Total GULP energy -156184.072126 kJ/mol
# GULP energy per Si atom -5578.002576 kJ/mol
# Density = 1.879860 g / cm^3
# Si number density = 18.841487 Si / 1000 Ang^3
#
#
#
# Elastic Constant Matrix: (Units=GPa)
#
#
# Indices 1 2 3 4 5 6 
#
# 1 51.7844 14.5653 1.5403 0.0000 -19.4542 0.0000
# 2 14.5653 22.8759 2.6514 0.0000 -8.7683 0.0000
# 3 1.5403 2.6514 25.3552 0.0000 -20.6551 0.0000
# 4 0.0000 0.0000 0.0000 16.9502 0.0000 -3.5025
# 5 -19.4542 -8.7683 -20.6551 0.0000 38.2332 0.0000
# 6 0.0000 0.0000 0.0000 -3.5025 0.0000 21.2368
#
#
#
# Elastic Compliance Matrix: (Units=1/GPa)
#
#
# Indices 1 2 3 4 5 6 
#
# 1 0.030804 -0.013164 0.017529 0.000000 0.022124 0.000000
# 2 -0.013164 0.054267 -0.000345 0.000000 0.005561 0.000000
# 3 0.017529 -0.000345 0.081464 0.000000 0.052850 0.000000
# 4 0.000000 0.000000 0.000000 0.061078 0.000000 0.010073
# 5 0.022124 0.005561 0.052850 0.000000 0.067240 0.000000
# 6 0.000000 0.000000 0.000000 0.010073 0.000000 0.048749
#
#
# Mechanical properties :
#
#
# Convention : Reuss Voigt Hill
#
# Bulk Modulus (GPa) = 5.72827 15.28107 10.50467
# Shear Modulus (GPa) = 12.69824 20.70129 16.69976
#
# Velocity S-wave (km/s) = 2.59887 3.31827 2.98036
# Velocity P-wave (km/s) = 3.47165 4.77590 4.17502
#
# Compressibility (1/GPa) = 0.17457267
#
# Stress axis : x y z
#
# Youngs Moduli (GPa) = 32.46351 18.42731 12.27537
#
# Poissons Ratio (x) = 0.24258 -0.21517
# Poissons Ratio (y) = 0.42736 0.00424
# Poissons Ratio (z) = -0.56904 0.00636
#
# Static dielectric constant tensor:
#      x y z
#    x 1.366340 0.000000 -0.037570 
#    y 0.000000 1.636710 0.000000 
#    z -0.037570 0.000000 1.642310 
# 
# From -- ./inp_files/28283.got.cif
#   From: 2010.05.17/outbox.cif.g08.bks.cpg/sg11_15_cif.got.tgz:28283.got - 2010.06.03 12:22:45.
