data_PCOD9157234
_publ_section_title
;
Structure prediction by ZEFSAII (Michael W. Deem and Ramdas Pophale) SiO2 
 PCOD9157234
Probable space group: P 21/M
;
_chemical_formula_sum "Si O2"
_cell_formula_units_Z 28
_cell_length_a 9.833806
_cell_length_b 7.455593
_cell_length_c 33.946358
_cell_angle_alpha 90.000000
_cell_angle_beta 29.914767
_cell_angle_gamma 90.000000
_cell_volume 1241.212367
_symmetry_space_group_name_H-M "P 21/M"
_symmetry_group_IT_number 11
_symmetry_cell_setting 'monoclinic'
loop_
_space_group_symop_operation_xyz
x,y,z
-x,1/2+y,-z
-x,-y,-z
x,1/2-y,z
loop_
_atom_site_type_symbol
_atom_site_label
_atom_site_fract_x
_atom_site_fract_y
_atom_site_fract_z
Si Si1 0.651406 0.957834 0.254940
Si Si2 0.698323 0.968897 0.328052
Si Si3 0.302840 0.036065 0.585704
Si Si4 0.823572 0.537189 0.919446
Si Si5 0.169012 0.035745 0.996949
Si Si6 0.670462 0.467918 0.826031
Si Si7 0.324093 0.530731 0.262292
O O1 0.568884 0.750000 0.277158
O O2 0.585244 0.034574 0.314647
O O3 0.497049 0.036115 0.255843
O O4 0.975286 0.961639 0.164224
O O5 0.683671 0.750000 0.330662
O O6 0.594027 0.028609 0.397185
O O7 0.017329 0.019606 0.248005
O O8 0.280441 0.250000 0.595054
O O9 0.993024 0.973843 0.655702
O O10 0.500000 0.000000 0.500000
O O11 0.858200 0.750000 0.908250
O O12 0.500000 0.500000 0.000000
O O13 0.923137 0.466839 0.937454
O O14 0.181475 0.250000 0.998299
O O15 0.471096 0.967926 0.910124
O O16 0.000000 0.000000 0.000000
O O17 0.664008 0.250000 0.828245
O O18 0.573173 0.525039 0.806847
O O19 0.331574 0.750000 0.260361
#
# Coordination Sequence:
#
# PCOD9157234 Si02
#       7
#     4   4   4   4   4   4   4
#     4  10  18  32  53  73  94 127 170 213 253 299
#     4   8  15  28  49  71  91 120 160 198 237 291
#     4   9  17  32  52  75 100 127 159 196 240 298
#     4  11  23  36  50  73 105 141 178 218 262 309
#     4  10  20  32  48  70  96 126 166 214 260 300
#     4   8  13  25  43  63  86 116 155 197 234 279
#     4   8  15  27  48  73  94 121 160 200 242 294
#
# _framework density 22.558586999999999
#
# number of rings (size 3 to 8) (size 9 to 14) (size 15 to 20)
#    0.000    2.857    0.000    3.857    0.000    4.571 
#    0.000    2.143    0.000    3.429    0.000    0.000 
#    0.000    0.000    0.000    0.000    0.000    0.000 
#
# Total GULP energy -156228.159913 kJ/mol
# GULP energy per Si atom -5579.577140 kJ/mol
# Density = 2.250724 g / cm^3
# Si number density = 22.558587 Si / 1000 Ang^3
#
#
#
# Elastic Constant Matrix: (Units=GPa)
#
#
# Indices 1 2 3 4 5 6 
#
# 1 115.1897 0.9053 26.1208 0.0000 36.9052 0.0000
# 2 0.9053 70.6215 -5.7115 0.0000 4.0653 0.0000
# 3 26.1208 -5.7115 96.1997 0.0000 36.5229 0.0000
# 4 0.0000 0.0000 0.0000 14.8284 0.0000 0.2376
# 5 36.9052 4.0653 36.5229 0.0000 39.1926 0.0000
# 6 0.0000 0.0000 0.0000 0.2376 0.0000 4.3368
#
#
#
# Elastic Compliance Matrix: (Units=1/GPa)
#
#
# Indices 1 2 3 4 5 6 
#
# 1 0.012645 0.000770 0.001800 0.000000 -0.013664 0.000000
# 2 0.000770 0.014593 0.002332 0.000000 -0.004412 0.000000
# 3 0.001800 0.002332 0.016682 0.000000 -0.017483 0.000000
# 4 0.000000 0.000000 0.000000 0.067497 0.000000 -0.003699
# 5 -0.013664 -0.004412 -0.017483 0.000000 0.055131 0.000000
# 6 0.000000 0.000000 0.000000 -0.003699 0.000000 0.230786
#
#
# Mechanical properties :
#
#
# Convention : Reuss Voigt Hill
#
# Bulk Modulus (GPa) = 18.61336 36.07112 27.34224
# Shear Modulus (GPa) = 12.33234 29.05132 20.69183
#
# Velocity S-wave (km/s) = 2.34066 3.59251 3.03190
# Velocity P-wave (km/s) = 3.94638 5.76479 4.93998
#
# Compressibility (1/GPa) = 0.05372484
#
# Stress axis : x y z
#
# Youngs Moduli (GPa) = 79.08317 68.52714 59.94406
#
# Poissons Ratio (x) = -0.05277 -0.10790
# Poissons Ratio (y) = -0.06090 -0.13982
# Poissons Ratio (z) = -0.14235 -0.15984
#
# Static dielectric constant tensor:
#      x y z
#    x 1.917500 0.000000 0.055300 
#    y 0.000000 1.852160 0.000000 
#    z 0.055300 0.000000 1.893960 
# 
# From -- ./inp_files/61286.got.cif
#   From: 2010.05.17/outbox.cif.g08.bks.cpg/sg11_31_cif.got.tgz:61286.got - 2010.06.03 12:22:45.
