data_PCOD9157473
_publ_section_title
;
Structure prediction by ZEFSAII (Michael W. Deem and Ramdas Pophale) SiO2 
 PCOD9157473
Probable space group: P 21/M
;
_chemical_formula_sum "Si O2"
_cell_formula_units_Z 24
_cell_length_a 9.024530
_cell_length_b 14.859396
_cell_length_c 15.832179
_cell_angle_alpha 90.000000
_cell_angle_beta 38.078285
_cell_angle_gamma 90.000000
_cell_volume 1309.383477
_symmetry_space_group_name_H-M "P 21/M"
_symmetry_group_IT_number 11
_symmetry_cell_setting 'monoclinic'
loop_
_space_group_symop_operation_xyz
x,y,z
-x,1/2+y,-z
-x,-y,-z
x,1/2-y,z
loop_
_atom_site_type_symbol
_atom_site_label
_atom_site_fract_x
_atom_site_fract_y
_atom_site_fract_z
Si Si1 0.450445 0.649190 0.274147
Si Si2 0.058338 0.086710 0.031291
Si Si3 0.253744 0.960401 0.073536
Si Si4 0.402027 0.648631 0.840652
Si Si5 0.013122 0.645078 0.334081
Si Si6 0.258400 0.025608 0.421546
O O1 0.452476 0.750000 0.309431
O O2 0.235549 0.644715 0.301476
O O3 0.403344 0.568419 0.361367
O O4 0.699446 0.630758 0.113602
O O5 0.826426 0.147141 0.120016
O O6 0.106750 0.044838 0.101182
O O7 0.000000 0.000000 0.000000
O O8 0.108811 0.904521 0.207932
O O9 0.320279 0.894905 0.965732
O O10 0.500000 0.000000 0.000000
O O11 0.487857 0.750000 0.814114
O O12 0.601402 0.585773 0.709349
O O13 0.950337 0.750000 0.348209
O O14 0.798984 0.586558 0.471525
O O15 0.000000 0.000000 0.500000
#
# Coordination Sequence:
#
# PCOD9157473 Si02
#       6
#     4   4   4   4   4   4
#     4  10  18  33  57  82 112 151 195 238 287 344
#     4  10  19  35  58  84 112 150 192 242 293 339
#     4  11  19  36  58  87 119 151 191 242 295 341
#     4  11  22  37  61  87 116 153 197 239 288 349
#     4  10  20  33  55  85 117 151 188 237 295 343
#     4  10  19  36  55  82 114 154 195 237 282 345
#
# _framework density 18.329236000000002
#
# number of rings (size 3 to 8) (size 9 to 14) (size 15 to 20)
#    0.000    1.667    5.000    2.500    0.000    0.667 
#    0.000    0.833    0.000    2.000    0.000    0.000 
#    0.000    0.000    0.000    0.000    0.000    0.000 
#
# Total GULP energy -133801.285240 kJ/mol
# GULP energy per Si atom -5575.053552 kJ/mol
# Density = 1.828752 g / cm^3
# Si number density = 18.329236 Si / 1000 Ang^3
#
#
#
# Elastic Constant Matrix: (Units=GPa)
#
#
# Indices 1 2 3 4 5 6 
#
# 1 42.7397 19.0938 3.9576 0.0000 7.7739 0.0000
# 2 19.0938 157.0933 70.3089 0.0000 13.0443 0.0000
# 3 3.9576 70.3089 123.2150 0.0000 18.8800 0.0000
# 4 0.0000 0.0000 0.0000 16.0962 0.0000 2.0877
# 5 7.7739 13.0443 18.8800 0.0000 25.4599 0.0000
# 6 0.0000 0.0000 0.0000 2.0877 0.0000 20.0806
#
#
#
# Elastic Compliance Matrix: (Units=1/GPa)
#
#
# Indices 1 2 3 4 5 6 
#
# 1 0.026239 -0.003622 0.002445 0.000000 -0.007969 0.000000
# 2 -0.003622 0.009066 -0.005093 0.000000 0.000238 0.000000
# 3 0.002445 -0.005093 0.012024 0.000000 -0.007054 0.000000
# 4 0.000000 0.000000 0.000000 0.062976 0.000000 -0.006547
# 5 -0.007969 0.000238 -0.007054 0.000000 0.046820 0.000000
# 6 0.000000 0.000000 0.000000 -0.006547 0.000000 0.050480
#
#
# Mechanical properties :
#
#
# Convention : Reuss Voigt Hill
#
# Bulk Modulus (GPa) = 28.74489 56.64096 42.69292
# Shear Modulus (GPa) = 21.57591 27.63985 24.60788
#
# Velocity S-wave (km/s) = 3.43466 3.88747 3.66805
# Velocity P-wave (km/s) = 5.60765 7.14975 6.42513
#
# Compressibility (1/GPa) = 0.03478879
#
# Stress axis : x y z
#
# Youngs Moduli (GPa) = 38.11193 110.30742 83.16365
#
# Poissons Ratio (x) = 0.39950 -0.20333
# Poissons Ratio (y) = 0.13803 0.42356
# Poissons Ratio (z) = -0.09318 0.56181
#
# Static dielectric constant tensor:
#      x y z
#    x 1.638330 0.000000 -0.022380 
#    y 0.000000 1.682470 0.000000 
#    z -0.022380 0.000000 1.600710 
# 
# From -- ./inp_files/21989.got.cif
#   From: 2010.05.17/outbox.cif.g08.bks.cpg/sg11_11_cif.got.tgz:21989.got - 2010.06.03 12:22:45.
