data_PCOD9157616
_publ_section_title
;
Structure prediction by ZEFSAII (Michael W. Deem and Ramdas Pophale) SiO2 
 PCOD9157616
Probable space group: P 21/M
;
_chemical_formula_sum "Si O2"
_cell_formula_units_Z 28
_cell_length_a 18.001190
_cell_length_b 13.904205
_cell_length_c 7.567640
_cell_angle_alpha 90.000000
_cell_angle_beta 41.854743
_cell_angle_gamma 90.000000
_cell_volume 1263.842041
_symmetry_space_group_name_H-M "P 21/M"
_symmetry_group_IT_number 11
_symmetry_cell_setting 'monoclinic'
loop_
_space_group_symop_operation_xyz
x,y,z
-x,1/2+y,-z
-x,-y,-z
x,1/2-y,z
loop_
_atom_site_type_symbol
_atom_site_label
_atom_site_fract_x
_atom_site_fract_y
_atom_site_fract_z
Si Si1 0.962444 0.409424 0.183328
Si Si2 0.110611 0.463312 0.204519
Si Si3 0.249911 0.999460 0.263475
Si Si4 0.814438 0.353918 0.148834
Si Si5 0.387735 0.134788 0.239468
Si Si6 0.444581 0.866656 0.758523
Si Si7 0.434105 0.863935 0.370592
O O1 0.854893 0.436664 0.489723
O O2 0.910860 0.344954 0.122225
O O3 0.064423 0.390175 0.136873
O O4 0.000000 0.500000 0.000000
O O5 0.202903 0.435017 0.184549
O O6 0.000000 0.500000 0.500000
O O7 0.158700 0.558354 0.025468
O O8 0.285889 0.069394 0.358939
O O9 0.346526 0.928553 0.022649
O O10 0.801541 0.250000 0.079234
O O11 0.695103 0.377062 0.447671
O O12 0.366708 0.250000 0.264042
O O13 0.441618 0.115413 0.334801
O O14 0.482024 0.104081 0.928739
O O15 0.423404 0.750000 0.809161
O O16 0.452977 0.895824 0.538360
O O17 0.452342 0.750000 0.344344
#
# Coordination Sequence:
#
# PCOD9157616 Si02
#       7
#     4   4   4   4   4   4   4
#     4   9  20  37  54  78 112 140 183 241 288 331
#     4   9  19  36  54  78 112 145 182 242 285 329
#     4  11  20  36  59  82 110 154 193 229 293 353
#     4  10  18  34  59  83 108 144 186 235 297 346
#     4  10  22  38  54  82 123 157 192 235 279 346
#     4  10  20  35  56  85 117 146 188 246 293 338
#     4   9  18  34  55  84 116 144 184 243 289 330
#
# _framework density 22.154669999999999
#
# number of rings (size 3 to 8) (size 9 to 14) (size 15 to 20)
#    0.000    2.286    1.429    1.286    0.000    2.286 
#    5.143    9.286    0.000    0.000    0.000    0.000 
#    0.000    0.000    0.000    0.000    0.000    0.000 
#
# Total GULP energy -156160.358070 kJ/mol
# GULP energy per Si atom -5577.155645 kJ/mol
# Density = 2.210424 g / cm^3
# Si number density = 22.154670 Si / 1000 Ang^3
#
#
#
# Elastic Constant Matrix: (Units=GPa)
#
#
# Indices 1 2 3 4 5 6 
#
# 1 154.5497 32.6853 -23.1610 0.0000 -7.8426 0.0000
# 2 32.6853 56.4870 -1.5336 0.0000 -7.6005 0.0000
# 3 -23.1610 -1.5336 12.7689 0.0000 4.3066 0.0000
# 4 0.0000 0.0000 0.0000 6.2476 0.0000 -0.6982
# 5 -7.8426 -7.6005 4.3066 0.0000 27.9325 0.0000
# 6 0.0000 0.0000 0.0000 -0.6982 0.0000 24.3066
#
#
#
# Elastic Compliance Matrix: (Units=1/GPa)
#
#
# Indices 1 2 3 4 5 6 
#
# 1 0.010404 -0.005717 0.018697 0.000000 -0.001517 0.000000
# 2 -0.005717 0.021521 -0.009724 0.000000 0.005750 0.000000
# 3 0.018697 -0.009724 0.116227 0.000000 -0.015316 0.000000
# 4 0.000000 0.000000 0.000000 0.160578 0.000000 0.004613
# 5 -0.001517 0.005750 -0.015316 0.000000 0.039301 0.000000
# 6 0.000000 0.000000 0.000000 0.004613 0.000000 0.041274
#
#
# Mechanical properties :
#
#
# Convention : Reuss Voigt Hill
#
# Bulk Modulus (GPa) = 6.46560 26.64302 16.55431
# Shear Modulus (GPa) = 11.51152 26.08498 18.79825
#
# Velocity S-wave (km/s) = 2.28194 3.43505 2.91606
# Velocity P-wave (km/s) = 3.14130 5.27113 4.33893
#
# Compressibility (1/GPa) = 0.15466474
#
# Stress axis : x y z
#
# Youngs Moduli (GPa) = 96.11252 46.46655 8.60384
#
# Poissons Ratio (x) = 0.26564 -0.16087
# Poissons Ratio (y) = 0.54947 0.08367
# Poissons Ratio (z) = -1.79704 0.45185
#
# Static dielectric constant tensor:
#      x y z
#    x 1.918220 0.000000 0.002290 
#    y 0.000000 1.826850 0.000000 
#    z 0.002290 0.000000 1.798530 
# 
# From -- ./inp_files/24938.got.cif
#   From: 2010.05.17/outbox.cif.g08.bks.cpg/sg11_13_cif.got.tgz:24938.got - 2010.06.03 12:22:45.
