data_PCOD9157470
_publ_section_title
;
Structure prediction by ZEFSAII (Michael W. Deem and Ramdas Pophale) SiO2 
 PCOD9157470
Probable space group: P 21/M
;
_chemical_formula_sum "Si O2"
_cell_formula_units_Z 24
_cell_length_a 9.057613
_cell_length_b 19.808183
_cell_length_c 7.132127
_cell_angle_alpha 90.000000
_cell_angle_beta 59.859439
_cell_angle_gamma 90.000000
_cell_volume 1106.601431
_symmetry_space_group_name_H-M "P 21/M"
_symmetry_group_IT_number 11
_symmetry_cell_setting 'monoclinic'
loop_
_space_group_symop_operation_xyz
x,y,z
-x,1/2+y,-z
-x,-y,-z
x,1/2-y,z
loop_
_atom_site_type_symbol
_atom_site_label
_atom_site_fract_x
_atom_site_fract_y
_atom_site_fract_z
Si Si1 0.357453 0.943414 0.114574
Si Si2 0.831361 0.827362 0.561500
Si Si3 0.006424 0.039787 0.693295
Si Si4 0.324170 0.959092 0.577175
Si Si5 0.596257 0.828996 0.024347
Si Si6 0.496115 0.673437 0.518198
O O1 0.313694 0.944489 0.362000
O O2 0.447362 0.872322 0.024772
O O3 0.187127 0.959895 0.109811
O O4 0.500000 0.000000 0.000000
O O5 0.896279 0.750000 0.517165
O O6 0.947346 0.883327 0.391314
O O7 0.653166 0.829055 0.561374
O O8 0.774930 0.847479 0.809496
O O9 0.156611 0.004830 0.717408
O O10 0.000000 0.000000 0.500000
O O11 0.358583 0.885272 0.642227
O O12 0.500000 0.000000 0.500000
O O13 0.573287 0.750000 0.002045
O O14 0.579895 0.839092 0.257816
O O15 0.425983 0.750000 0.562268
#
# Coordination Sequence:
#
# PCOD9157470 Si02
#       6
#     4   4   4   4   4   4
#     4  10  21  35  55  78 111 149 188 236 278 328
#     4  10  19  34  60  84 111 149 185 230 289 337
#     4  10  20  34  55  83 112 145 191 234 275 341
#     4  10  18  33  57  78 111 147 182 229 289 333
#     4   9  18  33  55  81 108 146 189 227 280 340
#     4   9  18  32  55  85 112 147 189 228 278 344
#
# _framework density 21.688025
#
# number of rings (size 3 to 8) (size 9 to 14) (size 15 to 20)
#    0.000    2.333    1.667    2.000    0.000    0.667 
#    0.000    3.333    7.333    1.000    0.000    9.333 
#    0.000    0.000    0.000    0.000    0.000    0.000 
#
# Total GULP energy -133865.697927 kJ/mol
# GULP energy per Si atom -5577.737414 kJ/mol
# Density = 2.163866 g / cm^3
# Si number density = 21.688025 Si / 1000 Ang^3
#
#
#
# Elastic Constant Matrix: (Units=GPa)
#
#
# Indices 1 2 3 4 5 6 
#
# 1 75.1100 26.3485 22.5356 0.0000 -15.1316 0.0000
# 2 26.3485 100.2064 26.9004 0.0000 -21.3045 0.0000
# 3 22.5356 26.9004 53.3435 0.0000 -7.4147 0.0000
# 4 0.0000 0.0000 0.0000 26.7648 0.0000 -2.5616
# 5 -15.1316 -21.3045 -7.4147 0.0000 43.1070 0.0000
# 6 0.0000 0.0000 0.0000 -2.5616 0.0000 31.2813
#
#
#
# Elastic Compliance Matrix: (Units=1/GPa)
#
#
# Indices 1 2 3 4 5 6 
#
# 1 0.016417 -0.002065 -0.005363 0.000000 0.003820 0.000000
# 2 -0.002065 0.012869 -0.004952 0.000000 0.004783 0.000000
# 3 -0.005363 -0.004952 0.023469 0.000000 -0.000293 0.000000
# 4 0.000000 0.000000 0.000000 0.037658 0.000000 0.003084
# 5 0.003820 0.004783 -0.000293 0.000000 0.026853 0.000000
# 6 0.000000 0.000000 0.000000 0.003084 0.000000 0.032221
#
#
# Mechanical properties :
#
#
# Convention : Reuss Voigt Hill
#
# Bulk Modulus (GPa) = 35.72255 42.24767 38.98511
# Shear Modulus (GPa) = 27.23647 30.42230 28.82939
#
# Velocity S-wave (km/s) = 3.54761 3.74936 3.64988
# Velocity P-wave (km/s) = 5.76954 6.18592 5.98135
#
# Compressibility (1/GPa) = 0.02799352
#
# Stress axis : x y z
#
# Youngs Moduli (GPa) = 60.91305 77.70745 42.60963
#
# Poissons Ratio (x) = 0.16045 0.22853
# Poissons Ratio (y) = 0.12577 0.21102
# Poissons Ratio (z) = 0.32670 0.38484
#
# Static dielectric constant tensor:
#      x y z
#    x 1.803090 0.000000 0.008250 
#    y 0.000000 1.800020 0.000000 
#    z 0.008250 0.000000 1.853530 
# 
# From -- ./inp_files/14197.got.cif
#   From: 2010.05.17/outbox.cif.g08.bks.cpg/sg11_8_cif.got.tgz:14197.got - 2010.06.03 12:22:45.
