data_PCOD9157995
_publ_section_title
;
Structure prediction by ZEFSAII (Michael W. Deem and Ramdas Pophale) SiO2 
 PCOD9157995
Probable space group: P 21/M
;
_chemical_formula_sum "Si O2"
_cell_formula_units_Z 32
_cell_length_a 17.557569
_cell_length_b 7.811833
_cell_length_c 17.382544
_cell_angle_alpha 90.000000
_cell_angle_beta 50.736243
_cell_angle_gamma 90.000000
_cell_volume 1845.893636
_symmetry_space_group_name_H-M "P 21/M"
_symmetry_group_IT_number 11
_symmetry_cell_setting 'monoclinic'
loop_
_space_group_symop_operation_xyz
x,y,z
-x,1/2+y,-z
-x,-y,-z
x,1/2-y,z
loop_
_atom_site_type_symbol
_atom_site_label
_atom_site_fract_x
_atom_site_fract_y
_atom_site_fract_z
Si Si1 0.727915 0.541120 0.227785
Si Si2 0.971773 0.548818 0.801558
Si Si3 0.489772 0.042926 0.597236
Si Si4 0.944502 0.046122 0.652949
Si Si5 0.903970 0.956190 0.010255
Si Si6 0.806884 0.552928 0.343582
Si Si7 0.319760 0.945511 0.437795
Si Si8 0.849922 0.457511 0.556448
O O1 0.726850 0.750000 0.225068
O O2 0.614902 0.484097 0.302048
O O3 0.804146 0.479671 0.114451
O O4 0.773115 0.493935 0.281411
O O5 0.992122 0.750000 0.798968
O O6 0.920003 0.525182 0.752538
O O7 0.076320 0.456796 0.727703
O O8 0.918598 0.485969 0.912930
O O9 0.492131 0.250000 0.598764
O O10 0.580620 0.977012 0.590745
O O11 0.500000 0.000000 0.500000
O O12 0.935729 0.250000 0.662174
O O13 0.878095 0.982915 0.624134
O O14 0.057105 0.004536 0.556745
O O15 0.897801 0.750000 0.013317
O O16 0.000000 0.000000 0.000000
O O17 0.775012 0.750000 0.374397
O O18 0.755217 0.445580 0.442489
O O19 0.343010 0.750000 0.400204
O O20 0.252807 0.023365 0.412775
O O21 0.845633 0.250000 0.559690
#
# Coordination Sequence:
#
# PCOD9157995 Si02
#       8
#     4   4   4   4   4   4   4   4
#     4   9  18  32  46  64  92 122 154 192 223 263
#     4  11  21  31  45  67  94 123 157 193 229 271
#     4  10  19  31  47  67  92 122 154 186 224 269
#     4  10  19  30  46  66  91 123 154 186 231 282
#     4  10  20  33  48  66  90 121 156 193 230 268
#     4  11  19  28  46  67  93 125 157 188 222 268
#     4  10  19  30  46  68  94 122 153 189 228 270
#     4   9  18  31  45  66  94 120 151 191 231 274
#
# _framework density 17.335777
#
# number of rings (size 3 to 8) (size 9 to 14) (size 15 to 20)
#    0.000    2.000    3.750    1.125    0.000    1.000 
#    0.000    0.625    0.000    0.000    0.000    0.875 
#    0.000    0.000    0.000    0.000    0.000    0.000 
#
# Total GULP energy -178439.694681 kJ/mol
# GULP energy per Si atom -5576.240459 kJ/mol
# Density = 1.729632 g / cm^3
# Si number density = 17.335777 Si / 1000 Ang^3
#
#
#
# Elastic Constant Matrix: (Units=GPa)
#
#
# Indices 1 2 3 4 5 6 
#
# 1 147.4382 1.4906 69.0293 0.0000 5.7909 0.0000
# 2 1.4906 27.7610 0.5977 0.0000 1.5883 0.0000
# 3 69.0293 0.5977 111.3079 0.0000 0.5597 0.0000
# 4 0.0000 0.0000 0.0000 3.1370 0.0000 3.9283
# 5 5.7909 1.5883 0.5597 0.0000 28.3032 0.0000
# 6 0.0000 0.0000 0.0000 3.9283 0.0000 15.0386
#
#
#
# Elastic Compliance Matrix: (Units=1/GPa)
#
#
# Indices 1 2 3 4 5 6 
#
# 1 0.009656 -0.000284 -0.005978 0.000000 -0.001842 0.000000
# 2 -0.000284 0.036150 -0.000008 0.000000 -0.001970 0.000000
# 3 -0.005978 -0.000008 0.012686 0.000000 0.000973 0.000000
# 4 0.000000 0.000000 0.000000 0.473751 0.000000 -0.123751
# 5 -0.001842 -0.001970 0.000973 0.000000 0.035800 0.000000
# 6 0.000000 0.000000 0.000000 -0.123751 0.000000 0.098822
#
#
# Mechanical properties :
#
#
# Convention : Reuss Voigt Hill
#
# Bulk Modulus (GPa) = 21.76150 47.63803 34.69976
# Shear Modulus (GPa) = 7.19712 23.65504 15.42608
#
# Velocity S-wave (km/s) = 2.03976 3.69795 2.98626
# Velocity P-wave (km/s) = 4.25766 6.76553 5.65244
#
# Compressibility (1/GPa) = 0.04595272
#
# Stress axis : x y z
#
# Youngs Moduli (GPa) = 103.55745 27.66259 78.82405
#
# Poissons Ratio (x) = 0.00787 0.47120
# Poissons Ratio (y) = 0.02945 0.00062
# Poissons Ratio (z) = 0.61905 0.00022
#
# Static dielectric constant tensor:
#      x y z
#    x 1.628260 0.000000 0.008980 
#    y 0.000000 1.633200 0.000000 
#    z 0.008980 0.000000 1.576070 
# 
# From -- ./inp_files/60688.got.cif
#   From: 2010.05.17/outbox.cif.g08.bks.cpg/sg11_31_cif.got.tgz:60688.got - 2010.06.03 12:22:45.
