data_PCOD9157771
_publ_section_title
;
Structure prediction by ZEFSAII (Michael W. Deem and Ramdas Pophale) SiO2 
 PCOD9157771
Probable space group: P 21/M
;
_chemical_formula_sum "Si O2"
_cell_formula_units_Z 32
_cell_length_a 19.567498
_cell_length_b 17.560571
_cell_length_c 5.531366
_cell_angle_alpha 90.000000
_cell_angle_beta 127.425079
_cell_angle_gamma 90.000000
_cell_volume 1509.413225
_symmetry_space_group_name_H-M "P 21/M"
_symmetry_group_IT_number 11
_symmetry_cell_setting 'monoclinic'
loop_
_space_group_symop_operation_xyz
x,y,z
-x,1/2+y,-z
-x,-y,-z
x,1/2-y,z
loop_
_atom_site_type_symbol
_atom_site_label
_atom_site_fract_x
_atom_site_fract_y
_atom_site_fract_z
Si Si1 0.071575 0.876748 0.301759
Si Si2 0.393122 0.419283 0.686508
Si Si3 0.833470 0.335722 0.980899
Si Si4 0.865419 0.959684 0.493268
Si Si5 0.558867 0.455649 0.817583
Si Si6 0.083385 0.165546 0.733315
Si Si7 0.229265 0.333974 0.394786
Si Si8 0.714719 0.462459 0.861055
O O1 0.106667 0.841935 0.128238
O O2 0.975181 0.851272 0.158469
O O3 0.083664 0.967546 0.299406
O O4 0.120813 0.852199 0.659198
O O5 0.489327 0.401956 0.799500
O O6 0.330766 0.349523 0.607909
O O7 0.337348 0.470997 0.382947
O O8 0.407589 0.477711 0.936048
O O9 0.799593 0.250000 0.919553
O O10 0.760123 0.399758 0.792773
O O11 0.926472 0.904117 0.469886
O O12 0.814679 0.904546 0.564704
O O13 0.791056 0.997501 0.170444
O O14 0.500000 0.500000 0.500000
O O15 0.643556 0.421837 0.877129
O O16 0.060820 0.250000 0.592892
O O17 0.182438 0.166127 0.033547
O O18 0.210927 0.250000 0.461502
#
# Coordination Sequence:
#
# PCOD9157771 Si02
#       8
#     4   4   4   4   4   4   4   4
#     4  11  26  43  68  91 127 177 225 273 318 384
#     4  10  18  37  60  88 123 156 213 256 308 390
#     4  11  24  43  65  95 129 167 214 272 335 386
#     4  11  22  39  62  91 125 168 222 268 315 387
#     4   9  19  34  62  90 113 155 204 256 310 376
#     4  11  24  41  60  91 131 174 218 269 331 387
#     4  11  23  37  60  91 130 173 209 266 332 384
#     4  10  20  36  63  90 118 162 206 263 318 381
#
# _framework density 21.200291
#
# number of rings (size 3 to 8) (size 9 to 14) (size 15 to 20)
#    0.000    1.500    2.500    2.625    5.250    0.500 
#    0.000    0.625    0.000    6.750    0.000    0.000 
#    0.000    0.000    0.000    0.000    0.000    0.000 
#
# Total GULP energy -178582.351363 kJ/mol
# GULP energy per Si atom -5580.698480 kJ/mol
# Density = 2.115204 g / cm^3
# Si number density = 21.200291 Si / 1000 Ang^3
#
#
#
# Elastic Constant Matrix: (Units=GPa)
#
#
# Indices 1 2 3 4 5 6 
#
# 1 101.9692 17.0169 -4.7197 0.0000 5.1401 0.0000
# 2 17.0169 123.4510 3.6967 0.0000 4.6189 0.0000
# 3 -4.7197 3.6967 51.4024 0.0000 3.5714 0.0000
# 4 0.0000 0.0000 0.0000 19.2732 0.0000 1.7803
# 5 5.1401 4.6189 3.5714 0.0000 28.3733 0.0000
# 6 0.0000 0.0000 0.0000 1.7803 0.0000 19.1784
#
#
#
# Elastic Compliance Matrix: (Units=1/GPa)
#
#
# Indices 1 2 3 4 5 6 
#
# 1 0.010178 -0.001372 0.001156 0.000000 -0.001766 0.000000
# 2 -0.001372 0.008348 -0.000655 0.000000 -0.001028 0.000000
# 3 0.001156 -0.000655 0.019788 0.000000 -0.002594 0.000000
# 4 0.000000 0.000000 0.000000 0.052334 0.000000 -0.004858
# 5 -0.001766 -0.001028 -0.002594 0.000000 0.036058 0.000000
# 6 0.000000 0.000000 0.000000 -0.004858 0.000000 0.052593
#
#
# Mechanical properties :
#
#
# Convention : Reuss Voigt Hill
#
# Bulk Modulus (GPa) = 27.34287 34.31229 30.82758
# Shear Modulus (GPa) = 25.87579 30.75356 28.31468
#
# Velocity S-wave (km/s) = 3.49741 3.81283 3.65852
# Velocity P-wave (km/s) = 5.40690 5.96687 5.69377
#
# Compressibility (1/GPa) = 0.03657260
#
# Stress axis : x y z
#
# Youngs Moduli (GPa) = 98.24829 119.79617 50.53628
#
# Poissons Ratio (x) = 0.16431 -0.05841
# Poissons Ratio (y) = 0.13475 0.03309
# Poissons Ratio (z) = -0.11356 0.07845
#
# Static dielectric constant tensor:
#      x y z
#    x 1.868970 0.000000 0.001100 
#    y 0.000000 1.791400 0.000000 
#    z 0.001100 0.000000 1.881730 
# 
# From -- ./inp_files/9145.got.cif
#   From: 2010.05.17/outbox.cif.g08.bks.cpg/sg11_5_cif.got.tgz:9145.got - 2010.06.03 12:22:45.
