data_PCOD9157364
_publ_section_title
;
Structure prediction by ZEFSAII (Michael W. Deem and Ramdas Pophale) SiO2 
 PCOD9157364
Probable space group: P 21/M
;
_chemical_formula_sum "Si O2"
_cell_formula_units_Z 32
_cell_length_a 14.255764
_cell_length_b 13.853948
_cell_length_c 8.516981
_cell_angle_alpha 90.000000
_cell_angle_beta 120.649069
_cell_angle_gamma 90.000000
_cell_volume 1447.113382
_symmetry_space_group_name_H-M "P 21/M"
_symmetry_group_IT_number 11
_symmetry_cell_setting 'monoclinic'
loop_
_space_group_symop_operation_xyz
x,y,z
-x,1/2+y,-z
-x,-y,-z
x,1/2-y,z
loop_
_atom_site_type_symbol
_atom_site_label
_atom_site_fract_x
_atom_site_fract_y
_atom_site_fract_z
Si Si1 0.409607 0.354537 0.634569
Si Si2 0.646704 0.974271 0.137172
Si Si3 0.152679 0.145241 0.349379
Si Si4 0.656187 0.361665 0.414010
Si Si5 0.448027 0.467982 0.279471
Si Si6 0.872828 0.485336 0.197858
Si Si7 0.996607 0.639776 0.471333
Si Si8 0.785193 0.024523 0.790040
O O1 0.459799 0.250000 0.653174
O O2 0.395875 0.382083 0.804802
O O3 0.283545 0.353275 0.476997
O O4 0.478349 0.439005 0.611855
O O5 0.661921 0.062596 0.273557
O O6 0.765283 0.959986 0.164375
O O7 0.572262 0.989475 0.923117
O O8 0.117603 0.250000 0.255201
O O9 0.096217 0.135275 0.470614
O O10 0.136332 0.052966 0.226985
O O11 0.676922 0.250000 0.394512
O O12 0.529120 0.376935 0.356628
O O13 0.738514 0.399580 0.621497
O O14 0.327059 0.472778 0.246004
O O15 0.966638 0.565412 0.307479
O O16 0.900460 0.400420 0.344075
O O17 0.846970 0.444933 0.002642
O O18 0.008237 0.750000 0.429988
#
# Coordination Sequence:
#
# PCOD9157364 Si02
#       8
#     4   4   4   4   4   4   4   4
#     4  10  18  32  57  81 110 151 192 233 279 322
#     4  10  20  38  57  84 116 149 199 238 277 338
#     4  10  20  36  61  84 110 150 192 237 286 338
#     4  11  22  36  55  80 119 161 194 229 278 340
#     4  10  22  36  55  83 117 155 196 239 276 329
#     4  10  22  38  64  88 113 150 184 242 299 338
#     4  10  21  41  63  86 112 144 193 242 291 350
#     4  11  22  39  57  85 122 151 191 236 286 347
#
# _framework density 22.112984999999998
#
# number of rings (size 3 to 8) (size 9 to 14) (size 15 to 20)
#    0.000    1.750    3.750    1.875    0.000    5.000 
#    0.000    5.000    0.000    0.000    0.000    0.000 
#    0.000    0.000    0.000    0.000    0.000    0.000 
#
# Total GULP energy -178381.568996 kJ/mol
# GULP energy per Si atom -5574.424031 kJ/mol
# Density = 2.206266 g / cm^3
# Si number density = 22.112985 Si / 1000 Ang^3
#
#
#
# Elastic Constant Matrix: (Units=GPa)
#
#
# Indices 1 2 3 4 5 6 
#
# 1 44.2167 8.3674 -0.3242 0.0000 2.6243 0.0000
# 2 8.3674 96.3114 16.1026 0.0000 3.4460 0.0000
# 3 -0.3242 16.1026 120.1876 0.0000 10.1245 0.0000
# 4 0.0000 0.0000 0.0000 7.1095 0.0000 0.2224
# 5 2.6243 3.4460 10.1245 0.0000 26.2605 0.0000
# 6 0.0000 0.0000 0.0000 0.2224 0.0000 17.9373
#
#
#
# Elastic Compliance Matrix: (Units=1/GPa)
#
#
# Indices 1 2 3 4 5 6 
#
# 1 0.023135 -0.002017 0.000522 0.000000 -0.002249 0.000000
# 2 -0.002017 0.010816 -0.001397 0.000000 -0.000679 0.000000
# 3 0.000522 -0.001397 0.008783 0.000000 -0.003255 0.000000
# 4 0.000000 0.000000 0.000000 0.140711 0.000000 -0.001744
# 5 -0.002249 -0.000679 -0.003255 0.000000 0.039649 0.000000
# 6 0.000000 0.000000 0.000000 -0.001744 0.000000 0.055771
#
#
# Mechanical properties :
#
#
# Convention : Reuss Voigt Hill
#
# Bulk Modulus (GPa) = 27.06369 34.33416 30.69892
# Shear Modulus (GPa) = 16.83691 26.03278 21.43485
#
# Velocity S-wave (km/s) = 2.76235 3.43485 3.11679
# Velocity P-wave (km/s) = 4.73703 5.59386 5.18318
#
# Compressibility (1/GPa) = 0.03694988
#
# Stress axis : x y z
#
# Youngs Moduli (GPa) = 43.22491 92.45454 113.85429
#
# Poissons Ratio (x) = 0.18646 -0.05943
# Poissons Ratio (y) = 0.08717 0.15910
# Poissons Ratio (z) = -0.02256 0.12919
#
# Static dielectric constant tensor:
#      x y z
#    x 1.895490 0.000000 -0.033120 
#    y 0.000000 1.804870 0.000000 
#    z -0.033120 0.000000 1.919870 
# 
# From -- ./inp_files/22249.got.cif
#   From: 2010.05.17/outbox.cif.g08.bks.cpg/sg11_12_cif.got.tgz:22249.got - 2010.06.03 12:22:45.
