data_PCOD9157879
_publ_section_title
;
Structure prediction by ZEFSAII (Michael W. Deem and Ramdas Pophale) SiO2 
 PCOD9157879
Probable space group: P 21/M
;
_chemical_formula_sum "Si O2"
_cell_formula_units_Z 32
_cell_length_a 21.318089
_cell_length_b 8.958795
_cell_length_c 32.038976
_cell_angle_alpha 90.000000
_cell_angle_beta 159.725134
_cell_angle_gamma 90.000000
_cell_volume 2120.362225
_symmetry_space_group_name_H-M "P 21/M"
_symmetry_group_IT_number 11
_symmetry_cell_setting 'monoclinic'
loop_
_space_group_symop_operation_xyz
x,y,z
-x,1/2+y,-z
-x,-y,-z
x,1/2-y,z
loop_
_atom_site_type_symbol
_atom_site_label
_atom_site_fract_x
_atom_site_fract_y
_atom_site_fract_z
Si Si1 0.693949 0.571921 0.610376
Si Si2 0.940653 0.572234 0.006658
Si Si3 0.641175 0.072709 0.493727
Si Si4 0.999710 0.071933 0.439397
Si Si5 0.557657 0.073025 0.787856
Si Si6 0.293568 0.925745 0.682788
Si Si7 0.216336 0.428350 0.242892
Si Si8 0.744644 0.925987 0.472454
O O1 0.500000 0.500000 0.500000
O O2 0.675554 0.750000 0.595965
O O3 0.742252 0.505135 0.595666
O O4 0.810986 0.539881 0.724831
O O5 0.941563 0.750000 0.003672
O O6 0.081289 0.517851 0.129480
O O7 0.741693 0.513357 0.893955
O O8 0.000000 0.500000 0.000000
O O9 0.655382 0.250000 0.507193
O O10 0.425921 0.035360 0.362507
O O11 0.714312 0.019089 0.495023
O O12 0.036218 0.250000 0.470479
O O13 0.795509 0.043804 0.327448
O O14 0.067023 0.045101 0.434462
O O15 0.131437 0.972285 0.550141
O O16 0.589879 0.250000 0.809374
O O17 0.414525 0.044230 0.660837
O O18 0.462643 0.018225 0.771221
O O19 0.331508 0.750000 0.703050
O O20 0.193048 0.250000 0.221876
O O21 0.735629 0.750000 0.476976
#
# Coordination Sequence:
#
# PCOD9157879 Si02
#       8
#     4   4   4   4   4   4   4   4
#     4   9  17  30  48  66  85 110 140 176 217 261
#     4  12  24  35  48  65  87 117 151 186 221 256
#     4  10  19  29  44  66  90 115 144 179 218 260
#     4   8  15  26  39  58  85 116 146 177 216 261
#     4  10  20  33  46  61  85 117 152 188 222 259
#     4   9  15  25  42  61  82 110 146 184 219 258
#     4   9  19  34  48  63  85 114 148 184 220 257
#     4   9  17  28  42  61  87 119 150 178 214 258
#
# _framework density 15.091760000000001
#
# number of rings (size 3 to 8) (size 9 to 14) (size 15 to 20)
#    0.000    2.500    0.000    4.875    0.000    8.000 
#    0.000    0.000    0.000    0.000    0.000    0.000 
#    0.000    1.000    0.000    3.000    0.000    4.250 
#
# Total GULP energy -178234.678099 kJ/mol
# GULP energy per Si atom -5569.833691 kJ/mol
# Density = 1.505741 g / cm^3
# Si number density = 15.091760 Si / 1000 Ang^3
#
#
#
# Elastic Constant Matrix: (Units=GPa)
#
#
# Indices 1 2 3 4 5 6 
#
# 1 121.8336 60.4445 49.7636 0.0000 0.4384 0.0000
# 2 60.4445 73.3731 42.9437 0.0000 -5.6901 0.0000
# 3 49.7636 42.9437 51.4605 0.0000 -2.6034 0.0000
# 4 0.0000 0.0000 0.0000 20.0964 0.0000 -0.2517
# 5 0.4384 -5.6901 -2.6034 0.0000 20.5683 0.0000
# 6 0.0000 0.0000 0.0000 -0.2517 0.0000 28.8145
#
#
#
# Elastic Compliance Matrix: (Units=1/GPa)
#
#
# Indices 1 2 3 4 5 6 
#
# 1 0.015857 -0.008340 -0.008562 0.000000 -0.003729 0.000000
# 2 -0.008340 0.031464 -0.017857 0.000000 0.006622 0.000000
# 3 -0.008562 -0.017857 0.042646 0.000000 0.000640 0.000000
# 4 0.000000 0.000000 0.000000 0.049766 0.000000 0.000435
# 5 -0.003729 0.006622 0.000640 0.000000 0.050611 0.000000
# 6 0.000000 0.000000 0.000000 0.000435 0.000000 0.034709
#
#
# Mechanical properties :
#
#
# Convention : Reuss Voigt Hill
#
# Bulk Modulus (GPa) = 48.90358 61.44117 55.17237
# Shear Modulus (GPa) = 16.58999 20.13019 18.36009
#
# Velocity S-wave (km/s) = 3.31913 3.65616 3.49171
# Velocity P-wave (km/s) = 6.86756 7.65659 7.27278
#
# Compressibility (1/GPa) = 0.02044840
#
# Stress axis : x y z
#
# Youngs Moduli (GPa) = 63.06562 31.78192 23.44891
#
# Poissons Ratio (x) = 0.26508 0.20077
# Poissons Ratio (y) = 0.52600 0.41872
# Poissons Ratio (z) = 0.53998 0.56752
#
# Static dielectric constant tensor:
#      x y z
#    x 1.543190 0.000000 0.007430 
#    y 0.000000 1.505770 0.000000 
#    z 0.007430 0.000000 1.481910 
# 
# From -- ./inp_files/73644.got.cif
#   From: 2010.05.17/outbox.cif.g08.bks.cpg/sg11_37_cif.got.tgz:73644.got - 2010.06.03 12:22:45.
