data_PCOD9157321
_publ_section_title
;
Structure prediction by ZEFSAII (Michael W. Deem and Ramdas Pophale) SiO2 
 PCOD9157321
Probable space group: P 21/M
;
_chemical_formula_sum "Si O2"
_cell_formula_units_Z 28
_cell_length_a 9.715676
_cell_length_b 15.386650
_cell_length_c 11.853868
_cell_angle_alpha 90.000000
_cell_angle_beta 52.410291
_cell_angle_gamma 90.000000
_cell_volume 1404.174961
_symmetry_space_group_name_H-M "P 21/M"
_symmetry_group_IT_number 11
_symmetry_cell_setting 'monoclinic'
loop_
_space_group_symop_operation_xyz
x,y,z
-x,1/2+y,-z
-x,-y,-z
x,1/2-y,z
loop_
_atom_site_type_symbol
_atom_site_label
_atom_site_fract_x
_atom_site_fract_y
_atom_site_fract_z
Si Si1 0.647668 0.155813 0.846261
Si Si2 0.742115 0.349853 0.468898
Si Si3 0.746982 0.622994 0.936435
Si Si4 0.308540 0.935148 0.948441
Si Si5 0.117147 0.653076 0.850769
Si Si6 0.664612 0.006153 0.668092
Si Si7 0.871650 0.653349 0.622803
O O1 0.719862 0.250000 0.777528
O O2 0.717684 0.074746 0.739727
O O3 0.439960 0.155155 0.929282
O O4 0.670780 0.138470 0.967354
O O5 0.674792 0.250000 0.515006
O O6 0.784388 0.365169 0.316340
O O7 0.637136 0.429469 0.575879
O O8 0.927518 0.352897 0.441130
O O9 0.773269 0.647145 0.792914
O O10 0.913906 0.653561 0.922102
O O11 0.742330 0.520024 0.955747
O O12 0.170229 0.911313 0.922728
O O13 0.488933 0.958760 0.796466
O O14 0.169450 0.750000 0.860599
O O15 0.804888 0.929011 0.585057
O O16 0.839572 0.750000 0.590437
#
# Coordination Sequence:
#
# PCOD9157321 Si02
#       7
#     4   4   4   4   4   4   4
#     4  11  20  33  55  82 114 143 172 224 275 320
#     4   9  20  36  54  77 104 142 187 219 261 321
#     4  10  18  35  53  78 106 142 182 218 262 326
#     4  11  21  33  52  82 114 137 176 226 275 317
#     4  10  21  36  55  77 104 145 187 221 260 321
#     4  11  20  34  53  81 111 138 180 223 275 319
#     4  10  18  32  55  79 106 140 179 225 263 316
#
# _framework density 19.940536000000002
#
# number of rings (size 3 to 8) (size 9 to 14) (size 15 to 20)
#    0.000    1.714    2.857    4.714    0.000    1.143 
#    0.000    0.000    0.000    0.000    0.000    2.000 
#    0.000    0.000    0.000    0.000    0.000    0.000 
#
# Total GULP energy -156204.912559 kJ/mol
# GULP energy per Si atom -5578.746877 kJ/mol
# Density = 1.989515 g / cm^3
# Si number density = 19.940536 Si / 1000 Ang^3
#
#
#
# Elastic Constant Matrix: (Units=GPa)
#
#
# Indices 1 2 3 4 5 6 
#
# 1 49.7908 23.6376 5.2261 0.0000 13.1728 0.0000
# 2 23.6376 110.7583 13.7244 0.0000 12.5177 0.0000
# 3 5.2261 13.7244 41.5189 0.0000 5.4762 0.0000
# 4 0.0000 0.0000 0.0000 22.8881 0.0000 3.5449
# 5 13.1728 12.5177 5.4762 0.0000 15.4632 0.0000
# 6 0.0000 0.0000 0.0000 3.5449 0.0000 36.8527
#
#
#
# Elastic Compliance Matrix: (Units=1/GPa)
#
#
# Indices 1 2 3 4 5 6 
#
# 1 0.027111 -0.003537 0.000446 0.000000 -0.020390 0.000000
# 2 -0.003537 0.010619 -0.002443 0.000000 -0.004719 0.000000
# 3 0.000446 -0.002443 0.025833 0.000000 -0.007551 0.000000
# 4 0.000000 0.000000 0.000000 0.044352 0.000000 -0.004266
# 5 -0.020390 -0.004719 -0.007551 0.000000 0.088534 0.000000
# 6 0.000000 0.000000 0.000000 -0.004266 0.000000 0.027545
#
#
# Mechanical properties :
#
#
# Convention : Reuss Voigt Hill
#
# Bulk Modulus (GPa) = 19.04910 31.91600 25.48255
# Shear Modulus (GPa) = 19.79733 25.67278 22.73505
#
# Velocity S-wave (km/s) = 3.15432 3.59202 3.38026
# Velocity P-wave (km/s) = 4.77912 5.76575 5.29546
#
# Compressibility (1/GPa) = 0.05249593
#
# Stress axis : x y z
#
# Youngs Moduli (GPa) = 36.88579 94.16695 38.71058
#
# Poissons Ratio (x) = 0.33304 -0.01726
# Poissons Ratio (y) = 0.13045 0.09456
# Poissons Ratio (z) = -0.01645 0.23003
#
# Static dielectric constant tensor:
#      x y z
#    x 1.674290 0.000000 -0.014840 
#    y 0.000000 1.757300 0.000000 
#    z -0.014840 0.000000 1.722900 
# 
# From -- ./inp_files/31804.got.cif
#   From: 2010.05.17/outbox.cif.g08.bks.cpg/sg11_16_cif.got.tgz:31804.got - 2010.06.03 12:22:45.
