data_PCOD9157420
_publ_section_title
;
Structure prediction by ZEFSAII (Michael W. Deem and Ramdas Pophale) SiO2 
 PCOD9157420
Probable space group: P 21/M
;
_chemical_formula_sum "Si O2"
_cell_formula_units_Z 28
_cell_length_a 23.094784
_cell_length_b 10.774870
_cell_length_c 17.661177
_cell_angle_alpha 90.000000
_cell_angle_beta 19.175125
_cell_angle_gamma 90.000000
_cell_volume 1443.522636
_symmetry_space_group_name_H-M "P 21/M"
_symmetry_group_IT_number 11
_symmetry_cell_setting 'monoclinic'
loop_
_space_group_symop_operation_xyz
x,y,z
-x,1/2+y,-z
-x,-y,-z
x,1/2-y,z
loop_
_atom_site_type_symbol
_atom_site_label
_atom_site_fract_x
_atom_site_fract_y
_atom_site_fract_z
Si Si1 0.235786 0.014248 0.269102
Si Si2 0.607727 0.381053 0.795406
Si Si3 0.296046 0.388004 0.426098
Si Si4 0.443547 0.606352 0.750059
Si Si5 0.030424 0.888603 0.065646
Si Si6 0.756040 0.895074 0.262082
Si Si7 0.139998 0.898342 0.226618
O O1 0.066802 0.073478 0.518172
O O2 0.295869 0.896593 0.243877
O O3 0.201491 0.969862 0.226195
O O4 0.400028 0.106561 0.065557
O O5 0.651169 0.250000 0.704878
O O6 0.662177 0.499931 0.680087
O O7 0.317564 0.250000 0.366024
O O8 0.431508 0.396092 0.329565
O O9 0.099660 0.398689 0.702294
O O10 0.413310 0.750000 0.767261
O O11 0.568864 0.558927 0.527939
O O12 0.256329 0.556548 0.011189
O O13 0.112057 0.750000 0.965269
O O14 0.896180 0.892165 0.159237
O O15 0.164649 0.002609 0.892407
O O16 0.742758 0.750000 0.253013
O O17 0.168622 0.750000 0.198770
#
# Coordination Sequence:
#
# PCOD9157420 Si02
#       7
#     4   4   4   4   4   4   4
#     4  10  22  34  50  72 100 132 169 209 251 299
#     4  11  22  35  50  74 104 134 167 209 254 297
#     4   9  17  30  48  69  96 132 168 202 242 294
#     4   8  14  26  46  69  94 126 163 200 243 292
#     4   8  14  24  39  62  93 126 159 193 237 288
#     4   8  13  22  39  63  92 123 157 192 234 289
#     4  10  18  33  54  73  95 131 171 208 247 295
#
# _framework density 19.396995
#
# number of rings (size 3 to 8) (size 9 to 14) (size 15 to 20)
#    0.000    2.857    1.429    2.571    0.000    3.429 
#    0.000    2.143    0.000    0.000    0.000    1.000 
#    0.000    0.000    0.000    0.000    0.000    0.000 
#
# Total GULP energy -155969.569684 kJ/mol
# GULP energy per Si atom -5570.341774 kJ/mol
# Density = 1.935285 g / cm^3
# Si number density = 19.396995 Si / 1000 Ang^3
#
#
#
# Elastic Constant Matrix: (Units=GPa)
#
#
# Indices 1 2 3 4 5 6 
#
# 1 1.6810 0.8886 1.1940 0.0000 6.2575 0.0000
# 2 0.8886 101.1954 41.5404 0.0000 32.0813 0.0000
# 3 1.1940 41.5404 116.6592 0.0000 31.9415 0.0000
# 4 0.0000 0.0000 0.0000 15.6056 0.0000 20.2696
# 5 6.2575 32.0813 31.9415 0.0000 -0.4572 0.0000
# 6 0.0000 0.0000 0.0000 20.2696 0.0000 2.0830
#
#
#
# Elastic Compliance Matrix: (Units=1/GPa)
#
#
# Indices 1 2 3 4 5 6 
#
# 1 0.246486 -0.025590 -0.021136 0.000000 0.101261 0.000000
# 2 -0.025590 0.010176 -0.005115 0.000000 0.006406 0.000000
# 3 -0.021136 -0.005115 0.009344 0.000000 0.004621 0.000000
# 4 0.000000 0.000000 0.000000 -0.005505 0.000000 0.053574
# 5 0.101261 0.006406 0.004621 0.000000 -0.028994 0.000000
# 6 0.000000 0.000000 0.000000 0.053574 0.000000 -0.041247
#
#
# Mechanical properties :
#
#
# Convention : Reuss Voigt Hill
#
# Bulk Modulus (GPa) = 6.16055 34.08684 20.12370
# Shear Modulus (GPa) = 14.36567 15.17378 14.76973
#
# Velocity S-wave (km/s) = 2.72437 2.79995 2.76242
# Velocity P-wave (km/s) = 3.61652 5.29758 4.53561
#
# Compressibility (1/GPa) = 0.16232321
#
# Stress axis : x y z
#
# Youngs Moduli (GPa) = 4.05702 98.27332 107.01491
#
# Poissons Ratio (x) = 2.51485 2.26187
# Poissons Ratio (y) = 0.10382 0.54742
# Poissons Ratio (z) = 0.08575 0.50270
#
# Static dielectric constant tensor:
#      x y z
#    x 1.696920 0.000000 -0.014240 
#    y 0.000000 1.669700 0.000000 
#    z -0.014240 0.000000 1.717310 
# 
# From -- ./inp_files/61920.got.cif
#   From: 2010.05.17/outbox.cif.g08.bks.cpg/sg11_31_cif.got.tgz:61920.got - 2010.06.03 12:22:45.
