data_PCOD9157832
_publ_section_title
;
Structure prediction by ZEFSAII (Michael W. Deem and Ramdas Pophale) SiO2 
 PCOD9157832
Probable space group: P 21/M
;
_chemical_formula_sum "Si O2"
_cell_formula_units_Z 28
_cell_length_a 16.558111
_cell_length_b 8.903143
_cell_length_c 16.605263
_cell_angle_alpha 90.000000
_cell_angle_beta 130.015274
_cell_angle_gamma 90.000000
_cell_volume 1874.807536
_symmetry_space_group_name_H-M "P 21/M"
_symmetry_group_IT_number 11
_symmetry_cell_setting 'monoclinic'
loop_
_space_group_symop_operation_xyz
x,y,z
-x,1/2+y,-z
-x,-y,-z
x,1/2-y,z
loop_
_atom_site_type_symbol
_atom_site_label
_atom_site_fract_x
_atom_site_fract_y
_atom_site_fract_z
Si Si1 0.875692 0.569764 0.841068
Si Si2 0.608297 0.430141 0.103300
Si Si3 0.516573 0.070240 0.208977
Si Si4 0.293329 0.070142 0.980752
Si Si5 0.660546 0.569486 0.624617
Si Si6 0.116983 0.570598 0.979200
Si Si7 0.478777 0.429520 0.614340
O O1 0.872168 0.750000 0.852888
O O2 0.781291 0.529989 0.720238
O O3 0.993336 0.534112 0.886155
O O4 0.858593 0.488119 0.915229
O O5 0.606106 0.250000 0.093673
O O6 0.602181 0.466012 0.194344
O O7 0.500000 0.500000 0.000000
O O8 0.696189 0.499217 0.101494
O O9 0.516500 0.250000 0.220164
O O10 0.400654 0.029957 0.099020
O O11 0.535754 0.991845 0.305795
O O12 0.290368 0.250000 0.972946
O O13 0.194341 0.007776 0.966013
O O14 0.650426 0.750000 0.625403
O O15 0.584969 0.495434 0.642696
O O16 0.614460 0.526963 0.507790
O O17 0.130261 0.750000 0.984117
O O18 0.485595 0.250000 0.620864
#
# Coordination Sequence:
#
# PCOD9157832 Si02
#       7
#     4   4   4   4   4   4   4
#     4   9  18  32  46  60  85 118 146 176 215 256
#     4   9  17  29  44  63  87 115 145 175 211 255
#     4   9  18  30  43  61  88 118 141 167 210 257
#     4  10  19  30  44  63  89 119 145 173 213 257
#     4   9  18  32  45  59  85 117 145 175 213 253
#     4  10  19  29  44  66  87 111 146 181 213 253
#     4  10  19  28  43  66  86 110 146 180 209 247
#
# _framework density 14.934867000000001
#
# number of rings (size 3 to 8) (size 9 to 14) (size 15 to 20)
#    0.000    2.571    0.000    3.429    0.000    8.571 
#    0.000    0.000    0.000    0.000    0.000    1.000 
#    0.000    0.000    0.000    0.000    0.000    0.000 
#
# Total GULP energy -156028.663589 kJ/mol
# GULP energy per Si atom -5572.452271 kJ/mol
# Density = 1.490087 g / cm^3
# Si number density = 14.934867 Si / 1000 Ang^3
#
#
#
# Elastic Constant Matrix: (Units=GPa)
#
#
# Indices 1 2 3 4 5 6 
#
# 1 127.6111 47.8447 65.1796 0.0000 -18.6623 0.0000
# 2 47.8447 37.0973 36.3166 0.0000 -8.8823 0.0000
# 3 65.1796 36.3166 93.8572 0.0000 -9.2933 0.0000
# 4 0.0000 0.0000 0.0000 22.1361 0.0000 -5.3910
# 5 -18.6623 -8.8823 -9.2933 0.0000 26.9270 0.0000
# 6 0.0000 0.0000 0.0000 -5.3910 0.0000 27.4976
#
#
#
# Elastic Compliance Matrix: (Units=1/GPa)
#
#
# Indices 1 2 3 4 5 6 
#
# 1 0.017197 -0.015767 -0.005360 0.000000 0.004868 0.000000
# 2 -0.015767 0.059970 -0.011781 0.000000 0.004789 0.000000
# 3 -0.005360 -0.011781 0.018826 0.000000 -0.001104 0.000000
# 4 0.000000 0.000000 0.000000 0.047440 0.000000 0.009301
# 5 0.004868 0.004789 -0.001104 0.000000 0.041710 0.000000
# 6 0.000000 0.000000 0.000000 0.009301 0.000000 0.038190
#
#
# Mechanical properties :
#
#
# Convention : Reuss Voigt Hill
#
# Bulk Modulus (GPa) = 33.13687 61.91636 47.52661
# Shear Modulus (GPa) = 16.71070 22.59379 19.65225
#
# Velocity S-wave (km/s) = 3.34863 3.89372 3.63142
# Velocity P-wave (km/s) = 6.09810 7.85890 7.03382
#
# Compressibility (1/GPa) = 0.03017786
#
# Stress axis : x y z
#
# Youngs Moduli (GPa) = 58.14863 16.67492 53.11774
#
# Poissons Ratio (x) = 0.26291 0.28472
# Poissons Ratio (y) = 0.91681 0.62579
# Poissons Ratio (z) = 0.31168 0.19645
#
# Static dielectric constant tensor:
#      x y z
#    x 1.498790 0.000000 0.002010 
#    y 0.000000 1.498000 0.000000 
#    z 0.002010 0.000000 1.492680 
# 
# From -- ./inp_files/51096.got.cif
#   From: 2010.05.17/outbox.cif.g08.bks.cpg/sg11_26_cif.got.tgz:51096.got - 2010.06.03 12:22:45.
