data_PCOD9157099
_publ_section_title
;
Structure prediction by ZEFSAII (Michael W. Deem and Ramdas Pophale) SiO2 
 PCOD9157099
Probable space group: P 21/M
;
_chemical_formula_sum "Si O2"
_cell_formula_units_Z 28
_cell_length_a 14.693440
_cell_length_b 8.659476
_cell_length_c 14.591380
_cell_angle_alpha 90.000000
_cell_angle_beta 60.854393
_cell_angle_gamma 90.000000
_cell_volume 1621.500577
_symmetry_space_group_name_H-M "P 21/M"
_symmetry_group_IT_number 11
_symmetry_cell_setting 'monoclinic'
loop_
_space_group_symop_operation_xyz
x,y,z
-x,1/2+y,-z
-x,-y,-z
x,1/2-y,z
loop_
_atom_site_type_symbol
_atom_site_label
_atom_site_fract_x
_atom_site_fract_y
_atom_site_fract_z
Si Si1 0.737659 0.430065 0.563955
Si Si2 0.070036 0.570301 0.201469
Si Si3 0.107481 0.434890 0.990016
Si Si4 0.512943 0.062091 0.597237
Si Si5 0.828671 0.574367 0.348547
Si Si6 0.094433 0.067232 0.391362
Si Si7 0.702228 0.933028 0.225984
O O1 0.733565 0.250000 0.590822
O O2 0.622654 0.482730 0.589292
O O3 0.807498 0.455071 0.439071
O O4 0.797069 0.522902 0.613231
O O5 0.100504 0.750000 0.182894
O O6 0.115174 0.480614 0.092576
O O7 0.092938 0.502661 0.290291
O O8 0.944711 0.562448 0.253550
O O9 0.103216 0.250000 0.981707
O O10 0.209906 0.495360 0.885840
O O11 0.000000 0.500000 0.000000
O O12 0.510859 0.250000 0.593031
O O13 0.415370 0.007383 0.707039
O O14 0.500000 0.000000 0.500000
O O15 0.816084 0.750000 0.391455
O O16 0.749687 0.552075 0.304383
O O17 0.081136 0.250000 0.393879
O O18 0.000000 0.000000 0.500000
O O19 0.693957 0.750000 0.209595
#
# Coordination Sequence:
#
# PCOD9157099 Si02
#       7
#     4   4   4   4   4   4   4
#     4  11  22  34  52  82 114 145 184 229 273 326
#     4  11  22  37  55  81 113 146 182 227 277 330
#     4  11  21  35  55  80 111 149 188 228 276 329
#     4  10  20  34  54  80 110 146 186 227 274 325
#     4  10  18  31  53  77 110 150 181 215 267 330
#     4  12  24  38  57  81 110 147 184 225 275 331
#     4   9  18  34  53  76 110 149 184 219 269 325
#
# _framework density 17.267955000000001
#
# number of rings (size 3 to 8) (size 9 to 14) (size 15 to 20)
#    0.000    1.429    4.286    2.571    0.000    1.143 
#    0.000    1.429    0.000    0.857    0.000    0.000 
#    0.000    0.000    0.000    0.000    0.000    0.000 
#
# Total GULP energy -156246.063580 kJ/mol
# GULP energy per Si atom -5580.216556 kJ/mol
# Density = 1.722865 g / cm^3
# Si number density = 17.267955 Si / 1000 Ang^3
#
#
#
# Elastic Constant Matrix: (Units=GPa)
#
#
# Indices 1 2 3 4 5 6 
#
# 1 84.1971 18.2600 30.9161 0.0000 -5.3534 0.0000
# 2 18.2600 47.4860 15.2268 0.0000 -1.6295 0.0000
# 3 30.9161 15.2268 97.7912 0.0000 -3.2448 0.0000
# 4 0.0000 0.0000 0.0000 22.2737 0.0000 6.0298
# 5 -5.3534 -1.6295 -3.2448 0.0000 13.8344 0.0000
# 6 0.0000 0.0000 0.0000 6.0298 0.0000 24.0998
#
#
#
# Elastic Compliance Matrix: (Units=1/GPa)
#
#
# Indices 1 2 3 4 5 6 
#
# 1 0.014440 -0.004199 -0.003772 0.000000 0.004209 0.000000
# 2 -0.004199 0.023432 -0.002301 0.000000 0.000595 0.000000
# 3 -0.003772 -0.002301 0.011811 0.000000 0.001040 0.000000
# 4 0.000000 0.000000 0.000000 0.048158 0.000000 -0.012049
# 5 0.004209 0.000595 0.001040 0.000000 0.074226 0.000000
# 6 0.000000 0.000000 0.000000 -0.012049 0.000000 0.044509
#
#
# Mechanical properties :
#
#
# Convention : Reuss Voigt Hill
#
# Bulk Modulus (GPa) = 34.31800 39.80891 37.06345
# Shear Modulus (GPa) = 20.25668 23.04635 21.65151
#
# Velocity S-wave (km/s) = 3.42874 3.65722 3.54482
# Velocity P-wave (km/s) = 5.96590 6.39823 6.18584
#
# Compressibility (1/GPa) = 0.02913922
#
# Stress axis : x y z
#
# Youngs Moduli (GPa) = 69.25205 42.67709 84.66618
#
# Poissons Ratio (x) = 0.17919 0.31933
# Poissons Ratio (y) = 0.29078 0.19484
# Poissons Ratio (z) = 0.26120 0.09821
#
# Static dielectric constant tensor:
#      x y z
#    x 1.591180 0.000000 -0.014980 
#    y 0.000000 1.686770 0.000000 
#    z -0.014980 0.000000 1.584950 
# 
# From -- ./inp_files/51092.got.cif
#   From: 2010.05.17/outbox.cif.g08.bks.cpg/sg11_26_cif.got.tgz:51092.got - 2010.06.03 12:22:45.
