data_PCOD9157443
_publ_section_title
;
Structure prediction by ZEFSAII (Michael W. Deem and Ramdas Pophale) SiO2 
 PCOD9157443
Probable space group: P 21/M
;
_chemical_formula_sum "Si O2"
_cell_formula_units_Z 28
_cell_length_a 15.701814
_cell_length_b 10.648239
_cell_length_c 16.037491
_cell_angle_alpha 90.000000
_cell_angle_beta 34.965246
_cell_angle_gamma 90.000000
_cell_volume 1536.663886
_symmetry_space_group_name_H-M "P 21/M"
_symmetry_group_IT_number 11
_symmetry_cell_setting 'monoclinic'
loop_
_space_group_symop_operation_xyz
x,y,z
-x,1/2+y,-z
-x,-y,-z
x,1/2-y,z
loop_
_atom_site_type_symbol
_atom_site_label
_atom_site_fract_x
_atom_site_fract_y
_atom_site_fract_z
Si Si1 0.211122 0.102042 0.580289
Si Si2 0.696320 0.104191 0.991130
Si Si3 0.350869 0.395486 0.295371
Si Si4 0.057499 0.504689 0.309945
Si Si5 0.139597 0.618077 0.409466
Si Si6 0.174487 0.892885 0.927405
Si Si7 0.185469 0.396120 0.785406
O O1 0.178218 0.250000 0.612326
O O2 0.332399 0.085050 0.410241
O O3 0.248420 0.064130 0.644380
O O4 0.062889 0.038218 0.663575
O O5 0.730444 0.250000 0.939546
O O6 0.783698 0.008959 0.861269
O O7 0.520048 0.088380 0.132149
O O8 0.755499 0.089235 0.037735
O O9 0.306685 0.250000 0.314366
O O10 0.246062 0.498833 0.337323
O O11 0.067566 0.606561 0.376283
O O12 0.988411 0.390829 0.417685
O O13 0.221013 0.750000 0.352310
O O14 0.211806 0.750000 0.869390
O O15 0.224248 0.002411 0.824693
O O16 0.994822 0.898837 0.078386
O O17 0.226041 0.250000 0.771216
#
# Coordination Sequence:
#
# PCOD9157443 Si02
#       7
#     4   4   4   4   4   4   4
#     4   9  15  29  51  73  95 132 175 209 244 296
#     4  10  18  33  55  79 102 136 180 214 247 304
#     4   9  20  35  54  76 104 139 177 213 252 305
#     4  10  19  32  55  76 100 134 175 215 255 301
#     4  10  21  36  53  78 107 135 170 217 265 309
#     4   9  17  29  48  74 102 128 164 212 255 296
#     4   9  16  28  48  72  98 129 167 209 255 299
#
# _framework density 18.221291000000001
#
# number of rings (size 3 to 8) (size 9 to 14) (size 15 to 20)
#    0.000    2.571    1.429    1.286    0.000    4.571 
#    0.000    5.714    0.000    0.000    0.000    0.000 
#    0.000    0.000    0.000    0.000    0.000    0.000 
#
# Total GULP energy -155911.080694 kJ/mol
# GULP energy per Si atom -5568.252882 kJ/mol
# Density = 1.817982 g / cm^3
# Si number density = 18.221291 Si / 1000 Ang^3
#
#
#
# Elastic Constant Matrix: (Units=GPa)
#
#
# Indices 1 2 3 4 5 6 
#
# 1 41.9474 39.0650 17.4715 0.0000 7.2770 0.0000
# 2 39.0650 86.5883 32.6611 0.0000 2.3385 0.0000
# 3 17.4715 32.6611 72.7716 0.0000 -0.4473 0.0000
# 4 0.0000 0.0000 0.0000 8.2976 0.0000 -5.6867
# 5 7.2770 2.3385 -0.4473 0.0000 21.8388 0.0000
# 6 0.0000 0.0000 0.0000 -5.6867 0.0000 6.5239
#
#
#
# Elastic Compliance Matrix: (Units=1/GPa)
#
#
# Indices 1 2 3 4 5 6 
#
# 1 0.044674 -0.018937 -0.002306 0.000000 -0.012906 0.000000
# 2 -0.018937 0.021987 -0.005298 0.000000 0.003847 0.000000
# 3 -0.002306 -0.005298 0.016683 0.000000 0.001677 0.000000
# 4 0.000000 0.000000 0.000000 0.299350 0.000000 0.260937
# 5 -0.012906 0.003847 0.001677 0.000000 0.049713 0.000000
# 6 0.000000 0.000000 0.000000 0.260937 0.000000 0.380737
#
#
# Mechanical properties :
#
#
# Convention : Reuss Voigt Hill
#
# Bulk Modulus (GPa) = 33.04343 42.18918 37.61630
# Shear Modulus (GPa) = 5.70572 14.80602 10.25587
#
# Velocity S-wave (km/s) = 1.77148 2.85365 2.37502
# Velocity P-wave (km/s) = 4.72843 5.83625 5.31130
#
# Compressibility (1/GPa) = 0.03026320
#
# Stress axis : x y z
#
# Youngs Moduli (GPa) = 22.38422 45.48156 59.93996
#
# Poissons Ratio (x) = 0.86128 0.13821
# Poissons Ratio (y) = 0.42389 0.31756
# Poissons Ratio (z) = 0.05162 0.24096
#
# Static dielectric constant tensor:
#      x y z
#    x 1.610750 0.000000 0.008410 
#    y 0.000000 1.628640 0.000000 
#    z 0.008410 0.000000 1.664320 
# 
# From -- ./inp_files/52101.got.cif
#   From: 2010.05.17/outbox.cif.g08.bks.cpg/sg11_27_cif.got.tgz:52101.got - 2010.06.03 12:22:45.
