data_PCOD9157356
_publ_section_title
;
Structure prediction by ZEFSAII (Michael W. Deem and Ramdas Pophale) SiO2 
 PCOD9157356
Probable space group: P 21/M
;
_chemical_formula_sum "Si O2"
_cell_formula_units_Z 28
_cell_length_a 15.547179
_cell_length_b 8.565384
_cell_length_c 23.230925
_cell_angle_alpha 90.000000
_cell_angle_beta 152.340435
_cell_angle_gamma 90.000000
_cell_volume 1436.104559
_symmetry_space_group_name_H-M "P 21/M"
_symmetry_group_IT_number 11
_symmetry_cell_setting 'monoclinic'
loop_
_space_group_symop_operation_xyz
x,y,z
-x,1/2+y,-z
-x,-y,-z
x,1/2-y,z
loop_
_atom_site_type_symbol
_atom_site_label
_atom_site_fract_x
_atom_site_fract_y
_atom_site_fract_z
Si Si1 0.328632 0.061489 0.969753
Si Si2 0.659686 0.062494 0.553051
Si Si3 0.022185 0.562224 0.173462
Si Si4 0.057075 0.937059 0.471680
Si Si5 0.838475 0.936140 0.864261
Si Si6 0.421938 0.559243 0.624963
Si Si7 0.747236 0.436982 0.201996
O O1 0.320595 0.250000 0.960090
O O2 0.188202 0.015265 0.937151
O O3 0.258671 0.992728 0.867651
O O4 0.543115 0.017848 0.105283
O O5 0.646234 0.250000 0.544063
O O6 0.854587 0.022064 0.697729
O O7 0.634679 0.007595 0.473021
O O8 0.500000 0.000000 0.500000
O O9 0.027748 0.750000 0.168900
O O10 0.114249 0.485685 0.172684
O O11 0.058192 0.750000 0.474201
O O12 0.262787 0.990986 0.574620
O O13 0.000000 0.000000 0.500000
O O14 0.910434 0.990090 0.336326
O O15 0.837099 0.750000 0.866986
O O16 0.632981 0.992471 0.760187
O O17 0.000000 0.000000 0.000000
O O18 0.422525 0.750000 0.625589
O O19 0.762896 0.250000 0.213194
#
# Coordination Sequence:
#
# PCOD9157356 Si02
#       7
#     4   4   4   4   4   4   4
#     4   9  19  36  59  84 117 156 189 227 283 347
#     4  10  18  32  56  85 113 143 182 226 275 330
#     4  10  20  35  57  85 115 150 189 227 277 341
#     4  11  23  41  62  83 112 152 197 243 289 345
#     4  11  23  40  59  80 111 149 191 233 278 337
#     4   9  20  39  61  82 112 153 188 226 287 348
#     4  10  20  36  58  87 117 148 191 240 288 337
#
# _framework density 19.497187
#
# number of rings (size 3 to 8) (size 9 to 14) (size 15 to 20)
#    0.000    2.000    1.429    2.143    0.000    4.571 
#    0.000   11.429    0.000    0.000    0.000    0.000 
#    0.000    0.000    0.000    0.000    0.000    0.000 
#
# Total GULP energy -156341.499861 kJ/mol
# GULP energy per Si atom -5583.624995 kJ/mol
# Density = 1.945281 g / cm^3
# Si number density = 19.497187 Si / 1000 Ang^3
#
#
#
# Elastic Constant Matrix: (Units=GPa)
#
#
# Indices 1 2 3 4 5 6 
#
# 1 143.4901 24.7572 71.7090 0.0000 34.1270 0.0000
# 2 24.7572 20.1457 31.0716 0.0000 8.4612 0.0000
# 3 71.7090 31.0716 131.3466 0.0000 20.2653 0.0000
# 4 0.0000 0.0000 0.0000 29.1958 0.0000 -4.2408
# 5 34.1270 8.4612 20.2653 0.0000 32.0178 0.0000
# 6 0.0000 0.0000 0.0000 -4.2408 0.0000 30.1152
#
#
#
# Elastic Compliance Matrix: (Units=1/GPa)
#
#
# Indices 1 2 3 4 5 6 
#
# 1 0.011903 -0.004698 -0.004013 0.000000 -0.008906 0.000000
# 2 -0.004698 0.082958 -0.016014 0.000000 -0.006780 0.000000
# 3 -0.004013 -0.016014 0.013609 0.000000 -0.000104 0.000000
# 4 0.000000 0.000000 0.000000 0.034967 0.000000 0.004924
# 5 -0.008906 -0.006780 -0.000104 0.000000 0.042583 0.000000
# 6 0.000000 0.000000 0.000000 0.004924 0.000000 0.033899
#
#
# Mechanical properties :
#
#
# Convention : Reuss Voigt Hill
#
# Bulk Modulus (GPa) = 16.94328 61.11755 39.03041
# Shear Modulus (GPa) = 17.29847 29.42872 23.36360
#
# Velocity S-wave (km/s) = 2.98187 3.88929 3.46541
# Velocity P-wave (km/s) = 4.53480 7.18218 6.00617
#
# Compressibility (1/GPa) = 0.05902045
#
# Stress axis : x y z
#
# Youngs Moduli (GPa) = 84.00926 12.05426 73.48168
#
# Poissons Ratio (x) = 0.05663 0.29490
# Poissons Ratio (y) = 0.39466 1.17673
# Poissons Ratio (z) = 0.33715 0.19304
#
# Static dielectric constant tensor:
#      x y z
#    x 1.696260 0.000000 0.031090 
#    y 0.000000 1.668640 0.000000 
#    z 0.031090 0.000000 1.681560 
# 
# From -- ./inp_files/37506.got.cif
#   From: 2010.05.17/outbox.cif.g08.bks.cpg/sg11_19_cif.got.tgz:37506.got - 2010.06.03 12:22:45.
