data_PCOD9157204
_publ_section_title
;
Structure prediction by ZEFSAII (Michael W. Deem and Ramdas Pophale) SiO2 
 PCOD9157204
Probable space group: P 21/M
;
_chemical_formula_sum "Si O2"
_cell_formula_units_Z 32
_cell_length_a 27.232016
_cell_length_b 13.828610
_cell_length_c 9.886089
_cell_angle_alpha 90.000000
_cell_angle_beta 28.781785
_cell_angle_gamma 90.000000
_cell_volume 1792.489563
_symmetry_space_group_name_H-M "P 21/M"
_symmetry_group_IT_number 11
_symmetry_cell_setting 'monoclinic'
loop_
_space_group_symop_operation_xyz
x,y,z
-x,1/2+y,-z
-x,-y,-z
x,1/2-y,z
loop_
_atom_site_type_symbol
_atom_site_label
_atom_site_fract_x
_atom_site_fract_y
_atom_site_fract_z
Si Si1 0.194813 0.141624 0.785270
Si Si2 0.402575 0.945239 0.372469
Si Si3 0.883705 0.969622 0.269051
Si Si4 0.231346 0.862416 0.587740
Si Si5 0.927432 0.359463 0.778263
Si Si6 0.573691 0.856546 0.821403
Si Si7 0.849400 0.634940 0.632657
Si Si8 0.223095 0.496997 0.973988
O O1 0.165112 0.250000 0.893075
O O2 0.122531 0.092211 0.852881
O O3 0.305511 0.143464 0.445513
O O4 0.206071 0.077497 0.890974
O O5 0.331308 0.905962 0.420616
O O6 0.438639 0.054582 0.252728
O O7 0.327493 0.947503 0.681856
O O8 0.503117 0.880180 0.120206
O O9 0.855494 0.904781 0.466034
O O10 0.810589 0.063006 0.422902
O O11 0.000000 0.000000 0.000000
O O12 0.245942 0.750000 0.511872
O O13 0.144986 0.863023 0.914006
O O14 0.926326 0.250000 0.728089
O O15 0.041156 0.380260 0.555917
O O16 0.873200 0.430668 0.803388
O O17 0.547248 0.750000 0.831869
O O18 0.827884 0.750000 0.688085
O O19 0.773484 0.567067 0.900765
#
# Coordination Sequence:
#
# PCOD9157204 Si02
#       8
#     4   4   4   4   4   4   4   4
#     4  10  19  33  53  78 107 135 177 222 262 306
#     4   9  17  31  51  80 109 130 170 218 271 315
#     4  12  21  35  50  76 106 143 182 221 254 299
#     4  10  18  32  51  74 103 139 175 216 265 310
#     4   9  17  31  50  72  98 135 178 218 257 306
#     4   9  16  28  51  82 106 128 165 221 271 311
#     4  11  22  33  50  73 105 142 178 215 265 314
#     4  10  18  34  50  76 105 139 170 217 266 318
#
# _framework density 17.852264999999999
#
# number of rings (size 3 to 8) (size 9 to 14) (size 15 to 20)
#    0.000    2.000    5.000    1.500    0.000    1.500 
#    0.000    0.625    0.000    0.750    0.000    0.000 
#    0.000    0.000    0.000    0.000    0.000    0.000 
#
# Total GULP energy -178260.340799 kJ/mol
# GULP energy per Si atom -5570.635650 kJ/mol
# Density = 1.781163 g / cm^3
# Si number density = 17.852265 Si / 1000 Ang^3
#
#
#
# Elastic Constant Matrix: (Units=GPa)
#
#
# Indices 1 2 3 4 5 6 
#
# 1 20.0766 6.1962 2.8939 0.0000 6.3748 0.0000
# 2 6.1962 105.1841 -0.0817 0.0000 -2.2828 0.0000
# 3 2.8939 -0.0817 28.1743 0.0000 -1.7267 0.0000
# 4 0.0000 0.0000 0.0000 23.8169 0.0000 -1.1227
# 5 6.3748 -2.2828 -1.7267 0.0000 18.3076 0.0000
# 6 0.0000 0.0000 0.0000 -1.1227 0.0000 21.0931
#
#
#
# Elastic Compliance Matrix: (Units=1/GPa)
#
#
# Indices 1 2 3 4 5 6 
#
# 1 0.058998 -0.003953 -0.007403 0.000000 -0.021734 0.000000
# 2 -0.003953 0.009798 0.000597 0.000000 0.002654 0.000000
# 3 -0.007403 0.000597 0.036630 0.000000 0.006107 0.000000
# 4 0.000000 0.000000 0.000000 0.042093 0.000000 0.002240
# 5 -0.021734 0.002654 0.006107 0.000000 0.063097 0.000000
# 6 0.000000 0.000000 0.000000 0.002240 0.000000 0.047528
#
#
# Mechanical properties :
#
#
# Convention : Reuss Voigt Hill
#
# Bulk Modulus (GPa) = 11.91794 19.05020 15.48407
# Shear Modulus (GPa) = 16.25328 22.27197 19.26263
#
# Velocity S-wave (km/s) = 3.02061 3.53593 3.28838
# Velocity P-wave (km/s) = 4.34233 5.23112 4.80731
#
# Compressibility (1/GPa) = 0.08390710
#
# Stress axis : x y z
#
# Youngs Moduli (GPa) = 16.94987 102.06086 27.30024
#
# Poissons Ratio (x) = 0.40344 0.20211
# Poissons Ratio (y) = 0.06700 -0.01630
# Poissons Ratio (z) = 0.12549 -0.06094
#
# Static dielectric constant tensor:
#      x y z
#    x 1.578100 0.000000 -0.018530 
#    y 0.000000 1.662760 0.000000 
#    z -0.018530 0.000000 1.664420 
# 
# From -- ./inp_files/28846.got.cif
#   From: 2010.05.17/outbox.cif.g08.bks.cpg/sg11_15_cif.got.tgz:28846.got - 2010.06.03 12:22:45.
