data_PCOD9157856
_publ_section_title
;
Structure prediction by ZEFSAII (Michael W. Deem and Ramdas Pophale) SiO2 
 PCOD9157856
Probable space group: P 21/M
;
_chemical_formula_sum "Si O2"
_cell_formula_units_Z 28
_cell_length_a 19.866192
_cell_length_b 7.559123
_cell_length_c 14.817953
_cell_angle_alpha 90.000000
_cell_angle_beta 137.723789
_cell_angle_gamma 90.000000
_cell_volume 1496.921906
_symmetry_space_group_name_H-M "P 21/M"
_symmetry_group_IT_number 11
_symmetry_cell_setting 'monoclinic'
loop_
_space_group_symop_operation_xyz
x,y,z
-x,1/2+y,-z
-x,-y,-z
x,1/2-y,z
loop_
_atom_site_type_symbol
_atom_site_label
_atom_site_fract_x
_atom_site_fract_y
_atom_site_fract_z
Si Si1 0.627691 0.454366 0.725255
Si Si2 0.888837 0.960303 0.497777
Si Si3 0.302106 0.532445 0.015844
Si Si4 0.499857 0.961846 0.105852
Si Si5 0.305226 0.036911 0.593511
Si Si6 0.113436 0.536289 0.713304
Si Si7 0.600621 0.039435 0.499843
O O1 0.659071 0.250000 0.749866
O O2 0.684568 0.530061 0.868008
O O3 0.508936 0.460957 0.629184
O O4 0.636550 0.530290 0.633101
O O5 0.894196 0.750000 0.518951
O O6 0.799308 0.031403 0.470438
O O7 0.001418 0.030507 0.623696
O O8 0.863529 0.987834 0.367357
O O9 0.302967 0.750000 0.017594
O O10 0.398900 0.474379 0.054413
O O11 0.200597 0.475466 0.866317
O O12 0.500239 0.750000 0.116830
O O13 0.599849 0.029704 0.254306
O O14 0.500000 0.000000 0.000000
O O15 0.303982 0.250000 0.601305
O O16 0.326166 0.995402 0.510178
O O17 0.111314 0.750000 0.715037
O O18 0.585432 0.250000 0.493503
#
# Coordination Sequence:
#
# PCOD9157856 Si02
#       7
#     4   4   4   4   4   4   4
#     4   9  17  32  49  66  93 123 150 185 232 279
#     4   9  18  31  47  68  92 122 156 188 227 267
#     4   9  16  29  48  66  88 120 151 181 224 274
#     4  10  19  29  42  62  89 121 148 176 221 270
#     4  10  19  32  47  63  93 129 152 180 228 280
#     4   9  17  30  49  70  90 117 157 195 222 262
#     4  10  19  29  47  72  92 116 154 194 227 268
#
# _framework density 18.70505
#
# number of rings (size 3 to 8) (size 9 to 14) (size 15 to 20)
#    0.000    2.571    1.429    1.286    0.000    1.714 
#    0.000    0.714    0.000    0.857    0.000    0.000 
#    0.000    0.000    0.000    0.000    0.000    0.429 
#
# Total GULP energy -156199.542469 kJ/mol
# GULP energy per Si atom -5578.555088 kJ/mol
# Density = 1.866248 g / cm^3
# Si number density = 18.705050 Si / 1000 Ang^3
#
#
#
# Elastic Constant Matrix: (Units=GPa)
#
#
# Indices 1 2 3 4 5 6 
#
# 1 158.9457 -3.5961 98.8738 0.0000 -3.8313 0.0000
# 2 -3.5961 42.1663 -7.7913 0.0000 5.9197 0.0000
# 3 98.8738 -7.7913 127.5636 0.0000 -5.4981 0.0000
# 4 0.0000 0.0000 0.0000 4.6711 0.0000 -8.3199
# 5 -3.8313 5.9197 -5.4981 0.0000 20.4955 0.0000
# 6 0.0000 0.0000 0.0000 -8.3199 0.0000 13.1452
#
#
#
# Elastic Compliance Matrix: (Units=1/GPa)
#
#
# Indices 1 2 3 4 5 6 
#
# 1 0.012171 -0.000705 -0.009479 0.000000 -0.000064 0.000000
# 2 -0.000705 0.024947 0.001774 0.000000 -0.006861 0.000000
# 3 -0.009479 0.001774 0.015374 0.000000 0.001840 0.000000
# 4 0.000000 0.000000 0.000000 -1.681242 0.000000 -1.064101
# 5 -0.000064 -0.006861 0.001840 0.000000 0.051255 0.000000
# 6 0.000000 0.000000 0.000000 -1.064101 0.000000 -0.597423
#
#
# Mechanical properties :
#
#
# Convention : Reuss Voigt Hill
#
# Bulk Modulus (GPa) = 28.03322 55.96093 41.99707
# Shear Modulus (GPa) = -2.32969 23.74164 10.70597
#
# Velocity S-wave (km/s) = -1.11722 3.56654 2.39499
# Velocity P-wave (km/s) = 3.65448 6.85148 5.49081
#
# Compressibility (1/GPa) = 0.03567197
#
# Stress axis : x y z
#
# Youngs Moduli (GPa) = 82.16555 40.08571 65.04451
#
# Poissons Ratio (x) = 0.02824 0.61656
# Poissons Ratio (y) = 0.05789 -0.11539
# Poissons Ratio (z) = 0.77886 -0.07111
#
# Static dielectric constant tensor:
#      x y z
#    x 1.634380 0.000000 -0.001930 
#    y 0.000000 1.699060 0.000000 
#    z -0.001930 0.000000 1.644710 
# 
# From -- ./inp_files/37145.got.cif
#   From: 2010.05.17/outbox.cif.g08.bks.cpg/sg11_19_cif.got.tgz:37145.got - 2010.06.03 12:22:45.
