data_PCOD9157547
_publ_section_title
;
Structure prediction by ZEFSAII (Michael W. Deem and Ramdas Pophale) SiO2 
 PCOD9157547
Probable space group: P 21/M
;
_chemical_formula_sum "Si O2"
_cell_formula_units_Z 20
_cell_length_a 33.825269
_cell_length_b 7.906739
_cell_length_c 17.373048
_cell_angle_alpha 90.000000
_cell_angle_beta 167.394950
_cell_angle_gamma 90.000000
_cell_volume 1013.975953
_symmetry_space_group_name_H-M "P 21/M"
_symmetry_group_IT_number 11
_symmetry_cell_setting 'monoclinic'
loop_
_space_group_symop_operation_xyz
x,y,z
-x,1/2+y,-z
-x,-y,-z
x,1/2-y,z
loop_
_atom_site_type_symbol
_atom_site_label
_atom_site_fract_x
_atom_site_fract_y
_atom_site_fract_z
Si Si1 0.708997 0.441639 0.900339
Si Si2 0.584723 0.939953 0.080397
Si Si3 0.939589 0.750000 0.071225
Si Si4 0.008753 0.939919 0.928479
Si Si5 0.769409 0.750000 0.915695
Si Si6 0.358353 0.750000 0.908880
Si Si7 0.341631 0.750000 0.058983
O O1 0.500000 0.500000 0.500000
O O2 0.727148 0.250000 0.902339
O O3 0.810433 0.584564 0.045185
O O4 0.745067 0.409896 0.059871
O O5 0.522324 0.750000 0.943286
O O6 0.801126 0.932270 0.504849
O O7 0.548265 0.081406 0.946757
O O8 0.500000 0.000000 0.000000
O O9 0.890852 0.581384 0.931316
O O10 0.157127 0.750000 0.491035
O O11 0.866456 0.750000 0.018439
O O12 0.084086 0.750000 0.066812
O O13 0.000000 0.000000 0.000000
O O14 0.554725 0.750000 0.486775
O O15 0.333839 0.750000 0.953575
#
# Coordination Sequence:
#
# PCOD9157547 Si02
#       7
#     4   4   2   4   2   2   2
#     4   8  15  30  53  76 100 127 165 207 261 294
#     4  10  20  34  54  76 100 139 175 214 258 303
#     4  10  22  34  52  75 108 141 165 210 265 302
#     4  10  20  35  54  75 103 138 177 213 258 307
#     4  10  18  34  54  79 100 131 171 212 255 306
#     4  10  20  38  48  73 114 133 167 214 259 306
#     4   8  18  34  54  75 100 131 167 214 251 296
#
# _framework density 19.724335
#
# number of rings (size 3 to 8) (size 9 to 14) (size 15 to 20)
#    0.600    2.000    3.000    0.000    0.000    2.400 
#    1.800    1.000    0.000    0.000    0.000    0.000 
#    0.000    0.000    0.000    0.000    0.000    0.000 
#
# Total GULP energy -111373.585728 kJ/mol
# GULP energy per Si atom -5568.679286 kJ/mol
# Density = 1.967944 g / cm^3
# Si number density = 19.724335 Si / 1000 Ang^3
#
#
#
# Elastic Constant Matrix: (Units=GPa)
#
#
# Indices 1 2 3 4 5 6 
#
# 1 175.8690 119.5080 -9.0843 0.0000 7.9179 0.0000
# 2 119.5080 233.5632 11.6095 0.0000 8.8617 0.0000
# 3 -9.0843 11.6095 40.9808 0.0000 -0.6072 0.0000
# 4 0.0000 0.0000 0.0000 4.4508 0.0000 1.8142
# 5 7.9179 8.8617 -0.6072 0.0000 28.2504 0.0000
# 6 0.0000 0.0000 0.0000 1.8142 0.0000 36.6938
#
#
#
# Elastic Compliance Matrix: (Units=1/GPa)
#
#
# Indices 1 2 3 4 5 6 
#
# 1 0.009190 -0.004834 0.003392 0.000000 -0.000987 0.000000
# 2 -0.004834 0.006940 -0.003051 0.000000 -0.000888 0.000000
# 3 0.003392 -0.003051 0.026026 0.000000 0.000566 0.000000
# 4 0.000000 0.000000 0.000000 0.229300 0.000000 -0.011337
# 5 -0.000987 -0.000888 0.000566 0.000000 0.035965 0.000000
# 6 0.000000 0.000000 0.000000 -0.011337 0.000000 0.027813
#
#
# Mechanical properties :
#
#
# Convention : Reuss Voigt Hill
#
# Bulk Modulus (GPa) = 30.14609 77.16436 53.65523
# Shear Modulus (GPa) = 14.07356 35.77100 24.92228
#
# Velocity S-wave (km/s) = 2.67406 4.26320 3.55847
# Velocity P-wave (km/s) = 4.98508 7.96489 6.64419
#
# Compressibility (1/GPa) = 0.03317180
#
# Stress axis : x y z
#
# Youngs Moduli (GPa) = 108.81141 144.09193 38.42283
#
# Poissons Ratio (x) = 0.69648 -0.13033
# Poissons Ratio (y) = 0.52595 0.11722
# Poissons Ratio (z) = -0.36908 0.43958
#
# Static dielectric constant tensor:
#      x y z
#    x 1.655770 0.000000 -0.002080 
#    y 0.000000 2.085150 0.000000 
#    z -0.002080 0.000000 1.759650 
# 
# From -- ./inp_files/56136.got.cif
#   From: 2010.05.17/outbox.cif.g08.bks.cpg/sg11_29_cif.got.tgz:56136.got - 2010.06.03 12:22:45.
