data_PCOD9157669
_publ_section_title
;
Structure prediction by ZEFSAII (Michael W. Deem and Ramdas Pophale) SiO2 
 PCOD9157669
Probable space group: P 21/M
;
_chemical_formula_sum "Si O2"
_cell_formula_units_Z 28
_cell_length_a 10.432932
_cell_length_b 14.534943
_cell_length_c 10.898340
_cell_angle_alpha 90.000000
_cell_angle_beta 57.746626
_cell_angle_gamma 90.000000
_cell_volume 1397.637494
_symmetry_space_group_name_H-M "P 21/M"
_symmetry_group_IT_number 11
_symmetry_cell_setting 'monoclinic'
loop_
_space_group_symop_operation_xyz
x,y,z
-x,1/2+y,-z
-x,-y,-z
x,1/2-y,z
loop_
_atom_site_type_symbol
_atom_site_label
_atom_site_fract_x
_atom_site_fract_y
_atom_site_fract_z
Si Si1 0.754985 0.902550 0.254346
Si Si2 0.699537 0.999882 0.032813
Si Si3 0.474486 0.890417 0.533701
Si Si4 0.173368 0.141524 0.231603
Si Si5 0.466454 0.355140 0.212544
Si Si6 0.859276 0.089425 0.315221
Si Si7 0.072045 0.849905 0.996331
O O1 0.680163 0.951059 0.174093
O O2 0.621311 0.850559 0.391703
O O3 0.824378 0.982259 0.306847
O O4 0.899103 0.850665 0.127011
O O5 0.557098 0.068005 0.088766
O O6 0.840488 0.069214 0.979443
O O7 0.746883 0.923207 0.911040
O O8 0.480989 0.866361 0.673910
O O9 0.306064 0.868426 0.571218
O O10 0.500000 0.000000 0.500000
O O11 0.172082 0.250000 0.197914
O O12 0.285899 0.131498 0.289808
O O13 0.999359 0.109318 0.332768
O O14 0.497468 0.250000 0.156512
O O15 0.913114 0.129298 0.155742
O O16 0.140356 0.750000 0.986118
#
# Coordination Sequence:
#
# PCOD9157669 Si02
#       7
#     4   4   4   4   4   4   4
#     4  10  19  34  59  86 118 147 196 247 302 348
#     4  11  19  37  60  85 120 157 201 243 300 354
#     4  10  20  38  61  84 117 150 199 247 293 354
#     4  11  23  37  58  88 121 159 204 249 297 353
#     4  11  23  38  59  89 122 160 202 243 295 362
#     4  10  18  35  57  84 114 152 197 245 294 351
#     4  11  19  31  57  89 117 149 197 251 295 346
#
# _framework density 20.033805999999998
#
# number of rings (size 3 to 8) (size 9 to 14) (size 15 to 20)
#    0.000    1.429    7.143    2.143    0.000    1.143 
#    0.000    2.857    0.000    0.000    0.000    0.000 
#    0.000    0.000    0.000    0.000    0.000    0.000 
#
# Total GULP energy -156129.097014 kJ/mol
# GULP energy per Si atom -5576.039179 kJ/mol
# Density = 1.998821 g / cm^3
# Si number density = 20.033806 Si / 1000 Ang^3
#
#
#
# Elastic Constant Matrix: (Units=GPa)
#
#
# Indices 1 2 3 4 5 6 
#
# 1 114.4877 8.3857 15.6312 0.0000 -34.4760 0.0000
# 2 8.3857 88.9751 5.9351 0.0000 -3.4369 0.0000
# 3 15.6312 5.9351 69.2913 0.0000 -40.6605 0.0000
# 4 0.0000 0.0000 0.0000 -15.7725 0.0000 7.3586
# 5 -34.4760 -3.4369 -40.6605 0.0000 36.3755 0.0000
# 6 0.0000 0.0000 0.0000 7.3586 0.0000 19.8856
#
#
#
# Elastic Compliance Matrix: (Units=1/GPa)
#
#
# Indices 1 2 3 4 5 6 
#
# 1 0.016884 -0.001363 0.016341 0.000000 0.034140 0.000000
# 2 -0.001363 0.011414 -0.002311 0.000000 -0.002797 0.000000
# 3 0.016341 -0.002311 0.057848 0.000000 0.079932 0.000000
# 4 0.000000 0.000000 0.000000 -0.054067 0.000000 0.020007
# 5 0.034140 -0.002797 0.079932 0.000000 0.148932 0.000000
# 6 0.000000 0.000000 0.000000 0.020007 0.000000 0.042884
#
#
# Mechanical properties :
#
#
# Convention : Reuss Voigt Hill
#
# Bulk Modulus (GPa) = 8.97020 36.96200 22.96610
# Shear Modulus (GPa) = 21.21170 24.28453 22.74811
#
# Velocity S-wave (km/s) = 3.25744 3.48541 3.37335
# Velocity P-wave (km/s) = 4.31685 5.88959 5.16345
#
# Compressibility (1/GPa) = 0.11148024
#
# Stress axis : x y z
#
# Youngs Moduli (GPa) = 59.22804 87.61427 17.28676
#
# Poissons Ratio (x) = 0.11938 -0.28249
# Poissons Ratio (y) = 0.08070 0.03996
# Poissons Ratio (z) = -0.96787 0.20250
#
# Static dielectric constant tensor:
#      x y z
#    x 1.744860 0.000000 -0.039870 
#    y 0.000000 1.750570 0.000000 
#    z -0.039870 0.000000 1.708680 
# 
# From -- ./inp_files/31792.got.cif
#   From: 2010.05.17/outbox.cif.g08.bks.cpg/sg11_16_cif.got.tgz:31792.got - 2010.06.03 12:22:45.
