data_PCOD9157389
_publ_section_title
;
Structure prediction by ZEFSAII (Michael W. Deem and Ramdas Pophale) SiO2 
 PCOD9157389
Probable space group: P 21/M
;
_chemical_formula_sum "Si O2"
_cell_formula_units_Z 30
_cell_length_a 12.755737
_cell_length_b 14.262611
_cell_length_c 17.663100
_cell_angle_alpha 90.000000
_cell_angle_beta 24.335258
_cell_angle_gamma 90.000000
_cell_volume 1324.182746
_symmetry_space_group_name_H-M "P 21/M"
_symmetry_group_IT_number 11
_symmetry_cell_setting 'monoclinic'
loop_
_space_group_symop_operation_xyz
x,y,z
-x,1/2+y,-z
-x,-y,-z
x,1/2-y,z
loop_
_atom_site_type_symbol
_atom_site_label
_atom_site_fract_x
_atom_site_fract_y
_atom_site_fract_z
Si Si1 0.397057 0.863616 0.691569
Si Si2 0.384960 0.579151 0.982986
Si Si3 0.769146 0.434209 0.677699
Si Si4 0.512934 0.635277 0.448446
Si Si5 0.709962 0.352430 0.559298
Si Si6 0.759632 0.750000 0.778629
Si Si7 0.963480 0.856135 0.362313
Si Si8 0.908517 0.136609 0.969288
O O1 0.377062 0.750000 0.700533
O O2 0.409085 0.898716 0.597572
O O3 0.171423 0.896156 0.894407
O O4 0.667957 0.882207 0.554186
O O5 0.558863 0.487528 0.865159
O O6 0.548920 0.667112 0.903810
O O7 0.293827 0.599346 0.957703
O O8 0.131431 0.576386 0.200052
O O9 0.647467 0.399370 0.679854
O O10 0.910454 0.358620 0.637629
O O11 0.000000 0.500000 0.500000
O O12 0.490318 0.750000 0.465680
O O13 0.367877 0.602109 0.468580
O O14 0.808473 0.612374 0.242883
O O15 0.577567 0.250000 0.647773
O O16 0.010470 0.329732 0.362938
O O17 0.978795 0.750000 0.321004
O O18 0.892917 0.250000 0.978134
#
# Coordination Sequence:
#
# PCOD9157389 Si02
#       8
#     4   4   4   4   4   2   4   4
#     4   9  18  30  56  90 112 148 202 256 297 348
#     4  12  21  37  60  91 123 156 202 252 308 357
#     4  12  23  37  58  88 123 160 200 248 305 369
#     4   9  17  35  58  83 117 155 201 246 297 356
#     4   9  20  38  60  83 121 165 198 241 305 362
#     4  10  20  36  60  88 114 164 198 240 306 360
#     4  11  22  37  61  90 124 155 201 253 302 363
#     4  10  18  32  60  90 115 151 203 257 298 350
#
# _framework density 22.655483
#
# number of rings (size 3 to 8) (size 9 to 14) (size 15 to 20)
#    0.400    1.333    4.000    1.600    0.000    0.000 
#    0.000    2.000    2.933    1.600    0.000    0.000 
#    0.000    0.000    0.000    0.000    0.000    0.000 
#
# Total GULP energy -167094.356451 kJ/mol
# GULP energy per Si atom -5569.811882 kJ/mol
# Density = 2.260392 g / cm^3
# Si number density = 22.655483 Si / 1000 Ang^3
#
#
#
# Elastic Constant Matrix: (Units=GPa)
#
#
# Indices 1 2 3 4 5 6 
#
# 1 78.6906 15.3916 5.5099 0.0000 27.4807 0.0000
# 2 15.3916 50.9056 8.9704 0.0000 0.6423 0.0000
# 3 5.5099 8.9704 49.6005 0.0000 26.7831 0.0000
# 4 0.0000 0.0000 0.0000 21.2967 0.0000 3.2468
# 5 27.4807 0.6423 26.7831 0.0000 31.3799 0.0000
# 6 0.0000 0.0000 0.0000 3.2468 0.0000 21.2926
#
#
#
# Elastic Compliance Matrix: (Units=1/GPa)
#
#
# Indices 1 2 3 4 5 6 
#
# 1 0.029510 -0.012529 0.023750 0.000000 -0.045858 0.000000
# 2 -0.012529 0.026049 -0.016612 0.000000 0.024618 0.000000
# 3 0.023750 -0.016612 0.058566 0.000000 -0.070445 0.000000
# 4 0.000000 0.000000 0.000000 0.048073 0.000000 -0.007330
# 5 -0.045858 0.024618 -0.070445 0.000000 0.131649 0.000000
# 6 0.000000 0.000000 0.000000 -0.007330 0.000000 0.048082
#
#
# Mechanical properties :
#
#
# Convention : Reuss Voigt Hill
#
# Bulk Modulus (GPa) = 9.67659 26.54894 18.11276
# Shear Modulus (GPa) = 12.91455 24.74884 18.83169
#
# Velocity S-wave (km/s) = 2.39014 3.30873 2.88622
# Velocity P-wave (km/s) = 3.44928 5.13234 4.37255
#
# Compressibility (1/GPa) = 0.10334217
#
# Stress axis : x y z
#
# Youngs Moduli (GPa) = 33.88650 38.38886 17.07475
#
# Poissons Ratio (x) = 0.48098 -0.40552
# Poissons Ratio (y) = 0.42457 0.28365
# Poissons Ratio (z) = -0.80480 0.63773
#
# Static dielectric constant tensor:
#      x y z
#    x 1.871040 0.000000 0.030480 
#    y 0.000000 1.896210 0.000000 
#    z 0.030480 0.000000 1.825060 
# 
# From -- ./inp_files/50596.got.cif
#   From: 2010.05.17/outbox.cif.g08.bks.cpg/sg11_26_cif.got.tgz:50596.got - 2010.06.03 12:22:45.
