data_PCOD9157307
_publ_section_title
;
Structure prediction by ZEFSAII (Michael W. Deem and Ramdas Pophale) SiO2 
 PCOD9157307
Probable space group: P 21/M
;
_chemical_formula_sum "Si O2"
_cell_formula_units_Z 28
_cell_length_a 9.707728
_cell_length_b 15.274954
_cell_length_c 20.997209
_cell_angle_alpha 90.000000
_cell_angle_beta 149.985536
_cell_angle_gamma 90.000000
_cell_volume 1557.467254
_symmetry_space_group_name_H-M "P 21/M"
_symmetry_group_IT_number 11
_symmetry_cell_setting 'monoclinic'
loop_
_space_group_symop_operation_xyz
x,y,z
-x,1/2+y,-z
-x,-y,-z
x,1/2-y,z
loop_
_atom_site_type_symbol
_atom_site_label
_atom_site_fract_x
_atom_site_fract_y
_atom_site_fract_z
Si Si1 0.525231 0.995970 0.639907
Si Si2 0.848848 0.153290 0.045401
Si Si3 0.637686 0.524641 0.189381
Si Si4 0.262837 0.040021 0.142666
Si Si5 0.601657 0.847206 0.498561
Si Si6 0.155897 0.645589 0.432497
Si Si7 0.022953 0.589555 0.767455
O O1 0.386285 0.077845 0.549481
O O2 0.622917 0.013414 0.750689
O O3 0.333309 0.909656 0.555369
O O4 0.797053 0.975332 0.707594
O O5 0.767919 0.250000 0.993584
O O6 0.885139 0.146532 0.135852
O O7 0.132907 0.125704 0.124073
O O8 0.614089 0.085282 0.932844
O O9 0.513712 0.460214 0.193665
O O10 0.746007 0.467338 0.174208
O O11 0.878979 0.589483 0.310450
O O12 0.000000 0.000000 0.000000
O O13 0.585723 0.750000 0.464724
O O14 0.340790 0.859555 0.441843
O O15 0.863654 0.856912 0.649557
O O16 0.119177 0.750000 0.431486
#
# Coordination Sequence:
#
# PCOD9157307 Si02
#       7
#     4   4   4   4   4   4   4
#     4  10  18  36  56  78 113 151 186 223 279 341
#     4  10  21  37  57  81 109 149 193 230 277 342
#     4  11  19  36  57  83 112 144 187 238 284 321
#     4   9  22  38  58  76 107 151 189 225 284 337
#     4  10  18  32  54  82 114 148 182 228 280 334
#     4  10  19  32  57  87 113 145 189 233 281 336
#     4  10  18  34  58  83 110 144 187 229 277 328
#
# _framework density 17.977906000000001
#
# number of rings (size 3 to 8) (size 9 to 14) (size 15 to 20)
#    0.000    2.000    2.857    2.143    0.000    4.000 
#    0.000    5.000    0.000    0.000    0.000    0.000 
#    0.000    0.000    0.000    0.000    0.000    0.000 
#
# Total GULP energy -155957.965622 kJ/mol
# GULP energy per Si atom -5569.927344 kJ/mol
# Density = 1.793699 g / cm^3
# Si number density = 17.977906 Si / 1000 Ang^3
#
#
#
# Elastic Constant Matrix: (Units=GPa)
#
#
# Indices 1 2 3 4 5 6 
#
# 1 69.2342 37.4310 25.2727 0.0000 0.9126 0.0000
# 2 37.4310 69.1453 19.9215 0.0000 4.9446 0.0000
# 3 25.2727 19.9215 66.7803 0.0000 -5.6555 0.0000
# 4 0.0000 0.0000 0.0000 17.5168 0.0000 4.7620
# 5 0.9126 4.9446 -5.6555 0.0000 35.2707 0.0000
# 6 0.0000 0.0000 0.0000 4.7620 0.0000 6.0080
#
#
#
# Elastic Compliance Matrix: (Units=1/GPa)
#
#
# Indices 1 2 3 4 5 6 
#
# 1 0.021962 -0.010393 -0.005207 0.000000 0.000054 0.000000
# 2 -0.010393 0.021063 -0.002613 0.000000 -0.003103 0.000000
# 3 -0.005207 -0.002613 0.018011 0.000000 0.003389 0.000000
# 4 0.000000 0.000000 0.000000 0.072768 0.000000 -0.057677
# 5 0.000054 -0.003103 0.003389 0.000000 0.029329 0.000000
# 6 0.000000 0.000000 0.000000 -0.057677 0.000000 0.212160
#
#
# Mechanical properties :
#
#
# Convention : Reuss Voigt Hill
#
# Bulk Modulus (GPa) = 40.63097 41.15668 40.89382
# Shear Modulus (GPa) = 11.90692 19.92807 15.91750
#
# Velocity S-wave (km/s) = 2.57633 3.33299 2.97878
# Velocity P-wave (km/s) = 5.61244 6.14446 5.88447
#
# Compressibility (1/GPa) = 0.02461177
#
# Stress axis : x y z
#
# Youngs Moduli (GPa) = 45.53229 47.47645 55.52018
#
# Poissons Ratio (x) = 0.49342 0.28908
# Poissons Ratio (y) = 0.47321 0.14508
# Poissons Ratio (z) = 0.23707 0.12406
#
# Static dielectric constant tensor:
#      x y z
#    x 1.616730 0.000000 -0.004640 
#    y 0.000000 1.601010 0.000000 
#    z -0.004640 0.000000 1.641100 
# 
# From -- ./inp_files/22104.got.cif
#   From: 2010.05.17/outbox.cif.g08.bks.cpg/sg11_12_cif.got.tgz:22104.got - 2010.06.03 12:22:45.
