data_PCOD9157081
_publ_section_title
;
Structure prediction by ZEFSAII (Michael W. Deem and Ramdas Pophale) SiO2 
 PCOD9157081
Probable space group: P 21/M
;
_chemical_formula_sum "Si O2"
_cell_formula_units_Z 28
_cell_length_a 17.587741
_cell_length_b 7.775032
_cell_length_c 17.291777
_cell_angle_alpha 90.000000
_cell_angle_beta 153.099236
_cell_angle_gamma 90.000000
_cell_volume 1069.840914
_symmetry_space_group_name_H-M "P 21/M"
_symmetry_group_IT_number 11
_symmetry_cell_setting 'monoclinic'
loop_
_space_group_symop_operation_xyz
x,y,z
-x,1/2+y,-z
-x,-y,-z
x,1/2-y,z
loop_
_atom_site_type_symbol
_atom_site_label
_atom_site_fract_x
_atom_site_fract_y
_atom_site_fract_z
Si Si1 0.368719 0.447869 0.561979
Si Si2 0.266392 0.959313 0.742953
Si Si3 0.991284 0.952590 0.371210
Si Si4 0.631351 0.551265 0.686530
Si Si5 0.866356 0.962624 0.100448
Si Si6 0.517874 0.951897 0.851768
Si Si7 0.104915 0.949007 0.192282
O O1 0.320400 0.250000 0.524570
O O2 0.554168 0.455975 0.690037
O O3 0.384133 0.530618 0.660294
O O4 0.243741 0.536819 0.387503
O O5 0.267229 0.750000 0.745648
O O6 0.438473 0.021764 0.859205
O O7 0.125833 0.023777 0.553383
O O8 0.192690 0.021817 0.757118
O O9 0.022363 0.750000 0.395236
O O10 0.988709 0.016854 0.281604
O O11 0.500000 0.500000 0.500000
O O12 0.616012 0.750000 0.692957
O O13 0.810331 0.527333 0.806939
O O14 0.862586 0.750000 0.093154
O O15 0.939514 0.021279 0.084824
O O16 0.687301 0.025027 0.968877
O O17 0.547041 0.750000 0.891185
O O18 0.079050 0.750000 0.151533
#
# Coordination Sequence:
#
# PCOD9157081 Si02
#       7
#     4   4   4   4   4   4   4
#     4  11  21  34  53  79 106 135 173 215 260 307
#     4   9  18  32  52  76 102 133 170 212 257 304
#     4   9  17  32  52  75 102 133 171 212 254 303
#     4  10  18  31  52  79 106 134 170 213 260 305
#     4   9  19  34  54  77 103 138 176 213 256 308
#     4  10  20  36  54  74 103 139 177 214 257 308
#     4  10  18  33  56  80 105 135 172 214 260 307
#
# _framework density 26.172115999999999
#
# number of rings (size 3 to 8) (size 9 to 14) (size 15 to 20)
#    0.000    2.286    0.000    5.571    0.000    3.429 
#    0.000    7.143    0.000    0.000    0.000    0.000 
#    0.000    0.000    0.000    0.000    0.000    0.000 
#
# Total GULP energy -156564.072118 kJ/mol
# GULP energy per Si atom -5591.574004 kJ/mol
# Density = 2.611255 g / cm^3
# Si number density = 26.172116 Si / 1000 Ang^3
#
#
#
# Elastic Constant Matrix: (Units=GPa)
#
#
# Indices 1 2 3 4 5 6 
#
# 1 188.8017 -1.3487 26.1734 0.0000 14.0066 0.0000
# 2 -1.3487 71.0020 -2.9514 0.0000 6.9877 0.0000
# 3 26.1734 -2.9514 76.2680 0.0000 14.3528 0.0000
# 4 0.0000 0.0000 0.0000 10.3632 0.0000 9.2170
# 5 14.0066 6.9877 14.3528 0.0000 48.7213 0.0000
# 6 0.0000 0.0000 0.0000 9.2170 0.0000 24.2356
#
#
#
# Elastic Compliance Matrix: (Units=1/GPa)
#
#
# Indices 1 2 3 4 5 6 
#
# 1 0.005619 0.000147 -0.001709 0.000000 -0.001133 0.000000
# 2 0.000147 0.014361 0.000954 0.000000 -0.002383 0.000000
# 3 -0.001709 0.000954 0.014471 0.000000 -0.003908 0.000000
# 4 0.000000 0.000000 0.000000 0.145817 0.000000 -0.055456
# 5 -0.001133 -0.002383 -0.003908 0.000000 0.022344 0.000000
# 6 0.000000 0.000000 0.000000 -0.055456 0.000000 0.062352
#
#
# Mechanical properties :
#
#
# Convention : Reuss Voigt Hill
#
# Bulk Modulus (GPa) = 30.09020 42.20204 36.14612
# Shear Modulus (GPa) = 18.03377 37.61058 27.82217
#
# Velocity S-wave (km/s) = 2.62781 3.79495 3.26398
# Velocity P-wave (km/s) = 4.55293 5.94660 5.29581
#
# Compressibility (1/GPa) = 0.03323342
#
# Stress axis : x y z
#
# Youngs Moduli (GPa) = 177.97986 69.63268 69.10538
#
# Poissons Ratio (x) = -0.01025 0.11812
# Poissons Ratio (y) = -0.02619 -0.06590
# Poissons Ratio (z) = 0.30422 -0.06641
#
# Static dielectric constant tensor:
#      x y z
#    x 2.032140 0.000000 0.048470 
#    y 0.000000 1.912980 0.000000 
#    z 0.048470 0.000000 2.195860 
# 
# From -- ./inp_files/66019.got.cif
#   From: 2010.05.17/outbox.cif.g08.bks.cpg/sg11_34_cif.got.tgz:66019.got - 2010.06.03 12:22:45.
