data_PCOD9157478
_publ_section_title
;
Structure prediction by ZEFSAII (Michael W. Deem and Ramdas Pophale) SiO2 
 PCOD9157478
Probable space group: P 21/M
;
_chemical_formula_sum "Si O2"
_cell_formula_units_Z 32
_cell_length_a 21.192904
_cell_length_b 8.598431
_cell_length_c 26.065572
_cell_angle_alpha 90.000000
_cell_angle_beta 157.636934
_cell_angle_gamma 90.000000
_cell_volume 1807.183641
_symmetry_space_group_name_H-M "P 21/M"
_symmetry_group_IT_number 11
_symmetry_cell_setting 'monoclinic'
loop_
_space_group_symop_operation_xyz
x,y,z
-x,1/2+y,-z
-x,-y,-z
x,1/2-y,z
loop_
_atom_site_type_symbol
_atom_site_label
_atom_site_fract_x
_atom_site_fract_y
_atom_site_fract_z
Si Si1 0.503405 0.063112 0.343503
Si Si2 0.839938 0.063273 0.647527
Si Si3 0.329548 0.063235 0.633964
Si Si4 0.409573 0.939362 0.087373
Si Si5 0.999007 0.063658 0.658166
Si Si6 0.857334 0.436933 0.929473
Si Si7 0.638268 0.063365 0.065708
Si Si8 0.092229 0.562820 0.915057
O O1 0.500800 0.250000 0.337645
O O2 0.649490 0.019555 0.493151
O O3 0.561127 0.994437 0.332142
O O4 0.323395 0.999744 0.221726
O O5 0.848268 0.250000 0.657078
O O6 0.941820 0.015596 0.672827
O O7 0.926963 0.992012 0.762270
O O8 0.321751 0.250000 0.626421
O O9 0.425676 0.014678 0.757770
O O10 0.146799 0.994821 0.488650
O O11 0.405856 0.750000 0.084394
O O12 0.398143 0.990865 0.020076
O O13 0.249503 0.992223 0.999578
O O14 0.004677 0.250000 0.661086
O O15 0.178537 0.994810 0.782003
O O16 0.855492 0.250000 0.926918
O O17 0.890823 0.488402 0.013458
O O18 0.000000 0.500000 0.000000
O O19 0.636103 0.250000 0.064607
O O20 0.500000 0.000000 0.000000
O O21 0.096150 0.750000 0.917903
#
# Coordination Sequence:
#
# PCOD9157478 Si02
#       8
#     4   4   4   4   4   4   4   4
#     4  10  20  35  54  82 116 147 182 227 277 326
#     4   9  19  33  53  83 114 141 178 229 275 320
#     4  10  18  33  57  84 111 143 184 230 278 326
#     4   9  18  34  56  83 111 140 183 233 274 320
#     4  10  20  35  53  82 116 146 183 228 276 328
#     4  11  23  39  58  82 113 148 186 226 276 334
#     4  11  22  38  58  81 112 150 185 226 280 334
#     4  10  19  35  57  83 110 141 185 231 271 322
#
# _framework density 17.707108999999999
#
# number of rings (size 3 to 8) (size 9 to 14) (size 15 to 20)
#    0.000    2.000    2.500    2.625    0.000    3.500 
#    0.000    3.750    0.000    0.000    0.000    0.000 
#    0.000    0.000    0.000    0.000    0.000    0.000 
#
# Total GULP energy -178614.565054 kJ/mol
# GULP energy per Si atom -5581.705158 kJ/mol
# Density = 1.766681 g / cm^3
# Si number density = 17.707109 Si / 1000 Ang^3
#
#
#
# Elastic Constant Matrix: (Units=GPa)
#
#
# Indices 1 2 3 4 5 6 
#
# 1 110.5760 27.8687 82.9023 0.0000 7.0349 0.0000
# 2 27.8687 42.9209 37.7082 0.0000 5.2349 0.0000
# 3 82.9023 37.7082 176.3161 0.0000 8.3510 0.0000
# 4 0.0000 0.0000 0.0000 20.1817 0.0000 13.4637
# 5 7.0349 5.2349 8.3510 0.0000 28.5001 0.0000
# 6 0.0000 0.0000 0.0000 13.4637 0.0000 15.1678
#
#
#
# Elastic Compliance Matrix: (Units=1/GPa)
#
#
# Indices 1 2 3 4 5 6 
#
# 1 0.014601 -0.004138 -0.005928 0.000000 -0.001107 0.000000
# 2 -0.004138 0.030214 -0.004362 0.000000 -0.003250 0.000000
# 3 -0.005928 -0.004362 0.009415 0.000000 -0.000494 0.000000
# 4 0.000000 0.000000 0.000000 0.121496 0.000000 -0.107845
# 5 -0.001107 -0.003250 -0.000494 0.000000 0.036103 0.000000
# 6 0.000000 0.000000 0.000000 -0.107845 0.000000 0.161658
#
#
# Mechanical properties :
#
#
# Convention : Reuss Voigt Hill
#
# Bulk Modulus (GPa) = 39.40923 69.64127 54.52525
# Shear Modulus (GPa) = 12.17134 24.85884 18.51509
#
# Velocity S-wave (km/s) = 2.62462 3.75092 3.23713
# Velocity P-wave (km/s) = 5.61153 7.62720 6.69565
#
# Compressibility (1/GPa) = 0.02537477
#
# Stress axis : x y z
#
# Youngs Moduli (GPa) = 68.48744 33.09698 106.20954
#
# Poissons Ratio (x) = 0.13694 0.62962
# Poissons Ratio (y) = 0.28337 0.46334
# Poissons Ratio (z) = 0.40600 0.14438
#
# Static dielectric constant tensor:
#      x y z
#    x 1.584140 0.000000 -0.012500 
#    y 0.000000 1.604070 0.000000 
#    z -0.012500 0.000000 1.601970 
# 
# From -- ./inp_files/67118.got.cif
#   From: 2010.05.17/outbox.cif.g08.bks.cpg/sg11_34_cif.got.tgz:67118.got - 2010.06.03 12:22:45.
