data_PCOD9157445
_publ_section_title
;
Structure prediction by ZEFSAII (Michael W. Deem and Ramdas Pophale) SiO2 
 PCOD9157445
Probable space group: P 21/M
;
_chemical_formula_sum "Si O2"
_cell_formula_units_Z 32
_cell_length_a 11.052894
_cell_length_b 16.515665
_cell_length_c 16.383891
_cell_angle_alpha 90.000000
_cell_angle_beta 33.199943
_cell_angle_gamma 90.000000
_cell_volume 1637.656191
_symmetry_space_group_name_H-M "P 21/M"
_symmetry_group_IT_number 11
_symmetry_cell_setting 'monoclinic'
loop_
_space_group_symop_operation_xyz
x,y,z
-x,1/2+y,-z
-x,-y,-z
x,1/2-y,z
loop_
_atom_site_type_symbol
_atom_site_label
_atom_site_fract_x
_atom_site_fract_y
_atom_site_fract_z
Si Si1 0.048646 0.455634 0.885698
Si Si2 0.315078 0.934428 0.627568
Si Si3 0.622396 0.658032 0.567319
Si Si4 0.234157 0.909168 0.380389
Si Si5 0.277505 0.408426 0.320466
Si Si6 0.104780 0.845225 0.280622
Si Si7 0.321220 0.654416 0.984301
Si Si8 0.508444 0.655958 0.369119
O O1 0.098025 0.520829 0.784761
O O2 0.270357 0.399407 0.759992
O O3 0.844413 0.397626 0.978267
O O4 0.000000 0.500000 0.000000
O O5 0.415723 0.888627 0.649003
O O6 0.338361 0.875606 0.535803
O O7 0.500000 0.000000 0.500000
O O8 0.605677 0.750000 0.548597
O O9 0.651234 0.651992 0.647629
O O10 0.856829 0.621909 0.404755
O O11 0.216765 0.885104 0.295479
O O12 0.386985 0.855682 0.351172
O O13 0.980547 0.903210 0.553656
O O14 0.311971 0.002063 0.337838
O O15 0.438310 0.385351 0.157579
O O16 0.076768 0.750000 0.316338
O O17 0.238320 0.852643 0.123219
O O18 0.320409 0.750000 0.963426
O O19 0.564261 0.750000 0.352624
#
# Coordination Sequence:
#
# PCOD9157445 Si02
#       8
#     4   4   4   4   4   4   4   4
#     4  11  23  39  60  87 122 157 191 238 299 358
#     4  10  20  34  56  82 112 150 195 238 281 341
#     4  10  18  33  55  79 108 143 191 240 279 324
#     4  10  21  38  58  83 115 150 191 235 286 346
#     4  10  21  36  59  84 108 145 190 237 285 333
#     4   9  19  34  55  81 110 148 191 238 285 332
#     4  11  22  38  60  86 114 146 194 245 288 336
#     4  11  22  38  60  86 119 157 194 236 293 354
#
# _framework density 19.540120999999999
#
# number of rings (size 3 to 8) (size 9 to 14) (size 15 to 20)
#    0.000    1.750    0.000    6.000    0.000    5.000 
#    0.000    3.125    0.000    0.000    0.000    0.000 
#    0.000    0.000    0.000    0.000    0.000    0.000 
#
# Total GULP energy -178505.763561 kJ/mol
# GULP energy per Si atom -5578.305111 kJ/mol
# Density = 1.949565 g / cm^3
# Si number density = 19.540121 Si / 1000 Ang^3
#
#
#
# Elastic Constant Matrix: (Units=GPa)
#
#
# Indices 1 2 3 4 5 6 
#
# 1 44.7832 36.6375 13.1991 0.0000 -3.5848 0.0000
# 2 36.6375 86.4967 39.4582 0.0000 4.3640 0.0000
# 3 13.1991 39.4582 74.6533 0.0000 13.0943 0.0000
# 4 0.0000 0.0000 0.0000 24.0867 0.0000 3.0468
# 5 -3.5848 4.3640 13.0943 0.0000 15.8098 0.0000
# 6 0.0000 0.0000 0.0000 3.0468 0.0000 21.9496
#
#
#
# Elastic Compliance Matrix: (Units=1/GPa)
#
#
# Indices 1 2 3 4 5 6 
#
# 1 0.036538 -0.016007 -0.000266 0.000000 0.012924 0.000000
# 2 -0.016007 0.022360 -0.008505 0.000000 -0.002758 0.000000
# 3 -0.000266 -0.008505 0.020517 0.000000 -0.014706 0.000000
# 4 0.000000 0.000000 0.000000 0.042259 0.000000 -0.005866
# 5 0.012924 -0.002758 -0.014706 0.000000 0.079123 0.000000
# 6 0.000000 0.000000 0.000000 -0.005866 0.000000 0.046373
#
#
# Mechanical properties :
#
#
# Convention : Reuss Voigt Hill
#
# Bulk Modulus (GPa) = 33.49074 42.72476 38.10775
# Shear Modulus (GPa) = 16.30363 20.14511 18.22437
#
# Velocity S-wave (km/s) = 2.89168 3.21434 3.05727
# Velocity P-wave (km/s) = 5.32219 5.97399 5.65749
#
# Compressibility (1/GPa) = 0.02985900
#
# Stress axis : x y z
#
# Youngs Moduli (GPa) = 27.36847 44.72261 48.74027
#
# Poissons Ratio (x) = 0.71588 0.01299
# Poissons Ratio (y) = 0.43809 0.41452
# Poissons Ratio (z) = 0.00729 0.38035
#
# Static dielectric constant tensor:
#      x y z
#    x 1.673590 0.000000 0.021540 
#    y 0.000000 1.709370 0.000000 
#    z 0.021540 0.000000 1.726730 
# 
# From -- ./inp_files/59479.got.cif
#   From: 2010.05.17/outbox.cif.g08.bks.cpg/sg11_30_cif.got.tgz:59479.got - 2010.06.03 12:22:45.
