data_PCOD9157111
_publ_section_title
;
Structure prediction by ZEFSAII (Michael W. Deem and Ramdas Pophale) SiO2 
 PCOD9157111
Probable space group: P 21/M
;
_chemical_formula_sum "Si O2"
_cell_formula_units_Z 32
_cell_length_a 30.766254
_cell_length_b 7.874811
_cell_length_c 12.430517
_cell_angle_alpha 90.000000
_cell_angle_beta 26.378771
_cell_angle_gamma 90.000000
_cell_volume 1338.084269
_symmetry_space_group_name_H-M "P 21/M"
_symmetry_group_IT_number 11
_symmetry_cell_setting 'monoclinic'
loop_
_space_group_symop_operation_xyz
x,y,z
-x,1/2+y,-z
-x,-y,-z
x,1/2-y,z
loop_
_atom_site_type_symbol
_atom_site_label
_atom_site_fract_x
_atom_site_fract_y
_atom_site_fract_z
Si Si1 0.639710 0.562338 0.850170
Si Si2 0.875135 0.946296 0.337802
Si Si3 0.376332 0.549989 0.580152
Si Si4 0.948404 0.445662 0.402375
Si Si5 0.577381 0.059448 0.205804
Si Si6 0.640680 0.447964 0.614991
Si Si7 0.133728 0.042039 0.881446
Si Si8 0.239458 0.959190 0.061995
O O1 0.607407 0.750000 0.956857
O O2 0.757143 0.553848 0.590697
O O3 0.608454 0.533941 0.797088
O O4 0.603282 0.438756 0.022113
O O5 0.905018 0.750000 0.287136
O O6 0.905704 0.006092 0.150632
O O7 0.903588 0.048264 0.380846
O O8 0.361164 0.750000 0.598281
O O9 0.471340 0.525869 0.443827
O O10 0.394638 0.478695 0.420558
O O11 0.280392 0.485730 0.855322
O O12 0.961608 0.250000 0.405380
O O13 0.866073 0.521223 0.663443
O O14 0.056913 0.517263 0.142078
O O15 0.565427 0.250000 0.272388
O O16 0.673748 0.985223 0.049185
O O17 0.615952 0.250000 0.679574
O O18 0.758538 0.468483 0.345678
O O19 0.139700 0.250000 0.868409
O O20 0.236467 0.750000 0.072229
#
# Coordination Sequence:
#
# PCOD9157111 Si02
#       8
#     4   4   4   4   4   4   4   4
#     4  10  20  35  56  82 115 147 174 220 278 326
#     4   9  17  29  46  75 111 142 172 212 267 323
#     4  10  22  40  58  77 106 147 187 227 277 321
#     4  10  18  31  53  79 108 143 179 218 268 326
#     4  11  21  35  59  88 112 138 179 225 272 330
#     4  10  21  37  57  78 106 146 190 229 265 316
#     4   9  19  33  51  77 110 146 179 217 273 325
#     4   9  19  36  57  82 112 142 179 225 272 324
#
# _framework density 23.914787
#
# number of rings (size 3 to 8) (size 9 to 14) (size 15 to 20)
#    0.000    2.250    1.250    2.625    0.000    4.000 
#    0.000    1.875    0.000    0.000    0.000    0.000 
#    0.000    0.000    0.000    0.000    0.000    0.000 
#
# Total GULP energy -178718.335990 kJ/mol
# GULP energy per Si atom -5584.948000 kJ/mol
# Density = 2.386036 g / cm^3
# Si number density = 23.914787 Si / 1000 Ang^3
#
#
#
# Elastic Constant Matrix: (Units=GPa)
#
#
# Indices 1 2 3 4 5 6 
#
# 1 37.8876 0.1840 -21.0355 0.0000 5.9171 0.0000
# 2 0.1840 41.8914 8.9718 0.0000 4.9504 0.0000
# 3 -21.0355 8.9718 85.0934 0.0000 17.3133 0.0000
# 4 0.0000 0.0000 0.0000 22.0352 0.0000 -2.1090
# 5 5.9171 4.9504 17.3133 0.0000 35.3301 0.0000
# 6 0.0000 0.0000 0.0000 -2.1090 0.0000 12.6217
#
#
#
# Elastic Compliance Matrix: (Units=1/GPa)
#
#
# Indices 1 2 3 4 5 6 
#
# 1 0.034048 -0.001173 0.010738 0.000000 -0.010800 0.000000
# 2 -0.001173 0.024648 -0.002472 0.000000 -0.002046 0.000000
# 3 0.010738 -0.002472 0.016619 0.000000 -0.009596 0.000000
# 4 0.000000 0.000000 0.000000 0.046119 0.000000 0.007706
# 5 -0.010800 -0.002046 -0.009596 0.000000 0.035102 0.000000
# 6 0.000000 0.000000 0.000000 0.007706 0.000000 0.080516
#
#
# Mechanical properties :
#
#
# Convention : Reuss Voigt Hill
#
# Bulk Modulus (GPa) = 11.17320 15.67923 13.42621
# Shear Modulus (GPa) = 19.78618 25.78088 22.78353
#
# Velocity S-wave (km/s) = 2.87951 3.28690 3.08993
# Velocity P-wave (km/s) = 3.96707 4.57990 4.28446
#
# Compressibility (1/GPa) = 0.08949989
#
# Stress axis : x y z
#
# Youngs Moduli (GPa) = 29.37028 40.57185 60.17065
#
# Poissons Ratio (x) = 0.04759 -0.64611
# Poissons Ratio (y) = 0.03445 0.14877
# Poissons Ratio (z) = -0.31538 0.10031
#
# Static dielectric constant tensor:
#      x y z
#    x 1.930590 0.000000 0.001160 
#    y 0.000000 1.883250 0.000000 
#    z 0.001160 0.000000 1.965290 
# 
# From -- ./inp_files/45201.got.cif
#   From: 2010.05.17/outbox.cif.g08.bks.cpg/sg11_23_cif.got.tgz:45201.got - 2010.06.03 12:22:45.
