data_PCOD9157465
_publ_section_title
;
Structure prediction by ZEFSAII (Michael W. Deem and Ramdas Pophale) SiO2 
 PCOD9157465
Probable space group: P 21/M
;
_chemical_formula_sum "Si O2"
_cell_formula_units_Z 32
_cell_length_a 12.004999
_cell_length_b 18.380763
_cell_length_c 14.788263
_cell_angle_alpha 90.000000
_cell_angle_beta 30.655633
_cell_angle_gamma 90.000000
_cell_volume 1663.827118
_symmetry_space_group_name_H-M "P 21/M"
_symmetry_group_IT_number 11
_symmetry_cell_setting 'monoclinic'
loop_
_space_group_symop_operation_xyz
x,y,z
-x,1/2+y,-z
-x,-y,-z
x,1/2-y,z
loop_
_atom_site_type_symbol
_atom_site_label
_atom_site_fract_x
_atom_site_fract_y
_atom_site_fract_z
Si Si1 0.843675 0.994926 0.973352
Si Si2 0.213220 0.333893 0.250456
Si Si3 0.704805 0.545954 0.393634
Si Si4 0.131011 0.575278 0.401571
Si Si5 0.631922 0.068042 0.946427
Si Si6 0.438953 0.540468 0.348872
Si Si7 0.528697 0.333566 0.530860
Si Si8 0.949614 0.667052 0.843511
O O1 0.860203 0.907087 0.950326
O O2 0.757422 0.037124 0.944997
O O3 0.659194 0.004811 0.177592
O O4 0.085285 0.027357 0.813197
O O5 0.246173 0.250000 0.245260
O O6 0.031063 0.365811 0.443795
O O7 0.118036 0.341400 0.214758
O O8 0.443971 0.374135 0.099132
O O9 0.500000 0.500000 0.500000
O O10 0.727707 0.510585 0.477421
O O11 0.624118 0.628417 0.438039
O O12 0.210865 0.592221 0.244984
O O13 0.336056 0.563903 0.325466
O O14 0.000000 0.500000 0.500000
O O15 0.500000 0.000000 0.000000
O O16 0.488801 0.613379 0.370439
O O17 0.469190 0.250000 0.589400
O O18 0.787712 0.335479 0.327798
O O19 0.878945 0.750000 0.920270
#
# Coordination Sequence:
#
# PCOD9157465 Si02
#       8
#     4   4   4   4   4   4   4   4
#     4  12  21  38  60  89 121 155 198 244 291 355
#     4  11  22  37  56  85 124 161 199 248 298 355
#     4  10  21  38  58  83 113 152 196 242 291 348
#     4  12  20  34  61  89 121 162 205 241 297 362
#     4  12  22  36  59  92 126 163 199 244 298 357
#     4  11  21  33  61  88 115 151 195 240 293 355
#     4  10  21  39  59  84 117 148 188 249 305 350
#     4  10  18  33  56  83 119 149 180 242 307 346
#
# _framework density 19.232766999999999
#
# number of rings (size 3 to 8) (size 9 to 14) (size 15 to 20)
#    0.000    1.000    7.500    0.750    0.000    3.000 
#    0.000    0.625    0.000    6.000    0.000    0.000 
#    0.000    0.000    0.000    0.000    0.000    0.000 
#
# Total GULP energy -178514.372879 kJ/mol
# GULP energy per Si atom -5578.574152 kJ/mol
# Density = 1.918899 g / cm^3
# Si number density = 19.232767 Si / 1000 Ang^3
#
#
#
# Elastic Constant Matrix: (Units=GPa)
#
#
# Indices 1 2 3 4 5 6 
#
# 1 46.8826 24.5251 6.6530 0.0000 -4.5473 0.0000
# 2 24.5251 104.6184 21.9269 0.0000 -11.2793 0.0000
# 3 6.6530 21.9269 93.2245 0.0000 -11.3289 0.0000
# 4 0.0000 0.0000 0.0000 31.9954 0.0000 -4.7986
# 5 -4.5473 -11.2793 -11.3289 0.0000 25.9611 0.0000
# 6 0.0000 0.0000 0.0000 -4.7986 0.0000 23.3446
#
#
#
# Elastic Compliance Matrix: (Units=1/GPa)
#
#
# Indices 1 2 3 4 5 6 
#
# 1 0.024403 -0.005478 -0.000235 0.000000 0.001792 0.000000
# 2 -0.005478 0.011599 -0.001944 0.000000 0.003231 0.000000
# 3 -0.000235 -0.001944 0.011714 0.000000 0.004226 0.000000
# 4 0.000000 0.000000 0.000000 0.032249 0.000000 0.006629
# 5 0.001792 0.003231 0.004226 0.000000 0.042081 0.000000
# 6 0.000000 0.000000 0.000000 0.006629 0.000000 0.044199
#
#
# Mechanical properties :
#
#
# Convention : Reuss Voigt Hill
#
# Bulk Modulus (GPa) = 30.86408 38.99283 34.92846
# Shear Modulus (GPa) = 25.99287 29.03491 27.51389
#
# Velocity S-wave (km/s) = 3.68025 3.88965 3.78640
# Velocity P-wave (km/s) = 5.84307 6.36323 6.10869
#
# Compressibility (1/GPa) = 0.03240012
#
# Stress axis : x y z
#
# Youngs Moduli (GPa) = 40.97898 86.21682 85.36442
#
# Poissons Ratio (x) = 0.47231 0.02009
# Poissons Ratio (y) = 0.22449 0.16599
# Poissons Ratio (z) = 0.00964 0.16765
#
# Static dielectric constant tensor:
#      x y z
#    x 1.755270 0.000000 -0.000480 
#    y 0.000000 1.594180 0.000000 
#    z -0.000480 0.000000 1.690450 
# 
# From -- ./inp_files/50664.got.cif
#   From: 2010.05.17/outbox.cif.g08.bks.cpg/sg11_26_cif.got.tgz:50664.got - 2010.06.03 12:22:45.
