data_PCOD9157466
_publ_section_title
;
Structure prediction by ZEFSAII (Michael W. Deem and Ramdas Pophale) SiO2 
 PCOD9157466
Probable space group: P 21/M
;
_chemical_formula_sum "Si O2"
_cell_formula_units_Z 28
_cell_length_a 12.503997
_cell_length_b 8.383454
_cell_length_c 27.506896
_cell_angle_alpha 90.000000
_cell_angle_beta 31.625757
_cell_angle_gamma 90.000000
_cell_volume 1511.994555
_symmetry_space_group_name_H-M "P 21/M"
_symmetry_group_IT_number 11
_symmetry_cell_setting 'monoclinic'
loop_
_space_group_symop_operation_xyz
x,y,z
-x,1/2+y,-z
-x,-y,-z
x,1/2-y,z
loop_
_atom_site_type_symbol
_atom_site_label
_atom_site_fract_x
_atom_site_fract_y
_atom_site_fract_z
Si Si1 0.829841 0.943211 0.527891
Si Si2 0.080504 0.556761 0.341138
Si Si3 0.544090 0.559060 0.183979
Si Si4 0.799602 0.439769 0.810108
Si Si5 0.647072 0.062845 0.039578
Si Si6 0.985102 0.561657 0.837063
Si Si7 0.612095 0.443107 0.263717
O O1 0.827780 0.750000 0.528894
O O2 0.606031 0.997683 0.630726
O O3 0.905569 0.999040 0.445438
O O4 0.000000 0.000000 0.500000
O O5 0.073754 0.750000 0.344316
O O6 0.304227 0.510636 0.274840
O O7 0.078567 0.507475 0.285583
O O8 0.552856 0.750000 0.176730
O O9 0.646426 0.485922 0.096461
O O10 0.634151 0.503795 0.200167
O O11 0.764572 0.250000 0.819896
O O12 0.578236 0.521600 0.893389
O O13 0.915831 0.478492 0.814355
O O14 0.684893 0.250000 0.019825
O O15 0.813953 0.969695 0.943966
O O16 0.999195 0.750000 0.822115
O O17 0.200581 0.504690 0.775166
O O18 0.612506 0.250000 0.262294
#
# Coordination Sequence:
#
# PCOD9157466 Si02
#       7
#     4   4   4   4   4   4   4
#     4  10  18  33  56  84 111 142 180 224 273 325
#     4   8  16  31  54  82 110 138 173 221 273 319
#     4  10  19  34  56  83 113 145 180 225 277 329
#     4  10  20  37  59  83 109 143 185 229 274 325
#     4  11  22  37  59  84 108 141 184 231 277 327
#     4  11  23  39  54  76 111 151 188 228 275 326
#     4  10  22  36  54  80 114 149 185 227 275 327
#
# _framework density 18.518585999999999
#
# number of rings (size 3 to 8) (size 9 to 14) (size 15 to 20)
#    0.000    2.000    1.429    3.857    0.000    1.714 
#    0.000    1.429    0.000    0.000    0.000    0.000 
#    0.000    0.000    0.000    0.000    0.000    0.000 
#
# Total GULP energy -156325.371986 kJ/mol
# GULP energy per Si atom -5583.048999 kJ/mol
# Density = 1.847644 g / cm^3
# Si number density = 18.518586 Si / 1000 Ang^3
#
#
#
# Elastic Constant Matrix: (Units=GPa)
#
#
# Indices 1 2 3 4 5 6 
#
# 1 10.9532 -22.9706 71.1535 0.0000 -13.4893 0.0000
# 2 -22.9706 12.0324 -10.8463 0.0000 -6.1031 0.0000
# 3 71.1535 -10.8463 79.1447 0.0000 8.5605 0.0000
# 4 0.0000 0.0000 0.0000 11.0586 0.0000 -6.1804
# 5 -13.4893 -6.1031 8.5605 0.0000 17.3118 0.0000
# 6 0.0000 0.0000 0.0000 -6.1804 0.0000 15.2697
#
#
#
# Elastic Compliance Matrix: (Units=1/GPa)
#
#
# Indices 1 2 3 4 5 6 
#
# 1 -0.008145 -0.017610 0.006622 0.000000 -0.015830 0.000000
# 2 -0.017610 0.072269 0.025847 0.000000 -0.001025 0.000000
# 3 0.006622 0.025847 0.009171 0.000000 0.009737 0.000000
# 4 0.000000 0.000000 0.000000 0.116862 0.000000 0.047300
# 5 -0.015830 -0.001025 0.009737 0.000000 0.040253 0.000000
# 6 0.000000 0.000000 0.000000 0.047300 0.000000 0.084634
#
#
# Mechanical properties :
#
#
# Convention : Reuss Voigt Hill
#
# Bulk Modulus (GPa) = 9.70763 19.64481 14.67622
# Shear Modulus (GPa) = 15.64145 13.04760 14.34453
#
# Velocity S-wave (km/s) = 2.90941 2.65725 2.78619
# Velocity P-wave (km/s) = 4.06691 4.47726 4.27701
#
# Compressibility (1/GPa) = 0.10301174
#
# Stress axis : x y z
#
# Youngs Moduli (GPa) = -122.76745 13.83719 109.04012
#
# Poissons Ratio (x) = 0.24368 -0.72204
# Poissons Ratio (y) = -2.16199 -2.81839
# Poissons Ratio (z) = 0.81294 -0.35765
#
# Static dielectric constant tensor:
#      x y z
#    x 1.618430 0.000000 0.011460 
#    y 0.000000 1.632560 0.000000 
#    z 0.011460 0.000000 1.638170 
# 
# From -- ./inp_files/60122.got.cif
#   From: 2010.05.17/outbox.cif.g08.bks.cpg/sg11_31_cif.got.tgz:60122.got - 2010.06.03 12:22:45.
