data_PCOD9157196
_publ_section_title
;
Structure prediction by ZEFSAII (Michael W. Deem and Ramdas Pophale) SiO2 
 PCOD9157196
Probable space group: P 21/M
;
_chemical_formula_sum "Si O2"
_cell_formula_units_Z 32
_cell_length_a 16.268608
_cell_length_b 8.686643
_cell_length_c 12.027329
_cell_angle_alpha 90.000000
_cell_angle_beta 51.882171
_cell_angle_gamma 90.000000
_cell_volume 1337.224837
_symmetry_space_group_name_H-M "P 21/M"
_symmetry_group_IT_number 11
_symmetry_cell_setting 'monoclinic'
loop_
_space_group_symop_operation_xyz
x,y,z
-x,1/2+y,-z
-x,-y,-z
x,1/2-y,z
loop_
_atom_site_type_symbol
_atom_site_label
_atom_site_fract_x
_atom_site_fract_y
_atom_site_fract_z
Si Si1 0.697484 0.424424 0.951192
Si Si2 0.182845 0.572898 0.932544
Si Si3 0.498254 0.430521 0.285054
Si Si4 0.233992 0.569645 0.556772
Si Si5 0.058061 0.064582 0.560740
Si Si6 0.990225 0.428431 0.169758
Si Si7 0.637390 0.570145 0.357759
Si Si8 0.596605 0.567511 0.847626
O O1 0.697005 0.250000 0.909309
O O2 0.789109 0.447306 0.960888
O O3 0.692747 0.529637 0.847285
O O4 0.597704 0.440868 0.116913
O O5 0.207463 0.750000 0.882531
O O6 0.061255 0.535623 0.033805
O O7 0.260151 0.462207 0.802621
O O8 0.478684 0.250000 0.320584
O O9 0.544478 0.498792 0.360072
O O10 0.410392 0.496049 0.272486
O O11 0.253038 0.750000 0.518320
O O12 0.177373 0.487404 0.497839
O O13 0.136100 0.564084 0.728332
O O14 0.329095 0.495661 0.548622
O O15 0.054617 0.250000 0.564495
O O16 0.996614 0.988562 0.715020
O O17 0.000000 0.000000 0.500000
O O18 0.021221 0.250000 0.130893
O O19 0.619231 0.750000 0.380984
O O20 0.585144 0.750000 0.849469
O O21 0.500000 0.500000 0.000000
#
# Coordination Sequence:
#
# PCOD9157196 Si02
#       8
#     4   4   4   4   4   4   4   4
#     4   8  15  25  36  51  71  99 133 168 207 242
#     4  10  19  30  42  56  81 114 142 174 211 245
#     4   8  15  26  36  49  72 101 133 169 208 244
#     4   9  19  33  46  62  83 107 137 171 207 244
#     4  10  18  32  51  69  86 105 130 163 203 247
#     4   9  19  32  46  64  82 106 139 171 206 244
#     4  11  20  28  41  59  80 110 144 176 209 245
#     4   9  15  22  34  50  68  94 129 169 207 240
#
# _framework density 23.930157000000001
#
# number of rings (size 3 to 8) (size 9 to 14) (size 15 to 20)
#    0.750    2.000    0.000    4.875    0.000    6.000 
#    0.000    0.000    0.000    0.000    0.000    0.000 
#    0.000    0.000    0.000    1.125    0.000   15.375 
#
# Total GULP energy -178407.922440 kJ/mol
# GULP energy per Si atom -5575.247576 kJ/mol
# Density = 2.387569 g / cm^3
# Si number density = 23.930157 Si / 1000 Ang^3
#
#
#
# Elastic Constant Matrix: (Units=GPa)
#
#
# Indices 1 2 3 4 5 6 
#
# 1 157.1422 47.9644 24.7954 0.0000 42.5352 0.0000
# 2 47.9644 108.9364 6.1526 0.0000 34.6133 0.0000
# 3 24.7954 6.1526 69.6927 0.0000 29.3599 0.0000
# 4 0.0000 0.0000 0.0000 14.3731 0.0000 12.9065
# 5 42.5352 34.6133 29.3599 0.0000 36.8471 0.0000
# 6 0.0000 0.0000 0.0000 12.9065 0.0000 39.0478
#
#
#
# Elastic Compliance Matrix: (Units=1/GPa)
#
#
# Indices 1 2 3 4 5 6 
#
# 1 0.009431 -0.000539 0.001604 0.000000 -0.011659 0.000000
# 2 -0.000539 0.015067 0.006867 0.000000 -0.019004 0.000000
# 3 0.001604 0.006867 0.025092 0.000000 -0.028296 0.000000
# 4 0.000000 0.000000 0.000000 0.098941 0.000000 -0.032703
# 5 -0.011659 -0.019004 -0.028296 0.000000 0.080996 0.000000
# 6 0.000000 0.000000 0.000000 -0.032703 0.000000 0.036419
#
#
# Mechanical properties :
#
#
# Convention : Reuss Voigt Hill
#
# Bulk Modulus (GPa) = 15.27749 54.84400 35.06075
# Shear Modulus (GPa) = 18.38915 35.17753 26.78334
#
# Velocity S-wave (km/s) = 2.77510 3.83823 3.34912
# Velocity P-wave (km/s) = 4.08244 6.52769 5.44413
#
# Compressibility (1/GPa) = 0.06545577
#
# Stress axis : x y z
#
# Youngs Moduli (GPa) = 106.03654 66.36886 39.85278
#
# Poissons Ratio (x) = 0.03574 -0.06391
# Poissons Ratio (y) = 0.05710 -0.27369
# Poissons Ratio (z) = -0.17005 -0.45579
#
# Static dielectric constant tensor:
#      x y z
#    x 2.167270 0.000000 -0.020520 
#    y 0.000000 1.811140 0.000000 
#    z -0.020520 0.000000 2.003310 
# 
# From -- ./inp_files/52915.got.cif
#   From: 2010.05.17/outbox.cif.g08.bks.cpg/sg11_27_cif.got.tgz:52915.got - 2010.06.03 12:22:45.
