data_PCOD9157282
_publ_section_title
;
Structure prediction by ZEFSAII (Michael W. Deem and Ramdas Pophale) SiO2 
 PCOD9157282
Probable space group: P 21/M
;
_chemical_formula_sum "Si O2"
_cell_formula_units_Z 26
_cell_length_a 8.451422
_cell_length_b 23.263306
_cell_length_c 6.639324
_cell_angle_alpha 90.000000
_cell_angle_beta 99.256397
_cell_angle_gamma 90.000000
_cell_volume 1288.346666
_symmetry_space_group_name_H-M "P 21/M"
_symmetry_group_IT_number 11
_symmetry_cell_setting 'monoclinic'
loop_
_space_group_symop_operation_xyz
x,y,z
-x,1/2+y,-z
-x,-y,-z
x,1/2-y,z
loop_
_atom_site_type_symbol
_atom_site_label
_atom_site_fract_x
_atom_site_fract_y
_atom_site_fract_z
Si Si1 0.306694 0.511392 0.263760
Si Si2 0.391985 0.315800 0.293217
Si Si3 0.898041 0.078271 0.102802
Si Si4 0.675883 0.182768 0.042151
Si Si5 0.453746 0.389898 0.690187
Si Si6 0.000000 0.500000 0.500000
Si Si7 0.243198 0.406555 0.015463
O O1 0.450287 0.553239 0.354994
O O2 0.170443 0.506096 0.404337
O O3 0.346311 0.448954 0.179826
O O4 0.230999 0.542462 0.050546
O O5 0.355713 0.250000 0.329038
O O6 0.564315 0.319355 0.217952
O O7 0.391445 0.352987 0.493235
O O8 0.269644 0.343338 0.109158
O O9 0.830207 0.142787 0.107302
O O10 0.059185 0.077128 0.001529
O O11 0.936583 0.047986 0.320578
O O12 0.707046 0.250000 0.002453
O O13 0.570736 0.151627 0.845886
O O14 0.308709 0.409358 0.804503
#
# Coordination Sequence:
#
# PCOD9157282 Si02
#       7
#     4   4   4   4   4   2   4
#     4  10  21  36  56  81 107 139 181 220 263 319
#     4  10  21  36  54  77 105 140 179 216 260 315
#     4  10  21  36  56  81 107 140 177 218 266 318
#     4   9  19  37  58  78 103 138 181 223 260 307
#     4  10  20  36  57  79 107 142 179 219 265 317
#     4  10  18  32  54  78 108 138 168 216 266 306
#     4  10  21  34  53  81 112 139 170 219 271 317
#
# _framework density 20.180903000000001
#
# number of rings (size 3 to 8) (size 9 to 14) (size 15 to 20)
#    0.000    2.154    0.000    3.692    0.000    6.769 
#    0.000    0.000    0.000    0.000    0.000    0.000 
#    0.000    0.000    0.000    0.000    0.000    0.000 
#
# Total GULP energy -144740.060366 kJ/mol
# GULP energy per Si atom -5566.925399 kJ/mol
# Density = 2.013497 g / cm^3
# Si number density = 20.180903 Si / 1000 Ang^3
#
#
#
# Elastic Constant Matrix: (Units=GPa)
#
#
# Indices 1 2 3 4 5 6 
#
# 1 19.2913 14.0031 11.9635 0.0000 -8.9629 0.0000
# 2 14.0031 109.5153 27.3443 0.0000 -9.5259 0.0000
# 3 11.9635 27.3443 60.2726 0.0000 -19.3325 0.0000
# 4 0.0000 0.0000 0.0000 34.2830 0.0000 -1.0034
# 5 -8.9629 -9.5259 -19.3325 0.0000 26.3328 0.0000
# 6 0.0000 0.0000 0.0000 -1.0034 0.0000 26.4924
#
#
#
# Elastic Compliance Matrix: (Units=1/GPa)
#
#
# Indices 1 2 3 4 5 6 
#
# 1 0.067170 -0.005800 -0.005286 0.000000 0.016884 0.000000
# 2 -0.005800 0.010801 -0.004093 0.000000 -0.001072 0.000000
# 3 -0.005286 -0.004093 0.024127 0.000000 0.014433 0.000000
# 4 0.000000 0.000000 0.000000 0.029201 0.000000 0.001106
# 5 0.016884 -0.001072 0.014433 0.000000 0.053931 0.000000
# 6 0.000000 0.000000 0.000000 0.001106 0.000000 0.037788
#
#
# Mechanical properties :
#
#
# Convention : Reuss Voigt Hill
#
# Bulk Modulus (GPa) = 13.93912 32.85568 23.39740
# Shear Modulus (GPa) = 18.03171 26.47285 22.25228
#
# Velocity S-wave (km/s) = 2.99240 3.62578 3.32421
# Velocity P-wave (km/s) = 4.34296 5.81758 5.13350
#
# Compressibility (1/GPa) = 0.07174056
#
# Stress axis : x y z
#
# Youngs Moduli (GPa) = 14.88770 92.57974 41.44782
#
# Poissons Ratio (x) = 0.53699 0.21907
# Poissons Ratio (y) = 0.08635 0.16964
# Poissons Ratio (z) = 0.07869 0.37891
#
# Static dielectric constant tensor:
#      x y z
#    x 1.724490 0.000000 0.014590 
#    y 0.000000 1.768340 0.000000 
#    z 0.014590 0.000000 1.729450 
# 
# From -- ./inp_files/3034.got.cif
#   From: 2010.05.17/outbox.cif.g08.bks.cpg/sg11_2_cif.got.tgz:3034.got - 2010.06.03 12:22:45.
