data_PCOD9157314
_publ_section_title
;
Structure prediction by ZEFSAII (Michael W. Deem and Ramdas Pophale) SiO2 
 PCOD9157314
Probable space group: P 21/M
;
_chemical_formula_sum "Si O2"
_cell_formula_units_Z 32
_cell_length_a 12.407255
_cell_length_b 7.452925
_cell_length_c 15.298294
_cell_angle_alpha 90.000000
_cell_angle_beta 101.225657
_cell_angle_gamma 90.000000
_cell_volume 1387.573711
_symmetry_space_group_name_H-M "P 21/M"
_symmetry_group_IT_number 11
_symmetry_cell_setting 'monoclinic'
loop_
_space_group_symop_operation_xyz
x,y,z
-x,1/2+y,-z
-x,-y,-z
x,1/2-y,z
loop_
_atom_site_type_symbol
_atom_site_label
_atom_site_fract_x
_atom_site_fract_y
_atom_site_fract_z
Si Si1 0.331538 0.465787 0.416566
Si Si2 0.665473 0.038148 0.388658
Si Si3 0.454547 0.030137 0.258065
Si Si4 0.161758 0.032826 0.968587
Si Si5 0.911508 0.035516 0.410120
Si Si6 0.061250 0.040919 0.132957
Si Si7 0.900561 0.530113 0.676055
Si Si8 0.401304 0.035409 0.051528
O O1 0.334835 0.250000 0.415181
O O2 0.378026 0.518428 0.518587
O O3 0.383757 0.525412 0.332565
O O4 0.203961 0.526734 0.396638
O O5 0.672570 0.250000 0.373995
O O6 0.577569 0.970814 0.304361
O O7 0.788918 0.961547 0.401731
O O8 0.450451 0.250000 0.256175
O O9 0.419733 0.970643 0.154892
O O10 0.160369 0.250000 0.965426
O O11 0.070658 0.973477 0.884690
O O12 0.287128 0.971125 0.990101
O O13 0.109192 0.964564 0.051542
O O14 0.900842 0.250000 0.402894
O O15 0.980910 0.970249 0.338207
O O16 0.000000 0.000000 0.500000
O O17 0.090555 0.250000 0.134832
O O18 0.115061 0.966979 0.228041
O O19 0.900856 0.750000 0.674823
O O20 0.390963 0.250000 0.058024
O O21 0.500000 0.000000 0.000000
#
# Coordination Sequence:
#
# PCOD9157314 Si02
#       8
#     4   4   4   4   4   4   4   4
#     4  10  18  32  55  77 102 137 175 212 254 306
#     4  10  20  33  50  75 107 138 171 214 259 300
#     4   9  19  35  55  78 102 134 174 214 258 309
#     4   9  18  33  52  76 106 132 163 215 268 307
#     4  10  19  32  48  68  98 132 165 203 244 289
#     4   9  17  31  53  78 102 133 172 212 256 308
#     4   9  17  29  49  75  98 129 174 209 238 294
#     4  10  21  38  58  78 105 140 177 218 266 317
#
# _framework density 23.061838000000002
#
# number of rings (size 3 to 8) (size 9 to 14) (size 15 to 20)
#    0.000    2.500    1.250    1.125    0.000    4.500 
#    0.000    5.000    0.000    1.500    0.000    0.000 
#    0.000    0.000    0.000    0.000    0.000    0.000 
#
# Total GULP energy -178489.730267 kJ/mol
# GULP energy per Si atom -5577.804071 kJ/mol
# Density = 2.300935 g / cm^3
# Si number density = 23.061838 Si / 1000 Ang^3
#
#
#
# Elastic Constant Matrix: (Units=GPa)
#
#
# Indices 1 2 3 4 5 6 
#
# 1 88.9244 -10.7234 -24.7952 0.0000 4.1267 0.0000
# 2 -10.7234 68.5797 -13.8737 0.0000 -3.0310 0.0000
# 3 -24.7952 -13.8737 40.1598 0.0000 4.2103 0.0000
# 4 0.0000 0.0000 0.0000 11.3788 0.0000 0.6889
# 5 4.1267 -3.0310 4.2103 0.0000 26.2465 0.0000
# 6 0.0000 0.0000 0.0000 0.6889 0.0000 10.4437
#
#
#
# Elastic Compliance Matrix: (Units=1/GPa)
#
#
# Indices 1 2 3 4 5 6 
#
# 1 0.015091 0.004473 0.011246 0.000000 -0.003660 0.000000
# 2 0.004473 0.017027 0.008657 0.000000 -0.000126 0.000000
# 3 0.011246 0.008657 0.035512 0.000000 -0.006465 0.000000
# 4 0.000000 0.000000 0.000000 0.088235 0.000000 -0.005820
# 5 -0.003660 -0.000126 -0.006465 0.000000 0.039698 0.000000
# 6 0.000000 0.000000 0.000000 -0.005820 0.000000 0.096135
#
#
# Mechanical properties :
#
#
# Convention : Reuss Voigt Hill
#
# Bulk Modulus (GPa) = 8.59244 10.98659 9.78952
# Shear Modulus (GPa) = 17.74684 26.08421 21.91552
#
# Velocity S-wave (km/s) = 2.77705 3.36676 3.08603
# Velocity P-wave (km/s) = 3.74388 4.45957 4.11731
#
# Compressibility (1/GPa) = 0.11638135
#
# Stress axis : x y z
#
# Youngs Moduli (GPa) = 66.26669 58.73119 28.15921
#
# Poissons Ratio (x) = -0.26270 -0.31668
# Poissons Ratio (y) = -0.29641 -0.24377
# Poissons Ratio (z) = -0.74524 -0.50843
#
# Static dielectric constant tensor:
#      x y z
#    x 1.911830 0.000000 0.004800 
#    y 0.000000 1.892350 0.000000 
#    z 0.004800 0.000000 1.866530 
# 
# From -- ./inp_files/49839.got.cif
#   From: 2010.05.17/outbox.cif.g08.bks.cpg/sg11_25_cif.got.tgz:49839.got - 2010.06.03 12:22:45.
