data_PCOD9157719
_publ_section_title
;
Structure prediction by ZEFSAII (Michael W. Deem and Ramdas Pophale) SiO2 
 PCOD9157719
Probable space group: P 21/M
;
_chemical_formula_sum "Si O2"
_cell_formula_units_Z 30
_cell_length_a 14.443817
_cell_length_b 14.143849
_cell_length_c 11.262147
_cell_angle_alpha 90.000000
_cell_angle_beta 150.357242
_cell_angle_gamma 90.000000
_cell_volume 1137.932871
_symmetry_space_group_name_H-M "P 21/M"
_symmetry_group_IT_number 11
_symmetry_cell_setting 'monoclinic'
loop_
_space_group_symop_operation_xyz
x,y,z
-x,1/2+y,-z
-x,-y,-z
x,1/2-y,z
loop_
_atom_site_type_symbol
_atom_site_label
_atom_site_fract_x
_atom_site_fract_y
_atom_site_fract_z
Si Si1 0.355974 0.052874 0.728170
Si Si2 0.236587 0.637803 0.790711
Si Si3 0.150021 0.138187 0.720179
Si Si4 0.318038 0.093109 0.431995
Si Si5 0.727952 0.358754 0.907527
Si Si6 0.177948 0.610165 0.241155
Si Si7 0.477484 0.856477 0.748546
Si Si8 0.873612 0.750000 0.937931
O O1 0.233322 0.078654 0.704509
O O2 0.290260 0.114091 0.541001
O O3 0.380313 0.945760 0.705128
O O4 0.563856 0.088178 0.994062
O O5 0.266116 0.750000 0.813835
O O6 0.067249 0.612835 0.514014
O O7 0.177266 0.616492 0.861857
O O8 0.152965 0.250000 0.692882
O O9 0.298564 0.128075 0.992995
O O10 0.543629 0.078241 0.679027
O O11 0.257631 0.169269 0.270604
O O12 0.195789 0.000833 0.271071
O O13 0.661212 0.250000 0.845730
O O14 0.853344 0.361769 0.930440
O O15 0.382420 0.644227 0.514276
O O16 0.026267 0.666865 0.147286
O O17 0.446305 0.750000 0.764507
#
# Coordination Sequence:
#
# PCOD9157719 Si02
#       8
#     4   4   4   4   4   4   4   2
#     4  10  21  37  64  87 118 154 191 249 299 344
#     4   9  20  35  57  95 119 141 192 248 297 342
#     4  10  21  36  64  87 118 155 195 241 294 351
#     4  10  23  36  58  87 119 147 191 239 294 343
#     4  10  18  36  58  82 114 151 185 243 289 339
#     4  11  22  38  61  80 116 158 193 230 289 349
#     4  10  21  41  58  81 117 162 199 235 288 347
#     4  12  22  36  58  84 120 148 192 238 286 346
#
# _framework density 26.363593999999999
#
# number of rings (size 3 to 8) (size 9 to 14) (size 15 to 20)
#    0.000    1.867    2.000    1.600    3.733    0.533 
#    0.000    0.000    2.933    0.800    0.000    0.000 
#    0.000    0.000    0.000    0.000    0.000    0.000 
#
# Total GULP energy -167322.970536 kJ/mol
# GULP energy per Si atom -5577.432351 kJ/mol
# Density = 2.630359 g / cm^3
# Si number density = 26.363594 Si / 1000 Ang^3
#
#
#
# Elastic Constant Matrix: (Units=GPa)
#
#
# Indices 1 2 3 4 5 6 
#
# 1 52.0016 -10.8060 23.9473 0.0000 -0.1558 0.0000
# 2 -10.8060 125.3369 38.9057 0.0000 21.5491 0.0000
# 3 23.9473 38.9057 167.5453 0.0000 4.5268 0.0000
# 4 0.0000 0.0000 0.0000 9.7405 0.0000 -20.1828
# 5 -0.1558 21.5491 4.5268 0.0000 32.1411 0.0000
# 6 0.0000 0.0000 0.0000 -20.1828 0.0000 8.2156
#
#
#
# Elastic Compliance Matrix: (Units=1/GPa)
#
#
# Indices 1 2 3 4 5 6 
#
# 1 0.021681 0.003331 -0.003829 0.000000 -0.001589 0.000000
# 2 0.003331 0.010204 -0.002671 0.000000 -0.006449 0.000000
# 3 -0.003829 -0.002671 0.007115 0.000000 0.000770 0.000000
# 4 0.000000 0.000000 0.000000 -0.025099 0.000000 -0.061660
# 5 -0.001589 -0.006449 0.000770 0.000000 0.035320 0.000000
# 6 0.000000 0.000000 0.000000 -0.061660 0.000000 -0.029758
#
#
# Mechanical properties :
#
#
# Convention : Reuss Voigt Hill
#
# Bulk Modulus (GPa) = 30.61767 49.88642 40.25205
# Shear Modulus (GPa) = 136.28142 29.54189 82.91165
#
# Velocity S-wave (km/s) = 7.19759 3.35110 5.61405
# Velocity P-wave (km/s) = 8.98401 5.82552 7.57130
#
# Compressibility (1/GPa) = 0.03266088
#
# Stress axis : x y z
#
# Youngs Moduli (GPa) = 46.12302 98.00475 140.54084
#
# Poissons Ratio (x) = -0.32647 0.53820
# Poissons Ratio (y) = -0.15364 0.37542
# Poissons Ratio (z) = 0.17663 0.26180
#
# Static dielectric constant tensor:
#      x y z
#    x 2.131740 0.000000 -0.024400 
#    y 0.000000 2.107670 0.000000 
#    z -0.024400 0.000000 2.044910 
# 
# From -- ./inp_files/17746.got.cif
#   From: 2010.05.17/outbox.cif.g08.bks.cpg/sg11_9_cif.got.tgz:17746.got - 2010.06.03 12:22:45.
