data_PCOD9157653
_publ_section_title
;
Structure prediction by ZEFSAII (Michael W. Deem and Ramdas Pophale) SiO2 
 PCOD9157653
Probable space group: P 21/M
;
_chemical_formula_sum "Si O2"
_cell_formula_units_Z 26
_cell_length_a 19.958909
_cell_length_b 8.503312
_cell_length_c 7.172276
_cell_angle_alpha 90.000000
_cell_angle_beta 123.506076
_cell_angle_gamma 90.000000
_cell_volume 1014.981225
_symmetry_space_group_name_H-M "P 21/M"
_symmetry_group_IT_number 11
_symmetry_cell_setting 'monoclinic'
loop_
_space_group_symop_operation_xyz
x,y,z
-x,1/2+y,-z
-x,-y,-z
x,1/2-y,z
loop_
_atom_site_type_symbol
_atom_site_label
_atom_site_fract_x
_atom_site_fract_y
_atom_site_fract_z
Si Si1 0.640562 0.572556 0.457672
Si Si2 0.824058 0.250000 0.578955
Si Si3 0.877895 0.575333 0.288248
Si Si4 0.851912 0.250000 0.174262
Si Si5 0.307157 0.076400 0.869687
Si Si6 0.300211 0.750000 0.328740
Si Si7 0.079570 0.435765 0.221688
Si Si8 0.467921 0.929211 0.258905
O O1 0.648615 0.750000 0.553277
O O2 0.695888 0.572069 0.359294
O O3 0.659798 0.422534 0.615530
O O4 0.547503 0.553970 0.252412
O O5 0.835415 0.250000 0.373344
O O6 0.733616 0.250000 0.510919
O O7 0.860663 0.413571 0.714785
O O8 0.891907 0.750000 0.227622
O O9 0.896728 0.415324 0.207455
O O10 0.781874 0.558125 0.183851
O O11 0.921736 0.570770 0.554623
O O12 0.771359 0.250000 0.929802
O O13 0.333294 0.250000 0.964772
O O14 0.382493 0.976254 0.047611
O O15 0.097810 0.250000 0.196389
O O16 0.000000 0.500000 0.000000
O O17 0.458346 0.750000 0.288080
O O18 0.500000 0.000000 0.500000
#
# Coordination Sequence:
#
# PCOD9157653 Si02
#       8
#     4   2   4   2   4   2   4   4
#     4  10  24  42  58  87 119 158 209 264 323 380
#     4  10  22  42  62 100 133 165 215 256 315 378
#     4   9  20  35  58  91 121 161 206 252 315 372
#     4  10  22  38  62  90 128 160 206 260 312 368
#     4  10  21  39  62  82 117 158 202 263 318 375
#     4  12  26  40  70  94 127 169 215 266 313 386
#     4  10  18  34  63  99 133 169 211 255 307 377
#     4  11  25  39  57  83 117 158 211 263 323 382
#
# _framework density 25.616237000000002
#
# number of rings (size 3 to 8) (size 9 to 14) (size 15 to 20)
#    0.000    1.846    0.769    2.769    6.462    2.462 
#    0.000    0.000    0.000    3.692    0.000    0.000 
#    0.000    0.000    0.000    0.000    0.000    0.000 
#
# Total GULP energy -145164.833952 kJ/mol
# GULP energy per Si atom -5583.262844 kJ/mol
# Density = 2.555793 g / cm^3
# Si number density = 25.616237 Si / 1000 Ang^3
#
#
#
# Elastic Constant Matrix: (Units=GPa)
#
#
# Indices 1 2 3 4 5 6 
#
# 1 61.0681 25.1545 19.3031 0.0000 -1.2257 0.0000
# 2 25.1545 271.7383 74.8047 0.0000 22.0057 0.0000
# 3 19.3031 74.8047 125.9292 0.0000 10.6927 0.0000
# 4 0.0000 0.0000 0.0000 50.5047 0.0000 18.2511
# 5 -1.2257 22.0057 10.6927 0.0000 33.8601 0.0000
# 6 0.0000 0.0000 0.0000 18.2511 0.0000 4.1815
#
#
#
# Elastic Compliance Matrix: (Units=1/GPa)
#
#
# Indices 1 2 3 4 5 6 
#
# 1 0.017596 -0.001204 -0.002160 0.000000 0.002102 0.000000
# 2 -0.001204 0.004631 -0.002370 0.000000 -0.002305 0.000000
# 3 -0.002160 -0.002370 0.009819 0.000000 -0.001639 0.000000
# 4 0.000000 0.000000 0.000000 -0.034298 0.000000 0.149702
# 5 0.002102 -0.002305 -0.001639 0.000000 0.031625 0.000000
# 6 0.000000 0.000000 0.000000 0.149702 0.000000 -0.414255
#
#
# Mechanical properties :
#
#
# Convention : Reuss Voigt Hill
#
# Bulk Modulus (GPa) = 48.60014 77.47335 63.03675
# Shear Modulus (GPa) = -13.64057 40.34082 13.35012
#
# Velocity S-wave (km/s) = -2.31009 3.97270 2.28537
# Velocity P-wave (km/s) = 3.44938 7.16607 5.62365
#
# Compressibility (1/GPa) = 0.02057607
#
# Stress axis : x y z
#
# Youngs Moduli (GPa) = 56.83012 215.95214 101.84010
#
# Poissons Ratio (x) = 0.26009 0.22000
# Poissons Ratio (y) = 0.06845 0.24140
# Poissons Ratio (z) = 0.12277 0.51190
#
# Static dielectric constant tensor:
#      x y z
#    x 2.034180 0.000000 0.072880 
#    y 0.000000 2.082680 0.000000 
#    z 0.072880 0.000000 1.876490 
# 
# From -- ./inp_files/24178.got.cif
#   From: 2010.05.17/outbox.cif.g08.bks.cpg/sg11_13_cif.got.tgz:24178.got - 2010.06.03 12:22:45.
