data_PCOD9157761
_publ_section_title
;
Structure prediction by ZEFSAII (Michael W. Deem and Ramdas Pophale) SiO2 
 PCOD9157761
Probable space group: P 21/M
;
_chemical_formula_sum "Si O2"
_cell_formula_units_Z 24
_cell_length_a 9.807570
_cell_length_b 13.213735
_cell_length_c 7.043395
_cell_angle_alpha 90.000000
_cell_angle_beta 90.851182
_cell_angle_gamma 90.000000
_cell_volume 912.685452
_symmetry_space_group_name_H-M "P 21/M"
_symmetry_group_IT_number 11
_symmetry_cell_setting 'monoclinic'
loop_
_space_group_symop_operation_xyz
x,y,z
-x,1/2+y,-z
-x,-y,-z
x,1/2-y,z
loop_
_atom_site_type_symbol
_atom_site_label
_atom_site_fract_x
_atom_site_fract_y
_atom_site_fract_z
Si Si1 0.867412 0.143614 0.284444
Si Si2 0.445581 0.138897 0.163288
Si Si3 0.132475 0.404356 0.057385
Si Si4 0.177028 0.936245 0.340477
Si Si5 0.770894 0.929868 0.330935
Si Si6 0.475177 0.586728 0.257433
O O1 0.797672 0.250000 0.247894
O O2 0.903476 0.131792 0.510545
O O3 0.770536 0.046931 0.251494
O O4 0.003421 0.139806 0.162983
O O5 0.477080 0.250000 0.242259
O O6 0.518425 0.120786 0.961539
O O7 0.283307 0.134244 0.115829
O O8 0.475863 0.036019 0.276607
O O9 0.133793 0.522162 0.134575
O O10 0.134316 0.383926 0.830324
O O11 0.180596 0.043167 0.458703
O O12 0.327208 0.886859 0.333499
O O13 0.622611 0.880248 0.336936
#
# Coordination Sequence:
#
# PCOD9157761 Si02
#       6
#     4   4   4   4   4   4
#     4  10  21  34  52  79 109 135 170 221 266 310
#     4   9  18  30  54  81 103 139 182 219 260 310
#     4  10  18  37  56  74  98 142 182 214 255 311
#     4   9  20  33  58  75 103 138 178 208 266 314
#     4   9  20  33  58  75 103 138 178 208 266 314
#     4   9  17  34  52  79 107 142 173 217 266 317
#
# _framework density 26.296029000000001
#
# number of rings (size 3 to 8) (size 9 to 14) (size 15 to 20)
#    1.000    1.667    0.000    3.000    0.000    1.333 
#    0.000    0.833    0.000   17.000    0.000    0.000 
#    0.000    0.000    0.000    0.000    0.000    0.000 
#
# Total GULP energy -133714.173698 kJ/mol
# GULP energy per Si atom -5571.423904 kJ/mol
# Density = 2.623618 g / cm^3
# Si number density = 26.296029 Si / 1000 Ang^3
#
#
#
# Elastic Constant Matrix: (Units=GPa)
#
#
# Indices 1 2 3 4 5 6 
#
# 1 109.2311 6.0949 36.6371 0.0000 -41.6828 0.0000
# 2 6.0949 81.9780 0.5936 0.0000 -10.5540 0.0000
# 3 36.6371 0.5936 167.6268 0.0000 -37.9185 0.0000
# 4 0.0000 0.0000 0.0000 -9.4268 0.0000 4.2410
# 5 -41.6828 -10.5540 -37.9185 0.0000 53.3141 0.0000
# 6 0.0000 0.0000 0.0000 4.2410 0.0000 -12.1430
#
#
#
# Elastic Compliance Matrix: (Units=1/GPa)
#
#
# Indices 1 2 3 4 5 6 
#
# 1 0.013114 0.000299 -0.000637 0.000000 0.009859 0.000000
# 2 0.000299 0.012578 0.000603 0.000000 0.003153 0.000000
# 3 -0.000637 0.000603 0.007171 0.000000 0.004721 0.000000
# 4 0.000000 0.000000 0.000000 -0.125856 0.000000 -0.043956
# 5 0.009859 0.003153 0.004721 0.000000 0.030447 0.000000
# 6 0.000000 0.000000 0.000000 -0.043956 0.000000 -0.097704
#
#
# Mechanical properties :
#
#
# Convention : Reuss Voigt Hill
#
# Bulk Modulus (GPa) = 29.94660 49.49856 39.72258
# Shear Modulus (GPa) = -33.41154 27.38288 -3.01433
#
# Velocity S-wave (km/s) = -3.56840 3.23047 -1.07182
# Velocity P-wave (km/s) = 2.35903 5.72530 3.68877
#
# Compressibility (1/GPa) = 0.03339278
#
# Stress axis : x y z
#
# Youngs Moduli (GPa) = 76.25317 79.50593 139.45535
#
# Poissons Ratio (x) = -0.02376 0.08885
# Poissons Ratio (y) = -0.02279 -0.08413
# Poissons Ratio (z) = 0.04858 -0.04796
#
# Static dielectric constant tensor:
#      x y z
#    x 2.071030 0.000000 0.033030 
#    y 0.000000 1.870320 0.000000 
#    z 0.033030 0.000000 2.084270 
# 
# From -- ./inp_files/17369.got.cif
#   From: 2010.05.17/outbox.cif.g08.bks.cpg/sg11_9_cif.got.tgz:17369.got - 2010.06.03 12:22:45.
