data_PCOD9157701
_publ_section_title
;
Structure prediction by ZEFSAII (Michael W. Deem and Ramdas Pophale) SiO2 
 PCOD9157701
Probable space group: P 21/M
;
_chemical_formula_sum "Si O2"
_cell_formula_units_Z 30
_cell_length_a 15.460846
_cell_length_b 14.163518
_cell_length_c 14.959575
_cell_angle_alpha 90.000000
_cell_angle_beta 152.880590
_cell_angle_gamma 90.000000
_cell_volume 1493.283383
_symmetry_space_group_name_H-M "P 21/M"
_symmetry_group_IT_number 11
_symmetry_cell_setting 'monoclinic'
loop_
_space_group_symop_operation_xyz
x,y,z
-x,1/2+y,-z
-x,-y,-z
x,1/2-y,z
loop_
_atom_site_type_symbol
_atom_site_label
_atom_site_fract_x
_atom_site_fract_y
_atom_site_fract_z
Si Si1 0.510505 0.137071 0.884238
Si Si2 0.848065 0.750000 0.840009
Si Si3 0.167034 0.135782 0.676132
Si Si4 0.112422 0.427743 0.254696
Si Si5 0.578299 0.010370 0.351904
Si Si6 0.953813 0.362599 0.298703
Si Si7 0.164252 0.409720 0.016879
Si Si8 0.073017 0.639759 0.377245
O O1 0.482324 0.250000 0.841504
O O2 0.383300 0.109760 0.852902
O O3 0.449573 0.076213 0.742436
O O4 0.730936 0.120352 0.102748
O O5 0.872565 0.832578 0.785895
O O6 0.827616 0.832664 0.898575
O O7 0.164325 0.250000 0.681249
O O8 0.056626 0.109415 0.484390
O O9 0.058963 0.101211 0.664101
O O10 0.318808 0.473245 0.463253
O O11 0.031861 0.409843 0.280942
O O12 0.963917 0.500045 0.074428
O O13 0.729744 0.084290 0.450768
O O14 0.375052 0.056725 0.184171
O O15 0.983022 0.250000 0.315494
O O16 0.050371 0.369835 0.826275
O O17 0.114958 0.750000 0.431585
#
# Coordination Sequence:
#
# PCOD9157701 Si02
#       8
#     4   2   4   4   4   4   4   4
#     4  10  20  35  61  96 136 175 214 264 321 376
#     4  12  26  46  78  94 126 174 214 272 340 398
#     4   9  19  36  62  95 133 174 226 268 308 382
#     4  11  23  43  69  99 130 167 214 272 334 385
#     4  11  24  40  68  97 136 168 217 270 321 391
#     4  10  18  35  63  95 132 171 216 265 325 376
#     4  11  25  48  66  99 134 168 219 271 323 399
#     4  10  23  44  68  92 132 186 219 261 325 382
#
# _framework density 20.089957999999999
#
# number of rings (size 3 to 8) (size 9 to 14) (size 15 to 20)
#    0.000    1.600    4.000    0.400    1.867    2.133 
#    0.000    6.667    0.000    0.000    0.000    0.000 
#    0.000    0.000    0.000    0.000    0.000    0.000 
#
# Total GULP energy -167079.794302 kJ/mol
# GULP energy per Si atom -5569.326477 kJ/mol
# Density = 2.004423 g / cm^3
# Si number density = 20.089958 Si / 1000 Ang^3
#
#
#
# Elastic Constant Matrix: (Units=GPa)
#
#
# Indices 1 2 3 4 5 6 
#
# 1 24.6923 -25.4689 -22.0132 0.0000 -37.2765 0.0000
# 2 -25.4689 54.7984 -22.9992 0.0000 -10.3906 0.0000
# 3 -22.0132 -22.9992 32.4060 0.0000 7.3258 0.0000
# 4 0.0000 0.0000 0.0000 -5.5466 0.0000 45.1424
# 5 -37.2765 -10.3906 7.3258 0.0000 5.1104 0.0000
# 6 0.0000 0.0000 0.0000 45.1424 0.0000 -46.7479
#
#
#
# Elastic Compliance Matrix: (Units=1/GPa)
#
#
# Indices 1 2 3 4 5 6 
#
# 1 -0.001804 -0.005273 0.000638 0.000000 -0.024796 0.000000
# 2 -0.005273 0.017194 0.013925 0.000000 -0.023463 0.000000
# 3 0.000638 0.013925 0.049890 0.000000 -0.038554 0.000000
# 4 0.000000 0.000000 0.000000 0.026284 0.000000 0.025382
# 5 -0.024796 -0.023463 -0.038554 0.000000 0.022374 0.000000
# 6 0.000000 0.000000 0.000000 0.025382 0.000000 0.003119
#
#
# Mechanical properties :
#
#
# Convention : Reuss Voigt Hill
#
# Bulk Modulus (GPa) = 11.92461 -3.22954 4.34754
# Shear Modulus (GPa) = 39.54783 2.72170 21.13476
#
# Velocity S-wave (km/s) = 4.44163 1.16520 3.24698
# Velocity P-wave (km/s) = 5.67914 0.44636 4.02814
#
# Compressibility (1/GPa) = 0.08386018
#
# Stress axis : x y z
#
# Youngs Moduli (GPa) = -554.22242 58.16116 20.04397
#
# Poissons Ratio (x) = 0.30666 -0.01278
# Poissons Ratio (y) = -2.92220 -0.27912
# Poissons Ratio (z) = 0.35343 -0.80991
#
# Static dielectric constant tensor:
#      x y z
#    x 1.690650 0.000000 0.011600 
#    y 0.000000 1.734780 0.000000 
#    z 0.011600 0.000000 1.701710 
# 
# From -- ./inp_files/52501.got.cif
#   From: 2010.05.17/outbox.cif.g08.bks.cpg/sg11_27_cif.got.tgz:52501.got - 2010.06.03 12:22:45.
