data_PCOD9157472
_publ_section_title
;
Structure prediction by ZEFSAII (Michael W. Deem and Ramdas Pophale) SiO2 
 PCOD9157472
Probable space group: P 21/M
;
_chemical_formula_sum "Si O2"
_cell_formula_units_Z 32
_cell_length_a 23.334234
_cell_length_b 7.398601
_cell_length_c 15.812944
_cell_angle_alpha 90.000000
_cell_angle_beta 30.745748
_cell_angle_gamma 90.000000
_cell_volume 1395.634289
_symmetry_space_group_name_H-M "P 21/M"
_symmetry_group_IT_number 11
_symmetry_cell_setting 'monoclinic'
loop_
_space_group_symop_operation_xyz
x,y,z
-x,1/2+y,-z
-x,-y,-z
x,1/2-y,z
loop_
_atom_site_type_symbol
_atom_site_label
_atom_site_fract_x
_atom_site_fract_y
_atom_site_fract_z
Si Si1 0.803234 0.971009 0.064694
Si Si2 0.228678 0.458205 0.534277
Si Si3 0.282031 0.028973 0.116490
Si Si4 0.522650 0.469005 0.739540
Si Si5 0.829529 0.539645 0.573337
Si Si6 0.081163 0.468036 0.247401
Si Si7 0.555627 0.965067 0.339667
Si Si8 0.132211 0.465610 0.832158
O O1 0.803661 0.750000 0.065795
O O2 0.683012 0.031180 0.181963
O O3 0.820487 0.034977 0.138461
O O4 0.896121 0.025548 0.878396
O O5 0.188929 0.250000 0.585624
O O6 0.363122 0.462800 0.364949
O O7 0.186238 0.540822 0.500149
O O8 0.185573 0.538640 0.677735
O O9 0.281160 0.250000 0.116494
O O10 0.245333 0.965287 0.255764
O O11 0.185499 0.973004 0.172790
O O12 0.406542 0.975076 0.930948
O O13 0.528101 0.250000 0.735156
O O14 0.513134 0.531298 0.653870
O O15 0.797153 0.750000 0.607380
O O16 0.960182 0.530226 0.431586
O O17 0.080060 0.250000 0.250512
O O18 0.563215 0.750000 0.318710
O O19 0.500000 0.000000 0.500000
O O20 0.152697 0.250000 0.807261
O O21 0.000000 0.500000 0.000000
#
# Coordination Sequence:
#
# PCOD9157472 Si02
#       8
#     4   4   4   4   4   4   4   4
#     4   9  17  31  52  74  98 133 170 207 258 313
#     4  10  22  38  53  76 112 148 178 219 277 324
#     4   9  18  35  57  80 107 140 178 223 273 319
#     4  10  20  36  58  80 105 141 186 227 259 313
#     4  10  21  36  54  77 109 145 177 219 277 327
#     4  10  18  33  57  81 105 134 177 226 269 321
#     4  10  19  33  53  77 104 135 173 214 261 314
#     4  10  20  34  52  74 104 140 176 214 258 313
#
# _framework density 22.928642
#
# number of rings (size 3 to 8) (size 9 to 14) (size 15 to 20)
#    0.000    2.250    1.250    1.875    0.000    3.000 
#    0.000    2.500    0.000    0.000    0.000    0.000 
#    0.000    0.000    0.000    0.000    0.000    0.000 
#
# Total GULP energy -178846.342997 kJ/mol
# GULP energy per Si atom -5588.948219 kJ/mol
# Density = 2.287646 g / cm^3
# Si number density = 22.928642 Si / 1000 Ang^3
#
#
#
# Elastic Constant Matrix: (Units=GPa)
#
#
# Indices 1 2 3 4 5 6 
#
# 1 90.1681 -0.0152 26.4975 0.0000 7.3267 0.0000
# 2 -0.0152 78.1618 -10.3424 0.0000 10.6822 0.0000
# 3 26.4975 -10.3424 121.8518 0.0000 14.1405 0.0000
# 4 0.0000 0.0000 0.0000 14.2185 0.0000 -13.3125
# 5 7.3267 10.6822 14.1405 0.0000 42.9498 0.0000
# 6 0.0000 0.0000 0.0000 -13.3125 0.0000 1.0210
#
#
#
# Elastic Compliance Matrix: (Units=1/GPa)
#
#
# Indices 1 2 3 4 5 6 
#
# 1 0.011911 -0.000163 -0.002467 0.000000 -0.001179 0.000000
# 2 -0.000163 0.013540 0.001635 0.000000 -0.003878 0.000000
# 3 -0.002467 0.001635 0.009233 0.000000 -0.003026 0.000000
# 4 0.000000 0.000000 0.000000 -0.006275 0.000000 -0.081819
# 5 -0.001179 -0.003878 -0.003026 0.000000 0.025445 0.000000
# 6 0.000000 0.000000 0.000000 -0.081819 0.000000 -0.087387
#
#
# Mechanical properties :
#
#
# Convention : Reuss Voigt Hill
#
# Bulk Modulus (GPa) = 30.58702 35.82906 33.20804
# Shear Modulus (GPa) = -242.20092 29.90732 -106.14680
#
# Velocity S-wave (km/s) = -10.28892 3.61552 -6.81138
# Velocity P-wave (km/s) = 11.30398 5.75235 6.88079
#
# Compressibility (1/GPa) = 0.03269361
#
# Stress axis : x y z
#
# Youngs Moduli (GPa) = 83.95461 73.85389 108.30662
#
# Poissons Ratio (x) = 0.01204 0.26721
# Poissons Ratio (y) = 0.01368 -0.17705
# Poissons Ratio (z) = 0.20713 -0.12073
#
# Static dielectric constant tensor:
#      x y z
#    x 1.643550 0.000000 -0.222360 
#    y 0.000000 1.892550 0.000000 
#    z -0.222360 0.000000 1.499690 
# 
# From -- ./inp_files/44243.got.cif
#   From: 2010.05.17/outbox.cif.g08.bks.cpg/sg11_23_cif.got.tgz:44243.got - 2010.06.03 12:22:45.
