data_PCOD9157192
_publ_section_title
;
Structure prediction by ZEFSAII (Michael W. Deem and Ramdas Pophale) SiO2 
 PCOD9157192
Probable space group: P 21/M
;
_chemical_formula_sum "Si O2"
_cell_formula_units_Z 32
_cell_length_a 18.229094
_cell_length_b 8.622158
_cell_length_c 24.416955
_cell_angle_alpha 90.000000
_cell_angle_beta 149.898156
_cell_angle_gamma 90.000000
_cell_volume 1924.761446
_symmetry_space_group_name_H-M "P 21/M"
_symmetry_group_IT_number 11
_symmetry_cell_setting 'monoclinic'
loop_
_space_group_symop_operation_xyz
x,y,z
-x,1/2+y,-z
-x,-y,-z
x,1/2-y,z
loop_
_atom_site_type_symbol
_atom_site_label
_atom_site_fract_x
_atom_site_fract_y
_atom_site_fract_z
Si Si1 0.717594 0.565921 0.401947
Si Si2 0.858608 0.936781 0.178709
Si Si3 0.837035 0.438106 0.674304
Si Si4 0.541821 0.065587 0.967348
Si Si5 0.961378 0.934839 0.369034
Si Si6 0.585278 0.436108 0.424760
Si Si7 0.382865 0.936483 0.380351
Si Si8 0.300309 0.934486 0.729615
O O1 0.707603 0.750000 0.390719
O O2 0.615624 0.505641 0.385117
O O3 0.680307 0.488269 0.320056
O O4 0.883458 0.517099 0.523860
O O5 0.841312 0.750000 0.161994
O O6 0.894294 0.967605 0.265693
O O7 0.000528 0.989019 0.236042
O O8 0.709679 0.019331 0.065823
O O9 0.838547 0.250000 0.673374
O O10 0.720833 0.485753 0.552142
O O11 0.771024 0.481695 0.690846
O O12 0.522385 0.250000 0.954807
O O13 0.434233 0.991322 0.853448
O O14 0.500000 0.000000 0.000000
O O15 0.984145 0.750000 0.387699
O O16 0.846513 0.990122 0.340168
O O17 0.586433 0.250000 0.423220
O O18 0.437135 0.493545 0.358337
O O19 0.390885 0.750000 0.383234
O O20 0.500000 0.000000 0.500000
O O21 0.286983 0.750000 0.723966
#
# Coordination Sequence:
#
# PCOD9157192 Si02
#       8
#     4   4   4   4   4   4   4   4
#     4  12  24  37  54  79 110 142 181 223 267 321
#     4  10  19  34  56  79 106 143 180 219 266 315
#     4   8  15  29  49  73 105 139 174 213 258 310
#     4  12  24  39  57  79 105 136 178 227 274 319
#     4  11  21  36  57  79 109 143 179 220 266 318
#     4  10  18  32  50  73 106 144 179 216 263 316
#     4   9  16  27  45  72 104 141 177 214 260 315
#     4  12  25  41  58  76 102 140 185 226 270 319
#
# _framework density 16.625437000000002
#
# number of rings (size 3 to 8) (size 9 to 14) (size 15 to 20)
#    0.000    1.500    2.500    5.625    0.000    0.500 
#    0.000    1.250    0.000    0.000    0.000    0.875 
#    0.000    0.000    0.000    0.000    0.000    0.000 
#
# Total GULP energy -178679.794127 kJ/mol
# GULP energy per Si atom -5583.743566 kJ/mol
# Density = 1.658760 g / cm^3
# Si number density = 16.625437 Si / 1000 Ang^3
#
#
#
# Elastic Constant Matrix: (Units=GPa)
#
#
# Indices 1 2 3 4 5 6 
#
# 1 117.4608 -7.9396 20.0316 0.0000 13.9384 0.0000
# 2 -7.9396 24.5439 -2.7758 0.0000 2.2234 0.0000
# 3 20.0316 -2.7758 27.6894 0.0000 -2.2696 0.0000
# 4 0.0000 0.0000 0.0000 23.1928 0.0000 0.8903
# 5 13.9384 2.2234 -2.2696 0.0000 21.5079 0.0000
# 6 0.0000 0.0000 0.0000 0.8903 0.0000 27.3239
#
#
#
# Elastic Compliance Matrix: (Units=1/GPa)
#
#
# Indices 1 2 3 4 5 6 
#
# 1 0.011196 0.003436 -0.008452 0.000000 -0.008503 0.000000
# 2 0.003436 0.042585 0.001251 0.000000 -0.006497 0.000000
# 3 -0.008452 0.001251 0.043167 0.000000 0.009903 0.000000
# 4 0.000000 0.000000 0.000000 0.043171 0.000000 -0.001407
# 5 -0.008503 -0.006497 0.009903 0.000000 0.053722 0.000000
# 6 0.000000 0.000000 0.000000 -0.001407 0.000000 0.036644
#
#
# Mechanical properties :
#
#
# Convention : Reuss Voigt Hill
#
# Bulk Modulus (GPa) = 11.18356 20.92517 16.05436
# Shear Modulus (GPa) = 18.66922 25.09678 21.88300
#
# Velocity S-wave (km/s) = 3.35465 3.88950 3.63193
# Velocity P-wave (km/s) = 4.66329 5.72577 5.22163
#
# Compressibility (1/GPa) = 0.08941697
#
# Stress axis : x y z
#
# Youngs Moduli (GPa) = 89.31639 23.48252 23.16599
#
# Poissons Ratio (x) = -0.08069 0.19580
# Poissons Ratio (y) = -0.30690 -0.02897
# Poissons Ratio (z) = 0.75492 -0.02937
#
# Static dielectric constant tensor:
#      x y z
#    x 1.624740 0.000000 -0.039210 
#    y 0.000000 1.558400 0.000000 
#    z -0.039210 0.000000 1.596980 
# 
# From -- ./inp_files/69465.got.cif
#   From: 2010.05.17/outbox.cif.g08.bks.cpg/sg11_35_cif.got.tgz:69465.got - 2010.06.03 12:22:45.
