data_PCOD9157489
_publ_section_title
;
Structure prediction by ZEFSAII (Michael W. Deem and Ramdas Pophale) SiO2 
 PCOD9157489
Probable space group: P 21/M
;
_chemical_formula_sum "Si O2"
_cell_formula_units_Z 32
_cell_length_a 14.039236
_cell_length_b 15.203497
_cell_length_c 11.270733
_cell_angle_alpha 90.000000
_cell_angle_beta 43.967736
_cell_angle_gamma 90.000000
_cell_volume 1670.155905
_symmetry_space_group_name_H-M "P 21/M"
_symmetry_group_IT_number 11
_symmetry_cell_setting 'monoclinic'
loop_
_space_group_symop_operation_xyz
x,y,z
-x,1/2+y,-z
-x,-y,-z
x,1/2-y,z
loop_
_atom_site_type_symbol
_atom_site_label
_atom_site_fract_x
_atom_site_fract_y
_atom_site_fract_z
Si Si1 0.538108 0.347075 0.702049
Si Si2 0.634630 0.343346 0.132809
Si Si3 0.068985 0.465839 0.317264
Si Si4 0.826576 0.973430 0.216223
Si Si5 0.104932 0.924813 0.055808
Si Si6 0.852458 0.144633 0.365879
Si Si7 0.384806 0.483314 0.005123
Si Si8 0.457185 0.100370 0.514887
O O1 0.509951 0.250000 0.774201
O O2 0.702170 0.362721 0.561568
O O3 0.495705 0.351126 0.601573
O O4 0.450130 0.416743 0.852362
O O5 0.599539 0.250000 0.109240
O O6 0.537860 0.361111 0.331652
O O7 0.791662 0.345202 0.036343
O O8 0.630690 0.423274 0.046004
O O9 0.064616 0.542653 0.221888
O O10 0.233665 0.450843 0.183286
O O11 0.000000 0.500000 0.500000
O O12 0.976685 0.387960 0.340396
O O13 0.702846 0.912245 0.367355
O O14 0.964907 0.919060 0.110113
O O15 0.840424 0.067537 0.274275
O O16 0.812982 0.998700 0.090043
O O17 0.867528 0.250000 0.319480
O O18 0.500000 0.500000 0.000000
O O19 0.500000 0.000000 0.500000
#
# Coordination Sequence:
#
# PCOD9157489 Si02
#       8
#     4   4   4   4   4   4   4   4
#     4  11  22  37  59  90 122 158 200 243 294 357
#     4  11  22  38  60  87 118 156 198 239 295 360
#     4  10  21  38  59  81 108 149 198 241 296 353
#     4  10  18  33  57  85 119 157 195 230 290 353
#     4   9  19  35  55  80 111 151 191 236 282 342
#     4  10  20  35  58  88 117 149 193 242 290 352
#     4  11  23  41  63  85 116 156 198 251 306 351
#     4  12  18  34  60  91 126 159 190 237 292 353
#
# _framework density 19.159889
#
# number of rings (size 3 to 8) (size 9 to 14) (size 15 to 20)
#    0.000    1.500    3.750    1.875    0.000    3.500 
#    0.000    5.000    0.000    0.750    0.000    0.000 
#    0.000    0.000    0.000    0.000    0.000    0.000 
#
# Total GULP energy -178293.771623 kJ/mol
# GULP energy per Si atom -5571.680363 kJ/mol
# Density = 1.911628 g / cm^3
# Si number density = 19.159889 Si / 1000 Ang^3
#
#
#
# Elastic Constant Matrix: (Units=GPa)
#
#
# Indices 1 2 3 4 5 6 
#
# 1 95.6744 36.3411 47.3843 0.0000 -16.3183 0.0000
# 2 36.3411 103.2759 52.8200 0.0000 -13.9268 0.0000
# 3 47.3843 52.8200 125.0847 0.0000 -12.4036 0.0000
# 4 0.0000 0.0000 0.0000 -2.9857 0.0000 -5.5121
# 5 -16.3183 -13.9268 -12.4036 0.0000 38.6445 0.0000
# 6 0.0000 0.0000 0.0000 -5.5121 0.0000 11.0717
#
#
#
# Elastic Compliance Matrix: (Units=1/GPa)
#
#
# Indices 1 2 3 4 5 6 
#
# 1 0.013935 -0.002406 -0.003889 0.000000 0.003769 0.000000
# 2 -0.002406 0.013081 -0.004385 0.000000 0.002291 0.000000
# 3 -0.003889 -0.004385 0.011362 0.000000 0.000424 0.000000
# 4 0.000000 0.000000 0.000000 -0.174525 0.000000 -0.086888
# 5 0.003769 0.002291 0.000424 0.000000 0.028430 0.000000
# 6 0.000000 0.000000 0.000000 -0.086888 0.000000 0.047064
#
#
# Mechanical properties :
#
#
# Convention : Reuss Voigt Hill
#
# Bulk Modulus (GPa) = 58.76487 66.34732 62.55609
# Shear Modulus (GPa) = -148.72012 21.84539 -63.43736
#
# Velocity S-wave (km/s) = -8.81981 3.38029 -5.76032
# Velocity P-wave (km/s) = 8.54291 7.06672 3.39432
#
# Compressibility (1/GPa) = 0.01701697
#
# Stress axis : x y z
#
# Youngs Moduli (GPa) = 71.76158 76.44559 88.01563
#
# Poissons Ratio (x) = 0.18395 0.34229
# Poissons Ratio (y) = 0.17268 0.38596
# Poissons Ratio (z) = 0.27908 0.33523
#
# Static dielectric constant tensor:
#      x y z
#    x 1.764300 0.000000 -0.075060 
#    y 0.000000 1.645920 0.000000 
#    z -0.075060 0.000000 1.764930 
# 
# From -- ./inp_files/39654.got.cif
#   From: 2010.05.17/outbox.cif.g08.bks.cpg/sg11_20_cif.got.tgz:39654.got - 2010.06.03 12:22:45.
