data_PCOD9157405
_publ_section_title
;
Structure prediction by ZEFSAII (Michael W. Deem and Ramdas Pophale) SiO2 
 PCOD9157405
Probable space group: P 21/M
;
_chemical_formula_sum "Si O2"
_cell_formula_units_Z 28
_cell_length_a 11.246044
_cell_length_b 20.053000
_cell_length_c 7.265277
_cell_angle_alpha 90.000000
_cell_angle_beta 93.775225
_cell_angle_gamma 90.000000
_cell_volume 1634.887526
_symmetry_space_group_name_H-M "P 21/M"
_symmetry_group_IT_number 11
_symmetry_cell_setting 'monoclinic'
loop_
_space_group_symop_operation_xyz
x,y,z
-x,1/2+y,-z
-x,-y,-z
x,1/2-y,z
loop_
_atom_site_type_symbol
_atom_site_label
_atom_site_fract_x
_atom_site_fract_y
_atom_site_fract_z
Si Si1 0.293761 0.673218 0.386590
Si Si2 0.669757 0.074877 0.930349
Si Si3 0.339401 0.468172 0.392795
Si Si4 0.423189 0.919761 0.676349
Si Si5 0.066336 0.432344 0.437758
Si Si6 0.051059 0.926543 0.955773
Si Si7 0.987593 0.328505 0.719428
O O1 0.325810 0.750000 0.393384
O O2 0.342462 0.637918 0.206939
O O3 0.343326 0.636212 0.570867
O O4 0.150533 0.666883 0.359895
O O5 0.648119 0.013781 0.788783
O O6 0.591998 0.077572 0.106385
O O7 0.806618 0.070827 0.011494
O O8 0.439843 0.412406 0.373807
O O9 0.376550 0.512004 0.574661
O O10 0.202610 0.448168 0.400523
O O11 0.061506 0.373437 0.585337
O O12 0.000000 0.500000 0.500000
O O13 0.993319 0.410589 0.251558
O O14 0.006823 0.869117 0.089328
O O15 0.000000 0.000000 0.000000
O O16 0.018369 0.250000 0.734609
#
# Coordination Sequence:
#
# PCOD9157405 Si02
#       7
#     4   4   4   4   4   4   4
#     4   9  19  36  54  77 105 134 180 226 260 319
#     4  10  18  33  52  79 108 137 171 222 276 314
#     4  10  21  33  50  81 110 133 174 226 261 318
#     4  10  20  34  53  76 105 141 175 215 274 316
#     4  12  20  34  59  83 108 145 183 223 276 328
#     4  11  19  32  55  85 109 141 185 227 270 330
#     4  10  22  37  54  82 115 143 179 230 282 330
#
# _framework density 17.126560999999999
#
# number of rings (size 3 to 8) (size 9 to 14) (size 15 to 20)
#    0.000    1.714    2.857    3.857    0.000    1.143 
#    0.000    3.571    0.000    0.000    0.000    0.000 
#    0.000    0.000    0.000    0.000    0.000    0.000 
#
# Total GULP energy -156174.243950 kJ/mol
# GULP energy per Si atom -5577.651570 kJ/mol
# Density = 1.708758 g / cm^3
# Si number density = 17.126561 Si / 1000 Ang^3
#
#
#
# Elastic Constant Matrix: (Units=GPa)
#
#
# Indices 1 2 3 4 5 6 
#
# 1 45.4897 21.9605 19.3373 0.0000 -7.8369 0.0000
# 2 21.9605 101.1202 34.3047 0.0000 -13.9094 0.0000
# 3 19.3373 34.3047 97.9849 0.0000 -12.2143 0.0000
# 4 0.0000 0.0000 0.0000 17.4806 0.0000 2.7385
# 5 -7.8369 -13.9094 -12.2143 0.0000 21.5689 0.0000
# 6 0.0000 0.0000 0.0000 2.7385 0.0000 15.7194
#
#
#
# Elastic Compliance Matrix: (Units=1/GPa)
#
#
# Indices 1 2 3 4 5 6 
#
# 1 0.026089 -0.003886 -0.003141 0.000000 0.005195 0.000000
# 2 -0.003886 0.012416 -0.002967 0.000000 0.004914 0.000000
# 3 -0.003141 -0.002967 0.012356 0.000000 0.003942 0.000000
# 4 0.000000 0.000000 0.000000 0.058811 0.000000 -0.010245
# 5 0.005195 0.004914 0.003942 0.000000 0.053652 0.000000
# 6 0.000000 0.000000 0.000000 -0.010245 0.000000 0.065401
#
#
# Mechanical properties :
#
#
# Convention : Reuss Voigt Hill
#
# Bulk Modulus (GPa) = 32.39079 43.97773 38.18426
# Shear Modulus (GPa) = 19.30479 22.21993 20.76236
#
# Velocity S-wave (km/s) = 3.36100 3.60585 3.48557
# Velocity P-wave (km/s) = 5.83227 6.56277 6.20828
#
# Compressibility (1/GPa) = 0.03087297
#
# Stress axis : x y z
#
# Youngs Moduli (GPa) = 38.33042 80.54292 80.93400
#
# Poissons Ratio (x) = 0.31297 0.25419
# Poissons Ratio (y) = 0.14894 0.24016
# Poissons Ratio (z) = 0.12038 0.23900
#
# Static dielectric constant tensor:
#      x y z
#    x 1.595470 0.000000 -0.009280 
#    y 0.000000 1.576850 0.000000 
#    z -0.009280 0.000000 1.594720 
# 
# From -- ./inp_files/4879.got.cif
#   From: 2010.05.17/outbox.cif.g08.bks.cpg/sg11_3_cif.got.tgz:4879.got - 2010.06.03 12:22:45.
