data_PCOD9157070
_publ_section_title
;
Structure prediction by ZEFSAII (Michael W. Deem and Ramdas Pophale) SiO2 
 PCOD9157070
Probable space group: P 21/M
;
_chemical_formula_sum "Si O2"
_cell_formula_units_Z 28
_cell_length_a 11.975762
_cell_length_b 8.630251
_cell_length_c 19.996308
_cell_angle_alpha 90.000000
_cell_angle_beta 127.428276
_cell_angle_gamma 90.000000
_cell_volume 1641.193087
_symmetry_space_group_name_H-M "P 21/M"
_symmetry_group_IT_number 11
_symmetry_cell_setting 'monoclinic'
loop_
_space_group_symop_operation_xyz
x,y,z
-x,1/2+y,-z
-x,-y,-z
x,1/2-y,z
loop_
_atom_site_type_symbol
_atom_site_label
_atom_site_fract_x
_atom_site_fract_y
_atom_site_fract_z
Si Si1 0.127929 0.435217 0.003754
Si Si2 0.200978 0.063376 0.319086
Si Si3 0.103924 0.563068 0.845808
Si Si4 0.594877 0.437210 0.095426
Si Si5 0.462997 0.565462 0.328614
Si Si6 0.630994 0.435161 0.504557
Si Si7 0.565515 0.562878 0.828967
O O1 0.120396 0.250000 0.998345
O O2 0.120035 0.500977 0.926447
O O3 0.275597 0.477396 0.091693
O O4 0.000000 0.500000 0.000000
O O5 0.210185 0.250000 0.322889
O O6 0.045818 0.014747 0.239163
O O7 0.320639 0.001353 0.311558
O O8 0.237249 0.999527 0.406052
O O9 0.102617 0.750000 0.847450
O O10 0.243429 0.514678 0.856359
O O11 0.587761 0.250000 0.090041
O O12 0.532686 0.484373 0.144542
O O13 0.500000 0.500000 0.000000
O O14 0.460442 0.750000 0.334575
O O15 0.595427 0.497750 0.418176
O O16 0.468575 0.514521 0.253888
O O17 0.500000 0.500000 0.500000
O O18 0.630466 0.250000 0.504917
O O19 0.557149 0.750000 0.818435
#
# Coordination Sequence:
#
# PCOD9157070 Si02
#       7
#     4   4   4   4   4   4   4
#     4  11  22  34  50  74 105 140 172 212 261 311
#     4  10  19  33  52  78 110 140 170 210 259 314
#     4  10  21  35  54  77 104 137 174 217 262 308
#     4  10  20  37  57  76 100 135 180 223 263 308
#     4  11  21  33  52  79 107 138 174 214 258 311
#     4  10  18  31  52  77 106 139 171 209 255 311
#     4  10  21  36  52  73 103 138 174 216 263 308
#
# _framework density 17.060759999999998
#
# number of rings (size 3 to 8) (size 9 to 14) (size 15 to 20)
#    0.000    1.714    1.429    6.000    0.000    6.286 
#    0.000    0.000    0.000    0.857    0.000    0.000 
#    0.000    0.000    0.000    0.000    0.000    0.000 
#
# Total GULP energy -156302.073616 kJ/mol
# GULP energy per Si atom -5582.216915 kJ/mol
# Density = 1.702193 g / cm^3
# Si number density = 17.060760 Si / 1000 Ang^3
#
#
#
# Elastic Constant Matrix: (Units=GPa)
#
#
# Indices 1 2 3 4 5 6 
#
# 1 111.5621 26.8191 55.8457 0.0000 -20.9334 0.0000
# 2 26.8191 60.3422 42.6601 0.0000 -9.3250 0.0000
# 3 55.8457 42.6601 145.1344 0.0000 -31.8017 0.0000
# 4 0.0000 0.0000 0.0000 32.1731 0.0000 -5.4076
# 5 -20.9334 -9.3250 -31.8017 0.0000 7.6304 0.0000
# 6 0.0000 0.0000 0.0000 -5.4076 0.0000 17.7394
#
#
#
# Elastic Compliance Matrix: (Units=1/GPa)
#
#
# Indices 1 2 3 4 5 6 
#
# 1 -0.037656 0.008430 -0.096434 0.000000 -0.494915 0.000000
# 2 0.008430 0.019032 0.015283 0.000000 0.110081 0.000000
# 3 -0.096434 0.015283 -0.165651 0.000000 -0.936272 0.000000
# 4 0.000000 0.000000 0.000000 0.032760 0.000000 0.009987
# 5 -0.494915 0.110081 -0.936272 0.000000 -4.994324 0.000000
# 6 0.000000 0.000000 0.000000 0.009987 0.000000 0.059416
#
#
# Mechanical properties :
#
#
# Convention : Reuss Voigt Hill
#
# Bulk Modulus (GPa) = -3.03291 63.07650 30.02179
# Shear Modulus (GPa) = -0.98993 24.28951 11.64979
#
# Velocity S-wave (km/s) = -0.76256 3.77730 2.61596
# Velocity P-wave (km/s) = 1.59903 7.48838 5.17296
#
# Compressibility (1/GPa) = -0.32971582
#
# Stress axis : x y z
#
# Youngs Moduli (GPa) = -26.55649 52.54210 -6.03680
#
# Poissons Ratio (x) = -0.44293 -0.58215
# Poissons Ratio (y) = 0.22387 0.09226
# Poissons Ratio (z) = -2.56095 -0.80300
#
# Static dielectric constant tensor:
#      x y z
#    x 1.610870 0.000000 0.006670 
#    y 0.000000 1.577820 0.000000 
#    z 0.006670 0.000000 1.586390 
# 
# From -- ./inp_files/54600.got.cif
#   From: 2010.05.17/outbox.cif.g08.bks.cpg/sg11_28_cif.got.tgz:54600.got - 2010.06.03 12:22:45.
