data_PCOD9157411
_publ_section_title
;
Structure prediction by ZEFSAII (Michael W. Deem and Ramdas Pophale) SiO2 
 PCOD9157411
Probable space group: P 21/M
;
_chemical_formula_sum "Si O2"
_cell_formula_units_Z 28
_cell_length_a 7.096474
_cell_length_b 20.536687
_cell_length_c 10.938447
_cell_angle_alpha 90.000000
_cell_angle_beta 87.596708
_cell_angle_gamma 90.000000
_cell_volume 1592.745927
_symmetry_space_group_name_H-M "P 21/M"
_symmetry_group_IT_number 11
_symmetry_cell_setting 'monoclinic'
loop_
_space_group_symop_operation_xyz
x,y,z
-x,1/2+y,-z
-x,-y,-z
x,1/2-y,z
loop_
_atom_site_type_symbol
_atom_site_label
_atom_site_fract_x
_atom_site_fract_y
_atom_site_fract_z
Si Si1 0.771813 0.930560 0.422409
Si Si2 0.347630 0.071783 0.101698
Si Si3 0.504525 0.173123 0.476349
Si Si4 0.622804 0.176792 0.188393
Si Si5 0.947278 0.089565 0.229124
Si Si6 0.823031 0.428199 0.510356
Si Si7 0.664735 0.524650 0.165270
O O1 0.684849 0.867365 0.489793
O O2 0.678040 0.936951 0.291683
O O3 0.999245 0.927159 0.404055
O O4 0.738099 0.998626 0.498079
O O5 0.495806 0.129801 0.111608
O O6 0.160998 0.084955 0.183529
O O7 0.461625 0.009655 0.151825
O O8 0.298041 0.061786 0.961460
O O9 0.501709 0.250000 0.511244
O O10 0.547296 0.170702 0.330063
O O11 0.669056 0.128177 0.532185
O O12 0.605383 0.250000 0.147901
O O13 0.838879 0.153697 0.186784
O O14 0.918009 0.084690 0.375082
O O15 0.823526 0.030981 0.176231
#
# Coordination Sequence:
#
# PCOD9157411 Si02
#       7
#     4   4   4   4   4   4   4
#     4  10  19  33  52  75 103 135 165 203 254 299
#     4  10  18  33  53  73  98 130 162 202 251 289
#     4  10  20  34  52  74 103 135 165 204 253 303
#     4   9  19  33  49  73  98 123 165 208 241 290
#     4   9  17  31  50  72  99 128 159 201 253 294
#     4   9  19  32  51  78 102 128 167 212 250 299
#     4   9  20  32  49  76 101 126 164 205 239 294
#
# _framework density 17.579702999999999
#
# number of rings (size 3 to 8) (size 9 to 14) (size 15 to 20)
#    0.000    2.571    0.000    2.571    0.000    4.571 
#    0.000    3.571    0.000    0.000    0.000    0.000 
#    0.000    0.000    0.000    0.000    0.000    0.000 
#
# Total GULP energy -156082.555585 kJ/mol
# GULP energy per Si atom -5574.376985 kJ/mol
# Density = 1.753969 g / cm^3
# Si number density = 17.579703 Si / 1000 Ang^3
#
#
#
# Elastic Constant Matrix: (Units=GPa)
#
#
# Indices 1 2 3 4 5 6 
#
# 1 68.5623 11.3404 17.2684 0.0000 -0.8305 0.0000
# 2 11.3404 78.6118 19.5344 0.0000 0.2376 0.0000
# 3 17.2684 19.5344 48.8101 0.0000 14.8554 0.0000
# 4 0.0000 0.0000 0.0000 15.2000 0.0000 -4.6926
# 5 -0.8305 0.2376 14.8554 0.0000 21.8464 0.0000
# 6 0.0000 0.0000 0.0000 -4.6926 0.0000 14.5772
#
#
#
# Elastic Compliance Matrix: (Units=1/GPa)
#
#
# Indices 1 2 3 4 5 6 
#
# 1 0.016603 -0.000584 -0.007357 0.000000 0.005640 0.000000
# 2 -0.000584 0.014531 -0.007004 0.000000 0.004582 0.000000
# 3 -0.007357 -0.007004 0.032728 0.000000 -0.022459 0.000000
# 4 0.000000 0.000000 0.000000 0.073049 0.000000 0.023516
# 5 0.005640 0.004582 -0.022459 0.000000 0.061210 0.000000
# 6 0.000000 0.000000 0.000000 0.023516 0.000000 0.076171
#
#
# Mechanical properties :
#
#
# Convention : Reuss Voigt Hill
#
# Bulk Modulus (GPa) = 29.43416 32.47453 30.95434
# Shear Modulus (GPa) = 15.84750 20.18077 18.01414
#
# Velocity S-wave (km/s) = 3.00570 3.39183 3.20459
# Velocity P-wave (km/s) = 5.36892 5.81826 5.59810
#
# Compressibility (1/GPa) = 0.03397413
#
# Stress axis : x y z
#
# Youngs Moduli (GPa) = 60.22960 68.81611 30.55444
#
# Poissons Ratio (x) = 0.04019 0.22478
# Poissons Ratio (y) = 0.03518 0.21399
# Poissons Ratio (z) = 0.44310 0.48196
#
# Static dielectric constant tensor:
#      x y z
#    x 1.617930 0.000000 0.013140 
#    y 0.000000 1.608100 0.000000 
#    z 0.013140 0.000000 1.599140 
# 
# From -- ./inp_files/4884.got.cif
#   From: 2010.05.17/outbox.cif.g08.bks.cpg/sg11_3_cif.got.tgz:4884.got - 2010.06.03 12:22:45.
