data_PCOD9157439
_publ_section_title
;
Structure prediction by ZEFSAII (Michael W. Deem and Ramdas Pophale) SiO2 
 PCOD9157439
Probable space group: P 21/M
;
_chemical_formula_sum "Si O2"
_cell_formula_units_Z 24
_cell_length_a 11.453972
_cell_length_b 18.411478
_cell_length_c 16.046827
_cell_angle_alpha 90.000000
_cell_angle_beta 156.859744
_cell_angle_gamma 90.000000
_cell_volume 1329.866423
_symmetry_space_group_name_H-M "P 21/M"
_symmetry_group_IT_number 11
_symmetry_cell_setting 'monoclinic'
loop_
_space_group_symop_operation_xyz
x,y,z
-x,1/2+y,-z
-x,-y,-z
x,1/2-y,z
loop_
_atom_site_type_symbol
_atom_site_label
_atom_site_fract_x
_atom_site_fract_y
_atom_site_fract_z
Si Si1 0.736302 0.335298 0.852733
Si Si2 0.033459 0.333636 0.373302
Si Si3 0.112594 0.034533 0.830554
Si Si4 0.789811 0.476147 0.287617
Si Si5 0.213694 0.836146 0.309151
Si Si6 0.125258 0.393752 0.253919
O O1 0.789964 0.250000 0.905479
O O2 0.381214 0.346969 0.622910
O O3 0.828615 0.349063 0.817733
O O4 0.917390 0.381126 0.038219
O O5 0.962538 0.250000 0.344165
O O6 0.005681 0.349585 0.256264
O O7 0.843521 0.392208 0.298300
O O8 0.015861 0.115024 0.790876
O O9 0.126051 0.020896 0.740454
O O10 0.442593 0.014665 0.078633
O O11 0.887482 0.977174 0.724807
O O12 0.000000 0.500000 0.500000
O O13 0.193293 0.750000 0.310832
O O14 0.545928 0.864050 0.547519
#
# Coordination Sequence:
#
# PCOD9157439 Si02
#       6
#     4   4   4   4   4   4
#     4   9  17  30  51  78 104 132 166 206 254 305
#     4   9  18  32  52  77 102 131 172 218 258 299
#     4  10  22  36  53  76 101 136 176 211 253 303
#     4  10  21  38  54  72 102 137 176 218 254 295
#     4  10  21  35  51  78 111 135 163 206 255 309
#     4  10  18  33  55  77 104 135 168 209 256 304
#
# _framework density 18.046925999999999
#
# number of rings (size 3 to 8) (size 9 to 14) (size 15 to 20)
#    0.000    2.333    0.000    4.000    0.000    2.667 
#    0.000    0.833    0.000    0.000    0.000    0.000 
#    0.000    0.000    0.000    0.000    0.000    0.000 
#
# Total GULP energy -133935.475822 kJ/mol
# GULP energy per Si atom -5580.644826 kJ/mol
# Density = 1.800585 g / cm^3
# Si number density = 18.046926 Si / 1000 Ang^3
#
#
#
# Elastic Constant Matrix: (Units=GPa)
#
#
# Indices 1 2 3 4 5 6 
#
# 1 44.5743 43.3705 43.7012 0.0000 -5.6925 0.0000
# 2 43.3705 86.7309 36.2665 0.0000 0.8915 0.0000
# 3 43.7012 36.2665 67.9255 0.0000 -19.5742 0.0000
# 4 0.0000 0.0000 0.0000 25.3702 0.0000 3.5653
# 5 -5.6925 0.8915 -19.5742 0.0000 22.6106 0.0000
# 6 0.0000 0.0000 0.0000 3.5653 0.0000 13.2459
#
#
#
# Elastic Compliance Matrix: (Units=1/GPa)
#
#
# Indices 1 2 3 4 5 6 
#
# 1 0.103389 -0.026675 -0.059253 0.000000 -0.024215 0.000000
# 2 -0.026675 0.023608 0.003136 0.000000 -0.004932 0.000000
# 3 -0.059253 0.003136 0.062403 0.000000 0.038981 0.000000
# 4 0.000000 0.000000 0.000000 0.040966 0.000000 -0.011026
# 5 -0.024215 -0.004932 0.038981 0.000000 0.072072 0.000000
# 6 0.000000 0.000000 0.000000 -0.011026 0.000000 0.078463
#
#
# Mechanical properties :
#
#
# Convention : Reuss Voigt Hill
#
# Bulk Modulus (GPa) = 41.98971 49.54524 45.76747
# Shear Modulus (GPa) = 9.01839 17.30486 13.16162
#
# Velocity S-wave (km/s) = 2.23786 3.09994 2.70349
# Velocity P-wave (km/s) = 5.47676 6.35028 5.92962
#
# Compressibility (1/GPa) = 0.02381536
#
# Stress axis : x y z
#
# Youngs Moduli (GPa) = 9.67224 42.35766 16.02496
#
# Poissons Ratio (x) = 1.12988 0.94952
# Poissons Ratio (y) = 0.25801 -0.05025
# Poissons Ratio (z) = 0.57311 -0.13281
#
# Static dielectric constant tensor:
#      x y z
#    x 1.599820 0.000000 0.007570 
#    y 0.000000 1.618590 0.000000 
#    z 0.007570 0.000000 1.614210 
# 
# From -- ./inp_files/29768.got.cif
#   From: 2010.05.17/outbox.cif.g08.bks.cpg/sg11_15_cif.got.tgz:29768.got - 2010.06.03 12:22:45.
