data_PCOD9157497
_publ_section_title
;
Structure prediction by ZEFSAII (Michael W. Deem and Ramdas Pophale) SiO2 
 PCOD9157497
Probable space group: P 21/M
;
_chemical_formula_sum "Si O2"
_cell_formula_units_Z 32
_cell_length_a 11.967981
_cell_length_b 14.236186
_cell_length_c 11.269852
_cell_angle_alpha 90.000000
_cell_angle_beta 142.419146
_cell_angle_gamma 90.000000
_cell_volume 1171.055338
_symmetry_space_group_name_H-M "P 21/M"
_symmetry_group_IT_number 11
_symmetry_cell_setting 'monoclinic'
loop_
_space_group_symop_operation_xyz
x,y,z
-x,1/2+y,-z
-x,-y,-z
x,1/2-y,z
loop_
_atom_site_type_symbol
_atom_site_label
_atom_site_fract_x
_atom_site_fract_y
_atom_site_fract_z
Si Si1 0.981723 0.863945 0.779513
Si Si2 0.488301 0.108074 0.870084
Si Si3 0.524122 0.889392 0.882601
Si Si4 0.162838 0.862153 0.445719
Si Si5 0.694330 0.356917 0.801910
Si Si6 0.947990 0.636461 0.494556
Si Si7 0.371982 0.135250 0.385443
Si Si8 0.866392 0.643351 0.030334
O O1 0.000926 0.750000 0.796977
O O2 0.031251 0.896214 0.689963
O O3 0.771240 0.882996 0.629467
O O4 0.114963 0.899879 0.994613
O O5 0.576811 0.149105 0.825641
O O6 0.267744 0.114344 0.685709
O O7 0.544314 0.000029 0.911825
O O8 0.545694 0.146300 0.048160
O O9 0.376976 0.872992 0.654109
O O10 0.723531 0.850819 0.019349
O O11 0.133313 0.750000 0.414007
O O12 0.059290 0.899831 0.475537
O O13 0.054416 0.899402 0.239070
O O14 0.729817 0.250000 0.792683
O O15 0.568327 0.400640 0.593870
O O16 0.960852 0.750000 0.502969
O O17 0.390127 0.250000 0.388328
O O18 0.263154 0.099489 0.179280
O O19 0.904290 0.750000 0.020211
#
# Coordination Sequence:
#
# PCOD9157497 Si02
#       8
#     4   4   4   4   4   4   4   4
#     4   9  17  30  52  83 111 133 173 229 279 326
#     4  11  22  37  56  83 116 154 183 227 282 336
#     4  11  24  39  54  83 117 151 190 224 278 339
#     4  10  21  37  60  85 108 143 188 232 278 330
#     4  10  19  34  59  87 111 143 185 232 283 330
#     4  10  18  33  58  85 110 141 182 230 281 328
#     4   9  18  33  56  84 111 139 180 234 285 327
#     4  10  21  39  60  82 111 147 188 234 276 326
#
# _framework density 27.325779000000001
#
# number of rings (size 3 to 8) (size 9 to 14) (size 15 to 20)
#    0.000    2.000    2.500    1.500    0.000    4.000 
#    2.250    4.375    0.000    1.500    0.000    0.000 
#    0.000    0.000    0.000    0.000    0.000    0.000 
#
# Total GULP energy -179175.788479 kJ/mol
# GULP energy per Si atom -5599.243390 kJ/mol
# Density = 2.726358 g / cm^3
# Si number density = 27.325779 Si / 1000 Ang^3
#
#
#
# Elastic Constant Matrix: (Units=GPa)
#
#
# Indices 1 2 3 4 5 6 
#
# 1 85.3771 -1.6641 30.6622 0.0000 8.8499 0.0000
# 2 -1.6641 95.0464 10.3430 0.0000 -4.4104 0.0000
# 3 30.6622 10.3430 240.3304 0.0000 0.9689 0.0000
# 4 0.0000 0.0000 0.0000 26.3349 0.0000 -7.1475
# 5 8.8499 -4.4104 0.9689 0.0000 51.2406 0.0000
# 6 0.0000 0.0000 0.0000 -7.1475 0.0000 -0.2138
#
#
#
# Elastic Compliance Matrix: (Units=1/GPa)
#
#
# Indices 1 2 3 4 5 6 
#
# 1 0.012512 0.000296 -0.001600 0.000000 -0.002105 0.000000
# 2 0.000296 0.010621 -0.000498 0.000000 0.000873 0.000000
# 3 -0.001600 -0.000498 0.004386 0.000000 0.000151 0.000000
# 4 0.000000 0.000000 0.000000 0.003770 0.000000 -0.126020
# 5 -0.002105 0.000873 0.000151 0.000000 0.019952 0.000000
# 6 0.000000 0.000000 0.000000 -0.126020 0.000000 -0.464317
#
#
# Mechanical properties :
#
#
# Convention : Reuss Voigt Hill
#
# Bulk Modulus (GPa) = 41.82002 55.49292 48.65647
# Shear Modulus (GPa) = -12.45330 40.89985 14.22327
#
# Velocity S-wave (km/s) = -2.13711 3.87298 2.28394
# Velocity P-wave (km/s) = 3.04102 6.35232 4.97995
#
# Compressibility (1/GPa) = 0.02391199
#
# Stress axis : x y z
#
# Youngs Moduli (GPa) = 79.92635 94.15244 227.99948
#
# Poissons Ratio (x) = -0.02782 0.36491
# Poissons Ratio (y) = -0.02362 0.11362
# Poissons Ratio (z) = 0.12792 0.04692
#
# Static dielectric constant tensor:
#      x y z
#    x 2.110870 0.000000 -0.058850 
#    y 0.000000 2.084110 0.000000 
#    z -0.058850 0.000000 2.130230 
# 
# From -- ./inp_files/40011.got.cif
#   From: 2010.05.17/outbox.cif.g08.bks.cpg/sg11_21_cif.got.tgz:40011.got - 2010.06.03 12:22:45.
