data_PCOD9157787
_publ_section_title
;
Structure prediction by ZEFSAII (Michael W. Deem and Ramdas Pophale) SiO2 
 PCOD9157787
Probable space group: P 21/M
;
_chemical_formula_sum "Si O2"
_cell_formula_units_Z 16
_cell_length_a 14.951499
_cell_length_b 8.985487
_cell_length_c 7.345567
_cell_angle_alpha 90.000000
_cell_angle_beta 141.517818
_cell_angle_gamma 90.000000
_cell_volume 614.089119
_symmetry_space_group_name_H-M "P 21/M"
_symmetry_group_IT_number 11
_symmetry_cell_setting 'monoclinic'
loop_
_space_group_symop_operation_xyz
x,y,z
-x,1/2+y,-z
-x,-y,-z
x,1/2-y,z
loop_
_atom_site_type_symbol
_atom_site_label
_atom_site_fract_x
_atom_site_fract_y
_atom_site_fract_z
Si Si1 0.949069 0.250000 0.538953
Si Si2 0.649753 0.941182 0.444613
Si Si3 0.385942 0.750000 0.078849
Si Si4 0.271320 0.250000 0.084181
Si Si5 0.430811 0.750000 0.582929
Si Si6 0.936632 0.924691 0.714745
O O1 0.953472 0.428339 0.614433
O O2 0.117226 0.250000 0.746617
O O3 0.781656 0.250000 0.219329
O O4 0.486881 0.883655 0.167463
O O5 0.768251 0.901189 0.487201
O O6 0.641778 0.113676 0.440174
O O7 0.704897 0.884000 0.732037
O O8 0.402058 0.750000 0.322221
O O9 0.397460 0.250000 0.139722
O O10 0.996570 0.750000 0.783598
O O11 0.000000 0.000000 0.000000
#
# Coordination Sequence:
#
# PCOD9157787 Si02
#       6
#     2   4   2   2   2   4
#     4  12  25  38  66  92 134 167 196 266 328 353
#     4  10  19  40  63  87 120 163 211 253 302 374
#     4  10  22  42  55  94 130 159 204 265 314 364
#     4  10  18  38  58  87 123 156 206 252 293 383
#     4  10  21  38  71  89 115 170 216 253 311 374
#     4  12  21  40  67  96 125 163 216 255 306 385
#
# _framework density 26.054849000000001
#
# number of rings (size 3 to 8) (size 9 to 14) (size 15 to 20)
#    0.000    1.500    6.250    3.750    0.000    1.000 
#    2.250    5.000    0.000    0.000    0.000    0.000 
#    0.000    0.000    0.000    0.000    0.000    0.000 
#
# Total GULP energy -89071.634340 kJ/mol
# GULP energy per Si atom -5566.977146 kJ/mol
# Density = 2.599555 g / cm^3
# Si number density = 26.054849 Si / 1000 Ang^3
#
#
#
# Elastic Constant Matrix: (Units=GPa)
#
#
# Indices 1 2 3 4 5 6 
#
# 1 59.0496 32.0989 24.3696 0.0000 24.4061 0.0000
# 2 32.0989 270.0092 32.3890 0.0000 2.9615 0.0000
# 3 24.3696 32.3890 171.9953 0.0000 28.5419 0.0000
# 4 0.0000 0.0000 0.0000 20.6398 0.0000 14.9270
# 5 24.4061 2.9615 28.5419 0.0000 43.4322 0.0000
# 6 0.0000 0.0000 0.0000 14.9270 0.0000 35.2085
#
#
#
# Elastic Compliance Matrix: (Units=1/GPa)
#
#
# Indices 1 2 3 4 5 6 
#
# 1 0.023957 -0.002614 -0.000783 0.000000 -0.012769 0.000000
# 2 -0.002614 0.004077 -0.000668 0.000000 0.001630 0.000000
# 3 -0.000783 -0.000668 0.006701 0.000000 -0.003918 0.000000
# 4 0.000000 0.000000 0.000000 0.069875 0.000000 -0.029624
# 5 -0.012769 0.001630 -0.003918 0.000000 0.032664 0.000000
# 6 0.000000 0.000000 0.000000 -0.029624 0.000000 0.040962
#
#
# Mechanical properties :
#
#
# Convention : Reuss Voigt Hill
#
# Bulk Modulus (GPa) = 37.58749 75.41881 56.50315
# Shear Modulus (GPa) = 25.61054 47.33587 36.47320
#
# Velocity S-wave (km/s) = 3.13860 4.26699 3.74553
# Velocity P-wave (km/s) = 5.25281 7.29968 6.35914
#
# Compressibility (1/GPa) = 0.02660460
#
# Stress axis : x y z
#
# Youngs Moduli (GPa) = 41.74182 245.30515 149.23160
#
# Poissons Ratio (x) = 0.64123 0.11687
# Poissons Ratio (y) = 0.10911 0.09965
# Poissons Ratio (z) = 0.03269 0.16380
#
# Static dielectric constant tensor:
#      x y z
#    x 2.057530 0.000000 -0.086590 
#    y 0.000000 2.131420 0.000000 
#    z -0.086590 0.000000 2.083130 
# 
# From -- ./inp_files/15639.got.cif
#   From: 2010.05.17/outbox.cif.g08.bks.cpg/sg11_8_cif.got.tgz:15639.got - 2010.06.03 12:22:45.
