data_PCOD9157444
_publ_section_title
;
Structure prediction by ZEFSAII (Michael W. Deem and Ramdas Pophale) SiO2 
 PCOD9157444
Probable space group: P 21/M
;
_chemical_formula_sum "Si O2"
_cell_formula_units_Z 32
_cell_length_a 17.871958
_cell_length_b 14.926374
_cell_length_c 12.515508
_cell_angle_alpha 90.000000
_cell_angle_beta 30.560388
_cell_angle_gamma 90.000000
_cell_volume 1697.539749
_symmetry_space_group_name_H-M "P 21/M"
_symmetry_group_IT_number 11
_symmetry_cell_setting 'monoclinic'
loop_
_space_group_symop_operation_xyz
x,y,z
-x,1/2+y,-z
-x,-y,-z
x,1/2-y,z
loop_
_atom_site_type_symbol
_atom_site_label
_atom_site_fract_x
_atom_site_fract_y
_atom_site_fract_z
Si Si1 0.541652 0.351473 0.387937
Si Si2 0.685737 0.571250 0.490903
Si Si3 0.196722 0.979195 0.865031
Si Si4 0.962875 0.646062 0.252073
Si Si5 0.116950 0.027741 0.446458
Si Si6 0.616279 0.450662 0.779072
Si Si7 0.352229 0.148552 0.034974
Si Si8 0.723242 0.851953 0.117108
O O1 0.600903 0.250000 0.308052
O O2 0.450179 0.378418 0.396030
O O3 0.662103 0.426217 0.263162
O O4 0.421333 0.353515 0.630580
O O5 0.765170 0.511981 0.301083
O O6 0.801837 0.640109 0.397721
O O7 0.634337 0.509016 0.650241
O O8 0.174363 0.069828 0.961846
O O9 0.067215 0.908538 0.042394
O O10 0.004605 0.750000 0.217439
O O11 0.956314 0.586879 0.368936
O O12 0.240554 0.088515 0.238717
O O13 0.220397 0.948773 0.369952
O O14 0.000000 0.000000 0.500000
O O15 0.500000 0.500000 0.000000
O O16 0.521979 0.364909 0.859897
O O17 0.309154 0.250000 0.106822
O O18 0.326686 0.128175 0.941624
O O19 0.783547 0.750000 0.048071
#
# Coordination Sequence:
#
# PCOD9157444 Si02
#       8
#     4   4   4   4   4   4   4   4
#     4  10  19  32  53  83 111 139 177 224 272 325
#     4  10  20  36  56  77 108 147 184 223 273 332
#     4  11  20  34  54  80 112 145 183 227 274 326
#     4  11  23  38  55  80 113 149 186 228 279 337
#     4  10  21  37  57  78 107 145 185 227 278 338
#     4   9  19  35  56  79 102 137 182 228 278 331
#     4  10  18  33  55  79 105 137 176 223 274 325
#     4   9  18  31  53  80 106 137 178 224 273 326
#
# _framework density 18.850809999999999
#
# number of rings (size 3 to 8) (size 9 to 14) (size 15 to 20)
#    0.000    2.000    0.000    5.250    0.000    1.500 
#    0.000    2.500    0.000    3.000    0.000    0.000 
#    0.000    0.000    0.000    0.000    0.000    0.000 
#
# Total GULP energy -178387.337002 kJ/mol
# GULP energy per Si atom -5574.604281 kJ/mol
# Density = 1.880790 g / cm^3
# Si number density = 18.850810 Si / 1000 Ang^3
#
#
#
# Elastic Constant Matrix: (Units=GPa)
#
#
# Indices 1 2 3 4 5 6 
#
# 1 75.1929 25.0381 28.4772 0.0000 16.8178 0.0000
# 2 25.0381 71.6696 28.3244 0.0000 6.0259 0.0000
# 3 28.4772 28.3244 42.6034 0.0000 1.2323 0.0000
# 4 0.0000 0.0000 0.0000 20.9119 0.0000 -2.8629
# 5 16.8178 6.0259 1.2323 0.0000 18.5413 0.0000
# 6 0.0000 0.0000 0.0000 -2.8629 0.0000 20.6432
#
#
#
# Elastic Compliance Matrix: (Units=1/GPa)
#
#
# Indices 1 2 3 4 5 6 
#
# 1 0.023649 -0.000739 -0.014731 0.000000 -0.020232 0.000000
# 2 -0.000739 0.019488 -0.012323 0.000000 -0.004844 0.000000
# 3 -0.014731 -0.012323 0.041088 0.000000 0.014636 0.000000
# 4 0.000000 0.000000 0.000000 0.048745 0.000000 0.006760
# 5 -0.020232 -0.004844 0.014636 0.000000 0.072886 0.000000
# 6 0.000000 0.000000 0.000000 0.006760 0.000000 0.049380
#
#
# Mechanical properties :
#
#
# Convention : Reuss Voigt Hill
#
# Bulk Modulus (GPa) = 34.91589 39.23838 37.07713
# Shear Modulus (GPa) = 15.60699 19.19436 17.40067
#
# Velocity S-wave (km/s) = 2.88048 3.19443 3.04151
# Velocity P-wave (km/s) = 5.44292 5.87079 5.66090
#
# Compressibility (1/GPa) = 0.02864026
#
# Stress axis : x y z
#
# Youngs Moduli (GPa) = 42.28448 51.31266 24.33792
#
# Poissons Ratio (x) = 0.03792 0.35853
# Poissons Ratio (y) = 0.03125 0.29990
# Poissons Ratio (z) = 0.62290 0.63230
#
# Static dielectric constant tensor:
#      x y z
#    x 1.692670 0.000000 -0.009230 
#    y 0.000000 1.753610 0.000000 
#    z -0.009230 0.000000 1.656980 
# 
# From -- ./inp_files/41676.got.cif
#   From: 2010.05.17/outbox.cif.g08.bks.cpg/sg11_21_cif.got.tgz:41676.got - 2010.06.03 12:22:45.
