data_PCOD9157994
_publ_section_title
;
Structure prediction by ZEFSAII (Michael W. Deem and Ramdas Pophale) SiO2 
 PCOD9157994
Probable space group: P 21/M
;
_chemical_formula_sum "Si O2"
_cell_formula_units_Z 32
_cell_length_a 15.556747
_cell_length_b 7.785445
_cell_length_c 15.742740
_cell_angle_alpha 90.000000
_cell_angle_beta 101.590008
_cell_angle_gamma 90.000000
_cell_volume 1867.823762
_symmetry_space_group_name_H-M "P 21/M"
_symmetry_group_IT_number 11
_symmetry_cell_setting 'monoclinic'
loop_
_space_group_symop_operation_xyz
x,y,z
-x,1/2+y,-z
-x,-y,-z
x,1/2-y,z
loop_
_atom_site_type_symbol
_atom_site_label
_atom_site_fract_x
_atom_site_fract_y
_atom_site_fract_z
Si Si1 0.757416 0.044193 0.243978
Si Si2 0.883383 0.545418 0.414968
Si Si3 0.198048 0.039158 0.071419
Si Si4 0.581184 0.455100 0.130193
Si Si5 0.911944 0.547454 0.790942
Si Si6 0.925833 0.952444 0.607172
Si Si7 0.892571 0.953551 0.121179
Si Si8 0.609948 0.958084 0.939516
O O1 0.755700 0.250000 0.240569
O O2 0.659674 0.977441 0.204434
O O3 0.798927 0.991196 0.341628
O O4 0.822834 0.985181 0.182176
O O5 0.897038 0.750000 0.420836
O O6 0.883011 0.478157 0.511780
O O7 0.969508 0.470584 0.385970
O O8 0.196823 0.250000 0.070539
O O9 0.148787 0.977301 0.145927
O O10 0.299373 0.984927 0.084550
O O11 0.147015 0.983610 0.976042
O O12 0.577208 0.250000 0.141839
O O13 0.481576 0.521255 0.119296
O O14 0.608250 0.488559 0.037891
O O15 0.891806 0.750000 0.781447
O O16 0.901416 0.472487 0.694024
O O17 0.013590 0.531754 0.837537
O O18 0.905404 0.750000 0.605901
O O19 0.906134 0.750000 0.116796
O O20 0.608959 0.750000 0.937858
#
# Coordination Sequence:
#
# PCOD9157994 Si02
#       8
#     4   4   4   4   4   4   4   4
#     4  11  20  30  44  66  92 121 151 183 224 269
#     4  10  19  30  46  66  88 115 149 186 227 272
#     4   9  18  30  46  66  90 120 153 184 218 260
#     4   9  18  29  45  66  89 116 148 184 225 267
#     4  10  19  32  47  64  89 122 152 182 221 264
#     4   9  18  31  46  65  89 116 147 186 227 267
#     4  11  20  30  43  65  92 122 156 185 213 255
#     4   9  16  30  47  65  89 116 147 185 223 263
#
# _framework density 17.132237
#
# number of rings (size 3 to 8) (size 9 to 14) (size 15 to 20)
#    0.000    2.250    2.500    1.500    0.000    1.000 
#    0.000    1.250    0.000    0.000    0.000    0.875 
#    0.000    0.000    0.000    0.000    0.000    0.000 
#
# Total GULP energy -178448.345320 kJ/mol
# GULP energy per Si atom -5576.510791 kJ/mol
# Density = 1.709324 g / cm^3
# Si number density = 17.132237 Si / 1000 Ang^3
#
#
#
# Elastic Constant Matrix: (Units=GPa)
#
#
# Indices 1 2 3 4 5 6 
#
# 1 100.5293 -4.6858 83.6213 0.0000 5.6268 0.0000
# 2 -4.6858 24.2612 2.8809 0.0000 -6.2843 0.0000
# 3 83.6213 2.8809 148.1974 0.0000 7.5410 0.0000
# 4 0.0000 0.0000 0.0000 11.7950 0.0000 1.5276
# 5 5.6268 -6.2843 7.5410 0.0000 27.5196 0.0000
# 6 0.0000 0.0000 0.0000 1.5276 0.0000 5.7851
#
#
#
# Elastic Compliance Matrix: (Units=1/GPa)
#
#
# Indices 1 2 3 4 5 6 
#
# 1 0.019344 0.005106 -0.011026 0.000000 0.000232 0.000000
# 2 0.005106 0.045437 -0.004299 0.000000 0.010510 0.000000
# 3 -0.011026 -0.004299 0.013172 0.000000 -0.002337 0.000000
# 4 0.000000 0.000000 0.000000 0.087783 0.000000 -0.023180
# 5 0.000232 0.010510 -0.002337 0.000000 0.039331 0.000000
# 6 0.000000 0.000000 0.000000 -0.023180 0.000000 0.178979
#
#
# Mechanical properties :
#
#
# Convention : Reuss Voigt Hill
#
# Bulk Modulus (GPa) = 17.38710 48.51341 32.95025
# Shear Modulus (GPa) = 11.80204 21.76472 16.78338
#
# Velocity S-wave (km/s) = 2.62750 3.56813 3.13331
# Velocity P-wave (km/s) = 4.40179 6.73453 5.68901
#
# Compressibility (1/GPa) = 0.05751391
#
# Stress axis : x y z
#
# Youngs Moduli (GPa) = 51.69609 22.00847 75.92048
#
# Poissons Ratio (x) = -0.11236 0.83709
# Poissons Ratio (y) = -0.26393 0.32637
# Poissons Ratio (z) = 0.57000 0.09461
#
# Static dielectric constant tensor:
#      x y z
#    x 1.575070 0.000000 0.015350 
#    y 0.000000 1.626860 0.000000 
#    z 0.015350 0.000000 1.626960 
# 
# From -- ./inp_files/51195.got.cif
#   From: 2010.05.17/outbox.cif.g08.bks.cpg/sg11_26_cif.got.tgz:51195.got - 2010.06.03 12:22:45.
