data_PCOD9157593
_publ_section_title
;
Structure prediction by ZEFSAII (Michael W. Deem and Ramdas Pophale) SiO2 
 PCOD9157593
Probable space group: P 21/M
;
_chemical_formula_sum "Si O2"
_cell_formula_units_Z 32
_cell_length_a 27.780902
_cell_length_b 12.913888
_cell_length_c 8.549854
_cell_angle_alpha 90.000000
_cell_angle_beta 149.167901
_cell_angle_gamma 90.000000
_cell_volume 1572.085875
_symmetry_space_group_name_H-M "P 21/M"
_symmetry_group_IT_number 11
_symmetry_cell_setting 'monoclinic'
loop_
_space_group_symop_operation_xyz
x,y,z
-x,1/2+y,-z
-x,-y,-z
x,1/2-y,z
loop_
_atom_site_type_symbol
_atom_site_label
_atom_site_fract_x
_atom_site_fract_y
_atom_site_fract_z
Si Si1 0.029441 0.944352 0.240388
Si Si2 0.112507 0.363043 0.643029
Si Si3 0.297022 0.550108 0.596727
Si Si4 0.685034 0.572464 0.895298
Si Si5 0.552222 0.569865 0.774735
Si Si6 0.844069 0.636687 0.869498
Si Si7 0.767715 0.363660 0.272358
Si Si8 0.579721 0.043815 0.339153
O O1 0.124166 0.880539 0.473964
O O2 0.052822 0.038316 0.424005
O O3 0.941420 0.878441 0.050714
O O4 0.000000 0.000000 0.000000
O O5 0.071624 0.250000 0.487450
O O6 0.215960 0.373310 0.856491
O O7 0.129945 0.367095 0.876026
O O8 0.226160 0.456038 0.364557
O O9 0.246509 0.624613 0.580064
O O10 0.340801 0.590015 0.555000
O O11 0.382784 0.501479 0.934648
O O12 0.623683 0.628362 0.858332
O O13 0.628440 0.548641 0.577103
O O14 0.712435 0.457881 0.036777
O O15 0.500000 0.500000 0.500000
O O16 0.474666 0.611780 0.680549
O O17 0.802555 0.750000 0.717962
O O18 0.734990 0.250000 0.132396
O O19 0.500000 0.000000 0.000000
#
# Coordination Sequence:
#
# PCOD9157593 Si02
#       8
#     4   4   4   4   4   4   4   4
#     4  11  22  40  59  85 117 151 193 239 284 342
#     4  10  22  38  61  88 119 155 191 235 288 348
#     4  10  18  34  57  83 112 152 191 237 283 337
#     4   9  17  34  57  82 117 151 192 232 283 344
#     4   8  16  30  54  83 109 152 190 225 285 341
#     4  11  22  38  59  87 123 154 189 238 289 344
#     4  10  21  37  56  78 110 153 194 236 285 335
#     4   9  16  30  59  84 112 151 191 229 290 347
#
# _framework density 20.355122999999999
#
# number of rings (size 3 to 8) (size 9 to 14) (size 15 to 20)
#    0.000    2.250    2.500    0.750    0.000    1.000 
#    0.000    0.625    0.000   52.500    0.000    0.000 
#    0.000    0.000    0.000    0.000    0.000    0.000 
#
# Total GULP energy -178229.364810 kJ/mol
# GULP energy per Si atom -5569.667650 kJ/mol
# Density = 2.030879 g / cm^3
# Si number density = 20.355123 Si / 1000 Ang^3
#
#
#
# Elastic Constant Matrix: (Units=GPa)
#
#
# Indices 1 2 3 4 5 6 
#
# 1 138.5995 14.4282 12.3407 0.0000 6.4981 0.0000
# 2 14.4282 84.3921 12.4047 0.0000 -4.9381 0.0000
# 3 12.3407 12.4047 58.3715 0.0000 -4.9847 0.0000
# 4 0.0000 0.0000 0.0000 3.0186 0.0000 -4.6971
# 5 6.4981 -4.9381 -4.9847 0.0000 29.2823 0.0000
# 6 0.0000 0.0000 0.0000 -4.6971 0.0000 -2.1141
#
#
#
# Elastic Compliance Matrix: (Units=1/GPa)
#
#
# Indices 1 2 3 4 5 6 
#
# 1 0.007576 -0.001196 -0.001531 0.000000 -0.002143 0.000000
# 2 -0.001196 0.012499 -0.002233 0.000000 0.001993 0.000000
# 3 -0.001531 -0.002233 0.018191 0.000000 0.003060 0.000000
# 4 0.000000 0.000000 0.000000 0.074324 0.000000 -0.165132
# 5 -0.002143 0.001993 0.003060 0.000000 0.035483 0.000000
# 6 0.000000 0.000000 0.000000 -0.165132 0.000000 -0.106123
#
#
# Mechanical properties :
#
#
# Convention : Reuss Voigt Hill
#
# Bulk Modulus (GPa) = 35.27708 39.96783 37.62245
# Shear Modulus (GPa) = 81.54172 22.18333 51.86252
#
# Velocity S-wave (km/s) = 6.33613 3.30482 5.05313
# Velocity P-wave (km/s) = 8.42004 5.85152 7.25043
#
# Compressibility (1/GPa) = 0.02834702
#
# Stress axis : x y z
#
# Youngs Moduli (GPa) = 131.99066 80.00800 54.97183
#
# Poissons Ratio (x) = 0.09567 0.08415
# Poissons Ratio (y) = 0.15782 0.12276
# Poissons Ratio (z) = 0.20204 0.17867
#
# Static dielectric constant tensor:
#      x y z
#    x 1.816830 0.000000 0.042170 
#    y 0.000000 1.642950 0.000000 
#    z 0.042170 0.000000 1.715120 
# 
# From -- ./inp_files/29273.got.cif
#   From: 2010.05.17/outbox.cif.g08.bks.cpg/sg11_15_cif.got.tgz:29273.got - 2010.06.03 12:22:45.
