data_PCOD9157610
_publ_section_title
;
Structure prediction by ZEFSAII (Michael W. Deem and Ramdas Pophale) SiO2 
 PCOD9157610
Probable space group: P 21/M
;
_chemical_formula_sum "Si O2"
_cell_formula_units_Z 30
_cell_length_a 11.112708
_cell_length_b 13.923063
_cell_length_c 15.690181
_cell_angle_alpha 90.000000
_cell_angle_beta 31.693713
_cell_angle_gamma 90.000000
_cell_volume 1275.424534
_symmetry_space_group_name_H-M "P 21/M"
_symmetry_group_IT_number 11
_symmetry_cell_setting 'monoclinic'
loop_
_space_group_symop_operation_xyz
x,y,z
-x,1/2+y,-z
-x,-y,-z
x,1/2-y,z
loop_
_atom_site_type_symbol
_atom_site_label
_atom_site_fract_x
_atom_site_fract_y
_atom_site_fract_z
Si Si1 0.530229 0.582107 0.855119
Si Si2 0.081740 0.139332 0.024163
Si Si3 0.730680 0.863793 0.276752
Si Si4 0.820568 0.083120 0.623666
Si Si5 0.090261 0.514263 0.165248
Si Si6 0.291531 0.547428 0.490979
Si Si7 0.562321 0.360795 0.277056
Si Si8 0.141282 0.250000 0.402831
O O1 0.634296 0.474862 0.789410
O O2 0.405028 0.607168 0.840149
O O3 0.722424 0.664688 0.735182
O O4 0.317685 0.575159 0.047325
O O5 0.148722 0.250000 0.001307
O O6 0.806068 0.138119 0.176380
O O7 0.140261 0.067336 0.064308
O O8 0.191823 0.110523 0.866872
O O9 0.748728 0.750000 0.275281
O O10 0.898922 0.917240 0.238912
O O11 0.469897 0.898631 0.444607
O O12 0.710775 0.104496 0.596944
O O13 0.984974 0.168874 0.547740
O O14 0.000000 0.000000 0.500000
O O15 0.962001 0.462793 0.320030
O O16 0.393099 0.440575 0.415709
O O17 0.469544 0.250000 0.329419
#
# Coordination Sequence:
#
# PCOD9157610 Si02
#       8
#     4   4   4   4   4   4   4   2
#     4  10  20  37  67  93 117 157 200 263 310 367
#     4  10  20  35  57  86 125 168 210 253 281 347
#     4  11  23  37  60  90 127 174 218 242 292 368
#     4   9  21  42  67  91 114 155 215 262 309 367
#     4  12  23  39  57  95 137 162 204 244 313 373
#     4  11  24  39  58  88 132 172 200 255 310 372
#     4  10  18  34  58  87 119 162 211 247 294 350
#     4  10  20  40  70  92 112 146 208 270 322 346
#
# _framework density 23.521578999999999
#
# number of rings (size 3 to 8) (size 9 to 14) (size 15 to 20)
#    0.000    1.600    3.333    2.400    1.867    1.067 
#    1.200    2.667    0.000    4.800    0.000    0.000 
#    0.000    0.000    0.000    0.000    0.000    0.000 
#
# Total GULP energy -167090.963236 kJ/mol
# GULP energy per Si atom -5569.698775 kJ/mol
# Density = 2.346804 g / cm^3
# Si number density = 23.521579 Si / 1000 Ang^3
#
#
#
# Elastic Constant Matrix: (Units=GPa)
#
#
# Indices 1 2 3 4 5 6 
#
# 1 42.4837 -1.1233 -0.0978 0.0000 3.4129 0.0000
# 2 -1.1233 88.1593 -2.0052 0.0000 13.1185 0.0000
# 3 -0.0978 -2.0052 75.5535 0.0000 -5.1470 0.0000
# 4 0.0000 0.0000 0.0000 30.3207 0.0000 -5.6310
# 5 3.4129 13.1185 -5.1470 0.0000 20.5091 0.0000
# 6 0.0000 0.0000 0.0000 -5.6310 0.0000 9.4704
#
#
#
# Elastic Compliance Matrix: (Units=1/GPa)
#
#
# Indices 1 2 3 4 5 6 
#
# 1 0.023941 0.000997 -0.000262 0.000000 -0.004687 0.000000
# 2 0.000997 0.012581 -0.000228 0.000000 -0.008271 0.000000
# 3 -0.000262 -0.000228 0.013473 0.000000 0.003571 0.000000
# 4 0.000000 0.000000 0.000000 0.037075 0.000000 0.022044
# 5 -0.004687 -0.008271 0.003571 0.000000 0.055725 0.000000
# 6 0.000000 0.000000 0.000000 0.022044 0.000000 0.118699
#
#
# Mechanical properties :
#
#
# Convention : Reuss Voigt Hill
#
# Bulk Modulus (GPa) = 19.60496 22.19375 20.89936
# Shear Modulus (GPa) = 18.01908 26.02155 22.02032
#
# Velocity S-wave (km/s) = 2.77079 3.32969 3.06302
# Velocity P-wave (km/s) = 4.31154 4.92326 4.62752
#
# Compressibility (1/GPa) = 0.05100751
#
# Stress axis : x y z
#
# Youngs Moduli (GPa) = 41.76979 79.48292 74.22524
#
# Poissons Ratio (x) = -0.07921 0.01944
# Poissons Ratio (y) = -0.04163 0.01694
# Poissons Ratio (z) = 0.01094 0.01814
#
# Static dielectric constant tensor:
#      x y z
#    x 2.220110 0.000000 -0.024610 
#    y 0.000000 1.853880 0.000000 
#    z -0.024610 0.000000 1.925600 
# 
# From -- ./inp_files/17989.got.cif
#   From: 2010.05.17/outbox.cif.g08.bks.cpg/sg11_9_cif.got.tgz:17989.got - 2010.06.03 12:22:45.
