data_PCOD9157830
_publ_section_title
;
Structure prediction by ZEFSAII (Michael W. Deem and Ramdas Pophale) SiO2 
 PCOD9157830
Probable space group: P 21/M
;
_chemical_formula_sum "Si O2"
_cell_formula_units_Z 32
_cell_length_a 33.508211
_cell_length_b 8.947362
_cell_length_c 22.281385
_cell_angle_alpha 90.000000
_cell_angle_beta 18.216085
_cell_angle_gamma 90.000000
_cell_volume 2088.236231
_symmetry_space_group_name_H-M "P 21/M"
_symmetry_group_IT_number 11
_symmetry_cell_setting 'monoclinic'
loop_
_space_group_symop_operation_xyz
x,y,z
-x,1/2+y,-z
-x,-y,-z
x,1/2-y,z
loop_
_atom_site_type_symbol
_atom_site_label
_atom_site_fract_x
_atom_site_fract_y
_atom_site_fract_z
Si Si1 0.686706 0.072273 0.465961
Si Si2 0.745963 0.427707 0.022838
Si Si3 0.586164 0.427344 0.130229
Si Si4 0.359771 0.428988 0.705591
Si Si5 0.955260 0.070482 0.126959
Si Si6 0.805784 0.070837 0.163941
Si Si7 0.192498 0.421647 0.255063
Si Si8 0.970921 0.578343 0.635622
O O1 0.662318 0.250000 0.503147
O O2 0.803944 0.038758 0.343748
O O3 0.737307 0.039519 0.326058
O O4 0.557626 0.985820 0.663861
O O5 0.743435 0.250000 0.037722
O O6 0.651297 0.459950 0.102009
O O7 0.700085 0.517435 0.146148
O O8 0.886064 0.480316 0.801747
O O9 0.590733 0.250000 0.115508
O O10 0.674467 0.504577 0.954009
O O11 0.500000 0.500000 0.500000
O O12 0.366984 0.250000 0.692257
O O13 0.274271 0.493810 0.773923
O O14 0.971422 0.250000 0.102836
O O15 0.000000 0.000000 0.000000
O O16 0.051304 0.996359 0.036891
O O17 0.810007 0.250000 0.150643
O O18 0.208816 0.250000 0.249825
O O19 0.108126 0.423032 0.314259
O O20 0.108700 0.510983 0.423070
O O21 0.020962 0.250000 0.355963
#
# Coordination Sequence:
#
# PCOD9157830 Si02
#       8
#     4   4   4   4   4   4   4   4
#     4   9  18  30  45  65  90 118 147 181 224 272
#     4  10  20  33  46  63  88 120 157 192 226 265
#     4  10  19  28  42  64  90 119 151 186 223 266
#     4  12  24  36  49  66  90 121 156 193 230 267
#     4   9  17  30  47  67  89 115 148 186 228 273
#     4  10  20  34  50  67  88 117 153 192 231 271
#     4   9  16  26  41  60  85 116 146 179 221 267
#     4   9  16  27  43  62  84 112 148 186 222 263
#
# _framework density 15.323937000000001
#
# number of rings (size 3 to 8) (size 9 to 14) (size 15 to 20)
#    0.000    2.250    0.000    4.875    0.000    9.500 
#    0.000    0.000    0.000    0.000    0.000    0.000 
#    0.000    1.000    0.000    3.750    0.000    5.750 
#
# Total GULP energy -178422.159438 kJ/mol
# GULP energy per Si atom -5575.692482 kJ/mol
# Density = 1.528906 g / cm^3
# Si number density = 15.323937 Si / 1000 Ang^3
#
#
#
# Elastic Constant Matrix: (Units=GPa)
#
#
# Indices 1 2 3 4 5 6 
#
# 1 52.0567 38.9248 45.2391 0.0000 -11.8412 0.0000
# 2 38.9248 94.0460 68.1968 0.0000 -10.0879 0.0000
# 3 45.2391 68.1968 125.5743 0.0000 -8.9466 0.0000
# 4 0.0000 0.0000 0.0000 32.7450 0.0000 0.4163
# 5 -11.8412 -10.0879 -8.9466 0.0000 20.3432 0.0000
# 6 0.0000 0.0000 0.0000 0.4163 0.0000 20.6514
#
#
#
# Elastic Compliance Matrix: (Units=1/GPa)
#
#
# Indices 1 2 3 4 5 6 
#
# 1 0.034047 -0.007388 -0.007332 0.000000 0.012930 0.000000
# 2 -0.007388 0.019582 -0.007833 0.000000 0.001965 0.000000
# 3 -0.007332 -0.007833 0.014740 0.000000 -0.001670 0.000000
# 4 0.000000 0.000000 0.000000 0.030547 0.000000 -0.000616
# 5 0.012930 0.001965 -0.001670 0.000000 0.056923 0.000000
# 6 0.000000 0.000000 0.000000 -0.000616 0.000000 0.048435
#
#
# Mechanical properties :
#
#
# Convention : Reuss Voigt Hill
#
# Bulk Modulus (GPa) = 42.98773 64.04427 53.51600
# Shear Modulus (GPa) = 19.44516 22.70236 21.07376
#
# Velocity S-wave (km/s) = 3.56608 3.85320 3.71242
# Velocity P-wave (km/s) = 6.71338 7.85369 7.30582
#
# Compressibility (1/GPa) = 0.02326245
#
# Stress axis : x y z
#
# Youngs Moduli (GPa) = 29.37101 51.06845 67.84356
#
# Poissons Ratio (x) = 0.37729 0.49745
# Poissons Ratio (y) = 0.21699 0.53140
# Poissons Ratio (z) = 0.21536 0.40001
#
# Static dielectric constant tensor:
#      x y z
#    x 1.517220 0.000000 -0.008560 
#    y 0.000000 1.505140 0.000000 
#    z -0.008560 0.000000 1.508850 
# 
# From -- ./inp_files/61750.got.cif
#   From: 2010.05.17/outbox.cif.g08.bks.cpg/sg11_31_cif.got.tgz:61750.got - 2010.06.03 12:22:45.
