data_PCOD9157100
_publ_section_title
;
Structure prediction by ZEFSAII (Michael W. Deem and Ramdas Pophale) SiO2 
 PCOD9157100
Probable space group: P 21/M
;
_chemical_formula_sum "Si O2"
_cell_formula_units_Z 32
_cell_length_a 12.686731
_cell_length_b 8.159205
_cell_length_c 20.822948
_cell_angle_alpha 90.000000
_cell_angle_beta 54.028321
_cell_angle_gamma 90.000000
_cell_volume 1744.429093
_symmetry_space_group_name_H-M "P 21/M"
_symmetry_group_IT_number 11
_symmetry_cell_setting 'monoclinic'
loop_
_space_group_symop_operation_xyz
x,y,z
-x,1/2+y,-z
-x,-y,-z
x,1/2-y,z
loop_
_atom_site_type_symbol
_atom_site_label
_atom_site_fract_x
_atom_site_fract_y
_atom_site_fract_z
Si Si1 0.356281 0.948078 0.029136
Si Si2 0.854668 0.552956 0.291348
Si Si3 0.678614 0.447818 0.736244
Si Si4 0.355999 0.054842 0.530803
Si Si5 0.611362 0.052152 0.124460
Si Si6 0.607076 0.446290 0.622898
Si Si7 0.147847 0.549097 0.209811
Si Si8 0.683242 0.054019 0.237790
O O1 0.353076 0.750000 0.030304
O O2 0.335904 0.005333 0.963084
O O3 0.247030 0.004644 0.118348
O O4 0.500000 0.000000 0.000000
O O5 0.858360 0.750000 0.295813
O O6 0.752953 0.489086 0.381243
O O7 0.795882 0.512387 0.242951
O O8 0.001079 0.492540 0.250139
O O9 0.681003 0.250000 0.734569
O O10 0.539300 0.500475 0.814809
O O11 0.679341 0.504436 0.661952
O O12 0.791975 0.503635 0.743411
O O13 0.353839 0.250000 0.535856
O O14 0.500000 0.000000 0.500000
O O15 0.334598 0.005604 0.464809
O O16 0.615763 0.250000 0.123271
O O17 0.682351 0.994424 0.164124
O O18 0.606012 0.250000 0.622928
O O19 0.457191 0.503807 0.682957
O O20 0.147430 0.750000 0.209583
O O21 0.690022 0.250000 0.235283
#
# Coordination Sequence:
#
# PCOD9157100 Si02
#       8
#     4   4   4   4   4   4   4   4
#     4  10  18  31  53  78 104 133 170 211 251 298
#     4  10  21  36  53  73 100 136 176 211 250 306
#     4   9  17  31  52  76 101 133 170 206 248 302
#     4  11  21  33  52  76 102 132 172 220 259 299
#     4   9  18  30  48  77 106 131 163 210 259 298
#     4  10  19  31  51  78 104 129 166 212 256 304
#     4   9  18  34  54  75 102 138 173 207 252 304
#     4  10  19  32  50  73 104 136 167 207 258 304
#
# _framework density 18.344110000000001
#
# number of rings (size 3 to 8) (size 9 to 14) (size 15 to 20)
#    0.000    2.250    2.500    1.125    0.000    1.500 
#    0.000    2.500    0.000    0.000    0.000    0.000 
#    0.000    0.000    0.000    0.000    0.000    0.000 
#
# Total GULP energy -178493.119663 kJ/mol
# GULP energy per Si atom -5577.909989 kJ/mol
# Density = 1.830236 g / cm^3
# Si number density = 18.344110 Si / 1000 Ang^3
#
#
#
# Elastic Constant Matrix: (Units=GPa)
#
#
# Indices 1 2 3 4 5 6 
#
# 1 180.3044 9.8857 96.3656 0.0000 10.5341 0.0000
# 2 9.8857 8.9249 12.0251 0.0000 0.1512 0.0000
# 3 96.3656 12.0251 122.1183 0.0000 10.4093 0.0000
# 4 0.0000 0.0000 0.0000 16.6623 0.0000 0.8800
# 5 10.5341 0.1512 10.4093 0.0000 30.2390 0.0000
# 6 0.0000 0.0000 0.0000 0.8800 0.0000 13.4992
#
#
#
# Elastic Compliance Matrix: (Units=1/GPa)
#
#
# Indices 1 2 3 4 5 6 
#
# 1 0.009611 -0.000580 -0.007461 0.000000 -0.000777 0.000000
# 2 -0.000580 0.129657 -0.012643 0.000000 0.003906 0.000000
# 3 -0.007461 -0.012643 0.015550 0.000000 -0.002691 0.000000
# 4 0.000000 0.000000 0.000000 0.060223 0.000000 -0.003926
# 5 -0.000777 0.003906 -0.002691 0.000000 0.034247 0.000000
# 6 0.000000 0.000000 0.000000 -0.003926 0.000000 0.074334
#
#
# Mechanical properties :
#
#
# Convention : Reuss Voigt Hill
#
# Bulk Modulus (GPa) = 8.81436 60.87782 34.84609
# Shear Modulus (GPa) = 12.41291 24.95153 18.68222
#
# Velocity S-wave (km/s) = 2.60411 3.69208 3.19475
# Velocity P-wave (km/s) = 3.72254 7.17174 5.71363
#
# Compressibility (1/GPa) = 0.11345127
#
# Stress axis : x y z
#
# Youngs Moduli (GPa) = 104.04917 7.71267 64.30666
#
# Poissons Ratio (x) = 0.00447 0.47978
# Poissons Ratio (y) = 0.06034 0.81301
# Poissons Ratio (z) = 0.77628 0.09751
#
# Static dielectric constant tensor:
#      x y z
#    x 1.631500 0.000000 0.036220 
#    y 0.000000 1.644100 0.000000 
#    z 0.036220 0.000000 1.632560 
# 
# From -- ./inp_files/42558.got.cif
#   From: 2010.05.17/outbox.cif.g08.bks.cpg/sg11_22_cif.got.tgz:42558.got - 2010.06.03 12:22:45.
