data_PCOD9157399
_publ_section_title
;
Structure prediction by ZEFSAII (Michael W. Deem and Ramdas Pophale) SiO2 
 PCOD9157399
Probable space group: P 21/M
;
_chemical_formula_sum "Si O2"
_cell_formula_units_Z 32
_cell_length_a 15.525156
_cell_length_b 8.612755
_cell_length_c 31.954096
_cell_angle_alpha 90.000000
_cell_angle_beta 151.515469
_cell_angle_gamma 90.000000
_cell_volume 2037.752716
_symmetry_space_group_name_H-M "P 21/M"
_symmetry_group_IT_number 11
_symmetry_cell_setting 'monoclinic'
loop_
_space_group_symop_operation_xyz
x,y,z
-x,1/2+y,-z
-x,-y,-z
x,1/2-y,z
loop_
_atom_site_type_symbol
_atom_site_label
_atom_site_fract_x
_atom_site_fract_y
_atom_site_fract_z
Si Si1 0.259563 0.936704 0.432794
Si Si2 0.968555 0.563171 0.921142
Si Si3 0.345453 0.435702 0.615153
Si Si4 0.047068 0.563041 0.423661
Si Si5 0.676844 0.063041 0.300248
Si Si6 0.720746 0.563296 0.893978
Si Si7 0.275854 0.438449 0.258619
Si Si8 0.673690 0.936829 0.626272
O O1 0.259521 0.750000 0.431427
O O2 0.121239 0.985852 0.409729
O O3 0.462834 0.986304 0.532881
O O4 0.228120 0.999147 0.372814
O O5 0.976283 0.750000 0.925113
O O6 0.827021 0.513696 0.897071
O O7 0.885362 0.514560 0.841285
O O8 0.162194 0.499146 0.017504
O O9 0.340865 0.250000 0.613627
O O10 0.187268 0.499843 0.517940
O O11 0.320734 0.499862 0.651398
O O12 0.536684 0.494830 0.678893
O O13 0.047887 0.750000 0.425913
O O14 0.849603 0.500009 0.349603
O O15 0.681974 0.250000 0.303933
O O16 0.486708 0.014147 0.198214
O O17 0.724760 0.750000 0.896668
O O18 0.290287 0.250000 0.263430
O O19 0.253125 0.485440 0.297207
O O20 0.677232 0.750000 0.626058
#
# Coordination Sequence:
#
# PCOD9157399 Si02
#       8
#     4   4   4   4   4   4   4   4
#     4   9  18  32  49  69  96 128 159 199 244 285
#     4   9  17  30  50  71  96 127 160 197 241 292
#     4  12  23  33  48  72  99 133 171 205 236 283
#     4  11  22  37  52  69  97 133 169 205 243 286
#     4  11  22  37  52  69  97 133 169 205 243 286
#     4   9  18  32  49  69  96 128 159 199 244 285
#     4  10  18  33  51  72 101 135 163 197 247 289
#     4   9  17  30  50  71  96 127 160 197 241 292
#
# _framework density 15.703574
#
# number of rings (size 3 to 8) (size 9 to 14) (size 15 to 20)
#    0.000    2.000    2.500    2.250    0.000    3.000 
#    0.000    0.000    0.000    0.000    0.000    0.875 
#    0.000    0.000    0.000    0.000    0.000    0.000 
#
# Total GULP energy -178538.118206 kJ/mol
# GULP energy per Si atom -5579.316194 kJ/mol
# Density = 1.566783 g / cm^3
# Si number density = 15.703574 Si / 1000 Ang^3
#
#
#
# Elastic Constant Matrix: (Units=GPa)
#
#
# Indices 1 2 3 4 5 6 
#
# 1 123.9157 31.5993 95.6580 0.0000 -8.5262 0.0000
# 2 31.5993 32.7241 32.6422 0.0000 -1.8525 0.0000
# 3 95.6580 32.6422 135.3480 0.0000 -12.0030 0.0000
# 4 0.0000 0.0000 0.0000 24.8447 0.0000 0.3713
# 5 -8.5262 -1.8525 -12.0030 0.0000 22.7920 0.0000
# 6 0.0000 0.0000 0.0000 0.3713 0.0000 25.0497
#
#
#
# Elastic Compliance Matrix: (Units=1/GPa)
#
#
# Indices 1 2 3 4 5 6 
#
# 1 0.018736 -0.006445 -0.011657 0.000000 0.000346 0.000000
# 2 -0.006445 0.042537 -0.005886 0.000000 -0.002053 0.000000
# 3 -0.011657 -0.005886 0.017431 0.000000 0.004341 0.000000
# 4 0.000000 0.000000 0.000000 0.040259 0.000000 -0.000597
# 5 0.000346 -0.002053 0.004341 0.000000 0.046124 0.000000
# 6 0.000000 0.000000 0.000000 -0.000597 0.000000 0.039930
#
#
# Mechanical properties :
#
#
# Convention : Reuss Voigt Hill
#
# Bulk Modulus (GPa) = 32.54237 67.97633 50.25935
# Shear Modulus (GPa) = 18.99456 23.34315 21.16886
#
# Velocity S-wave (km/s) = 3.48166 3.85968 3.67553
# Velocity P-wave (km/s) = 6.07705 7.95261 7.07723
#
# Compressibility (1/GPa) = 0.03072917
#
# Stress axis : x y z
#
# Youngs Moduli (GPa) = 53.37420 23.50910 57.36845
#
# Poissons Ratio (x) = 0.15151 0.66872
# Poissons Ratio (y) = 0.34398 0.33767
# Poissons Ratio (z) = 0.62216 0.13837
#
# Static dielectric constant tensor:
#      x y z
#    x 1.511050 0.000000 -0.011610 
#    y 0.000000 1.533570 0.000000 
#    z -0.011610 0.000000 1.517470 
# 
# From -- ./inp_files/51370.got.cif
#   From: 2010.05.17/outbox.cif.g08.bks.cpg/sg11_26_cif.got.tgz:51370.got - 2010.06.03 12:22:45.
