data_PCOD9157097
_publ_section_title
;
Structure prediction by ZEFSAII (Michael W. Deem and Ramdas Pophale) SiO2 
 PCOD9157097
Probable space group: P 21/M
;
_chemical_formula_sum "Si O2"
_cell_formula_units_Z 32
_cell_length_a 20.424061
_cell_length_b 8.064039
_cell_length_c 14.869728
_cell_angle_alpha 90.000000
_cell_angle_beta 46.007005
_cell_angle_gamma 90.000000
_cell_volume 1761.907490
_symmetry_space_group_name_H-M "P 21/M"
_symmetry_group_IT_number 11
_symmetry_cell_setting 'monoclinic'
loop_
_space_group_symop_operation_xyz
x,y,z
-x,1/2+y,-z
-x,-y,-z
x,1/2-y,z
loop_
_atom_site_type_symbol
_atom_site_label
_atom_site_fract_x
_atom_site_fract_y
_atom_site_fract_z
Si Si1 0.724991 0.953708 0.636432
Si Si2 0.478153 0.049642 0.122994
Si Si3 0.663963 0.450204 0.026552
Si Si4 0.897405 0.446229 0.120472
Si Si5 0.190607 0.548497 0.974724
Si Si6 0.187591 0.449792 0.263102
Si Si7 0.958276 0.948071 0.735200
Si Si8 0.854389 0.944712 0.362332
O O1 0.725159 0.750000 0.636426
O O2 0.621645 0.008609 0.752144
O O3 0.787565 0.007604 0.660970
O O4 0.770038 0.011749 0.500791
O O5 0.476568 0.250000 0.127922
O O6 0.562090 0.989954 0.104402
O O7 0.500000 0.000000 0.000000
O O8 0.661500 0.250000 0.030409
O O9 0.715666 0.506756 0.067505
O O10 0.729328 0.501936 0.881868
O O11 0.896202 0.250000 0.113906
O O12 0.831171 0.511846 0.104834
O O13 0.869871 0.488074 0.247915
O O14 0.000000 0.500000 0.000000
O O15 0.190059 0.750000 0.976344
O O16 0.109523 0.489665 0.117572
O O17 0.183119 0.250000 0.269052
O O18 0.094893 0.508705 0.303371
O O19 0.969328 0.750000 0.719885
O O20 0.054921 0.026081 0.665319
O O21 0.841136 0.750000 0.364517
#
# Coordination Sequence:
#
# PCOD9157097 Si02
#       8
#     4   4   4   4   4   4   4   4
#     4   9  19  34  50  70 101 139 172 202 249 300
#     4  10  18  31  53  77 101 130 167 207 246 294
#     4   9  17  29  49  78 102 124 160 204 248 296
#     4  11  21  34  54  76  99 129 165 209 256 301
#     4   9  18  32  50  73 101 128 157 199 255 305
#     4   9  17  31  49  70 100 135 167 201 244 297
#     4  10  19  30  48  73 100 131 168 207 246 292
#     4  11  22  35  50  69  99 139 174 208 247 295
#
# _framework density 18.162133000000001
#
# number of rings (size 3 to 8) (size 9 to 14) (size 15 to 20)
#    0.000    2.250    2.500    1.125    0.000    1.500 
#    0.000    2.500    0.000    0.750    0.000    0.000 
#    0.000    0.000    0.000    0.000    0.000    0.250 
#
# Total GULP energy -178472.714018 kJ/mol
# GULP energy per Si atom -5577.272313 kJ/mol
# Density = 1.812080 g / cm^3
# Si number density = 18.162133 Si / 1000 Ang^3
#
#
#
# Elastic Constant Matrix: (Units=GPa)
#
#
# Indices 1 2 3 4 5 6 
#
# 1 133.7329 8.1924 73.7309 0.0000 8.7395 0.0000
# 2 8.1924 10.8607 2.8374 0.0000 4.6464 0.0000
# 3 73.7309 2.8374 117.6237 0.0000 7.6120 0.0000
# 4 0.0000 0.0000 0.0000 15.9892 0.0000 1.9372
# 5 8.7395 4.6464 7.6120 0.0000 21.3985 0.0000
# 6 0.0000 0.0000 0.0000 1.9372 0.0000 14.6419
#
#
#
# Elastic Compliance Matrix: (Units=1/GPa)
#
#
# Indices 1 2 3 4 5 6 
#
# 1 0.011960 -0.006766 -0.007280 0.000000 -0.000826 0.000000
# 2 -0.006766 0.105459 0.003071 0.000000 -0.021228 0.000000
# 3 -0.007280 0.003071 0.013144 0.000000 -0.002369 0.000000
# 4 0.000000 0.000000 0.000000 0.063561 0.000000 -0.008410
# 5 -0.000826 -0.021228 -0.002369 0.000000 0.052522 0.000000
# 6 0.000000 0.000000 0.000000 -0.008410 0.000000 0.069410
#
#
# Mechanical properties :
#
#
# Convention : Reuss Voigt Hill
#
# Bulk Modulus (GPa) = 9.20707 47.97099 28.58903
# Shear Modulus (GPa) = 13.36147 22.23636 17.79892
#
# Velocity S-wave (km/s) = 2.71528 3.50283 3.13389
# Velocity P-wave (km/s) = 3.86144 6.54444 5.37310
#
# Compressibility (1/GPa) = 0.10861218
#
# Stress axis : x y z
#
# Youngs Moduli (GPa) = 83.61314 9.48239 76.07779
#
# Poissons Ratio (x) = 0.06416 0.55386
# Poissons Ratio (y) = 0.56575 -0.23365
# Poissons Ratio (z) = 0.60872 -0.02912
#
# Static dielectric constant tensor:
#      x y z
#    x 1.668800 0.000000 0.011200 
#    y 0.000000 1.637670 0.000000 
#    z 0.011200 0.000000 1.578490 
# 
# From -- ./inp_files/54226.got.cif
#   From: 2010.05.17/outbox.cif.g08.bks.cpg/sg11_28_cif.got.tgz:54226.got - 2010.06.03 12:22:45.
