data_PCOD9157055
_publ_section_title
;
Structure prediction by ZEFSAII (Michael W. Deem and Ramdas Pophale) SiO2 
 PCOD9157055
Probable space group: P 21/M
;
_chemical_formula_sum "Si O2"
_cell_formula_units_Z 32
_cell_length_a 11.398863
_cell_length_b 19.552238
_cell_length_c 10.204278
_cell_angle_alpha 90.000000
_cell_angle_beta 120.850093
_cell_angle_gamma 90.000000
_cell_volume 1952.480064
_symmetry_space_group_name_H-M "P 21/M"
_symmetry_group_IT_number 11
_symmetry_cell_setting 'monoclinic'
loop_
_space_group_symop_operation_xyz
x,y,z
-x,1/2+y,-z
-x,-y,-z
x,1/2-y,z
loop_
_atom_site_type_symbol
_atom_site_label
_atom_site_fract_x
_atom_site_fract_y
_atom_site_fract_z
Si Si1 0.478679 0.670691 0.793158
Si Si2 0.452709 0.174250 0.465797
Si Si3 0.881475 0.556033 0.298251
Si Si4 0.800949 0.829821 0.044985
Si Si5 0.424205 0.461628 0.572208
Si Si6 0.129039 0.172493 0.209542
Si Si7 0.102305 0.444259 0.389508
Si Si8 0.397399 0.527354 0.831946
O O1 0.438818 0.750000 0.796131
O O2 0.475869 0.660303 0.633501
O O3 0.397953 0.609486 0.816874
O O4 0.637624 0.663338 0.927525
O O5 0.491661 0.250000 0.532060
O O6 0.472490 0.116649 0.585490
O O7 0.290623 0.174516 0.339619
O O8 0.848928 0.618864 0.184607
O O9 0.907853 0.578554 0.463888
O O10 0.750798 0.505413 0.228655
O O11 0.008447 0.510801 0.322941
O O12 0.826610 0.750000 0.091357
O O13 0.872321 0.844651 0.945660
O O14 0.500000 0.500000 0.500000
O O15 0.260937 0.462818 0.457616
O O16 0.451093 0.496740 0.725350
O O17 0.076638 0.250000 0.198029
O O18 0.064711 0.115686 0.266701
O O19 0.500000 0.500000 0.000000
#
# Coordination Sequence:
#
# PCOD9157055 Si02
#       8
#     4   4   4   4   4   4   4   4
#     4   9  16  29  48  72 100 127 162 205 249 298
#     4   8  14  27  48  72  96 122 161 210 251 288
#     4  10  20  34  48  71 107 136 165 200 244 306
#     4   9  17  30  51  75  97 126 165 209 250 292
#     4  10  18  31  52  74  97 129 168 215 250 291
#     4   8  15  29  49  72  95 123 165 208 245 289
#     4   9  20  33  48  72 103 133 164 203 247 293
#     4  11  20  31  49  75 103 132 165 204 250 299
#
# _framework density 16.389410999999999
#
# number of rings (size 3 to 8) (size 9 to 14) (size 15 to 20)
#    0.000    2.750    2.500    1.500    0.000    1.000 
#    0.000    3.125    0.000    5.250    0.000    0.000 
#    0.000    0.000    0.000    0.000    0.000    0.000 
#
# Total GULP energy -178182.482582 kJ/mol
# GULP energy per Si atom -5568.202581 kJ/mol
# Density = 1.635211 g / cm^3
# Si number density = 16.389411 Si / 1000 Ang^3
#
#
#
# Elastic Constant Matrix: (Units=GPa)
#
#
# Indices 1 2 3 4 5 6 
#
# 1 50.3459 44.1749 25.4520 0.0000 -18.0014 0.0000
# 2 44.1749 134.5793 60.4602 0.0000 -23.4996 0.0000
# 3 25.4520 60.4602 69.9698 0.0000 -14.3843 0.0000
# 4 0.0000 0.0000 0.0000 31.8366 0.0000 -5.6098
# 5 -18.0014 -23.4996 -14.3843 0.0000 11.8823 0.0000
# 6 0.0000 0.0000 0.0000 -5.6098 0.0000 24.6159
#
#
#
# Elastic Compliance Matrix: (Units=1/GPa)
#
#
# Indices 1 2 3 4 5 6 
#
# 1 0.044979 -0.004159 -0.000599 0.000000 0.059191 0.000000
# 2 -0.004159 0.014961 -0.008823 0.000000 0.012606 0.000000
# 3 -0.000599 -0.008823 0.024443 0.000000 0.011233 0.000000
# 4 0.000000 0.000000 0.000000 0.032724 0.000000 0.007458
# 5 0.059191 0.012606 0.011233 0.000000 0.212362 0.000000
# 6 0.000000 0.000000 0.000000 0.007458 0.000000 0.042324
#
#
# Mechanical properties :
#
#
# Convention : Reuss Voigt Hill
#
# Bulk Modulus (GPa) = 17.47632 57.22992 37.35312
# Shear Modulus (GPa) = 11.96090 21.98747 16.97418
#
# Velocity S-wave (km/s) = 2.70440 3.66671 3.22169
# Velocity P-wave (km/s) = 4.52085 7.27468 6.05636
#
# Compressibility (1/GPa) = 0.05722030
#
# Stress axis : x y z
#
# Youngs Moduli (GPa) = 22.23256 66.84154 40.91169
#
# Poissons Ratio (x) = 0.27802 0.02450
# Poissons Ratio (y) = 0.09247 0.36096
# Poissons Ratio (z) = 0.01332 0.58974
#
# Static dielectric constant tensor:
#      x y z
#    x 1.546610 0.000000 -0.006490 
#    y 0.000000 1.574490 0.000000 
#    z -0.006490 0.000000 1.537670 
# 
# From -- ./inp_files/19192.got.cif
#   From: 2010.05.17/outbox.cif.g08.bks.cpg/sg11_10_cif.got.tgz:19192.got - 2010.06.03 12:22:45.
