data_PCOD9157647
_publ_section_title
;
Structure prediction by ZEFSAII (Michael W. Deem and Ramdas Pophale) SiO2 
 PCOD9157647
Probable space group: P 21/M
;
_chemical_formula_sum "Si O2"
_cell_formula_units_Z 26
_cell_length_a 7.031062
_cell_length_b 19.916607
_cell_length_c 9.435682
_cell_angle_alpha 90.000000
_cell_angle_beta 53.213719
_cell_angle_gamma 90.000000
_cell_volume 1058.215685
_symmetry_space_group_name_H-M "P 21/M"
_symmetry_group_IT_number 11
_symmetry_cell_setting 'monoclinic'
loop_
_space_group_symop_operation_xyz
x,y,z
-x,1/2+y,-z
-x,-y,-z
x,1/2-y,z
loop_
_atom_site_type_symbol
_atom_site_label
_atom_site_fract_x
_atom_site_fract_y
_atom_site_fract_z
Si Si1 0.368370 0.387858 0.886232
Si Si2 0.736955 0.518320 0.488488
Si Si3 0.669453 0.033115 0.153391
Si Si4 0.294491 0.750000 0.009162
Si Si5 0.060378 0.890067 0.721993
Si Si6 0.688529 0.750000 0.086654
Si Si7 0.789024 0.250000 0.273393
Si Si8 0.141929 0.608168 0.192713
O O1 0.276929 0.454473 0.853453
O O2 0.338998 0.318614 0.817565
O O3 0.647482 0.391566 0.787011
O O4 0.211989 0.381512 0.101805
O O5 0.500000 0.500000 0.500000
O O6 0.609400 0.538806 0.690988
O O7 0.889764 0.449611 0.412113
O O8 0.896841 0.579499 0.361920
O O9 0.810473 0.080265 0.196279
O O10 0.753591 0.053796 0.962829
O O11 0.362678 0.750000 0.808813
O O12 0.511232 0.750000 0.028496
O O13 0.154394 0.681272 0.111591
O O14 0.195148 0.818653 0.641881
O O15 0.953397 0.750000 0.913619
#
# Coordination Sequence:
#
# PCOD9157647 Si02
#       8
#     4   4   4   2   4   2   2   4
#     4  10  20  36  62  88 121 161 200 258 306 362
#     4  10  24  37  56  91 121 154 200 250 296 360
#     4  11  21  36  63  86 120 162 198 248 309 361
#     4  10  20  38  65  88 119 165 204 252 309 367
#     4  10  20  37  57  88 121 150 210 248 301 368
#     4   8  20  34  55  93 124 149 211 258 297 371
#     4  10  18  34  62  87 115 166 199 250 312 372
#     4  11  22  41  61  91 122 158 207 253 308 364
#
# _framework density 24.569662999999998
#
# number of rings (size 3 to 8) (size 9 to 14) (size 15 to 20)
#    0.000    1.846    3.077    0.923    2.154    0.615 
#    0.000    4.615    0.000    0.000    0.000    0.000 
#    0.000    0.000    0.000    0.000    0.000    0.000 
#
# Total GULP energy -145054.841932 kJ/mol
# GULP energy per Si atom -5579.032382 kJ/mol
# Density = 2.451374 g / cm^3
# Si number density = 24.569663 Si / 1000 Ang^3
#
#
#
# Elastic Constant Matrix: (Units=GPa)
#
#
# Indices 1 2 3 4 5 6 
#
# 1 70.7724 2.2561 -7.2194 0.0000 -23.2985 0.0000
# 2 2.2561 177.6458 22.6394 0.0000 -12.7993 0.0000
# 3 -7.2194 22.6394 116.2752 0.0000 -22.5383 0.0000
# 4 0.0000 0.0000 0.0000 10.0704 0.0000 -11.7653
# 5 -23.2985 -12.7993 -22.5383 0.0000 29.1081 0.0000
# 6 0.0000 0.0000 0.0000 -11.7653 0.0000 15.4586
#
#
#
# Elastic Compliance Matrix: (Units=1/GPa)
#
#
# Indices 1 2 3 4 5 6 
#
# 1 0.021961 0.000610 0.005535 0.000000 0.022131 0.000000
# 2 0.000610 0.005886 -0.000602 0.000000 0.002611 0.000000
# 3 0.005535 -0.000602 0.011611 0.000000 0.013156 0.000000
# 4 0.000000 0.000000 0.000000 0.896019 0.000000 0.681947
# 5 0.022131 0.002611 0.013156 0.000000 0.063403 0.000000
# 6 0.000000 0.000000 0.000000 0.681947 0.000000 0.583708
#
#
# Mechanical properties :
#
#
# Convention : Reuss Voigt Hill
#
# Bulk Modulus (GPa) = 19.78495 44.44951 32.11723
# Shear Modulus (GPa) = 3.14792 34.06191 18.60491
#
# Velocity S-wave (km/s) = 1.13314 3.72740 2.75477
# Velocity P-wave (km/s) = 3.12763 6.05435 4.81857
#
# Compressibility (1/GPa) = 0.05054347
#
# Stress axis : x y z
#
# Youngs Moduli (GPa) = 45.53606 169.88718 86.12364
#
# Poissons Ratio (x) = -0.10369 -0.47665
# Poissons Ratio (y) = -0.02779 0.05186
# Poissons Ratio (z) = -0.25202 0.10230
#
# Static dielectric constant tensor:
#      x y z
#    x 2.059900 0.000000 0.050160 
#    y 0.000000 2.024190 0.000000 
#    z 0.050160 0.000000 1.995580 
# 
# From -- ./inp_files/32784.got.cif
#   From: 2010.05.17/outbox.cif.g08.bks.cpg/sg11_17_cif.got.tgz:32784.got - 2010.06.03 12:22:45.
