data_PCOD9157484
_publ_section_title
;
Structure prediction by ZEFSAII (Michael W. Deem and Ramdas Pophale) SiO2 
 PCOD9157484
Probable space group: P 21/M
;
_chemical_formula_sum "Si O2"
_cell_formula_units_Z 28
_cell_length_a 27.520524
_cell_length_b 8.670405
_cell_length_c 9.916519
_cell_angle_alpha 90.000000
_cell_angle_beta 38.230759
_cell_angle_gamma 90.000000
_cell_volume 1464.289082
_symmetry_space_group_name_H-M "P 21/M"
_symmetry_group_IT_number 11
_symmetry_cell_setting 'monoclinic'
loop_
_space_group_symop_operation_xyz
x,y,z
-x,1/2+y,-z
-x,-y,-z
x,1/2-y,z
loop_
_atom_site_type_symbol
_atom_site_label
_atom_site_fract_x
_atom_site_fract_y
_atom_site_fract_z
Si Si1 0.811334 0.935226 0.600276
Si Si2 0.523261 0.434504 0.096569
Si Si3 0.069096 0.064049 0.255849
Si Si4 0.017818 0.566161 0.815520
Si Si5 0.239802 0.436123 0.993239
Si Si6 0.681072 0.564670 0.676169
Si Si7 0.365007 0.933571 0.515869
O O1 0.822075 0.750000 0.576687
O O2 0.764253 0.974035 0.839381
O O3 0.761788 0.976585 0.575309
O O4 0.896447 0.011096 0.417530
O O5 0.525394 0.250000 0.090075
O O6 0.451952 0.494094 0.343296
O O7 0.500000 0.500000 0.000000
O O8 0.609918 0.503075 0.924951
O O9 0.066930 0.250000 0.268570
O O10 0.155282 0.016525 0.115818
O O11 0.047008 0.016309 0.152530
O O12 0.000000 0.000000 0.500000
O O13 0.016699 0.750000 0.823802
O O14 0.000000 0.500000 0.000000
O O15 0.247239 0.250000 0.963432
O O16 0.308308 0.515125 0.759599
O O17 0.675601 0.750000 0.677971
O O18 0.670102 0.495755 0.550421
O O19 0.371664 0.750000 0.492376
#
# Coordination Sequence:
#
# PCOD9157484 Si02
#       7
#     4   4   4   4   4   4   4
#     4  10  22  40  61  83 113 152 188 231 289 339
#     4  10  18  33  57  84 114 149 186 229 281 332
#     4  10  21  38  61  83 110 148 191 233 281 335
#     4  11  24  39  58  86 116 150 190 236 284 335
#     4  10  21  39  59  82 113 150 189 234 283 335
#     4  10  20  36  59  86 115 148 187 232 283 338
#     4  11  22  36  57  87 116 148 190 233 278 331
#
# _framework density 19.121905999999999
#
# number of rings (size 3 to 8) (size 9 to 14) (size 15 to 20)
#    0.000    1.714    1.429    5.143    2.000    2.857 
#    0.000    0.714    0.000    0.000    0.000    0.000 
#    0.000    0.000    0.000    0.000    0.000    0.000 
#
# Total GULP energy -156357.957327 kJ/mol
# GULP energy per Si atom -5584.212762 kJ/mol
# Density = 1.907838 g / cm^3
# Si number density = 19.121906 Si / 1000 Ang^3
#
#
#
# Elastic Constant Matrix: (Units=GPa)
#
#
# Indices 1 2 3 4 5 6 
#
# 1 29.6102 6.0459 -15.0479 0.0000 10.5711 0.0000
# 2 6.0459 55.9041 14.0845 0.0000 2.6693 0.0000
# 3 -15.0479 14.0845 81.1952 0.0000 7.8273 0.0000
# 4 0.0000 0.0000 0.0000 38.0590 0.0000 -4.0538
# 5 10.5711 2.6693 7.8273 0.0000 27.8243 0.0000
# 6 0.0000 0.0000 0.0000 -4.0538 0.0000 18.4766
#
#
#
# Elastic Compliance Matrix: (Units=1/GPa)
#
#
# Indices 1 2 3 4 5 6 
#
# 1 0.049354 -0.007462 0.012519 0.000000 -0.021557 0.000000
# 2 -0.007462 0.019856 -0.005054 0.000000 0.002352 0.000000
# 3 0.012519 -0.005054 0.016369 0.000000 -0.008876 0.000000
# 4 0.000000 0.000000 0.000000 0.026904 0.000000 0.005903
# 5 -0.021557 0.002352 -0.008876 0.000000 0.046401 0.000000
# 6 0.000000 0.000000 0.000000 0.005903 0.000000 0.055417
#
#
# Mechanical properties :
#
#
# Convention : Reuss Voigt Hill
#
# Bulk Modulus (GPa) = 11.68437 19.65271 15.66854
# Shear Modulus (GPa) = 20.59115 27.64713 24.11914
#
# Velocity S-wave (km/s) = 3.28508 3.80654 3.55538
# Velocity P-wave (km/s) = 4.52910 5.44239 5.00661
#
# Compressibility (1/GPa) = 0.08558441
#
# Stress axis : x y z
#
# Youngs Moduli (GPa) = 20.26177 50.36309 61.09271
#
# Poissons Ratio (x) = 0.37583 -0.76484
# Poissons Ratio (y) = 0.15120 0.30876
# Poissons Ratio (z) = -0.25366 0.25454
#
# Static dielectric constant tensor:
#      x y z
#    x 1.742730 0.000000 0.027880 
#    y 0.000000 1.642910 0.000000 
#    z 0.027880 0.000000 1.681940 
# 
# From -- ./inp_files/29016.got.cif
#   From: 2010.05.17/outbox.cif.g08.bks.cpg/sg11_15_cif.got.tgz:29016.got - 2010.06.03 12:22:45.
