data_PCOD9157643
_publ_section_title
;
Structure prediction by ZEFSAII (Michael W. Deem and Ramdas Pophale) SiO2 
 PCOD9157643
Probable space group: P 21/M
;
_chemical_formula_sum "Si O2"
_cell_formula_units_Z 28
_cell_length_a 13.812330
_cell_length_b 16.370768
_cell_length_c 8.810438
_cell_angle_alpha 90.000000
_cell_angle_beta 135.620809
_cell_angle_gamma 90.000000
_cell_volume 1393.354074
_symmetry_space_group_name_H-M "P 21/M"
_symmetry_group_IT_number 11
_symmetry_cell_setting 'monoclinic'
loop_
_space_group_symop_operation_xyz
x,y,z
-x,1/2+y,-z
-x,-y,-z
x,1/2-y,z
loop_
_atom_site_type_symbol
_atom_site_label
_atom_site_fract_x
_atom_site_fract_y
_atom_site_fract_z
Si Si1 0.181802 0.588771 0.773283
Si Si2 0.312743 0.161259 0.891076
Si Si3 0.510654 0.348388 0.874285
Si Si4 0.378439 0.465529 0.472316
Si Si5 0.078231 0.337741 0.376950
Si Si6 0.839540 0.562458 0.025734
Si Si7 0.140423 0.979222 0.388319
O O1 0.056475 0.649528 0.669272
O O2 0.180729 0.523978 0.909962
O O3 0.156013 0.541938 0.584772
O O4 0.327417 0.633704 0.937139
O O5 0.360211 0.250000 0.996502
O O6 0.443665 0.119346 0.958005
O O7 0.222629 0.123235 0.920922
O O8 0.209586 0.167271 0.633588
O O9 0.486638 0.250000 0.833938
O O10 0.442427 0.399377 0.660093
O O11 0.500000 0.500000 0.500000
O O12 0.287149 0.530836 0.467917
O O13 0.261356 0.431013 0.228955
O O14 0.067833 0.250000 0.282151
O O15 0.101235 0.424884 0.323336
O O16 0.003965 0.569269 0.179158
#
# Coordination Sequence:
#
# PCOD9157643 Si02
#       7
#     4   4   4   4   4   4   4
#     4  11  20  37  63  91 118 150 199 254 301 348
#     4  10  20  37  62  91 116 150 204 253 297 347
#     4  11  24  41  61  88 120 159 200 245 303 361
#     4  12  25  39  59  86 123 165 198 238 296 366
#     4  10  18  34  61  90 116 149 195 250 300 345
#     4  11  21  39  61  90 120 154 199 248 299 356
#     4  11  22  39  61  92 119 156 202 253 296 349
#
# _framework density 20.095395
#
# number of rings (size 3 to 8) (size 9 to 14) (size 15 to 20)
#    0.000    1.143    5.714    1.714    2.000    1.714 
#    0.000    0.000    0.000    0.857    0.000    0.000 
#    0.000    0.000    0.000    0.000    0.000    0.000 
#
# Total GULP energy -156024.369785 kJ/mol
# GULP energy per Si atom -5572.298921 kJ/mol
# Density = 2.004966 g / cm^3
# Si number density = 20.095395 Si / 1000 Ang^3
#
#
#
# Elastic Constant Matrix: (Units=GPa)
#
#
# Indices 1 2 3 4 5 6 
#
# 1 138.8232 29.6649 38.4953 0.0000 26.8824 0.0000
# 2 29.6649 55.3376 12.6370 0.0000 -4.1907 0.0000
# 3 38.4953 12.6370 73.3265 0.0000 24.8112 0.0000
# 4 0.0000 0.0000 0.0000 10.3037 0.0000 7.1338
# 5 26.8824 -4.1907 24.8112 0.0000 28.0241 0.0000
# 6 0.0000 0.0000 0.0000 7.1338 0.0000 8.5577
#
#
#
# Elastic Compliance Matrix: (Units=1/GPa)
#
#
# Indices 1 2 3 4 5 6 
#
# 1 0.010889 -0.006380 -0.001085 0.000000 -0.010439 0.000000
# 2 -0.006380 0.023937 -0.005793 0.000000 0.014829 0.000000
# 3 -0.001085 -0.005793 0.021625 0.000000 -0.018971 0.000000
# 4 0.000000 0.000000 0.000000 0.229521 0.000000 -0.191330
# 5 -0.010439 0.014829 -0.018971 0.000000 0.064711 0.000000
# 6 0.000000 0.000000 0.000000 -0.191330 0.000000 0.276348
#
#
# Mechanical properties :
#
#
# Convention : Reuss Voigt Hill
#
# Bulk Modulus (GPa) = 33.40663 47.67575 40.54119
# Shear Modulus (GPa) = 7.53550 21.82309 14.67930
#
# Velocity S-wave (km/s) = 1.93856 3.29899 2.70567
# Velocity P-wave (km/s) = 4.65519 6.18767 5.47531
#
# Compressibility (1/GPa) = 0.02993418
#
# Stress axis : x y z
#
# Youngs Moduli (GPa) = 91.83540 41.77616 46.24312
#
# Poissons Ratio (x) = 0.26654 0.05017
# Poissons Ratio (y) = 0.58592 0.26791
# Poissons Ratio (z) = 0.09963 0.24203
#
# Static dielectric constant tensor:
#      x y z
#    x 1.801330 0.000000 0.001120 
#    y 0.000000 1.808470 0.000000 
#    z 0.001120 0.000000 1.703240 
# 
# From -- ./inp_files/22772.got.cif
#   From: 2010.05.17/outbox.cif.g08.bks.cpg/sg11_12_cif.got.tgz:22772.got - 2010.06.03 12:22:45.
