data_PCOD9157354
_publ_section_title
;
Structure prediction by ZEFSAII (Michael W. Deem and Ramdas Pophale) SiO2 
 PCOD9157354
Probable space group: P 21/M
;
_chemical_formula_sum "Si O2"
_cell_formula_units_Z 28
_cell_length_a 9.395079
_cell_length_b 8.939041
_cell_length_c 30.798368
_cell_angle_alpha 90.000000
_cell_angle_beta 40.303561
_cell_angle_gamma 90.000000
_cell_volume 1673.069738
_symmetry_space_group_name_H-M "P 21/M"
_symmetry_group_IT_number 11
_symmetry_cell_setting 'monoclinic'
loop_
_space_group_symop_operation_xyz
x,y,z
-x,1/2+y,-z
-x,-y,-z
x,1/2-y,z
loop_
_atom_site_type_symbol
_atom_site_label
_atom_site_fract_x
_atom_site_fract_y
_atom_site_fract_z
Si Si1 0.682882 0.571807 0.426847
Si Si2 0.593670 0.570158 0.196364
Si Si3 0.571452 0.069275 0.937749
Si Si4 0.239804 0.069275 0.937749
Si Si5 0.808805 0.424377 0.312770
Si Si6 0.127344 0.424377 0.312770
Si Si7 0.924510 0.929842 0.196364
O O1 0.500000 0.500000 0.500000
O O2 0.675147 0.750000 0.429941
O O3 0.659906 0.511712 0.382586
O O4 0.927165 0.511712 0.382586
O O5 0.566086 0.750000 0.202921
O O6 0.663379 0.524699 0.131619
O O7 0.364305 0.495553 0.262885
O O8 0.784025 0.532003 0.186390
O O9 0.567399 0.250000 0.942054
O O10 0.404204 0.025159 0.938318
O O11 0.821473 0.024699 0.868381
O O12 0.500000 0.000000 0.000000
O O13 0.222330 0.250000 0.942054
O O14 0.000000 0.000000 0.000000
O O15 0.748442 0.250000 0.325428
O O16 0.821267 0.495553 0.262885
O O17 0.048664 0.435176 0.280534
O O18 0.124418 0.250000 0.325428
O O19 0.919310 0.750000 0.202921
#
# Coordination Sequence:
#
# PCOD9157354 Si02
#       7
#     4   4   4   4   4   4   4
#     4  10  18  32  56  84 114 144 178 222 266 316
#     4  10  20  34  53  76 103 139 182 226 275 328
#     4  10  21  36  54  76 103 138 181 226 276 328
#     4  10  21  36  54  76 103 138 181 226 276 328
#     4   9  19  33  51  79 108 138 178 218 264 316
#     4   9  19  33  51  79 108 138 178 218 264 316
#     4  10  20  34  53  76 103 139 182 226 275 328
#
# _framework density 16.735704999999999
#
# number of rings (size 3 to 8) (size 9 to 14) (size 15 to 20)
#    0.857    1.429    0.000    3.429    0.000    4.571 
#    0.000    0.000    0.000    0.857    0.000    0.000 
#    0.000    0.000    0.000    0.000    0.000    0.000 
#
# Total GULP energy -156009.376867 kJ/mol
# GULP energy per Si atom -5571.763460 kJ/mol
# Density = 1.669761 g / cm^3
# Si number density = 16.735705 Si / 1000 Ang^3
#
#
#
# Elastic Constant Matrix: (Units=GPa)
#
#
# Indices 1 2 3 4 5 6 
#
# 1 121.6672 54.3227 80.5863 0.0000 0.1737 0.0000
# 2 54.3227 65.4111 63.4343 0.0000 0.1143 0.0000
# 3 80.5863 63.4343 157.7230 0.0000 0.2787 0.0000
# 4 0.0000 0.0000 0.0000 34.5764 0.0000 0.1150
# 5 0.1737 0.1143 0.2787 0.0000 27.4623 0.0000
# 6 0.0000 0.0000 0.0000 0.1150 0.0000 25.4087
#
#
#
# Elastic Compliance Matrix: (Units=1/GPa)
#
#
# Indices 1 2 3 4 5 6 
#
# 1 0.014607 -0.008022 -0.004237 0.000000 -0.000016 0.000000
# 2 -0.008022 0.029469 -0.007753 0.000000 0.000007 0.000000
# 3 -0.004237 -0.007753 0.011623 0.000000 -0.000059 0.000000
# 4 0.000000 0.000000 0.000000 0.028922 0.000000 -0.000131
# 5 -0.000016 0.000007 -0.000059 0.000000 0.036414 0.000000
# 6 0.000000 0.000000 0.000000 -0.000131 0.000000 0.039357
#
#
# Mechanical properties :
#
#
# Convention : Reuss Voigt Hill
#
# Bulk Modulus (GPa) = 63.79574 82.38754 73.09164
# Shear Modulus (GPa) = 24.31394 27.25333 25.78363
#
# Velocity S-wave (km/s) = 3.81572 4.03979 3.92935
# Velocity P-wave (km/s) = 7.59047 8.43181 8.02218
#
# Compressibility (1/GPa) = 0.01567503
#
# Stress axis : x y z
#
# Youngs Moduli (GPa) = 68.45897 33.93367 86.03292
#
# Poissons Ratio (x) = 0.27222 0.36452
# Poissons Ratio (y) = 0.54919 0.66705
# Poissons Ratio (z) = 0.29006 0.26310
#
# Static dielectric constant tensor:
#      x y z
#    x 1.561160 0.000000 -0.000310 
#    y 0.000000 1.562680 0.000000 
#    z -0.000310 0.000000 1.536380 
# 
# From -- ./inp_files/72726.got.cif
#   From: 2010.05.17/outbox.cif.g08.bks.cpg/sg11_37_cif.got.tgz:72726.got - 2010.06.03 12:22:45.
