data_PCOD9157575
_publ_section_title
;
Structure prediction by ZEFSAII (Michael W. Deem and Ramdas Pophale) SiO2 
 PCOD9157575
Probable space group: P 21/M
;
_chemical_formula_sum "Si O2"
_cell_formula_units_Z 32
_cell_length_a 14.069158
_cell_length_b 8.075038
_cell_length_c 20.860736
_cell_angle_alpha 90.000000
_cell_angle_beta 142.024204
_cell_angle_gamma 90.000000
_cell_volume 1458.308351
_symmetry_space_group_name_H-M "P 21/M"
_symmetry_group_IT_number 11
_symmetry_cell_setting 'monoclinic'
loop_
_space_group_symop_operation_xyz
x,y,z
-x,1/2+y,-z
-x,-y,-z
x,1/2-y,z
loop_
_atom_site_type_symbol
_atom_site_label
_atom_site_fract_x
_atom_site_fract_y
_atom_site_fract_z
Si Si1 0.328502 0.940625 0.766257
Si Si2 0.997293 0.449064 0.124628
Si Si3 0.180120 0.057249 0.342634
Si Si4 0.211838 0.446013 0.567088
Si Si5 0.974931 0.562462 0.344745
Si Si6 0.659298 0.450412 0.908688
Si Si7 0.719453 0.450451 0.796102
Si Si8 0.558174 0.948030 0.431708
O O1 0.308225 0.750000 0.771632
O O2 0.275864 0.971843 0.664942
O O3 0.207336 0.039440 0.745326
O O4 0.507241 0.989422 0.863889
O O5 0.987493 0.250000 0.125688
O O6 0.091098 0.519298 0.235322
O O7 0.107416 0.490205 0.123699
O O8 0.822474 0.508774 0.024162
O O9 0.210940 0.250000 0.344449
O O10 0.340522 0.982776 0.455396
O O11 0.058607 0.049987 0.336763
O O12 0.195032 0.250000 0.569798
O O13 0.334450 0.467737 0.574371
O O14 0.053942 0.519221 0.454824
O O15 0.013973 0.750000 0.348810
O O16 0.656321 0.250000 0.907560
O O17 0.657979 0.502121 0.833106
O O18 0.716448 0.250000 0.793305
O O19 0.607405 0.513630 0.679289
O O20 0.542744 0.750000 0.433853
#
# Coordination Sequence:
#
# PCOD9157575 Si02
#       8
#     4   4   4   4   4   4   4   4
#     4  12  23  35  55  85 115 147 189 234 283 339
#     4  10  22  38  58  82 110 148 192 240 286 337
#     4   9  19  38  58  79 112 151 192 234 283 334
#     4  10  18  34  56  81 119 156 186 225 280 337
#     4  11  22  36  56  84 115 149 190 231 278 337
#     4  10  21  39  58  80 113 150 189 235 290 336
#     4  10  19  34  57  83 112 147 187 230 284 345
#     4   8  15  30  54  80 110 148 180 219 277 332
#
# _framework density 21.943234
#
# number of rings (size 3 to 8) (size 9 to 14) (size 15 to 20)
#    0.000    2.000    1.250    4.125    0.000    2.000 
#    0.000    1.250    0.000    0.000    0.000    0.000 
#    0.000    0.000    0.000    0.000    0.000    0.000 
#
# Total GULP energy -178756.156354 kJ/mol
# GULP energy per Si atom -5586.129886 kJ/mol
# Density = 2.189329 g / cm^3
# Si number density = 21.943234 Si / 1000 Ang^3
#
#
#
# Elastic Constant Matrix: (Units=GPa)
#
#
# Indices 1 2 3 4 5 6 
#
# 1 41.0530 -10.0669 29.2250 0.0000 16.0157 0.0000
# 2 -10.0669 25.4399 7.8981 0.0000 -0.2411 0.0000
# 3 29.2250 7.8981 141.7972 0.0000 20.0340 0.0000
# 4 0.0000 0.0000 0.0000 17.0862 0.0000 8.4572
# 5 16.0157 -0.2411 20.0340 0.0000 39.3071 0.0000
# 6 0.0000 0.0000 0.0000 8.4572 0.0000 16.9765
#
#
#
# Elastic Compliance Matrix: (Units=1/GPa)
#
#
# Indices 1 2 3 4 5 6 
#
# 1 0.038342 0.017293 -0.007191 0.000000 -0.011851 0.000000
# 2 0.017293 0.047880 -0.005687 0.000000 -0.003854 0.000000
# 3 -0.007191 -0.005687 0.009097 0.000000 -0.001742 0.000000
# 4 0.000000 0.000000 0.000000 0.077681 0.000000 -0.038698
# 5 -0.011851 -0.003854 -0.001742 0.000000 0.031133 0.000000
# 6 0.000000 0.000000 0.000000 -0.038698 0.000000 0.078183
#
#
# Mechanical properties :
#
#
# Convention : Reuss Voigt Hill
#
# Bulk Modulus (GPa) = 9.60162 29.15585 19.37874
# Shear Modulus (GPa) = 16.22304 26.75623 21.48964
#
# Velocity S-wave (km/s) = 2.72199 3.49569 3.13282
# Velocity P-wave (km/s) = 3.77679 5.44141 4.68365
#
# Compressibility (1/GPa) = 0.10414912
#
# Stress axis : x y z
#
# Youngs Moduli (GPa) = 26.08110 20.88549 109.92320
#
# Poissons Ratio (x) = -0.36117 0.79048
# Poissons Ratio (y) = -0.45101 0.62508
# Poissons Ratio (z) = 0.18756 0.11877
#
# Static dielectric constant tensor:
#      x y z
#    x 1.818400 0.000000 0.003590 
#    y 0.000000 1.755710 0.000000 
#    z 0.003590 0.000000 1.854390 
# 
# From -- ./inp_files/51733.got.cif
#   From: 2010.05.17/outbox.cif.g08.bks.cpg/sg11_26_cif.got.tgz:51733.got - 2010.06.03 12:22:45.
