data_PCOD9157310
_publ_section_title
;
Structure prediction by ZEFSAII (Michael W. Deem and Ramdas Pophale) SiO2 
 PCOD9157310
Probable space group: P 21/M
;
_chemical_formula_sum "Si O2"
_cell_formula_units_Z 32
_cell_length_a 11.633402
_cell_length_b 19.629928
_cell_length_c 21.083464
_cell_angle_alpha 90.000000
_cell_angle_beta 20.715548
_cell_angle_gamma 90.000000
_cell_volume 1703.090311
_symmetry_space_group_name_H-M "P 21/M"
_symmetry_group_IT_number 11
_symmetry_cell_setting 'monoclinic'
loop_
_space_group_symop_operation_xyz
x,y,z
-x,1/2+y,-z
-x,-y,-z
x,1/2-y,z
loop_
_atom_site_type_symbol
_atom_site_label
_atom_site_fract_x
_atom_site_fract_y
_atom_site_fract_z
Si Si1 0.217089 0.328322 0.492183
Si Si2 0.343874 0.538983 0.329757
Si Si3 0.623053 0.456114 0.286861
Si Si4 0.688609 0.885777 0.822517
Si Si5 0.043750 0.671732 0.518737
Si Si6 0.728491 0.113921 0.851390
Si Si7 0.337344 0.474375 0.964199
Si Si8 0.188178 0.988519 0.615828
O O1 0.301551 0.250000 0.457365
O O2 0.527177 0.377359 0.339539
O O3 0.098167 0.336659 0.480099
O O4 0.948970 0.347552 0.684983
O O5 0.596259 0.486834 0.231008
O O6 0.480222 0.555028 0.190923
O O7 0.000000 0.500000 0.500000
O O8 0.299503 0.609696 0.389889
O O9 0.321643 0.491767 0.477730
O O10 0.957216 0.475171 0.147150
O O11 0.802137 0.843116 0.702595
O O12 0.000870 0.917514 0.699702
O O13 0.501035 0.952968 0.893596
O O14 0.435399 0.851230 0.002673
O O15 0.159245 0.750000 0.463765
O O16 0.427430 0.078441 0.971874
O O17 0.940740 0.048298 0.763346
O O18 0.500000 0.000000 0.500000
#
# Coordination Sequence:
#
# PCOD9157310 Si02
#       8
#     4   4   4   4   4   4   4   4
#     4  10  21  39  59  80 115 160 197 238 296 352
#     4  12  18  37  58  85 114 148 198 241 290 347
#     4  11  20  32  56  89 114 148 194 247 287 339
#     4  11  20  35  57  87 121 149 194 244 291 356
#     4  11  22  38  60  82 114 155 192 234 296 356
#     4  10  20  34  56  85 115 148 191 240 287 351
#     4  11  20  33  57  92 119 143 192 247 300 334
#     4  10  18  32  54  84 119 149 184 241 295 340
#
# _framework density 18.789373999999999
#
# number of rings (size 3 to 8) (size 9 to 14) (size 15 to 20)
#    0.000    1.250    5.000    4.125    0.000    0.500 
#    0.000    1.250    0.000    6.750    0.000    0.000 
#    0.000    0.000    0.000    0.000    0.000    0.000 
#
# Total GULP energy -178238.348488 kJ/mol
# GULP energy per Si atom -5569.948390 kJ/mol
# Density = 1.874661 g / cm^3
# Si number density = 18.789374 Si / 1000 Ang^3
#
#
#
# Elastic Constant Matrix: (Units=GPa)
#
#
# Indices 1 2 3 4 5 6 
#
# 1 72.8440 18.6286 31.1220 0.0000 1.8198 0.0000
# 2 18.6286 95.4927 20.0391 0.0000 0.6267 0.0000
# 3 31.1220 20.0391 85.9320 0.0000 15.3585 0.0000
# 4 0.0000 0.0000 0.0000 14.0825 0.0000 3.4567
# 5 1.8198 0.6267 15.3585 0.0000 50.2964 0.0000
# 6 0.0000 0.0000 0.0000 3.4567 0.0000 11.3370
#
#
#
# Elastic Compliance Matrix: (Units=1/GPa)
#
#
# Indices 1 2 3 4 5 6 
#
# 1 0.016692 -0.002051 -0.005779 0.000000 0.001186 0.000000
# 2 -0.002051 0.011285 -0.001985 0.000000 0.000540 0.000000
# 3 -0.005779 -0.001985 0.014968 0.000000 -0.004337 0.000000
# 4 0.000000 0.000000 0.000000 0.076755 0.000000 -0.023403
# 5 0.001186 0.000540 -0.004337 0.000000 0.021157 0.000000
# 6 0.000000 0.000000 0.000000 -0.023403 0.000000 0.095342
#
#
# Mechanical properties :
#
#
# Convention : Reuss Voigt Hill
#
# Bulk Modulus (GPa) = 42.89223 43.76090 43.32657
# Shear Modulus (GPa) = 18.96803 27.44177 23.20490
#
# Velocity S-wave (km/s) = 3.18072 3.82579 3.51807
# Velocity P-wave (km/s) = 6.03049 6.54647 6.29377
#
# Compressibility (1/GPa) = 0.02331425
#
# Stress axis : x y z
#
# Youngs Moduli (GPa) = 59.90917 88.61135 66.80855
#
# Poissons Ratio (x) = 0.18177 0.38609
# Poissons Ratio (y) = 0.12289 0.13263
# Poissons Ratio (z) = 0.34621 0.17591
#
# Static dielectric constant tensor:
#      x y z
#    x 1.717170 0.000000 0.051920 
#    y 0.000000 1.630690 0.000000 
#    z 0.051920 0.000000 1.686170 
# 
# From -- ./inp_files/64917.got.cif
#   From: 2010.05.17/outbox.cif.g08.bks.cpg/sg11_33_cif.got.tgz:64917.got - 2010.06.03 12:22:45.
