data_PCOD9157008
_publ_section_title
;
Structure prediction by ZEFSAII (Michael W. Deem and Ramdas Pophale) SiO2 
 PCOD9157008
Probable space group: P 21/M
;
_chemical_formula_sum "Si O2"
_cell_formula_units_Z 32
_cell_length_a 20.386988
_cell_length_b 7.575595
_cell_length_c 20.506856
_cell_angle_alpha 90.000000
_cell_angle_beta 30.789582
_cell_angle_gamma 90.000000
_cell_volume 1621.222867
_symmetry_space_group_name_H-M "P 21/M"
_symmetry_group_IT_number 11
_symmetry_cell_setting 'monoclinic'
loop_
_space_group_symop_operation_xyz
x,y,z
-x,1/2+y,-z
-x,-y,-z
x,1/2-y,z
loop_
_atom_site_type_symbol
_atom_site_label
_atom_site_fract_x
_atom_site_fract_y
_atom_site_fract_z
Si Si1 0.640138 0.545308 0.644342
Si Si2 0.855512 0.033653 0.861797
Si Si3 0.676076 0.463084 0.900551
Si Si4 0.387540 0.458269 0.687307
Si Si5 0.323924 0.463084 0.599450
Si Si6 0.387539 0.541731 0.187307
Si Si7 0.855513 0.966347 0.361797
Si Si8 0.359863 0.954692 0.855658
O O1 0.630825 0.750000 0.631443
O O2 0.660563 0.538021 0.704196
O O3 0.757148 0.473090 0.502119
O O4 0.500000 0.464034 0.750000
O O5 0.858970 0.250000 0.859278
O O6 0.791963 0.979211 0.847499
O O7 1.000000 0.973154 0.750000
O O8 0.757147 0.973090 0.002119
O O9 0.677828 0.250000 0.896580
O O10 0.672909 0.527664 0.828635
O O11 0.540323 0.512778 0.049108
O O12 0.363919 0.250000 0.711213
O O13 0.327090 0.527664 0.671366
O O14 0.540323 0.487222 0.549108
O O15 0.339437 0.538021 0.795804
O O16 0.322171 0.250000 0.603421
O O17 0.208037 0.520789 0.652501
O O18 0.363919 0.750000 0.211214
O O19 0.858970 0.750000 0.359278
O O20 0.369175 0.750000 0.868556
#
# Coordination Sequence:
#
# PCOD9157008 Si02
#       8
#     4   4   4   4   4   4   4   4
#     4  10  18  31  51  73  97 125 162 205 238 277
#     4   9  17  31  52  73  93 125 167 202 234 281
#     4   9  17  32  50  71  99 128 162 199 238 284
#     4  10  19  29  48  75 101 127 157 200 245 285
#     4   9  17  32  50  71  99 128 162 199 238 284
#     4  10  19  29  48  75 101 127 157 200 245 285
#     4   9  17  31  52  73  93 125 167 202 234 281
#     4  10  18  31  51  73  97 125 162 205 238 277
#
# _framework density 19.738187
#
# number of rings (size 3 to 8) (size 9 to 14) (size 15 to 20)
#    0.000    2.500    2.500    0.750    0.000    1.500 
#    0.000    1.250    0.000    3.000    0.000    0.000 
#    0.000    0.000    0.000    0.000    0.000    0.000 
#
# Total GULP energy -178508.357323 kJ/mol
# GULP energy per Si atom -5578.386166 kJ/mol
# Density = 1.969326 g / cm^3
# Si number density = 19.738187 Si / 1000 Ang^3
#
#
#
# Elastic Constant Matrix: (Units=GPa)
#
#
# Indices 1 2 3 4 5 6 
#
# 1 156.9623 -6.4278 93.0147 0.0000 -10.2348 0.0000
# 2 -6.4278 43.5043 3.4218 0.0000 -4.8333 0.0000
# 3 93.0147 3.4218 134.1757 0.0000 -9.7721 0.0000
# 4 0.0000 0.0000 0.0000 7.9095 0.0000 6.1531
# 5 -10.2348 -4.8333 -9.7721 0.0000 28.7461 0.0000
# 6 0.0000 0.0000 0.0000 6.1531 0.0000 17.2862
#
#
#
# Elastic Compliance Matrix: (Units=1/GPa)
#
#
# Indices 1 2 3 4 5 6 
#
# 1 0.011111 0.002439 -0.007636 0.000000 0.001770 0.000000
# 2 0.002439 0.023972 -0.001995 0.000000 0.004221 0.000000
# 3 -0.007636 -0.001995 0.012894 0.000000 0.001329 0.000000
# 4 0.000000 0.000000 0.000000 0.174847 0.000000 -0.062237
# 5 0.001770 0.004221 0.001329 0.000000 0.036579 0.000000
# 6 0.000000 0.000000 0.000000 -0.062237 0.000000 0.080003
#
#
# Mechanical properties :
#
#
# Convention : Reuss Voigt Hill
#
# Bulk Modulus (GPa) = 29.76684 57.18441 43.47563
# Shear Modulus (GPa) = 13.69905 27.09726 20.39815
#
# Velocity S-wave (km/s) = 2.63732 3.70920 3.21820
# Velocity P-wave (km/s) = 4.93837 6.88321 5.99024
#
# Compressibility (1/GPa) = 0.03359443
#
# Stress axis : x y z
#
# Youngs Moduli (GPa) = 89.99874 41.71456 77.55515
#
# Poissons Ratio (x) = -0.10174 0.59221
# Poissons Ratio (y) = -0.21951 0.15470
# Poissons Ratio (z) = 0.68722 0.08321
#
# Static dielectric constant tensor:
#      x y z
#    x 1.716180 0.000000 0.009520 
#    y 0.000000 1.721280 0.000000 
#    z 0.009520 0.000000 1.657990 
# 
# From -- ./inp_files/66450.got.cif
#   From: 2010.05.17/outbox.cif.g08.bks.cpg/sg11_34_cif.got.tgz:66450.got - 2010.06.03 12:22:45.
