data_PCOD9157063
_publ_section_title
;
Structure prediction by ZEFSAII (Michael W. Deem and Ramdas Pophale) SiO2 
 PCOD9157063
Probable space group: P 21/M
;
_chemical_formula_sum "Si O2"
_cell_formula_units_Z 32
_cell_length_a 15.046130
_cell_length_b 8.605623
_cell_length_c 26.684076
_cell_angle_alpha 90.000000
_cell_angle_beta 31.739997
_cell_angle_gamma 90.000000
_cell_volume 1817.603208
_symmetry_space_group_name_H-M "P 21/M"
_symmetry_group_IT_number 11
_symmetry_cell_setting 'monoclinic'
loop_
_space_group_symop_operation_xyz
x,y,z
-x,1/2+y,-z
-x,-y,-z
x,1/2-y,z
loop_
_atom_site_type_symbol
_atom_site_label
_atom_site_fract_x
_atom_site_fract_y
_atom_site_fract_z
Si Si1 0.359046 0.432890 0.776043
Si Si2 0.041604 0.062726 0.403350
Si Si3 0.236007 0.563967 0.939599
Si Si4 0.728896 0.934793 0.613451
Si Si5 0.439734 0.938264 0.939158
Si Si6 0.177921 0.438018 0.229235
Si Si7 0.106750 0.563638 0.157764
Si Si8 0.075243 0.933875 0.848838
O O1 0.341916 0.250000 0.777201
O O2 0.272334 0.483437 0.869818
O O3 0.553983 0.481033 0.686450
O O4 0.259574 0.519408 0.779505
O O5 0.019608 0.250000 0.416315
O O6 0.192801 0.023980 0.369614
O O7 0.090266 0.019549 0.323644
O O8 0.873640 0.982364 0.504675
O O9 0.239405 0.750000 0.931332
O O10 0.377810 0.520090 0.912984
O O11 0.059494 0.514685 0.049127
O O12 0.700847 0.750000 0.626163
O O13 0.443473 0.750000 0.938678
O O14 0.626705 0.993209 0.862397
O O15 0.291549 0.988285 0.048041
O O16 0.178171 0.250000 0.225816
O O17 0.091044 0.506767 0.221852
O O18 0.100070 0.750000 0.158103
O O19 0.971920 0.493864 0.183766
O O20 0.051748 0.750000 0.862774
#
# Coordination Sequence:
#
# PCOD9157063 Si02
#       8
#     4   4   4   4   4   4   4   4
#     4  12  23  35  53  78 106 138 176 216 260 312
#     4   9  19  35  55  80 110 140 171 212 261 312
#     4  10  19  34  53  77 109 142 176 215 259 306
#     4  10  20  36  57  80 107 139 173 213 261 311
#     4   8  16  30  49  73 105 141 174 212 255 300
#     4  10  18  31  52  76 103 139 178 213 256 308
#     4  10  20  34  50  73 105 140 178 220 262 302
#     4  11  22  37  54  74 102 139 180 219 261 308
#
# _framework density 17.605602000000001
#
# number of rings (size 3 to 8) (size 9 to 14) (size 15 to 20)
#    0.000    2.000    0.000    5.625    0.000    3.000 
#    0.000    4.375    0.000    0.750    0.000    0.000 
#    0.000    0.000    0.000    0.000    0.000    0.000 
#
# Total GULP energy -178728.187518 kJ/mol
# GULP energy per Si atom -5585.255860 kJ/mol
# Density = 1.756553 g / cm^3
# Si number density = 17.605602 Si / 1000 Ang^3
#
#
#
# Elastic Constant Matrix: (Units=GPa)
#
#
# Indices 1 2 3 4 5 6 
#
# 1 118.0224 16.9986 50.9531 0.0000 8.3624 0.0000
# 2 16.9986 28.6773 6.3351 0.0000 2.9872 0.0000
# 3 50.9531 6.3351 40.8351 0.0000 5.1105 0.0000
# 4 0.0000 0.0000 0.0000 24.6565 0.0000 -0.2773
# 5 8.3624 2.9872 5.1105 0.0000 27.4793 0.0000
# 6 0.0000 0.0000 0.0000 -0.2773 0.0000 26.1670
#
#
#
# Elastic Compliance Matrix: (Units=1/GPa)
#
#
# Indices 1 2 3 4 5 6 
#
# 1 0.019456 -0.006315 -0.023181 0.000000 -0.000923 0.000000
# 2 -0.006315 0.038394 0.002258 0.000000 -0.002672 0.000000
# 3 -0.023181 0.002258 0.053456 0.000000 -0.003132 0.000000
# 4 0.000000 0.000000 0.000000 0.040562 0.000000 0.000430
# 5 -0.000923 -0.002672 -0.003132 0.000000 0.037545 0.000000
# 6 0.000000 0.000000 0.000000 0.000430 0.000000 0.038221
#
#
# Mechanical properties :
#
#
# Convention : Reuss Voigt Hill
#
# Bulk Modulus (GPa) = 17.59688 37.34538 27.47113
# Shear Modulus (GPa) = 16.60838 23.21043 19.90941
#
# Velocity S-wave (km/s) = 3.07475 3.63485 3.36647
# Velocity P-wave (km/s) = 4.75628 6.23494 5.54512
#
# Compressibility (1/GPa) = 0.05682826
#
# Stress axis : x y z
#
# Youngs Moduli (GPa) = 51.39815 26.04589 18.70711
#
# Poissons Ratio (x) = 0.16449 0.43366
# Poissons Ratio (y) = 0.32460 -0.04225
# Poissons Ratio (z) = 1.19148 -0.05882
#
# Static dielectric constant tensor:
#      x y z
#    x 1.600640 0.000000 -0.007880 
#    y 0.000000 1.590040 0.000000 
#    z -0.007880 0.000000 1.581140 
# 
# From -- ./inp_files/71604.got.cif
#   From: 2010.05.17/outbox.cif.g08.bks.cpg/sg11_36_cif.got.tgz:71604.got - 2010.06.03 12:22:45.
