data_PCOD9157319
_publ_section_title
;
Structure prediction by ZEFSAII (Michael W. Deem and Ramdas Pophale) SiO2 
 PCOD9157319
Probable space group: P 21/M
;
_chemical_formula_sum "Si O2"
_cell_formula_units_Z 32
_cell_length_a 12.192681
_cell_length_b 7.645858
_cell_length_c 29.308092
_cell_angle_alpha 90.000000
_cell_angle_beta 148.698757
_cell_angle_gamma 90.000000
_cell_volume 1419.482393
_symmetry_space_group_name_H-M "P 21/M"
_symmetry_group_IT_number 11
_symmetry_cell_setting 'monoclinic'
loop_
_space_group_symop_operation_xyz
x,y,z
-x,1/2+y,-z
-x,-y,-z
x,1/2-y,z
loop_
_atom_site_type_symbol
_atom_site_label
_atom_site_fract_x
_atom_site_fract_y
_atom_site_fract_z
Si Si1 0.591981 0.539795 0.652335
Si Si2 0.732143 0.042815 0.983152
Si Si3 0.832896 0.964669 0.827723
Si Si4 0.371966 0.039577 0.150522
Si Si5 0.061178 0.046463 0.289464
Si Si6 0.900365 0.543418 0.513848
Si Si7 0.147262 0.534807 0.691082
Si Si8 0.354299 0.041590 0.904565
O O1 0.614854 0.750000 0.660034
O O2 0.710396 0.474724 0.739755
O O3 0.345001 0.503733 0.568352
O O4 0.723592 0.471914 0.655482
O O5 0.722976 0.250000 0.988125
O O6 0.504691 0.972741 0.917150
O O7 0.766224 0.013814 0.942014
O O8 0.925581 0.974600 0.081873
O O9 0.834282 0.750000 0.827745
O O10 0.715610 0.020539 0.832202
O O11 0.374399 0.250000 0.152735
O O12 0.610077 0.977404 0.226207
O O13 0.100963 0.250000 0.313380
O O14 0.966528 0.972484 0.302906
O O15 0.877093 0.036171 0.185464
O O16 0.915619 0.750000 0.522834
O O17 0.000000 0.500000 0.500000
O O18 0.028310 0.473713 0.603058
O O19 0.149287 0.750000 0.692648
O O20 0.325794 0.250000 0.892305
O O21 0.500000 0.000000 0.000000
#
# Coordination Sequence:
#
# PCOD9157319 Si02
#       8
#     4   4   4   4   4   4   4   4
#     4  10  21  39  62  86 115 152 193 240 296 356
#     4  10  20  34  51  78 112 145 188 239 289 337
#     4   9  18  33  53  77 110 152 190 229 287 351
#     4  10  18  32  55  78 106 147 190 231 281 347
#     4  10  20  38  62  85 114 155 199 241 294 359
#     4  11  23  41  64  90 120 154 194 243 294 354
#     4   9  19  36  59  85 116 154 195 240 298 358
#     4  11  22  35  54  80 115 158 200 248 295 342
#
# _framework density 22.543427999999999
#
# number of rings (size 3 to 8) (size 9 to 14) (size 15 to 20)
#    0.000    2.000    1.250    2.625    0.000    5.500 
#    0.000    5.000    0.000    0.000    0.000    0.000 
#    0.000    0.000    0.000    0.000    0.000    0.000 
#
# Total GULP energy -178766.094404 kJ/mol
# GULP energy per Si atom -5586.440450 kJ/mol
# Density = 2.249212 g / cm^3
# Si number density = 22.543428 Si / 1000 Ang^3
#
#
#
# Elastic Constant Matrix: (Units=GPa)
#
#
# Indices 1 2 3 4 5 6 
#
# 1 86.8216 -7.5497 22.4071 0.0000 14.4601 0.0000
# 2 -7.5497 41.5742 -11.6627 0.0000 3.0640 0.0000
# 3 22.4071 -11.6627 108.9895 0.0000 6.0634 0.0000
# 4 0.0000 0.0000 0.0000 22.8469 0.0000 -1.3245
# 5 14.4601 3.0640 6.0634 0.0000 41.2244 0.0000
# 6 0.0000 0.0000 0.0000 -1.3245 0.0000 5.5061
#
#
#
# Elastic Compliance Matrix: (Units=1/GPa)
#
#
# Indices 1 2 3 4 5 6 
#
# 1 0.012998 0.002065 -0.002207 0.000000 -0.004388 0.000000
# 2 0.002065 0.025335 0.002452 0.000000 -0.002968 0.000000
# 3 -0.002207 0.002452 0.009940 0.000000 -0.000870 0.000000
# 4 0.000000 0.000000 0.000000 0.044389 0.000000 0.010678
# 5 -0.004388 -0.002968 -0.000870 0.000000 0.026145 0.000000
# 6 0.000000 0.000000 0.000000 0.010678 0.000000 0.184185
#
#
# Mechanical properties :
#
#
# Convention : Reuss Voigt Hill
#
# Bulk Modulus (GPa) = 18.90701 27.08608 22.99654
# Shear Modulus (GPa) = 15.82265 29.52819 22.67542
#
# Velocity S-wave (km/s) = 2.65216 3.62309 3.17496
# Velocity P-wave (km/s) = 4.21708 5.43540 4.86453
#
# Compressibility (1/GPa) = 0.05289044
#
# Stress axis : x y z
#
# Youngs Moduli (GPa) = 76.93573 39.47147 100.60650
#
# Poissons Ratio (x) = -0.08149 0.22206
# Poissons Ratio (y) = -0.15884 -0.24665
# Poissons Ratio (z) = 0.16981 -0.09677
#
# Static dielectric constant tensor:
#      x y z
#    x 1.817310 0.000000 -0.020590 
#    y 0.000000 1.833780 0.000000 
#    z -0.020590 0.000000 1.806020 
# 
# From -- ./inp_files/38204.got.cif
#   From: 2010.05.17/outbox.cif.g08.bks.cpg/sg11_20_cif.got.tgz:38204.got - 2010.06.03 12:22:45.
