data_PCOD9157820
_publ_section_title
;
Structure prediction by ZEFSAII (Michael W. Deem and Ramdas Pophale) SiO2 
 PCOD9157820
Probable space group: P 21/M
;
_chemical_formula_sum "Si O2"
_cell_formula_units_Z 32
_cell_length_a 17.269808
_cell_length_b 8.159466
_cell_length_c 24.841467
_cell_angle_alpha 90.000000
_cell_angle_beta 151.124323
_cell_angle_gamma 90.000000
_cell_volume 1690.414874
_symmetry_space_group_name_H-M "P 21/M"
_symmetry_group_IT_number 11
_symmetry_cell_setting 'monoclinic'
loop_
_space_group_symop_operation_xyz
x,y,z
-x,1/2+y,-z
-x,-y,-z
x,1/2-y,z
loop_
_atom_site_type_symbol
_atom_site_label
_atom_site_fract_x
_atom_site_fract_y
_atom_site_fract_z
Si Si1 0.540051 0.941192 0.386850
Si Si2 0.899258 0.442969 0.605144
Si Si3 0.110382 0.552345 0.518202
Si Si4 0.518425 0.050869 0.255982
Si Si5 0.011273 0.948619 0.225298
Si Si6 0.279066 0.064426 0.307116
Si Si7 0.979289 0.064058 0.046534
Si Si8 0.259962 0.436566 0.017898
O O1 0.577298 0.750000 0.407093
O O2 0.707052 0.037963 0.492678
O O3 0.464371 0.991260 0.282609
O O4 0.428916 0.974976 0.370947
O O5 0.937201 0.250000 0.627976
O O6 0.945518 0.510360 0.574636
O O7 0.976346 0.511811 0.706332
O O8 0.111272 0.750000 0.516577
O O9 0.296004 0.501573 0.637525
O O10 0.000000 0.500000 0.500000
O O11 0.507588 0.250000 0.250153
O O12 0.415885 0.990306 0.142215
O O13 0.002436 0.750000 0.219221
O O14 0.851327 0.011544 0.097040
O O15 0.174834 0.993011 0.292904
O O16 0.327028 0.250000 0.349961
O O17 0.147975 0.067522 0.179618
O O18 0.913635 0.250000 0.008054
O O19 0.865353 0.942049 0.009248
O O20 0.000000 0.000000 0.000000
O O21 0.299336 0.250000 0.025956
#
# Coordination Sequence:
#
# PCOD9157820 Si02
#       8
#     4   4   4   4   4   4   4   4
#     4  11  21  31  47  71  96 127 171 214 247 285
#     4   9  19  36  54  72  98 128 157 196 247 294
#     4   9  18  33  54  78 101 125 152 187 236 291
#     4   9  18  33  51  73 102 130 156 195 249 295
#     4   9  18  33  52  72  93 125 170 208 237 280
#     4  10  20  32  44  62  94 133 168 205 249 288
#     4  10  19  28  40  60  88 124 164 205 246 284
#     4   9  17  30  49  70  92 122 160 199 238 284
#
# _framework density 18.930263
#
# number of rings (size 3 to 8) (size 9 to 14) (size 15 to 20)
#    0.000    2.500    0.000    3.375    0.000    8.000 
#    0.000    0.000    0.000    0.750    0.000    0.000 
#    0.000    0.000    0.000    0.000    0.000    0.500 
#
# Total GULP energy -178263.250523 kJ/mol
# GULP energy per Si atom -5570.726579 kJ/mol
# Density = 1.888718 g / cm^3
# Si number density = 18.930263 Si / 1000 Ang^3
#
#
#
# Elastic Constant Matrix: (Units=GPa)
#
#
# Indices 1 2 3 4 5 6 
#
# 1 97.4180 2.9639 56.9713 0.0000 -28.1638 0.0000
# 2 2.9639 19.0073 -6.5054 0.0000 -2.3878 0.0000
# 3 56.9713 -6.5054 93.3221 0.0000 -31.3693 0.0000
# 4 0.0000 0.0000 0.0000 -0.2665 0.0000 -0.0993
# 5 -28.1638 -2.3878 -31.3693 0.0000 26.3719 0.0000
# 6 0.0000 0.0000 0.0000 -0.0993 0.0000 22.1609
#
#
#
# Elastic Compliance Matrix: (Units=1/GPa)
#
#
# Indices 1 2 3 4 5 6 
#
# 1 0.017725 -0.004454 -0.008171 0.000000 0.008807 0.000000
# 2 -0.004454 0.059152 0.011737 0.000000 0.014560 0.000000
# 3 -0.008171 0.011737 0.023237 0.000000 0.019977 0.000000
# 4 0.000000 0.000000 0.000000 -3.745761 0.000000 -0.016779
# 5 0.008807 0.014560 0.019977 0.000000 0.072405 0.000000
# 6 0.000000 0.000000 0.000000 -0.016779 0.000000 0.045049
#
#
# Mechanical properties :
#
#
# Convention : Reuss Voigt Hill
#
# Bulk Modulus (GPa) = 10.16912 35.17857 22.67384
# Shear Modulus (GPa) = -1.43117 20.07444 9.32164
#
# Velocity S-wave (km/s) = -0.87044 3.25998 2.22146
# Velocity P-wave (km/s) = 2.09125 5.72656 4.31085
#
# Compressibility (1/GPa) = 0.09833696
#
# Stress axis : x y z
#
# Youngs Moduli (GPa) = 56.41701 16.90564 43.03485
#
# Poissons Ratio (x) = 0.07530 0.35164
# Poissons Ratio (y) = 0.25129 -0.50509
# Poissons Ratio (z) = 0.46099 -0.19842
#
# Static dielectric constant tensor:
#      x y z
#    x 1.528000 0.000000 -0.093980 
#    y 0.000000 1.688930 0.000000 
#    z -0.093980 0.000000 1.684390 
# 
# From -- ./inp_files/69467.got.cif
#   From: 2010.05.17/outbox.cif.g08.bks.cpg/sg11_35_cif.got.tgz:69467.got - 2010.06.03 12:22:45.
