data_PCOD9157927
_publ_section_title
;
Structure prediction by ZEFSAII (Michael W. Deem and Ramdas Pophale) SiO2 
 PCOD9157927
Probable space group: P 21/M
;
_chemical_formula_sum "Si O2"
_cell_formula_units_Z 24
_cell_length_a 16.250303
_cell_length_b 11.427113
_cell_length_c 22.353736
_cell_angle_alpha 90.000000
_cell_angle_beta 166.984937
_cell_angle_gamma 90.000000
_cell_volume 934.825151
_symmetry_space_group_name_H-M "P 21/M"
_symmetry_group_IT_number 11
_symmetry_cell_setting 'monoclinic'
loop_
_space_group_symop_operation_xyz
x,y,z
-x,1/2+y,-z
-x,-y,-z
x,1/2-y,z
loop_
_atom_site_type_symbol
_atom_site_label
_atom_site_fract_x
_atom_site_fract_y
_atom_site_fract_z
Si Si1 0.859668 0.619757 0.978197
Si Si2 0.089981 0.124093 0.423724
Si Si3 0.410022 0.375907 0.076278
Si Si4 0.447230 0.881947 0.129660
Si Si5 0.640330 0.880243 0.521802
Si Si6 0.052768 0.618053 0.370338
O O1 0.925951 0.750000 0.999821
O O2 0.749624 0.626967 0.969816
O O3 0.484808 0.588254 0.679573
O O4 0.249999 0.555625 0.249999
O O5 0.885256 0.250000 0.284650
O O6 0.391930 0.123643 0.689798
O O7 0.249627 0.126967 0.469818
O O8 0.891785 0.998587 0.287116
O O9 0.614748 0.250000 0.215352
O O10 0.608216 0.501413 0.212884
O O11 0.108073 0.376357 0.810204
O O12 0.490631 0.750000 0.134334
O O13 0.015190 0.911746 0.820425
O O14 0.574048 0.750000 0.500178
O O15 0.009366 0.750000 0.365664
#
# Coordination Sequence:
#
# PCOD9157927 Si02
#       6
#     4   4   4   4   4   4
#     4   9  18  30  39  47  59  69  75  85  97 105
#     4  10  19  30  41  50  58  68  78  86  96 106
#     4  10  19  30  41  50  58  68  78  86  96 106
#     4  10  19  30  41  50  58  68  78  86  96 106
#     4   9  18  30  39  47  59  69  75  85  97 105
#     4  10  19  30  41  50  58  68  78  86  96 106
#
# _framework density 25.673251
#
# number of rings (size 3 to 8) (size 9 to 14) (size 15 to 20)
#    0.000    2.333    3.333    0.000    0.000    2.667 
#    0.000    6.667    0.000    0.000    0.000    0.000 
#    0.000    0.000    0.000    0.000    0.000    0.000 
#
# Total GULP energy -133628.631681 kJ/mol
# GULP energy per Si atom -5567.859653 kJ/mol
# Density = 2.561482 g / cm^3
# Si number density = 25.673251 Si / 1000 Ang^3
#
#
#
# Elastic Constant Matrix: (Units=GPa)
#
#
# Indices 1 2 3 4 5 6 
#
# 1 90.4550 2.8932 30.3991 0.0000 -4.5712 0.0000
# 2 2.8932 279.7620 24.0356 0.0000 -9.6928 0.0000
# 3 30.3991 24.0356 192.9712 0.0000 -5.6980 0.0000
# 4 0.0000 0.0000 0.0000 39.6738 0.0000 11.3478
# 5 -4.5712 -9.6928 -5.6980 0.0000 42.6529 0.0000
# 6 0.0000 0.0000 0.0000 11.3478 0.0000 35.7772
#
#
#
# Elastic Compliance Matrix: (Units=1/GPa)
#
#
# Indices 1 2 3 4 5 6 
#
# 1 0.011718 0.000071 -0.001824 0.000000 0.001028 0.000000
# 2 0.000071 0.003639 -0.000442 0.000000 0.000775 0.000000
# 3 -0.001824 -0.000442 0.005538 0.000000 0.000444 0.000000
# 4 0.000000 0.000000 0.000000 0.027720 0.000000 -0.008792
# 5 0.001028 0.000775 0.000444 0.000000 0.023791 0.000000
# 6 0.000000 0.000000 0.000000 -0.008792 0.000000 0.030740
#
#
# Mechanical properties :
#
#
# Convention : Reuss Voigt Hill
#
# Bulk Modulus (GPa) = 60.58907 75.31601 67.95254
# Shear Modulus (GPa) = 44.23365 57.34479 50.78922
#
# Velocity S-wave (km/s) = 4.15534 4.73127 4.45263
# Velocity P-wave (km/s) = 6.83182 7.69718 7.27738
#
# Compressibility (1/GPa) = 0.01650463
#
# Stress axis : x y z
#
# Youngs Moduli (GPa) = 85.33839 274.83615 180.58251
#
# Poissons Ratio (x) = -0.01957 0.32947
# Poissons Ratio (y) = -0.00608 0.07973
# Poissons Ratio (z) = 0.15570 0.12134
#
# Static dielectric constant tensor:
#      x y z
#    x 1.928650 0.000000 0.056980 
#    y 0.000000 2.195070 0.000000 
#    z 0.056980 0.000000 2.073660 
# 
# From -- ./inp_files/73720.got.cif
#   From: 2010.05.17/outbox.cif.g08.bks.cpg/sg11_37_cif.got.tgz:73720.got - 2010.06.03 12:22:45.
