data_PCOD9157187
_publ_section_title
;
Structure prediction by ZEFSAII (Michael W. Deem and Ramdas Pophale) SiO2 
 PCOD9157187
Probable space group: P 21/M
;
_chemical_formula_sum "Si O2"
_cell_formula_units_Z 32
_cell_length_a 31.819034
_cell_length_b 8.015324
_cell_length_c 22.134807
_cell_angle_alpha 90.000000
_cell_angle_beta 19.551051
_cell_angle_gamma 90.000000
_cell_volume 1889.166630
_symmetry_space_group_name_H-M "P 21/M"
_symmetry_group_IT_number 11
_symmetry_cell_setting 'monoclinic'
loop_
_space_group_symop_operation_xyz
x,y,z
-x,1/2+y,-z
-x,-y,-z
x,1/2-y,z
loop_
_atom_site_type_symbol
_atom_site_label
_atom_site_fract_x
_atom_site_fract_y
_atom_site_fract_z
Si Si1 0.918921 0.052062 0.667969
Si Si2 0.542451 0.545786 0.296192
Si Si3 0.220837 0.449798 0.942970
Si Si4 0.980513 0.050570 0.337829
Si Si5 0.467987 0.451463 0.947635
Si Si6 0.698718 0.048308 0.714317
Si Si7 0.619791 0.051138 0.378475
Si Si8 0.628033 0.548406 0.050912
O O1 0.922958 0.250000 0.667714
O O2 0.975701 0.978646 0.652775
O O3 0.774651 0.996948 0.855924
O O4 0.000000 0.000000 0.500000
O O5 0.542937 0.750000 0.295597
O O6 0.666487 0.491019 0.165537
O O7 0.420481 0.492611 0.500029
O O8 0.558074 0.489492 0.206382
O O9 0.219150 0.250000 0.951365
O O10 0.260406 0.487801 0.820743
O O11 0.088763 0.515843 0.146571
O O12 0.974280 0.250000 0.337208
O O13 0.840418 0.983977 0.516984
O O14 0.472607 0.250000 0.939185
O O15 0.600025 0.510669 0.797146
O O16 0.360982 0.500070 0.140524
O O17 0.433229 0.513658 0.928234
O O18 0.701415 0.250000 0.708032
O O19 0.627417 0.250000 0.369335
O O20 0.500000 0.000000 0.500000
O O21 0.621246 0.750000 0.059754
#
# Coordination Sequence:
#
# PCOD9157187 Si02
#       8
#     4   4   4   4   4   4   4   4
#     4  12  24  34  45  65  93 123 157 188 224 276
#     4   8  14  26  43  62  87 118 148 178 218 267
#     4   9  16  28  44  63  88 120 151 182 225 271
#     4  10  19  33  50  66  92 124 154 189 233 277
#     4   9  18  31  49  70  89 114 152 195 232 272
#     4   9  18  32  49  68  89 116 152 194 234 272
#     4   9  16  26  41  62  88 119 152 183 220 267
#     4  10  18  32  50  67  92 122 152 187 231 276
#
# _framework density 16.938687000000002
#
# number of rings (size 3 to 8) (size 9 to 14) (size 15 to 20)
#    0.000    2.500    1.250    3.000    0.000    3.500 
#    0.000    0.625    0.000    0.000    0.000    0.875 
#    0.000    0.000    0.000    0.000    0.000    0.000 
#
# Total GULP energy -178340.418291 kJ/mol
# GULP energy per Si atom -5573.138072 kJ/mol
# Density = 1.690013 g / cm^3
# Si number density = 16.938687 Si / 1000 Ang^3
#
#
#
# Elastic Constant Matrix: (Units=GPa)
#
#
# Indices 1 2 3 4 5 6 
#
# 1 93.2219 -4.5590 85.6481 0.0000 11.0708 0.0000
# 2 -4.5590 7.3542 1.6009 0.0000 -2.7461 0.0000
# 3 85.6481 1.6009 158.3688 0.0000 19.7553 0.0000
# 4 0.0000 0.0000 0.0000 15.5614 0.0000 10.3857
# 5 11.0708 -2.7461 19.7553 0.0000 23.9074 0.0000
# 6 0.0000 0.0000 0.0000 10.3857 0.0000 6.1108
#
#
#
# Elastic Compliance Matrix: (Units=1/GPa)
#
#
# Indices 1 2 3 4 5 6 
#
# 1 0.023401 0.018130 -0.013097 0.000000 0.002068 0.000000
# 2 0.018130 0.158276 -0.014076 0.000000 0.021416 0.000000
# 3 -0.013097 -0.014076 0.014477 0.000000 -0.007515 0.000000
# 4 0.000000 0.000000 0.000000 -0.478573 0.000000 0.813358
# 5 0.002068 0.021416 -0.007515 0.000000 0.049540 0.000000
# 6 0.000000 0.000000 0.000000 0.813358 0.000000 -1.218699
#
#
# Mechanical properties :
#
#
# Convention : Reuss Voigt Hill
#
# Bulk Modulus (GPa) = 5.61587 47.14723 26.38155
# Shear Modulus (GPa) = -3.63865 20.86625 8.61380
#
# Velocity S-wave (km/s) = -1.46724 3.51361 2.25750
# Velocity P-wave (km/s) = 0.67247 6.65996 4.73325
#
# Compressibility (1/GPa) = 0.17806687
#
# Stress axis : x y z
#
# Youngs Moduli (GPa) = 42.73351 6.31809 69.07497
#
# Poissons Ratio (x) = -0.11455 0.90466
# Poissons Ratio (y) = -0.77475 0.97232
# Poissons Ratio (z) = 0.55967 0.08894
#
# Static dielectric constant tensor:
#      x y z
#    x 1.557650 0.000000 0.010010 
#    y 0.000000 1.604950 0.000000 
#    z 0.010010 0.000000 1.590900 
# 
# From -- ./inp_files/40720.got.cif
#   From: 2010.05.17/outbox.cif.g08.bks.cpg/sg11_21_cif.got.tgz:40720.got - 2010.06.03 12:22:45.
