data_PCOD9157382
_publ_section_title
;
Structure prediction by ZEFSAII (Michael W. Deem and Ramdas Pophale) SiO2 
 PCOD9157382
Probable space group: P 21/M
;
_chemical_formula_sum "Si O2"
_cell_formula_units_Z 28
_cell_length_a 12.878714
_cell_length_b 17.002614
_cell_length_c 13.129079
_cell_angle_alpha 90.000000
_cell_angle_beta 147.367969
_cell_angle_gamma 90.000000
_cell_volume 1550.264855
_symmetry_space_group_name_H-M "P 21/M"
_symmetry_group_IT_number 11
_symmetry_cell_setting 'monoclinic'
loop_
_space_group_symop_operation_xyz
x,y,z
-x,1/2+y,-z
-x,-y,-z
x,1/2-y,z
loop_
_atom_site_type_symbol
_atom_site_label
_atom_site_fract_x
_atom_site_fract_y
_atom_site_fract_z
Si Si1 0.437185 0.416218 0.496725
Si Si2 0.017324 0.405306 0.493546
Si Si3 0.021521 0.155356 0.117827
Si Si4 0.807130 0.076031 0.126346
Si Si5 0.907669 0.071528 0.610329
Si Si6 0.605923 0.554932 0.302530
Si Si7 0.189244 0.840848 0.263588
O O1 0.500000 0.500000 0.500000
O O2 0.221318 0.391086 0.292193
O O3 0.446955 0.416980 0.627610
O O4 0.587168 0.354458 0.575497
O O5 0.225717 0.394367 0.613631
O O6 0.000000 0.500000 0.500000
O O7 0.857011 0.385224 0.276965
O O8 0.984012 0.375016 0.579986
O O9 0.049304 0.250000 0.142861
O O10 0.887725 0.129513 0.101694
O O11 0.922660 0.131814 0.929903
O O12 0.585680 0.055282 0.923131
O O13 0.937639 0.997111 0.236811
O O14 0.867586 0.114316 0.681918
O O15 0.711248 0.028692 0.409779
O O16 0.145819 0.750000 0.241397
#
# Coordination Sequence:
#
# PCOD9157382 Si02
#       7
#     4   4   4   4   4   4   4
#     4  12  21  36  59  85 110 140 189 229 279 330
#     4   8  18  34  53  84 111 139 185 224 277 319
#     4  11  23  37  54  81 116 148 179 227 283 333
#     4  10  18  34  58  83 110 139 184 231 273 320
#     4  10  21  36  56  81 113 146 188 222 267 334
#     4  10  18  32  58  85 106 136 183 235 273 309
#     4  11  24  38  54  81 115 149 180 222 279 337
#
# _framework density 18.061429
#
# number of rings (size 3 to 8) (size 9 to 14) (size 15 to 20)
#    0.000    2.000    5.714    0.429    2.000    6.286 
#    0.000    0.714    0.000    0.000    0.000    0.000 
#    0.000    0.000    0.000    0.000    0.000    0.000 
#
# Total GULP energy -156013.415103 kJ/mol
# GULP energy per Si atom -5571.907682 kJ/mol
# Density = 1.802032 g / cm^3
# Si number density = 18.061429 Si / 1000 Ang^3
#
#
#
# Elastic Constant Matrix: (Units=GPa)
#
#
# Indices 1 2 3 4 5 6 
#
# 1 121.1439 17.1409 35.5913 0.0000 -31.2454 0.0000
# 2 17.1409 21.6101 22.0788 0.0000 -7.1680 0.0000
# 3 35.5913 22.0788 131.4510 0.0000 0.9943 0.0000
# 4 0.0000 0.0000 0.0000 18.6723 0.0000 -0.9988
# 5 -31.2454 -7.1680 0.9943 0.0000 27.5132 0.0000
# 6 0.0000 0.0000 0.0000 -0.9988 0.0000 2.5345
#
#
#
# Elastic Compliance Matrix: (Units=1/GPa)
#
#
# Indices 1 2 3 4 5 6 
#
# 1 0.013347 -0.002309 -0.003337 0.000000 0.014677 0.000000
# 2 -0.002309 0.063112 -0.010083 0.000000 0.014185 0.000000
# 3 -0.003337 -0.010083 0.010256 0.000000 -0.006787 0.000000
# 4 0.000000 0.000000 0.000000 0.054708 0.000000 0.021559
# 5 0.014677 0.014185 -0.006787 0.000000 0.056955 0.000000
# 6 0.000000 0.000000 0.000000 0.021559 0.000000 0.403045
#
#
# Mechanical properties :
#
#
# Convention : Reuss Voigt Hill
#
# Bulk Modulus (GPa) = 18.09702 47.09191 32.59446
# Shear Modulus (GPa) = 7.67695 23.03694 15.35694
#
# Velocity S-wave (km/s) = 2.06390 3.57526 2.91909
# Velocity P-wave (km/s) = 3.96498 6.57062 5.42651
#
# Compressibility (1/GPa) = 0.05525773
#
# Stress axis : x y z
#
# Youngs Moduli (GPa) = 74.92221 15.84473 97.50636
#
# Poissons Ratio (x) = 0.03659 0.32538
# Poissons Ratio (y) = 0.17302 0.98311
# Poissons Ratio (z) = 0.25001 0.15976
#
# Static dielectric constant tensor:
#      x y z
#    x 1.673260 0.000000 -0.019550 
#    y 0.000000 1.626210 0.000000 
#    z -0.019550 0.000000 1.626010 
# 
# From -- ./inp_files/36421.got.cif
#   From: 2010.05.17/outbox.cif.g08.bks.cpg/sg11_19_cif.got.tgz:36421.got - 2010.06.03 12:22:45.
