data_PCOD9157957
_publ_section_title
;
Structure prediction by ZEFSAII (Michael W. Deem and Ramdas Pophale) SiO2 
 PCOD9157957
Probable space group: P 21/M
;
_chemical_formula_sum "Si O2"
_cell_formula_units_Z 28
_cell_length_a 14.925355
_cell_length_b 8.952852
_cell_length_c 17.903162
_cell_angle_alpha 90.000000
_cell_angle_beta 131.077064
_cell_angle_gamma 90.000000
_cell_volume 1803.379831
_symmetry_space_group_name_H-M "P 21/M"
_symmetry_group_IT_number 11
_symmetry_cell_setting 'monoclinic'
loop_
_space_group_symop_operation_xyz
x,y,z
-x,1/2+y,-z
-x,-y,-z
x,1/2-y,z
loop_
_atom_site_type_symbol
_atom_site_label
_atom_site_fract_x
_atom_site_fract_y
_atom_site_fract_z
Si Si1 0.180750 0.075366 0.067161
Si Si2 0.534544 0.576499 0.753463
Si Si3 0.517817 0.572765 0.126236
Si Si4 0.094235 0.571760 0.868493
Si Si5 0.843952 0.931556 0.779229
Si Si6 0.688119 0.572172 0.086013
Si Si7 0.573691 0.931028 0.607579
O O1 0.147736 0.250000 0.037525
O O2 0.323811 0.070251 0.152701
O O3 0.135034 0.021985 0.123045
O O4 0.139301 0.978281 0.975074
O O5 0.498989 0.750000 0.739526
O O6 0.471657 0.483440 0.783623
O O7 0.521870 0.526344 0.660724
O O8 0.498100 0.750000 0.113657
O O9 0.630582 0.538659 0.135159
O O10 0.405050 0.493974 0.025149
O O11 0.101306 0.750000 0.865613
O O12 0.183531 0.496812 0.859120
O O13 0.955962 0.524380 0.790446
O O14 0.841308 0.750000 0.780346
O O15 0.712594 0.978871 0.682238
O O16 0.692892 0.750000 0.078597
O O17 0.571413 0.750000 0.602905
O O18 0.500000 0.000000 0.500000
#
# Coordination Sequence:
#
# PCOD9157957 Si02
#       7
#     4   4   4   4   4   4   4
#     4   9  16  28  43  60  88 125 153 181 223 266
#     4   9  17  29  47  67  93 124 150 183 234 277
#     4  10  19  30  45  65  88 119 161 197 224 264
#     4  11  19  27  42  65  90 122 160 191 216 260
#     4   8  17  31  45  63  91 122 151 184 229 274
#     4  10  20  31  42  60  92 128 156 190 232 265
#     4   9  18  34  52  71  94 120 148 185 232 279
#
# _framework density 15.526401999999999
#
# number of rings (size 3 to 8) (size 9 to 14) (size 15 to 20)
#    0.000    2.571    1.429    3.429    0.000    2.286 
#    0.000    4.286    0.000    0.000    0.000    1.000 
#    0.000    0.000    0.000    0.000    0.000    0.000 
#
# Total GULP energy -156053.082987 kJ/mol
# GULP energy per Si atom -5573.324392 kJ/mol
# Density = 1.549106 g / cm^3
# Si number density = 15.526402 Si / 1000 Ang^3
#
#
#
# Elastic Constant Matrix: (Units=GPa)
#
#
# Indices 1 2 3 4 5 6 
#
# 1 142.3453 49.3856 48.8332 0.0000 -3.4960 0.0000
# 2 49.3856 37.8027 22.2363 0.0000 -3.9502 0.0000
# 3 48.8332 22.2363 67.0067 0.0000 -10.7486 0.0000
# 4 0.0000 0.0000 0.0000 19.6096 0.0000 -4.1061
# 5 -3.4960 -3.9502 -10.7486 0.0000 16.8369 0.0000
# 6 0.0000 0.0000 0.0000 -4.1061 0.0000 23.8518
#
#
#
# Elastic Compliance Matrix: (Units=1/GPa)
#
#
# Indices 1 2 3 4 5 6 
#
# 1 0.014477 -0.015847 -0.006023 0.000000 -0.004557 0.000000
# 2 -0.015847 0.050225 -0.004185 0.000000 0.005822 0.000000
# 3 -0.006023 -0.004185 0.022665 0.000000 0.012237 0.000000
# 4 0.000000 0.000000 0.000000 0.052902 0.000000 0.009107
# 5 -0.004557 0.005822 0.012237 0.000000 0.067625 0.000000
# 6 0.000000 0.000000 0.000000 0.009107 0.000000 0.043493
#
#
# Mechanical properties :
#
#
# Convention : Reuss Voigt Hill
#
# Bulk Modulus (GPa) = 28.36177 54.22943 41.29560
# Shear Modulus (GPa) = 15.86040 20.50628 18.18334
#
# Velocity S-wave (km/s) = 3.19958 3.63814 3.42588
# Velocity P-wave (km/s) = 5.65298 7.25611 6.50413
#
# Compressibility (1/GPa) = 0.03525872
#
# Stress axis : x y z
#
# Youngs Moduli (GPa) = 69.07297 19.91032 44.12075
#
# Poissons Ratio (x) = 0.31551 0.26575
# Poissons Ratio (y) = 1.09458 0.18463
# Poissons Ratio (z) = 0.41604 0.08332
#
# Static dielectric constant tensor:
#      x y z
#    x 1.556720 0.000000 0.006730 
#    y 0.000000 1.521960 0.000000 
#    z 0.006730 0.000000 1.488840 
# 
# From -- ./inp_files/60142.got.cif
#   From: 2010.05.17/outbox.cif.g08.bks.cpg/sg11_31_cif.got.tgz:60142.got - 2010.06.03 12:22:45.
