data_PCOD9157926
_publ_section_title
;
Structure prediction by ZEFSAII (Michael W. Deem and Ramdas Pophale) SiO2 
 PCOD9157926
Probable space group: P 21/M
;
_chemical_formula_sum "Si O2"
_cell_formula_units_Z 24
_cell_length_a 7.581892
_cell_length_b 23.406440
_cell_length_c 9.028660
_cell_angle_alpha 90.000000
_cell_angle_beta 126.541602
_cell_angle_gamma 90.000000
_cell_volume 1287.305027
_symmetry_space_group_name_H-M "P 21/M"
_symmetry_group_IT_number 11
_symmetry_cell_setting 'monoclinic'
loop_
_space_group_symop_operation_xyz
x,y,z
-x,1/2+y,-z
-x,-y,-z
x,1/2-y,z
loop_
_atom_site_type_symbol
_atom_site_label
_atom_site_fract_x
_atom_site_fract_y
_atom_site_fract_z
Si Si1 0.343560 0.946789 0.421780
Si Si2 0.855864 0.109520 0.929800
Si Si3 0.881818 0.013191 0.190911
Si Si4 0.339406 0.682905 0.919704
Si Si5 0.780094 0.607957 0.140048
Si Si6 0.144138 0.890479 0.573935
O O1 0.345240 0.906821 0.279407
O O2 0.345242 0.906819 0.565831
O O3 0.500000 0.000000 0.500000
O O4 0.107278 0.977833 0.303641
O O5 0.066768 0.118489 0.928960
O O6 0.879051 0.054491 0.048222
O O7 0.796843 0.162082 0.004910
O O8 0.879048 0.054492 0.330830
O O9 0.714529 0.959630 0.107267
O O10 0.378083 0.750000 0.939043
O O11 0.203160 0.662082 0.708068
O O12 0.566072 0.647031 0.033037
O O13 0.933234 0.618491 0.362193
#
# Coordination Sequence:
#
# PCOD9157926 Si02
#       6
#     4   4   4   4   4   4
#     4  10  19  29  57  89 117 143 171 226 295 355
#     4   9  21  37  56  87 118 146 185 238 281 350
#     4   9  18  34  55  88 121 143 176 228 298 356
#     4  11  25  40  59  80 109 161 209 233 275 324
#     4  10  20  38  61  85 117 149 184 235 297 336
#     4   9  21  37  56  87 118 146 185 238 281 350
#
# _framework density 18.643601
#
# number of rings (size 3 to 8) (size 9 to 14) (size 15 to 20)
#    0.000    2.667    0.000    4.000    9.333    2.667 
#    0.000    2.500    0.000    0.000    0.000    0.000 
#    0.000    0.000    0.000    0.000    0.000    0.000 
#
# Total GULP energy -133772.375656 kJ/mol
# GULP energy per Si atom -5573.848986 kJ/mol
# Density = 1.860117 g / cm^3
# Si number density = 18.643601 Si / 1000 Ang^3
#
#
#
# Elastic Constant Matrix: (Units=GPa)
#
#
# Indices 1 2 3 4 5 6 
#
# 1 60.7451 38.9965 47.2209 0.0000 -13.7503 0.0000
# 2 38.9965 123.5662 40.3900 0.0000 -1.7824 0.0000
# 3 47.2209 40.3900 92.5329 0.0000 -26.9681 0.0000
# 4 0.0000 0.0000 0.0000 11.5112 0.0000 6.6247
# 5 -13.7503 -1.7824 -26.9681 0.0000 29.0626 0.0000
# 6 0.0000 0.0000 0.0000 6.6247 0.0000 16.6816
#
#
#
# Elastic Compliance Matrix: (Units=1/GPa)
#
#
# Indices 1 2 3 4 5 6 
#
# 1 0.030020 -0.005450 -0.012197 0.000000 0.002551 0.000000
# 2 -0.005450 0.010868 -0.003454 0.000000 -0.005117 0.000000
# 3 -0.012197 -0.003454 0.023021 0.000000 0.015379 0.000000
# 4 0.000000 0.000000 0.000000 0.112609 0.000000 -0.044720
# 5 0.002551 -0.005117 0.015379 0.000000 0.049573 0.000000
# 6 0.000000 0.000000 0.000000 -0.044720 0.000000 0.077706
#
#
# Mechanical properties :
#
#
# Convention : Reuss Voigt Hill
#
# Bulk Modulus (GPa) = 46.06882 58.89543 52.48213
# Shear Modulus (GPa) = 14.15486 21.46687 17.81086
#
# Velocity S-wave (km/s) = 2.75841 3.39696 3.09420
# Velocity P-wave (km/s) = 5.90838 6.85890 6.40131
#
# Compressibility (1/GPa) = 0.02170666
#
# Stress axis : x y z
#
# Youngs Moduli (GPa) = 33.31065 92.01293 43.43827
#
# Poissons Ratio (x) = 0.50151 0.52983
# Poissons Ratio (y) = 0.18156 0.15002
# Poissons Ratio (z) = 0.40630 0.31778
#
# Static dielectric constant tensor:
#      x y z
#    x 1.680180 0.000000 0.048970 
#    y 0.000000 1.644210 0.000000 
#    z 0.048970 0.000000 1.641990 
# 
# From -- ./inp_files/14850.got.cif
#   From: 2010.05.17/outbox.cif.g08.bks.cpg/sg11_8_cif.got.tgz:14850.got - 2010.06.03 12:22:45.
