data_PCOD9157485
_publ_section_title
;
Structure prediction by ZEFSAII (Michael W. Deem and Ramdas Pophale) SiO2 
 PCOD9157485
Probable space group: P 21/M
;
_chemical_formula_sum "Si O2"
_cell_formula_units_Z 28
_cell_length_a 13.039487
_cell_length_b 7.834942
_cell_length_c 13.922708
_cell_angle_alpha 90.000000
_cell_angle_beta 67.623728
_cell_angle_gamma 90.000000
_cell_volume 1315.293378
_symmetry_space_group_name_H-M "P 21/M"
_symmetry_group_IT_number 11
_symmetry_cell_setting 'monoclinic'
loop_
_space_group_symop_operation_xyz
x,y,z
-x,1/2+y,-z
-x,-y,-z
x,1/2-y,z
loop_
_atom_site_type_symbol
_atom_site_label
_atom_site_fract_x
_atom_site_fract_y
_atom_site_fract_z
Si Si1 0.989516 0.952598 0.782522
Si Si2 0.658445 0.959158 0.692565
Si Si3 0.465658 0.953316 0.619984
Si Si4 0.095682 0.044530 0.391759
Si Si5 0.182980 0.040937 0.002939
Si Si6 0.377332 0.454720 0.076503
Si Si7 0.219368 0.452347 0.773313
O O1 0.969828 0.750000 0.788385
O O2 0.935582 0.021106 0.703654
O O3 0.120255 0.981828 0.741966
O O4 0.927218 0.016502 0.900815
O O5 0.655444 0.750000 0.692099
O O6 0.559402 0.020506 0.660003
O O7 0.782292 0.013368 0.619174
O O8 0.642145 0.015631 0.808252
O O9 0.465876 0.750000 0.627519
O O10 0.500000 0.000000 0.500000
O O11 0.342468 0.010978 0.692194
O O12 0.100883 0.250000 0.383596
O O13 0.000000 0.000000 0.500000
O O14 0.183187 0.250000 0.998914
O O15 0.198956 0.978888 0.888683
O O16 0.285767 0.985444 0.033114
O O17 0.366515 0.250000 0.083245
O O18 0.500000 0.500000 0.000000
O O19 0.206631 0.250000 0.781560
#
# Coordination Sequence:
#
# PCOD9157485 Si02
#       7
#     4   4   4   4   4   4   4
#     4  10  20  38  62  87 117 156 197 240 291 348
#     4   9  19  38  62  84 112 150 189 232 286 346
#     4  11  24  42  62  86 116 154 198 243 291 346
#     4  10  21  38  61  88 115 149 192 240 293 346
#     4   9  18  35  59  85 116 153 193 236 288 347
#     4  10  18  33  57  84 114 149 188 230 282 342
#     4  11  23  38  58  87 121 157 195 239 290 346
#
# _framework density 21.288027
#
# number of rings (size 3 to 8) (size 9 to 14) (size 15 to 20)
#    0.000    2.000    1.429    2.143    2.000    0.571 
#    0.000    4.286    0.000    0.000    0.000    0.000 
#    0.000    0.000    0.000    0.000    0.000    0.000 
#
# Total GULP energy -156434.648667 kJ/mol
# GULP energy per Si atom -5586.951738 kJ/mol
# Density = 2.123957 g / cm^3
# Si number density = 21.288027 Si / 1000 Ang^3
#
#
#
# Elastic Constant Matrix: (Units=GPa)
#
#
# Indices 1 2 3 4 5 6 
#
# 1 122.7887 -14.5803 25.0696 0.0000 -17.9193 0.0000
# 2 -14.5803 17.7102 -10.3518 0.0000 5.4169 0.0000
# 3 25.0696 -10.3518 92.8665 0.0000 -21.2699 0.0000
# 4 0.0000 0.0000 0.0000 23.8475 0.0000 -4.6544
# 5 -17.9193 5.4169 -21.2699 0.0000 39.8000 0.0000
# 6 0.0000 0.0000 0.0000 -4.6544 0.0000 16.5016
#
#
#
# Elastic Compliance Matrix: (Units=1/GPa)
#
#
# Indices 1 2 3 4 5 6 
#
# 1 0.009550 0.006286 -0.001240 0.000000 0.002781 0.000000
# 2 0.006286 0.065523 0.004800 0.000000 -0.003522 0.000000
# 3 -0.001240 0.004800 0.012945 0.000000 0.005706 0.000000
# 4 0.000000 0.000000 0.000000 0.044376 0.000000 0.012517
# 5 0.002781 -0.003522 0.005706 0.000000 0.029907 0.000000
# 6 0.000000 0.000000 0.000000 0.012517 0.000000 0.064130
#
#
# Mechanical properties :
#
#
# Convention : Reuss Voigt Hill
#
# Bulk Modulus (GPa) = 9.28416 25.96003 17.62210
# Shear Modulus (GPa) = 20.60651 31.57837 26.09244
#
# Velocity S-wave (km/s) = 3.11462 3.85565 3.50478
# Velocity P-wave (km/s) = 4.15995 5.66062 4.96728
#
# Compressibility (1/GPa) = 0.10771035
#
# Stress axis : x y z
#
# Youngs Moduli (GPa) = 104.71623 15.26177 77.25000
#
# Poissons Ratio (x) = -0.09594 0.09581
# Poissons Ratio (y) = -0.65829 -0.37081
# Poissons Ratio (z) = 0.12987 -0.07326
#
# Static dielectric constant tensor:
#      x y z
#    x 1.764610 0.000000 0.012270 
#    y 0.000000 1.783040 0.000000 
#    z 0.012270 0.000000 1.739120 
# 
# From -- ./inp_files/37876.got.cif
#   From: 2010.05.17/outbox.cif.g08.bks.cpg/sg11_19_cif.got.tgz:37876.got - 2010.06.03 12:22:45.
