data_PCOD9157566
_publ_section_title
;
Structure prediction by ZEFSAII (Michael W. Deem and Ramdas Pophale) SiO2 
 PCOD9157566
Probable space group: P 21/M
;
_chemical_formula_sum "Si O2"
_cell_formula_units_Z 32
_cell_length_a 19.600284
_cell_length_b 7.708718
_cell_length_c 14.691938
_cell_angle_alpha 90.000000
_cell_angle_beta 41.209701
_cell_angle_gamma 90.000000
_cell_volume 1462.474508
_symmetry_space_group_name_H-M "P 21/M"
_symmetry_group_IT_number 11
_symmetry_cell_setting 'monoclinic'
loop_
_space_group_symop_operation_xyz
x,y,z
-x,1/2+y,-z
-x,-y,-z
x,1/2-y,z
loop_
_atom_site_type_symbol
_atom_site_label
_atom_site_fract_x
_atom_site_fract_y
_atom_site_fract_z
Si Si1 0.609333 0.951053 0.697093
Si Si2 0.212092 0.960058 0.934148
Si Si3 0.172814 0.045711 0.587703
Si Si4 0.337643 0.553242 0.160084
Si Si5 0.953352 0.459791 0.755968
Si Si6 0.381909 0.536221 0.910156
Si Si7 0.883567 0.457809 0.150697
Si Si8 0.116599 0.055114 0.361431
O O1 0.608798 0.750000 0.669649
O O2 0.716032 0.029807 0.551552
O O3 0.499459 0.022547 0.774710
O O4 0.612751 0.959553 0.803534
O O5 0.221073 0.750000 0.922166
O O6 0.303246 0.020967 0.909863
O O7 0.197194 0.020395 0.845926
O O8 0.103487 0.999014 0.093078
O O9 0.176079 0.250000 0.561381
O O10 0.071195 0.976227 0.637796
O O11 0.145790 0.029935 0.721225
O O12 0.376243 0.750000 0.122983
O O13 0.213577 0.551240 0.299422
O O14 0.355087 0.481461 0.040843
O O15 0.951604 0.250000 0.745327
O O16 0.884777 0.540583 0.745984
O O17 0.377141 0.750000 0.916658
O O18 0.876896 0.250000 0.163588
O O19 0.000000 0.500000 0.000000
O O20 0.132543 0.250000 0.377643
O O21 0.000000 0.000000 0.500000
#
# Coordination Sequence:
#
# PCOD9157566 Si02
#       8
#     4   4   4   4   4   4   4   4
#     4  10  21  37  58  83 113 152 195 238 285 338
#     4   9  17  33  57  82 109 143 183 227 280 339
#     4  10  21  37  56  81 115 151 184 228 285 343
#     4  11  21  36  59  84 113 151 194 241 287 336
#     4  10  18  34  56  77 110 150 184 224 284 344
#     4   9  18  35  59  83 110 150 196 236 282 341
#     4  11  21  35  59  87 113 146 186 232 285 343
#     4  12  24  36  52  80 116 152 191 233 285 343
#
# _framework density 21.880723
#
# number of rings (size 3 to 8) (size 9 to 14) (size 15 to 20)
#    0.000    1.750    2.500    3.000    0.000    2.000 
#    0.000    1.250    0.000    0.000    0.000    0.000 
#    0.000    0.000    0.000    0.000    0.000    0.000 
#
# Total GULP energy -178703.804022 kJ/mol
# GULP energy per Si atom -5584.493876 kJ/mol
# Density = 2.183092 g / cm^3
# Si number density = 21.880723 Si / 1000 Ang^3
#
#
#
# Elastic Constant Matrix: (Units=GPa)
#
#
# Indices 1 2 3 4 5 6 
#
# 1 133.0577 -11.7658 53.9238 0.0000 -20.0211 0.0000
# 2 -11.7658 38.2451 -0.6214 0.0000 -7.0937 0.0000
# 3 53.9238 -0.6214 80.7008 0.0000 -19.3216 0.0000
# 4 0.0000 0.0000 0.0000 11.6169 0.0000 6.8466
# 5 -20.0211 -7.0937 -19.3216 0.0000 41.0432 0.0000
# 6 0.0000 0.0000 0.0000 6.8466 0.0000 18.3171
#
#
#
# Elastic Compliance Matrix: (Units=1/GPa)
#
#
# Indices 1 2 3 4 5 6 
#
# 1 0.010964 0.003803 -0.006603 0.000000 0.002897 0.000000
# 2 0.003803 0.028493 -0.000787 0.000000 0.006409 0.000000
# 3 -0.006603 -0.000787 0.018025 0.000000 0.005129 0.000000
# 4 0.000000 0.000000 0.000000 0.110403 0.000000 -0.041267
# 5 0.002897 0.006409 0.005129 0.000000 0.029300 0.000000
# 6 0.000000 0.000000 0.000000 -0.041267 0.000000 0.070019
#
#
# Mechanical properties :
#
#
# Convention : Reuss Voigt Hill
#
# Bulk Modulus (GPa) = 19.87773 37.23075 28.55424
# Shear Modulus (GPa) = 17.17346 28.22658 22.70002
#
# Velocity S-wave (km/s) = 2.80459 3.59558 3.22443
# Velocity P-wave (km/s) = 4.42628 5.85576 5.19046
#
# Compressibility (1/GPa) = 0.05030756
#
# Stress axis : x y z
#
# Youngs Moduli (GPa) = 91.21015 35.09629 55.47730
#
# Poissons Ratio (x) = -0.13347 0.36632
# Poissons Ratio (y) = -0.34687 0.04367
# Poissons Ratio (z) = 0.60226 0.02763
#
# Static dielectric constant tensor:
#      x y z
#    x 1.806400 0.000000 -0.000520 
#    y 0.000000 1.805540 0.000000 
#    z -0.000520 0.000000 1.835860 
# 
# From -- ./inp_files/42888.got.cif
#   From: 2010.05.17/outbox.cif.g08.bks.cpg/sg11_22_cif.got.tgz:42888.got - 2010.06.03 12:22:45.
