data_PCOD9157752
_publ_section_title
;
Structure prediction by ZEFSAII (Michael W. Deem and Ramdas Pophale) SiO2 
 PCOD9157752
Probable space group: P 21/M
;
_chemical_formula_sum "Si O2"
_cell_formula_units_Z 30
_cell_length_a 17.131406
_cell_length_b 14.659483
_cell_length_c 12.187575
_cell_angle_alpha 90.000000
_cell_angle_beta 154.793534
_cell_angle_gamma 90.000000
_cell_volume 1303.519815
_symmetry_space_group_name_H-M "P 21/M"
_symmetry_group_IT_number 11
_symmetry_cell_setting 'monoclinic'
loop_
_space_group_symop_operation_xyz
x,y,z
-x,1/2+y,-z
-x,-y,-z
x,1/2-y,z
loop_
_atom_site_type_symbol
_atom_site_label
_atom_site_fract_x
_atom_site_fract_y
_atom_site_fract_z
Si Si1 0.417755 0.358148 0.463618
Si Si2 0.295532 0.647889 0.004874
Si Si3 0.950130 0.250000 0.604581
Si Si4 0.696272 0.418064 0.206293
Si Si5 0.254458 0.104496 0.028427
Si Si6 0.579962 0.357545 0.284020
Si Si7 0.025074 0.054752 0.351851
Si Si8 0.168869 0.484163 0.297099
O O1 0.375307 0.250000 0.404939
O O2 0.622632 0.368884 0.770034
O O3 0.377371 0.399040 0.293419
O O4 0.298676 0.413347 0.399980
O O5 0.357532 0.750000 0.058043
O O6 0.379191 0.588429 0.011914
O O7 0.074565 0.642648 0.727621
O O8 0.831788 0.331549 0.394110
O O9 0.085264 0.171974 0.831272
O O10 0.565766 0.401458 0.144678
O O11 0.817847 0.507968 0.377367
O O12 0.387753 0.139461 0.102180
O O13 0.152902 0.011344 0.871818
O O14 0.644981 0.250000 0.357524
O O15 0.724617 0.421889 0.533384
O O16 0.096522 0.057523 0.319235
O O17 0.000000 0.500000 0.000000
#
# Coordination Sequence:
#
# PCOD9157752 Si02
#       8
#     4   4   2   4   4   4   4   4
#     4  11  24  41  65  92 132 169 205 262 330 390
#     4  11  23  42  64  91 132 173 206 255 326 393
#     4  10  18  36  64  90 118 156 202 268 294 356
#     4  10  21  41  66  91 125 166 215 262 311 362
#     4  11  21  39  64  98 123 158 214 261 320 371
#     4  11  22  38  64  96 123 161 215 265 316 368
#     4  10  23  40  66  93 124 168 217 266 313 370
#     4  11  24  40  61  92 128 167 208 264 321 375
#
# _framework density 23.014610000000001
#
# number of rings (size 3 to 8) (size 9 to 14) (size 15 to 20)
#    0.000    1.333    4.000    1.200    1.867    2.133 
#    0.000    8.667    2.933    0.000    0.000    0.000 
#    0.000    0.000    0.000    0.000    0.000    0.000 
#
# Total GULP energy -167171.422121 kJ/mol
# GULP energy per Si atom -5572.380737 kJ/mol
# Density = 2.296223 g / cm^3
# Si number density = 23.014610 Si / 1000 Ang^3
#
#
#
# Elastic Constant Matrix: (Units=GPa)
#
#
# Indices 1 2 3 4 5 6 
#
# 1 102.8621 5.8074 13.6999 0.0000 -14.6357 0.0000
# 2 5.8074 72.6557 13.0105 0.0000 4.1635 0.0000
# 3 13.6999 13.0105 72.4332 0.0000 -21.0075 0.0000
# 4 0.0000 0.0000 0.0000 34.4720 0.0000 3.2387
# 5 -14.6357 4.1635 -21.0075 0.0000 27.8339 0.0000
# 6 0.0000 0.0000 0.0000 3.2387 0.0000 24.7553
#
#
#
# Elastic Compliance Matrix: (Units=1/GPa)
#
#
# Indices 1 2 3 4 5 6 
#
# 1 0.010608 -0.001139 -0.000172 0.000000 0.005618 0.000000
# 2 -0.001139 0.014954 -0.004216 0.000000 -0.006018 0.000000
# 3 -0.000172 -0.004216 0.018886 0.000000 0.014794 0.000000
# 4 0.000000 0.000000 0.000000 0.029370 0.000000 -0.003842
# 5 0.005618 -0.006018 0.014794 0.000000 0.050948 0.000000
# 6 0.000000 0.000000 0.000000 -0.003842 0.000000 0.040898
#
#
# Mechanical properties :
#
#
# Convention : Reuss Voigt Hill
#
# Bulk Modulus (GPa) = 29.94507 34.77628 32.36067
# Shear Modulus (GPa) = 26.61676 31.77448 29.19562
#
# Velocity S-wave (km/s) = 3.40445 3.71970 3.56556
# Velocity P-wave (km/s) = 5.33791 5.79582 5.57157
#
# Compressibility (1/GPa) = 0.03339448
#
# Stress axis : x y z
#
# Youngs Moduli (GPa) = 94.26462 66.86995 52.94793
#
# Poissons Ratio (x) = 0.07617 0.00913
# Poissons Ratio (y) = 0.10737 0.22323
# Poissons Ratio (z) = 0.01625 0.28192
#
# Static dielectric constant tensor:
#      x y z
#    x 1.903050 0.000000 0.021980 
#    y 0.000000 1.878750 0.000000 
#    z 0.021980 0.000000 1.891310 
# 
# From -- ./inp_files/39927.got.cif
#   From: 2010.05.17/outbox.cif.g08.bks.cpg/sg11_20_cif.got.tgz:39927.got - 2010.06.03 12:22:45.
