data_PCOD9157368
_publ_section_title
;
Structure prediction by ZEFSAII (Michael W. Deem and Ramdas Pophale) SiO2 
 PCOD9157368
Probable space group: P 21/M
;
_chemical_formula_sum "Si O2"
_cell_formula_units_Z 32
_cell_length_a 22.563663
_cell_length_b 14.368588
_cell_length_c 9.608869
_cell_angle_alpha 90.000000
_cell_angle_beta 24.845527
_cell_angle_gamma 90.000000
_cell_volume 1308.954005
_symmetry_space_group_name_H-M "P 21/M"
_symmetry_group_IT_number 11
_symmetry_cell_setting 'monoclinic'
loop_
_space_group_symop_operation_xyz
x,y,z
-x,1/2+y,-z
-x,-y,-z
x,1/2-y,z
loop_
_atom_site_type_symbol
_atom_site_label
_atom_site_fract_x
_atom_site_fract_y
_atom_site_fract_z
Si Si1 0.447147 0.860001 0.252165
Si Si2 0.923524 0.642393 0.155057
Si Si3 0.521098 0.602847 0.394587
Si Si4 0.159305 0.853475 0.434661
Si Si5 0.076168 0.146724 0.305506
Si Si6 0.329570 0.467370 0.398616
Si Si7 0.820985 0.940564 0.656533
Si Si8 0.609690 0.847703 0.489222
O O1 0.448838 0.750000 0.219625
O O2 0.426456 0.872330 0.463408
O O3 0.336247 0.921864 0.399924
O O4 0.590647 0.913177 0.896296
O O5 0.874364 0.750000 0.255481
O O6 0.824520 0.575323 0.274590
O O7 0.904839 0.601847 0.348458
O O8 0.074490 0.641180 0.760503
O O9 0.500000 0.500000 0.500000
O O10 0.515567 0.655412 0.552390
O O11 0.679608 0.615246 0.997773
O O12 0.226603 0.750000 0.285497
O O13 0.043734 0.856540 0.555841
O O14 0.230365 0.954065 0.265512
O O15 0.065240 0.250000 0.395302
O O16 0.080349 0.071081 0.418484
O O17 0.228945 0.142798 0.906152
O O18 0.413279 0.430826 0.356447
O O19 0.596002 0.750000 0.596252
#
# Coordination Sequence:
#
# PCOD9157368 Si02
#       8
#     4   4   4   4   4   4   4   4
#     4  11  23  39  59  86 121 156 195 247 301 349
#     4  11  21  37  63  90 115 149 194 244 294 349
#     4  11  22  38  57  82 117 158 200 242 297 349
#     4  10  21  38  59  85 118 153 190 238 298 355
#     4   9  18  33  57  86 111 145 192 240 287 340
#     4  11  21  36  61  87 115 152 201 241 294 351
#     4  11  22  36  59  85 116 151 195 248 289 346
#     4  10  18  32  57  85 111 144 196 247 285 336
#
# _framework density 24.447001
#
# number of rings (size 3 to 8) (size 9 to 14) (size 15 to 20)
#    0.000    1.500    3.750    2.625    0.000    1.000 
#    0.000    1.875    0.000    1.500    0.000    0.000 
#    0.000    0.000    0.000    0.000    0.000    0.000 
#
# Total GULP energy -178655.108153 kJ/mol
# GULP energy per Si atom -5582.972130 kJ/mol
# Density = 2.439136 g / cm^3
# Si number density = 24.447001 Si / 1000 Ang^3
#
#
#
# Elastic Constant Matrix: (Units=GPa)
#
#
# Indices 1 2 3 4 5 6 
#
# 1 91.7321 26.4440 29.9596 0.0000 25.7716 0.0000
# 2 26.4440 147.0661 23.8551 0.0000 8.1955 0.0000
# 3 29.9596 23.8551 48.6614 0.0000 19.3894 0.0000
# 4 0.0000 0.0000 0.0000 26.2899 0.0000 6.6773
# 5 25.7716 8.1955 19.3894 0.0000 30.4904 0.0000
# 6 0.0000 0.0000 0.0000 6.6773 0.0000 28.6283
#
#
#
# Elastic Compliance Matrix: (Units=1/GPa)
#
#
# Indices 1 2 3 4 5 6 
#
# 1 0.015695 -0.001456 -0.005115 0.000000 -0.009622 0.000000
# 2 -0.001456 0.007526 -0.003318 0.000000 0.001318 0.000000
# 3 -0.005115 -0.003318 0.031138 0.000000 -0.014586 0.000000
# 4 0.000000 0.000000 0.000000 0.040433 0.000000 -0.009431
# 5 -0.009622 0.001318 -0.014586 0.000000 0.049851 0.000000
# 6 0.000000 0.000000 0.000000 -0.009431 0.000000 0.037130
#
#
# Mechanical properties :
#
#
# Convention : Reuss Voigt Hill
#
# Bulk Modulus (GPa) = 28.91867 49.77521 39.34694
# Shear Modulus (GPa) = 23.46552 30.89509 27.18031
#
# Velocity S-wave (km/s) = 3.10151 3.55879 3.33799
# Velocity P-wave (km/s) = 4.96796 6.10666 5.56651
#
# Compressibility (1/GPa) = 0.03457974
#
# Stress axis : x y z
#
# Youngs Moduli (GPa) = 63.71500 132.86759 32.11520
#
# Poissons Ratio (x) = 0.19348 0.16428
# Poissons Ratio (y) = 0.09278 0.10656
# Poissons Ratio (z) = 0.32592 0.44088
#
# Static dielectric constant tensor:
#      x y z
#    x 2.015120 0.000000 -0.028370 
#    y 0.000000 2.056450 0.000000 
#    z -0.028370 0.000000 1.932320 
# 
# From -- ./inp_files/27792.got.cif
#   From: 2010.05.17/outbox.cif.g08.bks.cpg/sg11_14_cif.got.tgz:27792.got - 2010.06.03 12:22:45.
