data_PCOD9157450
_publ_section_title
;
Structure prediction by ZEFSAII (Michael W. Deem and Ramdas Pophale) SiO2 
 PCOD9157450
Probable space group: P 21/M
;
_chemical_formula_sum "Si O2"
_cell_formula_units_Z 28
_cell_length_a 7.354223
_cell_length_b 20.397361
_cell_length_c 13.860313
_cell_angle_alpha 90.000000
_cell_angle_beta 42.139641
_cell_angle_gamma 90.000000
_cell_volume 1394.978049
_symmetry_space_group_name_H-M "P 21/M"
_symmetry_group_IT_number 11
_symmetry_cell_setting 'monoclinic'
loop_
_space_group_symop_operation_xyz
x,y,z
-x,1/2+y,-z
-x,-y,-z
x,1/2-y,z
loop_
_atom_site_type_symbol
_atom_site_label
_atom_site_fract_x
_atom_site_fract_y
_atom_site_fract_z
Si Si1 0.254750 0.049313 0.115648
Si Si2 0.499477 0.826391 0.083753
Si Si3 0.860930 0.439586 0.426052
Si Si4 0.885598 0.674083 0.320936
Si Si5 0.207729 0.506218 0.831287
Si Si6 0.403979 0.424064 0.436908
Si Si7 0.506067 0.369066 0.696283
O O1 0.156617 0.064710 0.262445
O O2 0.307884 0.117672 0.038282
O O3 0.996003 0.009447 0.178157
O O4 0.500000 0.000000 0.000000
O O5 0.557560 0.750000 0.034662
O O6 0.497434 0.832452 0.200891
O O7 0.192959 0.845313 0.173642
O O8 0.624099 0.428260 0.438320
O O9 0.794622 0.513176 0.486002
O O10 0.794143 0.385537 0.533346
O O11 0.896292 0.750000 0.340136
O O12 0.773953 0.636253 0.458135
O O13 0.689500 0.662947 0.306662
O O14 0.409039 0.567494 0.731942
O O15 0.384841 0.441325 0.762778
O O16 0.000000 0.500000 0.000000
#
# Coordination Sequence:
#
# PCOD9157450 Si02
#       7
#     4   4   4   4   4   4   4
#     4  11  20  35  56  85 116 150 189 234 290 340
#     4  11  23  37  56  84 116 149 190 235 285 346
#     4   8  16  31  55  80 104 138 179 227 275 325
#     4  10  20  36  57  77 107 151 189 226 276 340
#     4  10  18  33  55  82 110 139 180 237 282 332
#     4   8  15  31  53  76 105 135 176 227 271 317
#     4  10  19  38  60  81 108 146 190 233 283 338
#
# _framework density 20.071999999999999
#
# number of rings (size 3 to 8) (size 9 to 14) (size 15 to 20)
#    0.000    2.286    1.429    4.714    0.000    0.000 
#    2.571    9.286    0.000    0.000    0.000    0.000 
#    0.000    0.000    0.000    0.000    0.000    0.000 
#
# Total GULP energy -155964.926291 kJ/mol
# GULP energy per Si atom -5570.175939 kJ/mol
# Density = 2.002632 g / cm^3
# Si number density = 20.072000 Si / 1000 Ang^3
#
#
#
# Elastic Constant Matrix: (Units=GPa)
#
#
# Indices 1 2 3 4 5 6 
#
# 1 51.2256 -6.6014 3.4067 0.0000 -1.6223 0.0000
# 2 -6.6014 53.2118 15.7290 0.0000 8.6439 0.0000
# 3 3.4067 15.7290 109.9909 0.0000 23.6380 0.0000
# 4 0.0000 0.0000 0.0000 18.3352 0.0000 -2.0322
# 5 -1.6223 8.6439 23.6380 0.0000 16.5117 0.0000
# 6 0.0000 0.0000 0.0000 -2.0322 0.0000 18.6819
#
#
#
# Elastic Compliance Matrix: (Units=1/GPa)
#
#
# Indices 1 2 3 4 5 6 
#
# 1 0.020043 0.002479 -0.001617 0.000000 0.002986 0.000000
# 2 0.002479 0.020909 -0.001108 0.000000 -0.009116 0.000000
# 3 -0.001617 -0.001108 0.013302 0.000000 -0.018622 0.000000
# 4 0.000000 0.000000 0.000000 0.055205 0.000000 0.006005
# 5 0.002986 -0.009116 -0.018622 0.000000 0.092288 0.000000
# 6 0.000000 0.000000 0.000000 0.006005 0.000000 0.054181
#
#
# Mechanical properties :
#
#
# Convention : Reuss Voigt Hill
#
# Bulk Modulus (GPa) = 18.59999 26.61077 22.60538
# Shear Modulus (GPa) = 18.22551 24.16537 21.19544
#
# Velocity S-wave (km/s) = 3.01658 3.47354 3.25310
# Velocity P-wave (km/s) = 4.62815 5.41975 5.03952
#
# Compressibility (1/GPa) = 0.05376347
#
# Stress axis : x y z
#
# Youngs Moduli (GPa) = 49.89243 47.82697 75.17536
#
# Poissons Ratio (x) = -0.11858 0.12157
# Poissons Ratio (y) = -0.12370 0.08326
# Poissons Ratio (z) = 0.08068 0.05297
#
# Static dielectric constant tensor:
#      x y z
#    x 2.206290 0.000000 0.439890 
#    y 0.000000 1.633710 0.000000 
#    z 0.439890 0.000000 2.204770 
# 
# From -- ./inp_files/58374.got.cif
#   From: 2010.05.17/outbox.cif.g08.bks.cpg/sg11_30_cif.got.tgz:58374.got - 2010.06.03 12:22:45.
