data_PCOD9157078
_publ_section_title
;
Structure prediction by ZEFSAII (Michael W. Deem and Ramdas Pophale) SiO2 
 PCOD9157078
Probable space group: P 21/M
;
_chemical_formula_sum "Si O2"
_cell_formula_units_Z 32
_cell_length_a 19.408511
_cell_length_b 21.670445
_cell_length_c 10.547463
_cell_angle_alpha 90.000000
_cell_angle_beta 156.934243
_cell_angle_gamma 90.000000
_cell_volume 1738.034632
_symmetry_space_group_name_H-M "P 21/M"
_symmetry_group_IT_number 11
_symmetry_cell_setting 'monoclinic'
loop_
_space_group_symop_operation_xyz
x,y,z
-x,1/2+y,-z
-x,-y,-z
x,1/2-y,z
loop_
_atom_site_type_symbol
_atom_site_label
_atom_site_fract_x
_atom_site_fract_y
_atom_site_fract_z
Si Si1 0.597290 0.141086 0.125775
Si Si2 0.028485 0.358914 0.125775
Si Si3 0.702657 0.556202 0.742182
Si Si4 0.644054 0.317381 0.490886
Si Si5 0.090081 0.939667 0.302898
Si Si6 0.712817 0.939667 0.302898
Si Si7 0.653168 0.682619 0.509115
Si Si8 0.460475 0.056202 0.257819
O O1 0.607492 0.176213 0.277589
O O2 0.789677 0.113120 0.429184
O O3 0.459623 0.085278 0.917713
O O4 0.511541 0.177739 0.865712
O O5 0.139507 0.386880 0.429185
O O6 0.170097 0.323787 0.277589
O O7 0.958091 0.414722 0.917713
O O8 0.854171 0.322261 0.865712
O O9 0.651986 0.622528 0.596131
O O10 0.648572 0.554835 0.797144
O O11 0.599273 0.500000 0.500001
O O12 0.909925 0.548306 0.070869
O O13 0.580958 0.250000 0.427183
O O14 0.555855 0.377472 0.403870
O O15 0.208663 1.000000 0.500000
O O16 0.660944 0.951694 0.070868
O O17 0.653775 0.750000 0.572817
#
# Coordination Sequence:
#
# PCOD9157078 Si02
#       8
#     4   4   4   4   4   4   4   4
#     4   9  19  31  50  83 111 132 165 209 263 317
#     4   9  19  31  50  83 111 132 165 209 263 317
#     4  10  22  38  54  74 102 139 182 221 256 299
#     4  10  19  34  56  79 106 137 169 209 259 314
#     4  10  18  31  52  78 109 140 169 211 261 311
#     4  10  18  31  52  78 109 140 169 211 261 311
#     4  10  19  34  56  79 106 137 169 209 259 314
#     4  10  22  38  54  74 102 139 182 221 256 299
#
# _framework density 18.411601000000001
#
# number of rings (size 3 to 8) (size 9 to 14) (size 15 to 20)
#    0.000    2.250    0.000    3.000    0.000    8.000 
#    0.000    2.500    0.000    0.000    0.000    0.000 
#    0.000    0.000    0.000    0.000    0.000    0.000 
#
# Total GULP energy -178557.503082 kJ/mol
# GULP energy per Si atom -5579.921971 kJ/mol
# Density = 1.836969 g / cm^3
# Si number density = 18.411601 Si / 1000 Ang^3
#
#
#
# Elastic Constant Matrix: (Units=GPa)
#
#
# Indices 1 2 3 4 5 6 
#
# 1 45.9414 27.1508 28.5046 0.0000 -1.0334 0.0000
# 2 27.1508 131.5944 39.5999 0.0000 -1.1362 0.0000
# 3 28.5046 39.5999 111.4172 0.0000 -4.9427 0.0000
# 4 0.0000 0.0000 0.0000 12.1443 0.0000 -0.3438
# 5 -1.0334 -1.1362 -4.9427 0.0000 14.7366 0.0000
# 6 0.0000 0.0000 0.0000 -0.3438 0.0000 8.3777
#
#
#
# Elastic Compliance Matrix: (Units=1/GPa)
#
#
# Indices 1 2 3 4 5 6 
#
# 1 0.027638 -0.004001 -0.005661 0.000000 -0.000269 0.000000
# 2 -0.004001 0.009090 -0.002222 0.000000 -0.000325 0.000000
# 3 -0.005661 -0.002222 0.011357 0.000000 0.003241 0.000000
# 4 0.000000 0.000000 0.000000 0.082439 0.000000 0.003383
# 5 -0.000269 -0.000325 0.003241 0.000000 0.068901 0.000000
# 6 0.000000 0.000000 0.000000 0.003383 0.000000 0.119504
#
#
# Mechanical properties :
#
#
# Convention : Reuss Voigt Hill
#
# Bulk Modulus (GPa) = 41.12173 53.27373 47.19773
# Shear Modulus (GPa) = 14.25306 19.96488 17.10897
#
# Velocity S-wave (km/s) = 2.78535 3.29654 3.05167
# Velocity P-wave (km/s) = 5.72079 6.59449 6.17311
#
# Compressibility (1/GPa) = 0.02431804
#
# Stress axis : x y z
#
# Youngs Moduli (GPa) = 36.18266 110.00626 88.05265
#
# Poissons Ratio (x) = 0.44015 0.49842
# Poissons Ratio (y) = 0.14477 0.19562
# Poissons Ratio (z) = 0.20481 0.24440
#
# Static dielectric constant tensor:
#      x y z
#    x 1.600490 0.000000 -0.003980 
#    y 0.000000 1.689110 0.000000 
#    z -0.003980 0.000000 1.644130 
# 
# From -- ./inp_files/43567.got.cif
#   From: 2010.05.17/outbox.cif.g08.bks.cpg/sg11_22_cif.got.tgz:43567.got - 2010.06.03 12:22:45.
