data_PCOD9157244
_publ_section_title
;
Structure prediction by ZEFSAII (Michael W. Deem and Ramdas Pophale) SiO2 
 PCOD9157244
Probable space group: P 21/M
;
_chemical_formula_sum "Si O2"
_cell_formula_units_Z 32
_cell_length_a 13.868400
_cell_length_b 22.430467
_cell_length_c 14.742575
_cell_angle_alpha 90.000000
_cell_angle_beta 20.626934
_cell_angle_gamma 90.000000
_cell_volume 1615.578366
_symmetry_space_group_name_H-M "P 21/M"
_symmetry_group_IT_number 11
_symmetry_cell_setting 'monoclinic'
loop_
_space_group_symop_operation_xyz
x,y,z
-x,1/2+y,-z
-x,-y,-z
x,1/2-y,z
loop_
_atom_site_type_symbol
_atom_site_label
_atom_site_fract_x
_atom_site_fract_y
_atom_site_fract_z
Si Si1 0.819637 0.619620 0.632204
Si Si2 0.386873 0.413996 0.389261
Si Si3 0.436653 0.179339 0.503963
Si Si4 0.062875 0.179255 0.003188
Si Si5 0.250039 0.122353 0.024814
Si Si6 0.868204 0.481548 0.883575
Si Si7 0.326833 0.558661 0.137706
Si Si8 0.839963 0.319333 0.532558
O O1 0.716874 0.611286 0.618647
O O2 0.061164 0.569902 0.432552
O O3 0.991421 0.674831 0.520718
O O4 0.555561 0.609809 0.927482
O O5 0.396867 0.359314 0.449341
O O6 0.184966 0.464197 0.609037
O O7 0.677311 0.447023 0.122573
O O8 0.410840 0.250000 0.507215
O O9 0.740398 0.168795 0.275450
O O10 0.218314 0.163232 0.773613
O O11 0.105688 0.250000 0.979865
O O12 0.182400 0.145364 0.983797
O O13 0.037290 0.152669 0.281934
O O14 0.206819 0.050902 0.060971
O O15 0.557228 0.143543 0.778644
O O16 0.787666 0.449866 0.861131
O O17 0.500000 0.500000 0.000000
O O18 0.782217 0.250000 0.564791
#
# Coordination Sequence:
#
# PCOD9157244 Si02
#       8
#     4   4   4   4   4   4   4   4
#     4  10  21  34  53  80 112 147 182 223 278 332
#     4  10  21  39  59  87 121 152 190 242 287 341
#     4  10  21  39  64  87 111 147 193 241 293 348
#     4  10  21  39  61  85 110 146 196 243 290 347
#     4  12  24  41  60  85 119 157 193 241 293 342
#     4  10  21  36  57  84 118 156 195 232 284 351
#     4  10  18  32  53  76 106 147 190 228 262 318
#     4  12  24  38  58  86 118 154 196 242 292 347
#
# _framework density 19.807148000000002
#
# number of rings (size 3 to 8) (size 9 to 14) (size 15 to 20)
#    0.000    1.500    0.000    6.000    0.000    3.500 
#    0.000    3.750    0.000    7.500    0.000    0.000 
#    0.000    0.000    0.000    0.000    0.000    0.000 
#
# Total GULP energy -178426.204516 kJ/mol
# GULP energy per Si atom -5575.818891 kJ/mol
# Density = 1.976207 g / cm^3
# Si number density = 19.807148 Si / 1000 Ang^3
#
#
#
# Elastic Constant Matrix: (Units=GPa)
#
#
# Indices 1 2 3 4 5 6 
#
# 1 44.7292 25.8053 7.7913 0.0000 2.5733 0.0000
# 2 25.8053 66.6002 7.4500 0.0000 5.6356 0.0000
# 3 7.7913 7.4500 75.0468 0.0000 8.9032 0.0000
# 4 0.0000 0.0000 0.0000 24.3180 0.0000 2.2234
# 5 2.5733 5.6356 8.9032 0.0000 15.2533 0.0000
# 6 0.0000 0.0000 0.0000 2.2234 0.0000 35.3268
#
#
#
# Elastic Compliance Matrix: (Units=1/GPa)
#
#
# Indices 1 2 3 4 5 6 
#
# 1 0.029066 -0.011071 -0.001958 0.000000 0.000329 0.000000
# 2 -0.011071 0.019776 -0.000181 0.000000 -0.005333 0.000000
# 3 -0.001958 -0.000181 0.014503 0.000000 -0.008068 0.000000
# 4 0.000000 0.000000 0.000000 0.041360 0.000000 -0.002603
# 5 0.000329 -0.005333 -0.008068 0.000000 0.072184 0.000000
# 6 0.000000 0.000000 0.000000 -0.002603 0.000000 0.028471
#
#
# Mechanical properties :
#
#
# Convention : Reuss Voigt Hill
#
# Bulk Modulus (GPa) = 27.08117 29.82991 28.45554
# Shear Modulus (GPa) = 20.48443 24.66827 22.57635
#
# Velocity S-wave (km/s) = 3.21938 3.53288 3.37977
# Velocity P-wave (km/s) = 5.24607 5.63334 5.44315
#
# Compressibility (1/GPa) = 0.03692602
#
# Stress axis : x y z
#
# Youngs Moduli (GPa) = 34.40463 50.56605 68.94922
#
# Poissons Ratio (x) = 0.55981 0.13498
# Poissons Ratio (y) = 0.38089 0.01249
# Poissons Ratio (z) = 0.06735 0.00916
#
# Static dielectric constant tensor:
#      x y z
#    x 1.697010 0.000000 0.000120 
#    y 0.000000 1.693450 0.000000 
#    z 0.000120 0.000000 1.702540 
# 
# From -- ./inp_files/52661.got.cif
#   From: 2010.05.17/outbox.cif.g08.bks.cpg/sg11_27_cif.got.tgz:52661.got - 2010.06.03 12:22:45.
