data_PCOD9157035
_publ_section_title
;
Structure prediction by ZEFSAII (Michael W. Deem and Ramdas Pophale) SiO2 
 PCOD9157035
Probable space group: P 21/M
;
_chemical_formula_sum "Si O2"
_cell_formula_units_Z 24
_cell_length_a 7.264917
_cell_length_b 17.027379
_cell_length_c 7.260984
_cell_angle_alpha 90.000000
_cell_angle_beta 95.382160
_cell_angle_gamma 90.000000
_cell_volume 894.241863
_symmetry_space_group_name_H-M "P 21/M"
_symmetry_group_IT_number 11
_symmetry_cell_setting 'monoclinic'
loop_
_space_group_symop_operation_xyz
x,y,z
-x,1/2+y,-z
-x,-y,-z
x,1/2-y,z
loop_
_atom_site_type_symbol
_atom_site_label
_atom_site_fract_x
_atom_site_fract_y
_atom_site_fract_z
Si Si1 0.665586 0.250000 0.390673
Si Si2 0.648736 0.419382 0.385680
Si Si3 0.165319 0.418092 0.613857
Si Si4 0.763190 0.750000 0.267865
Si Si5 0.789946 0.417300 0.803319
Si Si6 0.294612 0.250000 0.125809
Si Si7 0.226775 0.082906 0.215113
Si Si8 0.198031 0.750000 0.182092
O O1 0.743966 0.335739 0.343864
O O2 0.458365 0.250000 0.289611
O O3 0.689298 0.250000 0.613877
O O4 0.726904 0.502629 0.328257
O O5 0.657343 0.422537 0.610524
O O6 0.441195 0.413637 0.293782
O O7 0.263361 0.332850 0.633677
O O8 0.114815 0.427845 0.394065
O O9 0.989864 0.411513 0.727348
O O10 0.979993 0.750000 0.221890
O O11 0.635054 0.750000 0.076312
O O12 0.786754 0.502024 0.900046
O O13 0.759013 0.334896 0.902616
O O14 0.183875 0.168257 0.131531
#
# Coordination Sequence:
#
# PCOD9157035 Si02
#       8
#     2   4   4   2   4   2   4   2
#     4   8  16  31  50  71  98 134 167 202 249 301
#     4   9  16  28  49  78 103 128 168 215 252 295
#     4  10  18  31  51  77 102 134 172 211 252 305
#     4  10  21  35  50  75 107 138 171 214 260 303
#     4   9  16  28  49  78 103 128 168 215 252 295
#     4  10  21  35  50  75 107 138 171 214 260 303
#     4  10  18  31  51  77 102 134 172 211 252 305
#     4   8  16  31  50  71  98 134 167 202 249 301
#
# _framework density 26.838377999999999
#
# number of rings (size 3 to 8) (size 9 to 14) (size 15 to 20)
#    0.000    2.667    0.000    4.500    0.000    0.000 
#    0.000   11.667    0.000    0.000    0.000  122.500 
#    0.000    0.000    0.000    0.000    0.000    0.000 
#
# Total GULP energy -134045.009544 kJ/mol
# GULP energy per Si atom -5585.208731 kJ/mol
# Density = 2.677729 g / cm^3
# Si number density = 26.838378 Si / 1000 Ang^3
#
#
#
# Elastic Constant Matrix: (Units=GPa)
#
#
# Indices 1 2 3 4 5 6 
#
# 1 58.6951 35.1685 9.7928 0.0000 17.5914 0.0000
# 2 35.1685 371.9416 27.8142 0.0000 -3.0965 0.0000
# 3 9.7928 27.8142 85.7192 0.0000 4.4922 0.0000
# 4 0.0000 0.0000 0.0000 -36.8310 0.0000 9.9777
# 5 17.5914 -3.0965 4.4922 0.0000 20.1614 0.0000
# 6 0.0000 0.0000 0.0000 9.9777 0.0000 37.1527
#
#
#
# Elastic Compliance Matrix: (Units=1/GPa)
#
#
# Indices 1 2 3 4 5 6 
#
# 1 0.025394 -0.002519 -0.000913 0.000000 -0.022341 0.000000
# 2 -0.002519 0.003013 -0.000839 0.000000 0.002848 0.000000
# 3 -0.000913 -0.000839 0.012149 0.000000 -0.002039 0.000000
# 4 0.000000 0.000000 0.000000 -0.025310 0.000000 0.006797
# 5 -0.022341 0.002848 -0.002039 0.000000 0.069984 0.000000
# 6 0.000000 0.000000 0.000000 0.006797 0.000000 0.025090
#
#
# Mechanical properties :
#
#
# Convention : Reuss Voigt Hill
#
# Bulk Modulus (GPa) = 31.23536 73.54521 52.39028
# Shear Modulus (GPa) = 38.59928 33.66865 36.13397
#
# Velocity S-wave (km/s) = 3.79649 3.54573 3.67325
# Velocity P-wave (km/s) = 5.55710 6.65022 6.12808
#
# Compressibility (1/GPa) = 0.03201500
#
# Stress axis : x y z
#
# Youngs Moduli (GPa) = 39.37868 331.87043 82.30805
#
# Poissons Ratio (x) = 0.83593 0.07515
# Poissons Ratio (y) = 0.09919 0.06907
# Poissons Ratio (z) = 0.03595 0.27851
#
# Static dielectric constant tensor:
#      x y z
#    x 2.128510 0.000000 0.006400 
#    y 0.000000 2.204030 0.000000 
#    z 0.006400 0.000000 2.039420 
# 
# From -- ./inp_files/13240.got.cif
#   From: 2010.05.17/outbox.cif.g08.bks.cpg/sg11_7_cif.got.tgz:13240.got - 2010.06.03 12:22:45.
