data_PCOD9157721
_publ_section_title
;
Structure prediction by ZEFSAII (Michael W. Deem and Ramdas Pophale) SiO2 
 PCOD9157721
Probable space group: P 21/M
;
_chemical_formula_sum "Si O2"
_cell_formula_units_Z 24
_cell_length_a 8.812942
_cell_length_b 13.789700
_cell_length_c 9.644522
_cell_angle_alpha 90.000000
_cell_angle_beta 92.199646
_cell_angle_gamma 90.000000
_cell_volume 1171.214153
_symmetry_space_group_name_H-M "P 21/M"
_symmetry_group_IT_number 11
_symmetry_cell_setting 'monoclinic'
loop_
_space_group_symop_operation_xyz
x,y,z
-x,1/2+y,-z
-x,-y,-z
x,1/2-y,z
loop_
_atom_site_type_symbol
_atom_site_label
_atom_site_fract_x
_atom_site_fract_y
_atom_site_fract_z
Si Si1 0.910590 0.750000 0.459128
Si Si2 0.161099 0.250000 0.862207
Si Si3 0.097688 0.031143 0.197253
Si Si4 0.765466 0.966528 0.089541
Si Si5 0.016856 0.250000 0.139184
Si Si6 0.277181 0.066494 0.442322
Si Si7 0.587057 0.437405 0.313895
Si Si8 0.216203 0.750000 0.647228
O O1 0.908186 0.750000 0.292952
O O2 0.816597 0.657326 0.507451
O O3 0.074912 0.750000 0.537061
O O4 0.252057 0.350268 0.892497
O O5 0.030149 0.250000 0.974738
O O6 0.162414 0.000517 0.348048
O O7 0.090103 0.149177 0.192834
O O8 0.202115 0.004943 0.068922
O O9 0.927630 0.992679 0.167861
O O10 0.634704 0.025448 0.163559
O O11 0.852101 0.250000 0.199762
O O12 0.412138 0.086024 0.337149
O O13 0.356537 0.019702 0.577731
O O14 0.683216 0.344466 0.360704
#
# Coordination Sequence:
#
# PCOD9157721 Si02
#       8
#     2   2   4   4   2   4   4   2
#     4  12  21  37  63  86 110 153 189 236 287 339
#     4  10  22  33  57  88 114 141 187 241 294 328
#     4  10  20  36  61  86 115 148 194 238 282 335
#     4  10  20  37  60  86 112 150 193 243 283 327
#     4  10  18  36  58  87 113 140 184 245 282 328
#     4  11  23  39  57  84 122 154 190 227 288 345
#     4  11  24  39  56  84 119 156 188 235 282 346
#     4  12  23  38  62  87 111 144 200 238 283 335
#
# _framework density 20.491555000000002
#
# number of rings (size 3 to 8) (size 9 to 14) (size 15 to 20)
#    0.000    1.333    5.000    0.500    2.333    2.000 
#    0.000    0.000    0.000    0.000    0.000    0.000 
#    0.000    0.000    0.000    0.000    0.000    0.000 
#
# Total GULP energy -133991.918228 kJ/mol
# GULP energy per Si atom -5582.996593 kJ/mol
# Density = 2.044491 g / cm^3
# Si number density = 20.491555 Si / 1000 Ang^3
#
#
#
# Elastic Constant Matrix: (Units=GPa)
#
#
# Indices 1 2 3 4 5 6 
#
# 1 40.6179 3.1203 -1.0727 0.0000 -8.2751 0.0000
# 2 3.1203 53.2493 -18.5378 0.0000 -2.9470 0.0000
# 3 -1.0727 -18.5378 66.7265 0.0000 -7.7564 0.0000
# 4 0.0000 0.0000 0.0000 122.8531 0.0000 -36.6400
# 5 -8.2751 -2.9470 -7.7564 0.0000 27.6072 0.0000
# 6 0.0000 0.0000 0.0000 -36.6400 0.0000 33.8190
#
#
#
# Elastic Compliance Matrix: (Units=1/GPa)
#
#
# Indices 1 2 3 4 5 6 
#
# 1 0.026366 -0.000681 0.001183 0.000000 0.008163 0.000000
# 2 -0.000681 0.021238 0.006336 0.000000 0.003843 0.000000
# 3 0.001183 0.006336 0.017456 0.000000 0.005935 0.000000
# 4 0.000000 0.000000 0.000000 0.012025 0.000000 0.013029
# 5 0.008163 0.003843 0.005935 0.000000 0.040747 0.000000
# 6 0.000000 0.000000 0.000000 0.013029 0.000000 0.043684
#
#
# Mechanical properties :
#
#
# Convention : Reuss Voigt Hill
#
# Bulk Modulus (GPa) = 12.70057 14.17926 13.43992
# Shear Modulus (GPa) = 28.72143 48.66146 38.69145
#
# Velocity S-wave (km/s) = 3.74789 4.87838 4.35002
# Velocity P-wave (km/s) = 4.99403 6.21821 5.63943
#
# Compressibility (1/GPa) = 0.07873662
#
# Stress axis : x y z
#
# Youngs Moduli (GPa) = 37.92721 47.08547 57.28767
#
# Poissons Ratio (x) = 0.03208 -0.06780
# Poissons Ratio (y) = 0.02584 -0.36298
# Poissons Ratio (z) = -0.04489 -0.29834
#
# Static dielectric constant tensor:
#      x y z
#    x 1.713580 0.000000 0.001340 
#    y 0.000000 1.781450 0.000000 
#    z 0.001340 0.000000 1.766230 
# 
# From -- ./inp_files/12582.got.cif
#   From: 2010.05.17/outbox.cif.g08.bks.cpg/sg11_7_cif.got.tgz:12582.got - 2010.06.03 12:22:45.
