data_PCOD9157009
_publ_section_title
;
Structure prediction by ZEFSAII (Michael W. Deem and Ramdas Pophale) SiO2 
 PCOD9157009
Probable space group: P 21/M
;
_chemical_formula_sum "Si O2"
_cell_formula_units_Z 32
_cell_length_a 7.546365
_cell_length_b 20.575030
_cell_length_c 11.112215
_cell_angle_alpha 90.000000
_cell_angle_beta 109.842719
_cell_angle_gamma 90.000000
_cell_volume 1622.918828
_symmetry_space_group_name_H-M "P 21/M"
_symmetry_group_IT_number 11
_symmetry_cell_setting 'monoclinic'
loop_
_space_group_symop_operation_xyz
x,y,z
-x,1/2+y,-z
-x,-y,-z
x,1/2-y,z
loop_
_atom_site_type_symbol
_atom_site_label
_atom_site_fract_x
_atom_site_fract_y
_atom_site_fract_z
Si Si1 0.941276 0.573613 0.956863
Si Si2 0.662411 0.910002 0.398102
Si Si3 0.628965 0.444384 0.325171
Si Si4 0.515675 0.926380 0.956899
Si Si5 0.958285 0.177171 0.837527
Si Si6 0.803842 0.555564 0.674811
Si Si7 0.764115 0.409949 0.601891
Si Si8 0.621044 0.677166 0.162541
O O1 0.727052 0.580035 0.954029
O O2 0.933332 0.581856 0.811260
O O3 0.000000 0.500000 0.000000
O O4 0.062560 0.625715 0.058884
O O5 0.796083 0.907705 0.545675
O O6 0.450065 0.911263 0.399943
O O7 0.668881 0.853319 0.303021
O O8 0.691730 0.980117 0.341904
O O9 0.621960 0.418102 0.188693
O O10 0.412049 0.443962 0.324156
O O11 0.750230 0.407634 0.454308
O O12 0.496523 0.874272 0.058958
O O13 0.500000 0.000000 0.000000
O O14 0.890002 0.250000 0.847243
O O15 0.865567 0.146728 0.697018
O O16 0.180023 0.181228 0.860288
O O17 0.849746 0.480053 0.658082
O O18 0.543095 0.750000 0.152915
#
# Coordination Sequence:
#
# PCOD9157009 Si02
#       8
#     4   4   4   4   4   4   4   4
#     4  10  18  31  51  73  98 129 164 204 245 289
#     4   9  16  30  51  73  96 124 159 202 244 286
#     4   8  15  28  49  75  99 118 152 207 251 277
#     4  10  18  31  51  73  98 129 164 204 245 289
#     4  10  21  34  47  69 103 136 162 196 247 300
#     4   8  15  28  49  75  99 118 152 207 251 277
#     4   9  16  30  51  73  96 124 159 202 244 286
#     4  10  21  34  47  69 103 136 162 196 247 300
#
# _framework density 19.717559999999999
#
# number of rings (size 3 to 8) (size 9 to 14) (size 15 to 20)
#    0.000    2.750    2.500    1.500    0.000    0.500 
#    0.000    5.000    0.000    4.500    0.000    0.000 
#    0.000    0.000    0.000    0.000    0.000    0.000 
#
# Total GULP energy -178469.202647 kJ/mol
# GULP energy per Si atom -5577.162583 kJ/mol
# Density = 1.967268 g / cm^3
# Si number density = 19.717560 Si / 1000 Ang^3
#
#
#
# Elastic Constant Matrix: (Units=GPa)
#
#
# Indices 1 2 3 4 5 6 
#
# 1 46.8060 4.9053 4.2896 0.0000 1.6972 0.0000
# 2 4.9053 147.7706 103.4795 0.0000 -6.4227 0.0000
# 3 4.2896 103.4795 189.6778 0.0000 -10.9592 0.0000
# 4 0.0000 0.0000 0.0000 21.2875 0.0000 -0.3884
# 5 1.6972 -6.4227 -10.9592 0.0000 9.7973 0.0000
# 6 0.0000 0.0000 0.0000 -0.3884 0.0000 15.4257
#
#
#
# Elastic Compliance Matrix: (Units=1/GPa)
#
#
# Indices 1 2 3 4 5 6 
#
# 1 0.021636 -0.000630 -0.000413 0.000000 -0.004623 0.000000
# 2 -0.000630 0.010972 -0.005933 0.000000 0.000665 0.000000
# 3 -0.000413 -0.005933 0.008871 0.000000 0.006105 0.000000
# 4 0.000000 0.000000 0.000000 0.046997 0.000000 0.001183
# 5 -0.004623 0.000665 0.006105 0.000000 0.110135 0.000000
# 6 0.000000 0.000000 0.000000 0.001183 0.000000 0.064857
#
#
# Mechanical properties :
#
#
# Convention : Reuss Voigt Hill
#
# Bulk Modulus (GPa) = 36.32749 67.73370 52.03060
# Shear Modulus (GPa) = 17.44618 27.40743 22.42681
#
# Velocity S-wave (km/s) = 2.97779 3.73232 3.37620
# Velocity P-wave (km/s) = 5.50336 7.28012 6.45318
#
# Compressibility (1/GPa) = 0.02752736
#
# Stress axis : x y z
#
# Youngs Moduli (GPa) = 46.21864 91.14272 112.72753
#
# Poissons Ratio (x) = 0.05744 0.04651
# Poissons Ratio (y) = 0.02913 0.66882
# Poissons Ratio (z) = 0.01907 0.54075
#
# Static dielectric constant tensor:
#      x y z
#    x 1.754210 0.000000 0.002530 
#    y 0.000000 1.663600 0.000000 
#    z 0.002530 0.000000 1.715530 
# 
# From -- ./inp_files/32680.got.cif
#   From: 2010.05.17/outbox.cif.g08.bks.cpg/sg11_17_cif.got.tgz:32680.got - 2010.06.03 12:22:45.
