data_PCOD9157538
_publ_section_title
;
Structure prediction by ZEFSAII (Michael W. Deem and Ramdas Pophale) SiO2 
 PCOD9157538
Probable space group: P 21/M
;
_chemical_formula_sum "Si O2"
_cell_formula_units_Z 32
_cell_length_a 11.414839
_cell_length_b 18.287650
_cell_length_c 17.368020
_cell_angle_alpha 90.000000
_cell_angle_beta 149.944921
_cell_angle_gamma 90.000000
_cell_volume 1815.809657
_symmetry_space_group_name_H-M "P 21/M"
_symmetry_group_IT_number 11
_symmetry_cell_setting 'monoclinic'
loop_
_space_group_symop_operation_xyz
x,y,z
-x,1/2+y,-z
-x,-y,-z
x,1/2-y,z
loop_
_atom_site_type_symbol
_atom_site_label
_atom_site_fract_x
_atom_site_fract_y
_atom_site_fract_z
Si Si1 0.897665 0.945573 0.598836
Si Si2 0.041695 0.166031 0.585132
Si Si3 0.314238 0.905377 0.735980
Si Si4 0.806272 0.664390 0.020176
Si Si5 0.581499 0.936384 0.265216
Si Si6 0.867193 0.072790 0.896783
Si Si7 0.921239 0.389725 0.678578
Si Si8 0.529002 0.078004 0.556147
O O1 0.743492 0.951088 0.432930
O O2 0.726421 0.900382 0.558172
O O3 0.142863 0.911073 0.712283
O O4 0.932490 0.026335 0.654439
O O5 0.048467 0.250000 0.563681
O O6 0.285362 0.125125 0.707404
O O7 0.849771 0.121298 0.427217
O O8 0.977997 0.159560 0.638110
O O9 0.415339 0.986451 0.777127
O O10 0.531394 0.851241 0.862786
O O11 0.858061 0.750000 0.054423
O O12 0.937681 0.630394 0.020310
O O13 0.903279 0.624329 0.151517
O O14 0.325083 0.911440 0.146670
O O15 0.703163 0.065715 0.727459
O O16 0.000000 0.000000 0.000000
O O17 0.666831 0.374676 0.571789
O O18 0.500000 0.000000 0.500000
#
# Coordination Sequence:
#
# PCOD9157538 Si02
#       8
#     4   4   4   4   4   4   4   4
#     4   9  16  32  55  81 103 133 178 233 259 302
#     4  11  21  34  55  80 106 144 180 217 276 322
#     4  11  19  35  56  78 110 137 185 225 267 311
#     4  11  24  36  50  79 116 143 172 221 277 328
#     4  10  18  34  57  81 105 133 184 238 254 305
#     4  10  19  34  56  76 100 141 178 216 262 319
#     4  10  18  34  53  76 109 143 172 214 267 321
#     4   8  17  29  50  79 104 126 171 221 264 294
#
# _framework density 17.622993999999998
#
# number of rings (size 3 to 8) (size 9 to 14) (size 15 to 20)
#    0.000    2.000    3.750    1.500    0.000    1.000 
#    0.000    0.000    0.000    2.250    0.000    0.000 
#    0.000    0.000    0.000    0.000    0.000    0.000 
#
# Total GULP energy -178206.042964 kJ/mol
# GULP energy per Si atom -5568.938843 kJ/mol
# Density = 1.758288 g / cm^3
# Si number density = 17.622994 Si / 1000 Ang^3
#
#
#
# Elastic Constant Matrix: (Units=GPa)
#
#
# Indices 1 2 3 4 5 6 
#
# 1 136.9534 31.0406 35.0875 0.0000 23.3314 0.0000
# 2 31.0406 52.7217 4.8238 0.0000 4.9144 0.0000
# 3 35.0875 4.8238 33.7960 0.0000 22.5147 0.0000
# 4 0.0000 0.0000 0.0000 9.7050 0.0000 4.6202
# 5 23.3314 4.9144 22.5147 0.0000 22.8236 0.0000
# 6 0.0000 0.0000 0.0000 4.6202 0.0000 17.1479
#
#
#
# Elastic Compliance Matrix: (Units=1/GPa)
#
#
# Indices 1 2 3 4 5 6 
#
# 1 0.011442 -0.005768 -0.011934 0.000000 0.001318 0.000000
# 2 -0.005768 0.022263 0.006056 0.000000 -0.004872 0.000000
# 3 -0.011934 0.006056 0.098758 0.000000 -0.086526 0.000000
# 4 0.000000 0.000000 0.000000 0.118201 0.000000 -0.031847
# 5 0.001318 -0.004872 -0.086526 0.000000 0.128872 0.000000
# 6 0.000000 0.000000 0.000000 -0.031847 0.000000 0.066897
#
#
# Mechanical properties :
#
#
# Convention : Reuss Voigt Hill
#
# Bulk Modulus (GPa) = 9.15984 40.59722 24.87853
# Shear Modulus (GPa) = 9.87918 20.10325 14.99122
#
# Velocity S-wave (km/s) = 2.37024 3.38115 2.91978
# Velocity P-wave (km/s) = 3.56366 6.19107 5.05119
#
# Compressibility (1/GPa) = 0.10917217
#
# Stress axis : x y z
#
# Youngs Moduli (GPa) = 87.39776 44.91702 10.12575
#
# Poissons Ratio (x) = 0.25906 0.12084
# Poissons Ratio (y) = 0.50407 -0.06132
# Poissons Ratio (z) = 1.04299 -0.27201
#
# Static dielectric constant tensor:
#      x y z
#    x 1.647200 0.000000 0.024580 
#    y 0.000000 1.581830 0.000000 
#    z 0.024580 0.000000 1.601810 
# 
# From -- ./inp_files/59627.got.cif
#   From: 2010.05.17/outbox.cif.g08.bks.cpg/sg11_30_cif.got.tgz:59627.got - 2010.06.03 12:22:45.
