data_PCOD9157696
_publ_section_title
;
Structure prediction by ZEFSAII (Michael W. Deem and Ramdas Pophale) SiO2 
 PCOD9157696
Probable space group: P 21/M
;
_chemical_formula_sum "Si O2"
_cell_formula_units_Z 32
_cell_length_a 16.674612
_cell_length_b 8.154572
_cell_length_c 25.387842
_cell_angle_alpha 90.000000
_cell_angle_beta 153.358022
_cell_angle_gamma 90.000000
_cell_volume 1547.967827
_symmetry_space_group_name_H-M "P 21/M"
_symmetry_group_IT_number 11
_symmetry_cell_setting 'monoclinic'
loop_
_space_group_symop_operation_xyz
x,y,z
-x,1/2+y,-z
-x,-y,-z
x,1/2-y,z
loop_
_atom_site_type_symbol
_atom_site_label
_atom_site_fract_x
_atom_site_fract_y
_atom_site_fract_z
Si Si1 0.559510 0.444913 0.092767
Si Si2 0.962079 0.449654 0.332596
Si Si3 0.733654 0.442978 0.995380
Si Si4 0.755536 0.552103 0.584140
Si Si5 0.447444 0.055985 0.215400
Si Si6 0.155418 0.053339 0.551935
Si Si7 0.585270 0.947327 0.684072
Si Si8 0.139192 0.451053 0.240369
O O1 0.573173 0.250000 0.100406
O O2 0.760191 0.511019 0.221003
O O3 0.414947 0.490222 0.051882
O O4 0.500000 0.500000 0.000000
O O5 0.956806 0.250000 0.330546
O O6 0.059245 0.497893 0.335645
O O7 0.089511 0.499777 0.455389
O O8 0.741276 0.250000 0.009799
O O9 0.672256 0.474679 0.899653
O O10 0.934275 0.508307 0.121626
O O11 0.749267 0.750000 0.580263
O O12 0.591283 0.492155 0.452557
O O13 0.758937 0.496704 0.646593
O O14 0.412254 0.250000 0.193806
O O15 0.419449 0.991498 0.258559
O O16 0.654978 0.025301 0.323520
O O17 0.174890 0.250000 0.564217
O O18 0.000000 0.000000 0.500000
O O19 0.592020 0.750000 0.691103
O O20 0.753971 0.004915 0.748668
O O21 0.137992 0.250000 0.239292
#
# Coordination Sequence:
#
# PCOD9157696 Si02
#       8
#     4   4   4   4   4   4   4   4
#     4  11  22  39  61  88 123 161 200 245 298 356
#     4   9  19  34  55  81 112 150 190 234 287 348
#     4  11  23  41  63  86 116 159 210 254 300 362
#     4  10  18  35  61  87 116 150 193 243 299 364
#     4  11  23  39  58  84 123 160 196 250 307 361
#     4  11  21  36  58  84 114 151 198 244 295 354
#     4  10  21  38  59  87 121 156 195 247 306 361
#     4   9  20  38  61  86 116 156 199 248 309 363
#
# _framework density 20.672263999999998
#
# number of rings (size 3 to 8) (size 9 to 14) (size 15 to 20)
#    0.000    1.750    1.250    3.375    0.000    4.000 
#    0.000    6.875    0.000    0.000    0.000    0.000 
#    0.000    0.000    0.000    0.000    0.000    0.000 
#
# Total GULP energy -178806.625403 kJ/mol
# GULP energy per Si atom -5587.707044 kJ/mol
# Density = 2.062521 g / cm^3
# Si number density = 20.672264 Si / 1000 Ang^3
#
#
#
# Elastic Constant Matrix: (Units=GPa)
#
#
# Indices 1 2 3 4 5 6 
#
# 1 111.4291 -1.4335 19.3153 0.0000 1.1194 0.0000
# 2 -1.4335 17.1510 -4.4103 0.0000 2.9220 0.0000
# 3 19.3153 -4.4103 81.9520 0.0000 -0.0513 0.0000
# 4 0.0000 0.0000 0.0000 23.9921 0.0000 -3.6429
# 5 1.1194 2.9220 -0.0513 0.0000 36.0403 0.0000
# 6 0.0000 0.0000 0.0000 -3.6429 0.0000 21.8759
#
#
#
# Elastic Compliance Matrix: (Units=1/GPa)
#
#
# Indices 1 2 3 4 5 6 
#
# 1 0.009361 0.000273 -0.002192 0.000000 -0.000316 0.000000
# 2 0.000273 0.059970 0.003160 0.000000 -0.004866 0.000000
# 3 -0.002192 0.003160 0.012889 0.000000 -0.000170 0.000000
# 4 0.000000 0.000000 0.000000 0.042762 0.000000 0.007121
# 5 -0.000316 -0.004866 -0.000170 0.000000 0.028151 0.000000
# 6 0.000000 0.000000 0.000000 0.007121 0.000000 0.046898
#
#
# Mechanical properties :
#
#
# Convention : Reuss Voigt Hill
#
# Bulk Modulus (GPa) = 11.80620 26.38612 19.09616
# Shear Modulus (GPa) = 22.14522 29.51904 25.83213
#
# Velocity S-wave (km/s) = 3.27655 3.78293 3.53881
# Velocity P-wave (km/s) = 4.47637 5.64557 5.09462
#
# Compressibility (1/GPa) = 0.08470126
#
# Stress axis : x y z
#
# Youngs Moduli (GPa) = 106.82696 16.67504 77.58668
#
# Poissons Ratio (x) = -0.00455 0.17006
# Poissons Ratio (y) = -0.02912 -0.24518
# Poissons Ratio (z) = 0.23414 -0.05269
#
# Static dielectric constant tensor:
#      x y z
#    x 1.746940 0.000000 0.004150 
#    y 0.000000 1.735170 0.000000 
#    z 0.004150 0.000000 1.723410 
# 
# From -- ./inp_files/69095.got.cif
#   From: 2010.05.17/outbox.cif.g08.bks.cpg/sg11_35_cif.got.tgz:69095.got - 2010.06.03 12:22:45.
