data_PCOD9157633
_publ_section_title
;
Structure prediction by ZEFSAII (Michael W. Deem and Ramdas Pophale) SiO2 
 PCOD9157633
Probable space group: P 21/M
;
_chemical_formula_sum "Si O2"
_cell_formula_units_Z 28
_cell_length_a 20.254880
_cell_length_b 7.659330
_cell_length_c 23.335535
_cell_angle_alpha 90.000000
_cell_angle_beta 20.647135
_cell_angle_gamma 90.000000
_cell_volume 1276.541093
_symmetry_space_group_name_H-M "P 21/M"
_symmetry_group_IT_number 11
_symmetry_cell_setting 'monoclinic'
loop_
_space_group_symop_operation_xyz
x,y,z
-x,1/2+y,-z
-x,-y,-z
x,1/2-y,z
loop_
_atom_site_type_symbol
_atom_site_label
_atom_site_fract_x
_atom_site_fract_y
_atom_site_fract_z
Si Si1 0.042976 0.963007 0.108875
Si Si2 0.387168 0.040706 0.534300
Si Si3 0.252897 0.048859 0.462684
Si Si4 0.114253 0.963392 0.178787
Si Si5 0.836623 0.055054 0.589593
Si Si6 0.604459 0.463359 0.243519
Si Si7 0.521066 0.458867 0.049521
O O1 0.036327 0.750000 0.111718
O O2 0.132423 0.010238 0.097703
O O3 0.827237 0.024144 0.285194
O O4 0.186260 0.022921 0.943016
O O5 0.373214 0.250000 0.538722
O O6 0.505900 0.978175 0.382631
O O7 0.500000 0.000000 0.500000
O O8 0.261100 0.250000 0.474652
O O9 0.457633 0.981261 0.312898
O O10 0.083306 0.969924 0.636699
O O11 0.196783 0.046666 0.441968
O O12 0.112844 0.750000 0.182362
O O13 0.283241 0.018817 0.082306
O O14 0.879037 0.250000 0.536089
O O15 0.647316 0.044186 0.779269
O O16 0.000000 0.000000 0.500000
O O17 0.616780 0.250000 0.235278
O O18 0.506544 0.250000 0.068950
O O19 0.500000 0.500000 0.000000
#
# Coordination Sequence:
#
# PCOD9157633 Si02
#       7
#     4   4   4   4   4   4   4
#     4   9  16  30  53  82 111 142 187 236 279 335
#     4  10  20  35  55  81 113 149 190 235 285 344
#     4  10  18  34  60  87 111 140 184 239 294 350
#     4   9  17  31  56  85 109 138 182 234 285 343
#     4  12  25  40  56  79 112 152 197 244 296 355
#     4   9  17  31  56  85 112 146 189 234 284 347
#     4  11  22  37  57  83 115 151 192 241 297 355
#
# _framework density 21.934273000000001
#
# number of rings (size 3 to 8) (size 9 to 14) (size 15 to 20)
#    0.000    2.000    1.429    3.429    0.000    4.000 
#    0.000    1.429    0.000    4.286    0.000    0.000 
#    0.000    0.000    0.000    0.000    0.000    0.000 
#
# Total GULP energy -156334.200608 kJ/mol
# GULP energy per Si atom -5583.364307 kJ/mol
# Density = 2.188435 g / cm^3
# Si number density = 21.934273 Si / 1000 Ang^3
#
#
#
# Elastic Constant Matrix: (Units=GPa)
#
#
# Indices 1 2 3 4 5 6 
#
# 1 129.5982 -6.6851 79.2763 0.0000 -4.5634 0.0000
# 2 -6.6851 42.9592 0.6261 0.0000 -2.9875 0.0000
# 3 79.2763 0.6261 191.8374 0.0000 8.0754 0.0000
# 4 0.0000 0.0000 0.0000 6.0639 0.0000 -1.6597
# 5 -4.5634 -2.9875 8.0754 0.0000 32.5800 0.0000
# 6 0.0000 0.0000 0.0000 -1.6597 0.0000 21.1013
#
#
#
# Elastic Compliance Matrix: (Units=1/GPa)
#
#
# Indices 1 2 3 4 5 6 
#
# 1 0.010693 0.001925 -0.004543 0.000000 0.002800 0.000000
# 2 0.001925 0.023779 -0.000987 0.000000 0.002695 0.000000
# 3 -0.004543 -0.000987 0.007199 0.000000 -0.002511 0.000000
# 4 0.000000 0.000000 0.000000 0.168539 0.000000 0.013256
# 5 0.002800 0.002695 -0.002511 0.000000 0.031955 0.000000
# 6 0.000000 0.000000 0.000000 0.013256 0.000000 0.048433
#
#
# Mechanical properties :
#
#
# Convention : Reuss Voigt Hill
#
# Bulk Modulus (GPa) = 29.01737 56.75884 42.88811
# Shear Modulus (GPa) = 16.16578 31.36087 23.76333
#
# Velocity S-wave (km/s) = 2.71774 3.78533 3.29506
# Velocity P-wave (km/s) = 4.80688 6.71103 5.83712
#
# Compressibility (1/GPa) = 0.03446212
#
# Stress axis : x y z
#
# Youngs Moduli (GPa) = 93.51842 42.05355 138.90662
#
# Poissons Ratio (x) = -0.08095 0.63106
# Poissons Ratio (y) = -0.18002 0.13703
# Poissons Ratio (z) = 0.42486 0.04149
#
# Static dielectric constant tensor:
#      x y z
#    x 1.749230 0.000000 -0.008490 
#    y 0.000000 2.063740 0.000000 
#    z -0.008490 0.000000 1.799370 
# 
# From -- ./inp_files/66681.got.cif
#   From: 2010.05.17/outbox.cif.g08.bks.cpg/sg11_34_cif.got.tgz:66681.got - 2010.06.03 12:22:45.
