data_PCOD9157425
_publ_section_title
;
Structure prediction by ZEFSAII (Michael W. Deem and Ramdas Pophale) SiO2 
 PCOD9157425
Probable space group: P 21/M
;
_chemical_formula_sum "Si O2"
_cell_formula_units_Z 32
_cell_length_a 20.929310
_cell_length_b 8.576601
_cell_length_c 26.055127
_cell_angle_alpha 90.000000
_cell_angle_beta 157.181905
_cell_angle_gamma 90.000000
_cell_volume 1813.755021
_symmetry_space_group_name_H-M "P 21/M"
_symmetry_group_IT_number 11
_symmetry_cell_setting 'monoclinic'
loop_
_space_group_symop_operation_xyz
x,y,z
-x,1/2+y,-z
-x,-y,-z
x,1/2-y,z
loop_
_atom_site_type_symbol
_atom_site_label
_atom_site_fract_x
_atom_site_fract_y
_atom_site_fract_z
Si Si1 0.148363 0.437113 0.144976
Si Si2 0.649908 0.063279 0.145762
Si Si3 0.969544 0.438539 0.834985
Si Si4 0.353956 0.061747 0.123081
Si Si5 0.831994 0.061812 0.622951
Si Si6 0.457309 0.563815 0.092320
Si Si7 0.529152 0.559786 0.678020
Si Si8 0.862397 0.062158 0.211746
O O1 0.143518 0.250000 0.140310
O O2 0.121162 0.495846 0.182402
O O3 0.321471 0.488930 0.248369
O O4 0.000000 0.500000 0.000000
O O5 0.642507 0.250000 0.141757
O O6 0.810271 0.017951 0.231247
O O7 0.611529 0.998041 0.173498
O O8 0.500000 0.000000 0.000000
O O9 0.965182 0.250000 0.834096
O O10 0.888213 0.489823 0.721321
O O11 0.161737 0.486063 0.978573
O O12 0.358054 0.250000 0.124114
O O13 0.430339 0.011108 0.233823
O O14 0.446209 0.996815 0.141759
O O15 0.830811 0.250000 0.622453
O O16 0.649527 0.006862 0.473134
O O17 0.969257 0.007422 0.684320
O O18 0.460149 0.750000 0.093478
O O19 0.288737 0.512906 0.937811
O O20 0.528363 0.750000 0.677301
O O21 0.870829 0.250000 0.215706
#
# Coordination Sequence:
#
# PCOD9157425 Si02
#       8
#     4   4   4   4   4   4   4   4
#     4  11  21  36  57  79 105 137 173 216 264 309
#     4   9  17  29  46  73 107 141 173 212 263 308
#     4  10  20  34  54  81 104 134 176 214 256 312
#     4  10  18  33  54  75 103 138 174 214 260 309
#     4  10  20  35  55  76 103 139 177 212 253 313
#     4  10  19  30  48  78 109 135 173 220 261 304
#     4   9  20  37  54  75 104 137 173 214 262 312
#     4   9  18  31  48  74 108 138 168 213 261 305
#
# _framework density 17.642955000000001
#
# number of rings (size 3 to 8) (size 9 to 14) (size 15 to 20)
#    0.000    2.250    2.500    1.875    0.000    4.000 
#    0.000    1.875    0.000    0.750    0.000    0.000 
#    0.000    0.000    0.000    0.000    0.000    0.000 
#
# Total GULP energy -178480.118619 kJ/mol
# GULP energy per Si atom -5577.503707 kJ/mol
# Density = 1.760280 g / cm^3
# Si number density = 17.642955 Si / 1000 Ang^3
#
#
#
# Elastic Constant Matrix: (Units=GPa)
#
#
# Indices 1 2 3 4 5 6 
#
# 1 203.3720 32.6614 88.3611 0.0000 16.3161 0.0000
# 2 32.6614 16.5179 21.8321 0.0000 1.4718 0.0000
# 3 88.3611 21.8321 124.7719 0.0000 4.8113 0.0000
# 4 0.0000 0.0000 0.0000 10.8663 0.0000 6.1779
# 5 16.3161 1.4718 4.8113 0.0000 23.5953 0.0000
# 6 0.0000 0.0000 0.0000 6.1779 0.0000 33.8783
#
#
#
# Elastic Compliance Matrix: (Units=1/GPa)
#
#
# Indices 1 2 3 4 5 6 
#
# 1 0.008986 -0.011943 -0.004096 0.000000 -0.004634 0.000000
# 2 -0.011943 0.094731 -0.008274 0.000000 0.004037 0.000000
# 3 -0.004096 -0.008274 0.012331 0.000000 0.000834 0.000000
# 4 0.000000 0.000000 0.000000 0.102672 0.000000 -0.018723
# 5 -0.004634 0.004037 0.000834 0.000000 0.045164 0.000000
# 6 0.000000 0.000000 0.000000 -0.018723 0.000000 0.032932
#
#
# Mechanical properties :
#
#
# Convention : Reuss Voigt Hill
#
# Bulk Modulus (GPa) = 14.83152 70.04122 42.43637
# Shear Modulus (GPa) = 13.59012 27.12180 20.35596
#
# Velocity S-wave (km/s) = 2.77841 3.92504 3.40041
# Velocity P-wave (km/s) = 4.32637 7.76703 6.28666
#
# Compressibility (1/GPa) = 0.06742399
#
# Stress axis : x y z
#
# Youngs Moduli (GPa) = 111.28035 10.55618 81.09948
#
# Poissons Ratio (x) = 0.12607 0.33215
# Poissons Ratio (y) = 1.32901 0.67099
# Poissons Ratio (z) = 0.45575 0.08734
#
# Static dielectric constant tensor:
#      x y z
#    x 1.604580 0.000000 0.004940 
#    y 0.000000 1.598450 0.000000 
#    z 0.004940 0.000000 1.585520 
# 
# From -- ./inp_files/66443.got.cif
#   From: 2010.05.17/outbox.cif.g08.bks.cpg/sg11_34_cif.got.tgz:66443.got - 2010.06.03 12:22:45.
