data_PCOD9157493
_publ_section_title
;
Structure prediction by ZEFSAII (Michael W. Deem and Ramdas Pophale) SiO2 
 PCOD9157493
Probable space group: P 21/M
;
_chemical_formula_sum "Si O2"
_cell_formula_units_Z 28
_cell_length_a 13.336471
_cell_length_b 19.235769
_cell_length_c 8.632246
_cell_angle_alpha 90.000000
_cell_angle_beta 39.696624
_cell_angle_gamma 90.000000
_cell_volume 1414.446381
_symmetry_space_group_name_H-M "P 21/M"
_symmetry_group_IT_number 11
_symmetry_cell_setting 'monoclinic'
loop_
_space_group_symop_operation_xyz
x,y,z
-x,1/2+y,-z
-x,-y,-z
x,1/2-y,z
loop_
_atom_site_type_symbol
_atom_site_label
_atom_site_fract_x
_atom_site_fract_y
_atom_site_fract_z
Si Si1 0.533728 0.613682 0.882148
Si Si2 0.850847 0.046498 0.133586
Si Si3 0.369369 0.536413 0.316104
Si Si4 0.683685 0.566652 0.127917
Si Si5 0.968642 0.829853 0.232155
Si Si6 0.628238 0.829395 0.467156
Si Si7 0.810255 0.670382 0.743189
O O1 0.638526 0.543946 0.725680
O O2 0.511043 0.649569 0.744468
O O3 0.638450 0.663341 0.866055
O O4 0.381085 0.586400 0.153574
O O5 0.754372 0.055973 0.406640
O O6 0.752725 0.000361 0.129675
O O7 0.910701 0.116794 0.984885
O O8 0.000000 0.000000 0.000000
O O9 0.540750 0.544028 0.189871
O O10 0.618897 0.617738 0.337642
O O11 0.806543 0.612566 0.881670
O O12 0.019713 0.750000 0.156962
O O13 0.802222 0.835893 0.337589
O O14 0.929272 0.843278 0.459879
O O15 0.605882 0.750000 0.445170
O O16 0.831244 0.750000 0.773423
#
# Coordination Sequence:
#
# PCOD9157493 Si02
#       7
#     4   4   4   4   4   4   4
#     4   9  17  34  55  80 107 150 181 224 292 327
#     4  12  21  36  58  85 113 150 196 226 281 353
#     4  10  21  35  57  82 117 140 185 244 282 328
#     4  11  21  34  58  89 111 143 189 247 290 318
#     4   9  19  36  55  76 112 155 187 227 282 341
#     4  10  18  33  58  84 108 144 196 235 275 339
#     4   9  18  35  57  84 113 146 193 237 277 334
#
# _framework density 19.795731
#
# number of rings (size 3 to 8) (size 9 to 14) (size 15 to 20)
#    0.000    2.000    2.857    3.000    0.000    0.571 
#    0.000    4.286    0.000    0.000    0.000    0.000 
#    0.000    0.000    0.000    0.000    0.000    0.000 
#
# Total GULP energy -156318.343590 kJ/mol
# GULP energy per Si atom -5582.797985 kJ/mol
# Density = 1.975068 g / cm^3
# Si number density = 19.795731 Si / 1000 Ang^3
#
#
#
# Elastic Constant Matrix: (Units=GPa)
#
#
# Indices 1 2 3 4 5 6 
#
# 1 29.2261 13.9710 7.4046 0.0000 12.1908 0.0000
# 2 13.9710 114.8339 66.2402 0.0000 7.9845 0.0000
# 3 7.4046 66.2402 128.7825 0.0000 14.5118 0.0000
# 4 0.0000 0.0000 0.0000 38.0731 0.0000 2.4911
# 5 12.1908 7.9845 14.5118 0.0000 21.0843 0.0000
# 6 0.0000 0.0000 0.0000 2.4911 0.0000 9.8022
#
#
#
# Elastic Compliance Matrix: (Units=1/GPa)
#
#
# Indices 1 2 3 4 5 6 
#
# 1 0.047697 -0.005823 0.003374 0.000000 -0.027695 0.000000
# 2 -0.005823 0.013095 -0.006744 0.000000 0.003050 0.000000
# 3 0.003374 -0.006744 0.011895 0.000000 -0.007583 0.000000
# 4 0.000000 0.000000 0.000000 0.026709 0.000000 -0.006788
# 5 -0.027695 0.003050 -0.007583 0.000000 0.067506 0.000000
# 6 0.000000 0.000000 0.000000 -0.006788 0.000000 0.103743
#
#
# Mechanical properties :
#
#
# Convention : Reuss Voigt Hill
#
# Bulk Modulus (GPa) = 18.41667 49.78602 34.10135
# Shear Modulus (GPa) = 16.27956 26.14036 21.20996
#
# Velocity S-wave (km/s) = 2.87082 3.63782 3.27684
# Velocity P-wave (km/s) = 4.50693 6.54595 5.61969
#
# Compressibility (1/GPa) = 0.05429863
#
# Stress axis : x y z
#
# Youngs Moduli (GPa) = 20.96561 76.36467 84.07161
#
# Poissons Ratio (x) = 0.44470 -0.28363
# Poissons Ratio (y) = 0.12209 0.56701
# Poissons Ratio (z) = -0.07073 0.51503
#
# Static dielectric constant tensor:
#      x y z
#    x 1.704820 0.000000 0.016490 
#    y 0.000000 1.700320 0.000000 
#    z 0.016490 0.000000 1.721400 
# 
# From -- ./inp_files/22698.got.cif
#   From: 2010.05.17/outbox.cif.g08.bks.cpg/sg11_12_cif.got.tgz:22698.got - 2010.06.03 12:22:45.
