data_PCOD9157346
_publ_section_title
;
Structure prediction by ZEFSAII (Michael W. Deem and Ramdas Pophale) SiO2 
 PCOD9157346
Probable space group: P 21/M
;
_chemical_formula_sum "Si O2"
_cell_formula_units_Z 32
_cell_length_a 16.806643
_cell_length_b 15.360550
_cell_length_c 10.419844
_cell_angle_alpha 90.000000
_cell_angle_beta 143.331994
_cell_angle_gamma 90.000000
_cell_volume 1606.394763
_symmetry_space_group_name_H-M "P 21/M"
_symmetry_group_IT_number 11
_symmetry_cell_setting 'monoclinic'
loop_
_space_group_symop_operation_xyz
x,y,z
-x,1/2+y,-z
-x,-y,-z
x,1/2-y,z
loop_
_atom_site_type_symbol
_atom_site_label
_atom_site_fract_x
_atom_site_fract_y
_atom_site_fract_z
Si Si1 0.918552 0.645099 0.525510
Si Si2 0.340827 0.151992 0.470582
Si Si3 0.641724 0.408842 0.273233
Si Si4 0.232625 0.855371 0.299921
Si Si5 0.816171 0.355231 0.264467
Si Si6 0.628403 0.143354 0.785228
Si Si7 0.371960 0.389320 0.801097
Si Si8 0.056059 0.356909 0.144092
O O1 0.923730 0.750000 0.532134
O O2 0.766064 0.620322 0.300546
O O3 0.948945 0.617533 0.712020
O O4 0.035867 0.614436 0.583509
O O5 0.334441 0.250000 0.408080
O O6 0.476573 0.110563 0.595413
O O7 0.358064 0.158861 0.647211
O O8 0.195379 0.110559 0.265111
O O9 0.685818 0.386702 0.472730
O O10 0.758942 0.384993 0.325841
O O11 0.617080 0.510992 0.227942
O O12 0.504478 0.363894 0.049000
O O13 0.232146 0.750000 0.301234
O O14 0.298808 0.881973 0.251130
O O15 0.078350 0.884013 0.100145
O O16 0.817115 0.250000 0.265843
O O17 0.713118 0.383575 0.019410
O O18 0.624334 0.250000 0.784266
O O19 0.061363 0.250000 0.150019
#
# Coordination Sequence:
#
# PCOD9157346 Si02
#       8
#     4   4   4   4   4   4   4   4
#     4   9  17  32  57  81  99 128 178 228 258 300
#     4   9  16  30  56  79  96 129 179 224 254 300
#     4  11  23  35  50  74 113 146 173 212 261 314
#     4  10  19  33  52  77 107 134 163 212 272 313
#     4  10  18  32  56  82 100 130 180 220 254 310
#     4   9  16  29  53  80 100 125 172 220 255 300
#     4  10  21  36  51  73 109 144 180 213 258 306
#     4   8  14  27  49  76 100 122 157 211 264 301
#
# _framework density 19.920383999999999
#
# number of rings (size 3 to 8) (size 9 to 14) (size 15 to 20)
#    0.000    2.500    2.500    1.500    0.000    2.000 
#    0.000    4.375    0.000    3.000    0.000    0.000 
#    0.000    0.000    0.000    0.000    0.000    0.000 
#
# Total GULP energy -178466.355761 kJ/mol
# GULP energy per Si atom -5577.073618 kJ/mol
# Density = 1.987504 g / cm^3
# Si number density = 19.920384 Si / 1000 Ang^3
#
#
#
# Elastic Constant Matrix: (Units=GPa)
#
#
# Indices 1 2 3 4 5 6 
#
# 1 78.0509 -0.4020 26.5695 0.0000 22.2947 0.0000
# 2 -0.4020 19.2062 1.8518 0.0000 0.7273 0.0000
# 3 26.5695 1.8518 67.8796 0.0000 22.7900 0.0000
# 4 0.0000 0.0000 0.0000 10.5289 0.0000 3.4702
# 5 22.2947 0.7273 22.7900 0.0000 37.8284 0.0000
# 6 0.0000 0.0000 0.0000 3.4702 0.0000 4.7930
#
#
#
# Elastic Compliance Matrix: (Units=1/GPa)
#
#
# Indices 1 2 3 4 5 6 
#
# 1 0.016220 0.000994 -0.003961 0.000000 -0.007192 0.000000
# 2 0.000994 0.052266 -0.001606 0.000000 -0.000623 0.000000
# 3 -0.003961 -0.001606 0.019470 0.000000 -0.009365 0.000000
# 4 0.000000 0.000000 0.000000 0.124745 0.000000 -0.090318
# 5 -0.007192 -0.000623 -0.009365 0.000000 0.036328 0.000000
# 6 0.000000 0.000000 0.000000 -0.090318 0.000000 0.274029
#
#
# Mechanical properties :
#
#
# Convention : Reuss Voigt Hill
#
# Bulk Modulus (GPa) = 12.68874 24.57503 18.63189
# Shear Modulus (GPa) = 8.95297 19.77122 14.36210
#
# Velocity S-wave (km/s) = 2.12229 3.15383 2.68801
# Velocity P-wave (km/s) = 3.51981 5.06218 4.35974
#
# Compressibility (1/GPa) = 0.07881002
#
# Stress axis : x y z
#
# Youngs Moduli (GPa) = 61.65174 19.13301 51.36004
#
# Poissons Ratio (x) = -0.01901 0.20345
# Poissons Ratio (y) = -0.06127 0.08246
# Poissons Ratio (z) = 0.24422 0.03072
#
# Static dielectric constant tensor:
#      x y z
#    x 1.702440 0.000000 0.050230 
#    y 0.000000 1.750150 0.000000 
#    z 0.050230 0.000000 1.701260 
# 
# From -- ./inp_files/23122.got.cif
#   From: 2010.05.17/outbox.cif.g08.bks.cpg/sg11_12_cif.got.tgz:23122.got - 2010.06.03 12:22:45.
