data_PCOD9157554
_publ_section_title
;
Structure prediction by ZEFSAII (Michael W. Deem and Ramdas Pophale) SiO2 
 PCOD9157554
Probable space group: P 21/M
;
_chemical_formula_sum "Si O2"
_cell_formula_units_Z 28
_cell_length_a 8.573896
_cell_length_b 14.825859
_cell_length_c 17.064225
_cell_angle_alpha 90.000000
_cell_angle_beta 135.869012
_cell_angle_gamma 90.000000
_cell_volume 1510.364327
_symmetry_space_group_name_H-M "P 21/M"
_symmetry_group_IT_number 11
_symmetry_cell_setting 'monoclinic'
loop_
_space_group_symop_operation_xyz
x,y,z
-x,1/2+y,-z
-x,-y,-z
x,1/2-y,z
loop_
_atom_site_type_symbol
_atom_site_label
_atom_site_fract_x
_atom_site_fract_y
_atom_site_fract_z
Si Si1 0.381181 0.350721 0.756479
Si Si2 0.836940 0.405695 0.858893
Si Si3 0.119975 0.854586 0.432585
Si Si4 0.109540 0.991884 0.286241
Si Si5 0.413389 0.150081 0.330971
Si Si6 0.606140 0.481468 0.122533
Si Si7 0.741122 0.895926 0.894645
O O1 0.380938 0.250000 0.790252
O O2 0.595811 0.358936 0.777925
O O3 0.405679 0.425854 0.831978
O O4 0.135916 0.365748 0.630070
O O5 0.906070 0.426801 0.795260
O O6 0.797714 0.503116 0.884822
O O7 0.037801 0.361280 0.980912
O O8 0.134930 0.750000 0.409366
O O9 0.155690 0.927896 0.377059
O O10 0.319624 0.865541 0.566524
O O11 0.290027 0.069142 0.331989
O O12 0.868300 0.039079 0.209374
O O13 0.366403 0.250000 0.347598
O O14 0.332702 0.150411 0.212052
O O15 0.461028 0.407955 0.116976
O O16 0.500000 0.500000 0.000000
#
# Coordination Sequence:
#
# PCOD9157554 Si02
#       7
#     4   4   4   4   4   4   4
#     4   9  19  33  52  78 103 139 184 226 270 320
#     4   9  17  31  52  77 104 131 172 218 269 322
#     4   9  19  37  56  77 108 145 189 234 274 317
#     4  10  19  34  58  84 108 142 185 227 279 322
#     4  10  21  37  55  77 111 151 185 224 273 329
#     4  10  18  34  55  76 108 144 173 219 278 326
#     4   9  18  33  51  75 103 141 171 209 269 330
#
# _framework density 18.538574000000001
#
# number of rings (size 3 to 8) (size 9 to 14) (size 15 to 20)
#    0.000    2.571    1.429    0.429    2.000    1.143 
#    0.000   14.286    0.000    3.429    0.000    0.000 
#    0.000    0.000    0.000    0.000    0.000    0.000 
#
# Total GULP energy -155911.364642 kJ/mol
# GULP energy per Si atom -5568.263023 kJ/mol
# Density = 1.849638 g / cm^3
# Si number density = 18.538574 Si / 1000 Ang^3
#
#
#
# Elastic Constant Matrix: (Units=GPa)
#
#
# Indices 1 2 3 4 5 6 
#
# 1 83.8446 15.5148 42.2156 0.0000 22.3917 0.0000
# 2 15.5148 56.9937 32.2959 0.0000 17.3073 0.0000
# 3 42.2156 32.2959 116.2944 0.0000 25.2888 0.0000
# 4 0.0000 0.0000 0.0000 15.7839 0.0000 -1.1484
# 5 22.3917 17.3073 25.2888 0.0000 23.1452 0.0000
# 6 0.0000 0.0000 0.0000 -1.1484 0.0000 10.7734
#
#
#
# Elastic Compliance Matrix: (Units=1/GPa)
#
#
# Indices 1 2 3 4 5 6 
#
# 1 0.017163 0.001596 -0.003677 0.000000 -0.013780 0.000000
# 2 0.001596 0.023940 -0.003934 0.000000 -0.015148 0.000000
# 3 -0.003677 -0.003934 0.012609 0.000000 -0.007278 0.000000
# 4 0.000000 0.000000 0.000000 0.063851 0.000000 0.006806
# 5 -0.013780 -0.015148 -0.007278 0.000000 0.075816 0.000000
# 6 0.000000 0.000000 0.000000 0.006806 0.000000 0.093547
#
#
# Mechanical properties :
#
#
# Convention : Reuss Voigt Hill
#
# Bulk Modulus (GPa) = 23.99072 48.57615 36.28343
# Shear Modulus (GPa) = 15.98210 21.08090 18.53150
#
# Velocity S-wave (km/s) = 2.93934 3.37580 3.16510
# Velocity P-wave (km/s) = 4.94860 6.43851 5.74208
#
# Compressibility (1/GPa) = 0.04168279
#
# Stress axis : x y z
#
# Youngs Moduli (GPa) = 58.26478 41.77030 79.31079
#
# Poissons Ratio (x) = -0.06667 0.29162
# Poissons Ratio (y) = -0.09300 0.31200
# Poissons Ratio (z) = 0.21424 0.16432
#
# Static dielectric constant tensor:
#      x y z
#    x 1.645720 0.000000 0.035090 
#    y 0.000000 1.651490 0.000000 
#    z 0.035090 0.000000 1.647650 
# 
# From -- ./inp_files/24916.got.cif
#   From: 2010.05.17/outbox.cif.g08.bks.cpg/sg11_13_cif.got.tgz:24916.got - 2010.06.03 12:22:45.
