data_PCOD9157654
_publ_section_title
;
Structure prediction by ZEFSAII (Michael W. Deem and Ramdas Pophale) SiO2 
 PCOD9157654
Probable space group: P 21/M
;
_chemical_formula_sum "Si O2"
_cell_formula_units_Z 24
_cell_length_a 8.549624
_cell_length_b 14.653473
_cell_length_c 17.486514
_cell_angle_alpha 90.000000
_cell_angle_beta 149.745041
_cell_angle_gamma 90.000000
_cell_volume 1103.801555
_symmetry_space_group_name_H-M "P 21/M"
_symmetry_group_IT_number 11
_symmetry_cell_setting 'monoclinic'
loop_
_space_group_symop_operation_xyz
x,y,z
-x,1/2+y,-z
-x,-y,-z
x,1/2-y,z
loop_
_atom_site_type_symbol
_atom_site_label
_atom_site_fract_x
_atom_site_fract_y
_atom_site_fract_z
Si Si1 0.807567 0.648091 0.887534
Si Si2 0.012386 0.855234 0.701411
Si Si3 0.552628 0.848711 0.191250
Si Si4 0.800310 0.918324 0.451918
Si Si5 0.417074 0.467321 0.066748
Si Si6 0.768772 0.968039 0.727089
O O1 0.693680 0.750000 0.857220
O O2 0.691629 0.573025 0.897860
O O3 0.720764 0.614916 0.766685
O O4 0.181326 0.649552 0.047521
O O5 0.966469 0.750000 0.702090
O O6 0.353554 0.891165 0.869319
O O7 0.978843 0.869080 0.596236
O O8 0.781048 0.922073 0.649436
O O9 0.635026 0.750000 0.191712
O O10 0.708165 0.858687 0.339786
O O11 0.606189 0.939172 0.163385
O O12 0.493074 0.959750 0.361836
O O13 0.000000 0.000000 0.500000
O O14 0.106402 0.488856 0.888958
#
# Coordination Sequence:
#
# PCOD9157654 Si02
#       6
#     4   4   4   4   4   4
#     4  10  18  34  65  94 119 157 213 265 310 367
#     4  12  26  41  61  94 133 170 209 256 320 389
#     4  10  19  35  62  91 119 156 209 265 310 360
#     4  12  22  42  67  89 126 171 214 263 316 376
#     4  11  20  41  65  92 123 166 212 266 313 367
#     4  11  22  41  63  92 130 167 208 259 325 377
#
# _framework density 21.743037999999999
#
# number of rings (size 3 to 8) (size 9 to 14) (size 15 to 20)
#    0.000    1.000    5.000    3.500    0.000    0.667 
#    0.000    2.500    0.000    1.000    0.000    0.000 
#    0.000    0.000    0.000    0.000    0.000    0.000 
#
# Total GULP energy -134135.070976 kJ/mol
# GULP energy per Si atom -5588.961291 kJ/mol
# Density = 2.169355 g / cm^3
# Si number density = 21.743038 Si / 1000 Ang^3
#
#
#
# Elastic Constant Matrix: (Units=GPa)
#
#
# Indices 1 2 3 4 5 6 
#
# 1 36.4334 -13.0272 5.5479 0.0000 -9.9343 0.0000
# 2 -13.0272 97.2644 21.7123 0.0000 0.0371 0.0000
# 3 5.5479 21.7123 63.6912 0.0000 -5.5611 0.0000
# 4 0.0000 0.0000 0.0000 11.5892 0.0000 -4.6012
# 5 -9.9343 0.0371 -5.5611 0.0000 22.9242 0.0000
# 6 0.0000 0.0000 0.0000 -4.6012 0.0000 21.2570
#
#
#
# Elastic Compliance Matrix: (Units=1/GPa)
#
#
# Indices 1 2 3 4 5 6 
#
# 1 0.033611 0.005285 -0.003533 0.000000 0.013700 0.000000
# 2 0.005285 0.011980 -0.004440 0.000000 0.001194 0.000000
# 3 -0.003533 -0.004440 0.017765 0.000000 0.002786 0.000000
# 4 0.000000 0.000000 0.000000 0.094400 0.000000 0.020433
# 5 0.013700 0.001194 0.002786 0.000000 0.050233 0.000000
# 6 0.000000 0.000000 0.000000 0.020433 0.000000 0.051466
#
#
# Mechanical properties :
#
#
# Convention : Reuss Voigt Hill
#
# Bulk Modulus (GPa) = 17.24746 25.09498 21.17122
# Shear Modulus (GPa) = 17.59589 23.36448 20.48019
#
# Velocity S-wave (km/s) = 2.84785 3.28162 3.07240
# Velocity P-wave (km/s) = 4.33166 5.09170 4.72698
#
# Compressibility (1/GPa) = 0.05797957
#
# Stress axis : x y z
#
# Youngs Moduli (GPa) = 29.75250 83.47370 56.28936
#
# Poissons Ratio (x) = -0.44117 0.19888
# Poissons Ratio (y) = -0.15725 0.24993
# Poissons Ratio (z) = 0.10512 0.37063
#
# Static dielectric constant tensor:
#      x y z
#    x 1.795910 0.000000 0.002210 
#    y 0.000000 1.793890 0.000000 
#    z 0.002210 0.000000 1.801950 
# 
# From -- ./inp_files/22331.got.cif
#   From: 2010.05.17/outbox.cif.g08.bks.cpg/sg11_12_cif.got.tgz:22331.got - 2010.06.03 12:22:45.
