data_PCOD9157798
_publ_section_title
;
Structure prediction by ZEFSAII (Michael W. Deem and Ramdas Pophale) SiO2 
 PCOD9157798
Probable space group: P 21/M
;
_chemical_formula_sum "Si O2"
_cell_formula_units_Z 26
_cell_length_a 7.765662
_cell_length_b 14.690171
_cell_length_c 12.042406
_cell_angle_alpha 90.000000
_cell_angle_beta 49.100199
_cell_angle_gamma 90.000000
_cell_volume 1038.382876
_symmetry_space_group_name_H-M "P 21/M"
_symmetry_group_IT_number 11
_symmetry_cell_setting 'monoclinic'
loop_
_space_group_symop_operation_xyz
x,y,z
-x,1/2+y,-z
-x,-y,-z
x,1/2-y,z
loop_
_atom_site_type_symbol
_atom_site_label
_atom_site_fract_x
_atom_site_fract_y
_atom_site_fract_z
Si Si1 0.750782 0.441311 0.238835
Si Si2 0.918355 0.945596 0.364596
Si Si3 0.192655 0.402050 0.339063
Si Si4 0.571885 0.145807 0.010112
Si Si5 0.460335 0.750000 0.599467
Si Si6 0.269062 0.459633 0.967247
Si Si7 0.007414 0.250000 0.653738
Si Si8 0.184352 0.750000 0.497640
O O1 0.765393 0.497562 0.346308
O O2 0.645174 0.342341 0.305519
O O3 0.652912 0.512274 0.189168
O O4 0.010013 0.425524 0.085797
O O5 0.803026 0.929096 0.533541
O O6 0.988087 0.846952 0.290399
O O7 0.139665 0.005013 0.297616
O O8 0.398545 0.354568 0.189235
O O9 0.971507 0.338437 0.413551
O O10 0.652807 0.250000 0.962868
O O11 0.726144 0.059183 0.976652
O O12 0.426472 0.111755 0.965306
O O13 0.731238 0.750000 0.506747
O O14 0.394476 0.750000 0.494658
O O15 0.816101 0.250000 0.637213
#
# Coordination Sequence:
#
# PCOD9157798 Si02
#       8
#     4   4   4   4   2   4   2   2
#     4  11  24  45  63  98 136 179 222 285 339 410
#     4  10  21  40  60  95 139 168 212 280 347 398
#     4  10  19  36  70  97 122 176 215 281 342 393
#     4  11  22  43  73  97 126 171 239 286 319 425
#     4  12  24  42  75  98 125 185 249 278 327 417
#     4  10  25  42  63 102 132 172 233 274 350 394
#     4  10  26  40  61 103 133 184 229 276 350 417
#     4  10  18  38  62  97 126 161 236 272 333 392
#
# _framework density 25.038934000000001
#
# number of rings (size 3 to 8) (size 9 to 14) (size 15 to 20)
#    0.000    1.538    3.846    0.000    6.462    0.615 
#    2.769    0.000    0.000    0.000    0.000    0.000 
#    0.000    0.000    0.000    0.000    0.000    0.000 
#
# Total GULP energy -145396.386700 kJ/mol
# GULP energy per Si atom -5592.168719 kJ/mol
# Density = 2.498194 g / cm^3
# Si number density = 25.038934 Si / 1000 Ang^3
#
#
#
# Elastic Constant Matrix: (Units=GPa)
#
#
# Indices 1 2 3 4 5 6 
#
# 1 93.6271 26.6517 29.1632 0.0000 34.7934 0.0000
# 2 26.6517 194.4988 43.3228 0.0000 9.5570 0.0000
# 3 29.1632 43.3228 91.8824 0.0000 31.4288 0.0000
# 4 0.0000 0.0000 0.0000 52.6012 0.0000 -9.0131
# 5 34.7934 9.5570 31.4288 0.0000 42.5865 0.0000
# 6 0.0000 0.0000 0.0000 -9.0131 0.0000 12.5027
#
#
#
# Elastic Compliance Matrix: (Units=1/GPa)
#
#
# Indices 1 2 3 4 5 6 
#
# 1 0.015784 -0.001550 0.000017 0.000000 -0.012561 0.000000
# 2 -0.001550 0.005926 -0.003050 0.000000 0.002187 0.000000
# 3 0.000017 -0.003050 0.016168 0.000000 -0.011262 0.000000
# 4 0.000000 0.000000 0.000000 0.021690 0.000000 0.015636
# 5 -0.012561 0.002187 -0.011262 0.000000 0.041564 0.000000
# 6 0.000000 0.000000 0.000000 0.015636 0.000000 0.091254
#
#
# Mechanical properties :
#
#
# Convention : Reuss Voigt Hill
#
# Bulk Modulus (GPa) = 34.82750 64.25372 49.54061
# Shear Modulus (GPa) = 23.68286 40.26281 31.97283
#
# Velocity S-wave (km/s) = 3.07879 4.01435 3.57728
# Velocity P-wave (km/s) = 5.15540 6.87051 6.07380
#
# Compressibility (1/GPa) = 0.02871294
#
# Stress axis : x y z
#
# Youngs Moduli (GPa) = 63.35472 168.75627 61.84900
#
# Poissons Ratio (x) = 0.26149 -0.00106
# Poissons Ratio (y) = 0.09817 0.18866
# Poissons Ratio (z) = -0.00109 0.51477
#
# Static dielectric constant tensor:
#      x y z
#    x 2.048280 0.000000 -0.028950 
#    y 0.000000 1.925770 0.000000 
#    z -0.028950 0.000000 2.166120 
# 
# From -- ./inp_files/31643.got.cif
#   From: 2010.05.17/outbox.cif.g08.bks.cpg/sg11_16_cif.got.tgz:31643.got - 2010.06.03 12:22:45.
