data_PCOD9157889
_publ_section_title
;
Structure prediction by ZEFSAII (Michael W. Deem and Ramdas Pophale) SiO2 
 PCOD9157889
Probable space group: P 21/M
;
_chemical_formula_sum "Si O2"
_cell_formula_units_Z 28
_cell_length_a 9.884130
_cell_length_b 8.033962
_cell_length_c 28.852571
_cell_angle_alpha 90.000000
_cell_angle_beta 39.189088
_cell_angle_gamma 90.000000
_cell_volume 1447.733154
_symmetry_space_group_name_H-M "P 21/M"
_symmetry_group_IT_number 11
_symmetry_cell_setting 'monoclinic'
loop_
_space_group_symop_operation_xyz
x,y,z
-x,1/2+y,-z
-x,-y,-z
x,1/2-y,z
loop_
_atom_site_type_symbol
_atom_site_label
_atom_site_fract_x
_atom_site_fract_y
_atom_site_fract_z
Si Si1 0.369352 0.052637 0.605116
Si Si2 0.974559 0.443255 0.233166
Si Si3 0.811229 0.047299 0.447006
Si Si4 0.202556 0.948900 0.916118
Si Si5 0.721360 0.557815 0.678152
Si Si6 0.247930 0.545947 0.798128
Si Si7 0.332325 0.938834 0.206273
O O1 0.360624 0.250000 0.616517
O O2 0.616166 0.000726 0.532565
O O3 0.239417 0.959678 0.679148
O O4 0.253354 0.018055 0.586712
O O5 0.035143 0.250000 0.213455
O O6 0.913651 0.509482 0.198716
O O7 0.161524 0.533055 0.211456
O O8 0.814605 0.250000 0.443303
O O9 0.048378 0.986318 0.397219
O O10 0.222789 0.750000 0.911380
O O11 0.183524 0.002105 0.867262
O O12 0.426932 0.023978 0.873790
O O13 0.000000 0.000000 0.000000
O O14 0.721119 0.750000 0.663269
O O15 0.491815 0.485512 0.724361
O O16 0.716214 0.550907 0.735823
O O17 0.253488 0.750000 0.795319
O O18 0.317320 0.750000 0.227081
#
# Coordination Sequence:
#
# PCOD9157889 Si02
#       7
#     4   4   4   4   4   4   4
#     4  10  19  29  44  72 105 136 175 226 271 312
#     4  11  20  34  52  74 105 144 180 215 261 312
#     4   9  17  29  48  71  99 136 178 223 273 317
#     4  10  20  39  63  87 110 136 169 210 255 308
#     4   9  16  32  54  75  98 134 181 226 266 313
#     4   8  18  34  55  78 104 137 175 213 257 313
#     4  11  21  33  53  82 108 137 175 218 258 306
#
# _framework density 19.340581
#
# number of rings (size 3 to 8) (size 9 to 14) (size 15 to 20)
#    0.000    2.286    1.429    3.429    0.000    0.571 
#    0.000    8.571    0.000    0.000    0.000    0.000 
#    0.000    0.000    0.000    0.000    0.000    0.000 
#
# Total GULP energy -156199.337106 kJ/mol
# GULP energy per Si atom -5578.547754 kJ/mol
# Density = 1.929656 g / cm^3
# Si number density = 19.340581 Si / 1000 Ang^3
#
#
#
# Elastic Constant Matrix: (Units=GPa)
#
#
# Indices 1 2 3 4 5 6 
#
# 1 76.5779 -3.0301 20.7755 0.0000 -6.9702 0.0000
# 2 -3.0301 30.5266 -5.1756 0.0000 1.1609 0.0000
# 3 20.7755 -5.1756 85.2509 0.0000 -12.5901 0.0000
# 4 0.0000 0.0000 0.0000 24.0205 0.0000 -5.5288
# 5 -6.9702 1.1609 -12.5901 0.0000 16.9055 0.0000
# 6 0.0000 0.0000 0.0000 -5.5288 0.0000 8.5945
#
#
#
# Elastic Compliance Matrix: (Units=1/GPa)
#
#
# Indices 1 2 3 4 5 6 
#
# 1 0.014202 0.000783 -0.002873 0.000000 0.003663 0.000000
# 2 0.000783 0.033154 0.001723 0.000000 -0.000671 0.000000
# 3 -0.002873 0.001723 0.013868 0.000000 0.009025 0.000000
# 4 0.000000 0.000000 0.000000 0.048867 0.000000 0.031436
# 5 0.003663 -0.000671 0.009025 0.000000 0.067430 0.000000
# 6 0.000000 0.000000 0.000000 0.031436 0.000000 0.136576
#
#
# Mechanical properties :
#
#
# Convention : Reuss Voigt Hill
#
# Bulk Modulus (GPa) = 16.53147 24.16612 20.34880
# Shear Modulus (GPa) = 14.92570 21.88980 18.40775
#
# Velocity S-wave (km/s) = 2.78102 3.36788 3.08842
# Velocity P-wave (km/s) = 4.34490 5.25792 4.82306
#
# Compressibility (1/GPa) = 0.06049068
#
# Stress axis : x y z
#
# Youngs Moduli (GPa) = 70.41106 30.16259 72.11081
#
# Poissons Ratio (x) = -0.02363 0.20715
# Poissons Ratio (y) = -0.05516 -0.12423
# Poissons Ratio (z) = 0.20226 -0.05196
#
# Static dielectric constant tensor:
#      x y z
#    x 1.673630 0.000000 -0.019100 
#    y 0.000000 1.694130 0.000000 
#    z -0.019100 0.000000 1.676140 
# 
# From -- ./inp_files/72710.got.cif
#   From: 2010.05.17/outbox.cif.g08.bks.cpg/sg11_37_cif.got.tgz:72710.got - 2010.06.03 12:22:45.
