data_PCOD9157629
_publ_section_title
;
Structure prediction by ZEFSAII (Michael W. Deem and Ramdas Pophale) SiO2 
 PCOD9157629
Probable space group: P 21/M
;
_chemical_formula_sum "Si O2"
_cell_formula_units_Z 24
_cell_length_a 15.762005
_cell_length_b 14.389199
_cell_length_c 10.082551
_cell_angle_alpha 90.000000
_cell_angle_beta 149.836432
_cell_angle_gamma 90.000000
_cell_volume 1149.023455
_symmetry_space_group_name_H-M "P 21/M"
_symmetry_group_IT_number 11
_symmetry_cell_setting 'monoclinic'
loop_
_space_group_symop_operation_xyz
x,y,z
-x,1/2+y,-z
-x,-y,-z
x,1/2-y,z
loop_
_atom_site_type_symbol
_atom_site_label
_atom_site_fract_x
_atom_site_fract_y
_atom_site_fract_z
Si Si1 0.321629 0.479023 0.815591
Si Si2 0.790999 0.355653 0.956551
Si Si3 0.592638 0.861840 0.530111
Si Si4 0.146946 0.363442 0.350714
Si Si5 0.281821 0.352618 0.007365
Si Si6 0.069840 0.895874 0.568778
O O1 0.221376 0.408096 0.585356
O O2 0.341886 0.429813 0.985329
O O3 0.230723 0.578941 0.699996
O O4 0.500000 0.500000 0.000000
O O5 0.763885 0.250000 0.872614
O O6 0.602120 0.397265 0.719292
O O7 0.870707 0.354567 0.212157
O O8 0.947604 0.393691 0.078828
O O9 0.577677 0.750000 0.488067
O O10 0.723259 0.893037 0.591263
O O11 0.678479 0.877013 0.788334
O O12 0.146721 0.250000 0.357408
O O13 0.354870 0.250000 0.078424
O O14 0.081231 0.347523 0.710444
O O15 0.000000 0.000000 0.500000
#
# Coordination Sequence:
#
# PCOD9157629 Si02
#       6
#     4   4   4   4   4   4
#     4  11  22  37  58  86 120 153 191 240 292 346
#     4  10  18  34  60  83 109 154 198 237 288 351
#     4   9  20  36  58  87 115 145 194 248 291 337
#     4  10  19  36  61  83 110 154 200 237 283 351
#     4  10  20  40  62  83 115 152 189 243 296 335
#     4  10  19  34  57  81 114 149 190 232 286 344
#
# _framework density 20.887301999999998
#
# number of rings (size 3 to 8) (size 9 to 14) (size 15 to 20)
#    0.000    2.000    3.333    2.000    0.000    0.000 
#    3.000   10.833    0.000    0.000    0.000    0.000 
#    0.000    0.000    0.000    0.000    0.000    0.000 
#
# Total GULP energy -133669.213936 kJ/mol
# GULP energy per Si atom -5569.550581 kJ/mol
# Density = 2.083976 g / cm^3
# Si number density = 20.887302 Si / 1000 Ang^3
#
#
#
# Elastic Constant Matrix: (Units=GPa)
#
#
# Indices 1 2 3 4 5 6 
#
# 1 141.4080 11.1797 63.6099 0.0000 35.6484 0.0000
# 2 11.1797 49.1136 -1.5503 0.0000 1.0067 0.0000
# 3 63.6099 -1.5503 106.4857 0.0000 14.2230 0.0000
# 4 0.0000 0.0000 0.0000 23.7236 0.0000 -15.5687
# 5 35.6484 1.0067 14.2230 0.0000 44.3377 0.0000
# 6 0.0000 0.0000 0.0000 -15.5687 0.0000 39.3106
#
#
#
# Elastic Compliance Matrix: (Units=1/GPa)
#
#
# Indices 1 2 3 4 5 6 
#
# 1 0.011987 -0.002768 -0.006187 0.000000 -0.007590 0.000000
# 2 -0.002768 0.021024 0.001804 0.000000 0.001170 0.000000
# 3 -0.006187 0.001804 0.013012 0.000000 0.000760 0.000000
# 4 0.000000 0.000000 0.000000 0.056955 0.000000 0.022557
# 5 -0.007590 0.001170 0.000760 0.000000 0.028387 0.000000
# 6 0.000000 0.000000 0.000000 0.022557 0.000000 0.034372
#
#
# Mechanical properties :
#
#
# Convention : Reuss Voigt Hill
#
# Bulk Modulus (GPa) = 31.52681 49.27620 40.40151
# Shear Modulus (GPa) = 26.23107 36.39224 31.31165
#
# Velocity S-wave (km/s) = 3.54762 4.17863 3.87599
# Velocity P-wave (km/s) = 5.64866 6.85011 6.27819
#
# Compressibility (1/GPa) = 0.03171903
#
# Stress axis : x y z
#
# Youngs Moduli (GPa) = 83.42148 47.56448 76.85406
#
# Poissons Ratio (x) = 0.13168 0.47551
# Poissons Ratio (y) = 0.23094 -0.13861
# Poissons Ratio (z) = 0.51614 -0.08578
#
# Static dielectric constant tensor:
#      x y z
#    x 1.763120 0.000000 0.059730 
#    y 0.000000 1.773460 0.000000 
#    z 0.059730 0.000000 1.766580 
# 
# From -- ./inp_files/22847.got.cif
#   From: 2010.05.17/outbox.cif.g08.bks.cpg/sg11_12_cif.got.tgz:22847.got - 2010.06.03 12:22:45.
