data_PCOD9157560
_publ_section_title
;
Structure prediction by ZEFSAII (Michael W. Deem and Ramdas Pophale) SiO2 
 PCOD9157560
Probable space group: P 21/M
;
_chemical_formula_sum "Si O2"
_cell_formula_units_Z 28
_cell_length_a 9.292193
_cell_length_b 17.927703
_cell_length_c 12.847143
_cell_angle_alpha 90.000000
_cell_angle_beta 31.401521
_cell_angle_gamma 90.000000
_cell_volume 1115.100647
_symmetry_space_group_name_H-M "P 21/M"
_symmetry_group_IT_number 11
_symmetry_cell_setting 'monoclinic'
loop_
_space_group_symop_operation_xyz
x,y,z
-x,1/2+y,-z
-x,-y,-z
x,1/2-y,z
loop_
_atom_site_type_symbol
_atom_site_label
_atom_site_fract_x
_atom_site_fract_y
_atom_site_fract_z
Si Si1 0.188482 0.971182 0.700203
Si Si2 0.603224 0.165699 0.070686
Si Si3 0.507444 0.336547 0.418684
Si Si4 0.019190 0.661312 0.371271
Si Si5 0.273350 0.064917 0.152716
Si Si6 0.878477 0.618661 0.150453
Si Si7 0.451819 0.159694 0.848183
O O1 0.236000 0.890661 0.721363
O O2 0.025849 0.967577 0.691544
O O3 0.500000 0.000000 0.500000
O O4 0.053541 0.034036 0.855793
O O5 0.498523 0.250000 0.131556
O O6 0.799288 0.152728 0.847251
O O7 0.822955 0.157757 0.027739
O O8 0.355567 0.107806 0.206553
O O9 0.577582 0.250000 0.362547
O O10 0.320008 0.343897 0.639560
O O11 0.288916 0.364313 0.466268
O O12 0.988246 0.750000 0.404323
O O13 0.226088 0.636112 0.334685
O O14 0.310162 0.125766 0.038087
O O15 0.500000 0.000000 0.000000
O O16 0.697676 0.625856 0.159107
O O17 0.435762 0.250000 0.855551
#
# Coordination Sequence:
#
# PCOD9157560 Si02
#       7
#     4   4   4   4   4   4   4
#     4  10  22  36  56  82 118 152 194 232 282 346
#     4   9  16  30  55  79 105 142 189 233 274 327
#     4   9  17  32  57  79 109 154 198 236 278 339
#     4   7  13  27  48  76 102 137 184 228 270 322
#     4  11  21  37  56  82 113 145 189 234 287 339
#     4  10  18  34  55  87 117 148 187 240 299 346
#     4  10  20  33  58  88 114 141 189 246 290 339
#
# _framework density 25.109839999999998
#
# number of rings (size 3 to 8) (size 9 to 14) (size 15 to 20)
#    0.000    2.571    1.429    3.429    2.000    1.714 
#    0.000    0.714    0.000    0.000    0.000    0.000 
#    0.000    0.000    0.000    0.000    0.000    0.000 
#
# Total GULP energy -156469.296519 kJ/mol
# GULP energy per Si atom -5588.189161 kJ/mol
# Density = 2.505269 g / cm^3
# Si number density = 25.109840 Si / 1000 Ang^3
#
#
#
# Elastic Constant Matrix: (Units=GPa)
#
#
# Indices 1 2 3 4 5 6 
#
# 1 192.3957 26.9244 34.4738 0.0000 -32.9919 0.0000
# 2 26.9244 117.6968 19.0168 0.0000 -15.0237 0.0000
# 3 34.4738 19.0168 70.8026 0.0000 -25.1385 0.0000
# 4 0.0000 0.0000 0.0000 19.6450 0.0000 -13.2738
# 5 -32.9919 -15.0237 -25.1385 0.0000 54.5732 0.0000
# 6 0.0000 0.0000 0.0000 -13.2738 0.0000 41.4111
#
#
#
# Elastic Compliance Matrix: (Units=1/GPa)
#
#
# Indices 1 2 3 4 5 6 
#
# 1 0.006081 -0.000761 -0.001824 0.000000 0.002627 0.000000
# 2 -0.000761 0.009097 -0.001610 0.000000 0.001302 0.000000
# 3 -0.001824 -0.001610 0.017808 0.000000 0.006657 0.000000
# 4 0.000000 0.000000 0.000000 0.064976 0.000000 0.020827
# 5 0.002627 0.001302 0.006657 0.000000 0.023337 0.000000
# 6 0.000000 0.000000 0.000000 0.020827 0.000000 0.030824
#
#
# Mechanical properties :
#
#
# Convention : Reuss Voigt Hill
#
# Bulk Modulus (GPa) = 40.65796 60.19168 50.42482
# Shear Modulus (GPa) = 29.63615 43.15786 36.39700
#
# Velocity S-wave (km/s) = 3.43922 4.15029 3.81138
# Velocity P-wave (km/s) = 5.65669 6.85492 6.28443
#
# Compressibility (1/GPa) = 0.02459543
#
# Stress axis : x y z
#
# Youngs Moduli (GPa) = 164.43596 109.92670 56.15463
#
# Poissons Ratio (x) = 0.08367 0.10242
# Poissons Ratio (y) = 0.12517 0.09043
# Poissons Ratio (z) = 0.29993 0.17702
#
# Static dielectric constant tensor:
#      x y z
#    x 2.026470 0.000000 0.042950 
#    y 0.000000 2.006170 0.000000 
#    z 0.042950 0.000000 2.123360 
# 
# From -- ./inp_files/47992.got.cif
#   From: 2010.05.17/outbox.cif.g08.bks.cpg/sg11_24_cif.got.tgz:47992.got - 2010.06.03 12:22:45.
