data_PCOD9157209
_publ_section_title
;
Structure prediction by ZEFSAII (Michael W. Deem and Ramdas Pophale) SiO2 
 PCOD9157209
Probable space group: P 21/M
;
_chemical_formula_sum "Si O2"
_cell_formula_units_Z 32
_cell_length_a 13.689255
_cell_length_b 14.537661
_cell_length_c 9.923769
_cell_angle_alpha 90.000000
_cell_angle_beta 132.702778
_cell_angle_gamma 90.000000
_cell_volume 1451.337571
_symmetry_space_group_name_H-M "P 21/M"
_symmetry_group_IT_number 11
_symmetry_cell_setting 'monoclinic'
loop_
_space_group_symop_operation_xyz
x,y,z
-x,1/2+y,-z
-x,-y,-z
x,1/2-y,z
loop_
_atom_site_type_symbol
_atom_site_label
_atom_site_fract_x
_atom_site_fract_y
_atom_site_fract_z
Si Si1 0.941673 0.595006 0.999791
Si Si2 0.769671 0.147396 0.730622
Si Si3 0.351354 0.143802 0.310578
Si Si4 0.692596 0.357666 0.364042
Si Si5 0.140733 0.048019 0.778882
Si Si6 0.436381 0.856505 0.252454
Si Si7 0.435685 0.462267 0.119301
Si Si8 0.941079 0.357394 0.394471
O O1 0.904998 0.591218 0.122835
O O2 0.073450 0.654709 0.106747
O O3 0.802119 0.619940 0.800685
O O4 0.000000 0.500000 0.000000
O O5 0.711155 0.250000 0.671162
O O6 0.732637 0.105648 0.551065
O O7 0.695445 0.107983 0.790602
O O8 0.354322 0.250000 0.267307
O O9 0.445013 0.136340 0.528169
O O10 0.408677 0.081665 0.243586
O O11 0.656472 0.250000 0.340539
O O12 0.567923 0.413345 0.193018
O O13 0.821041 0.361850 0.390106
O O14 0.069784 0.104190 0.593405
O O15 0.095882 0.940436 0.741178
O O16 0.298791 0.054281 0.914076
O O17 0.421318 0.750000 0.194862
O O18 0.458805 0.929347 0.157146
O O19 0.953099 0.250000 0.360904
#
# Coordination Sequence:
#
# PCOD9157209 Si02
#       8
#     4   4   4   4   4   4   4   4
#     4  11  22  34  55  86 120 154 189 239 289 346
#     4  10  18  32  51  79 111 148 196 238 277 334
#     4  10  20  33  50  79 116 154 193 236 284 336
#     4  10  20  34  59  86 105 142 195 246 289 331
#     4  10  23  39  60  91 113 150 198 234 295 353
#     4  10  21  35  53  80 120 164 196 225 286 358
#     4  11  21  34  58  84 118 150 187 245 291 345
#     4  10  22  43  65  83 114 152 195 249 292 338
#
# _framework density 22.048625999999999
#
# number of rings (size 3 to 8) (size 9 to 14) (size 15 to 20)
#    0.000    1.750    2.500    2.625    1.750    3.500 
#    0.000    1.250    0.000    4.500    0.000    0.000 
#    0.000    0.000    0.000    0.000    0.000    0.000 
#
# Total GULP energy -178742.636198 kJ/mol
# GULP energy per Si atom -5585.707381 kJ/mol
# Density = 2.199844 g / cm^3
# Si number density = 22.048626 Si / 1000 Ang^3
#
#
#
# Elastic Constant Matrix: (Units=GPa)
#
#
# Indices 1 2 3 4 5 6 
#
# 1 30.6684 24.2406 27.2626 0.0000 16.3104 0.0000
# 2 24.2406 105.7977 24.5637 0.0000 17.7902 0.0000
# 3 27.2626 24.5637 87.3399 0.0000 38.7603 0.0000
# 4 0.0000 0.0000 0.0000 17.4457 0.0000 16.0435
# 5 16.3104 17.7902 38.7603 0.0000 27.2794 0.0000
# 6 0.0000 0.0000 0.0000 16.0435 0.0000 16.4771
#
#
#
# Elastic Compliance Matrix: (Units=1/GPa)
#
#
# Indices 1 2 3 4 5 6 
#
# 1 0.054326 -0.007899 -0.007057 0.000000 -0.017303 0.000000
# 2 -0.007899 0.011767 0.001261 0.000000 -0.004742 0.000000
# 3 -0.007057 0.001261 0.031914 0.000000 -0.041948 0.000000
# 4 0.000000 0.000000 0.000000 0.548121 0.000000 -0.533697
# 5 -0.017303 -0.004742 -0.041948 0.000000 0.109699 0.000000
# 6 0.000000 0.000000 0.000000 -0.533697 0.000000 0.580343
#
#
# Mechanical properties :
#
#
# Convention : Reuss Voigt Hill
#
# Bulk Modulus (GPa) = 14.16112 41.77110 27.96611
# Shear Modulus (GPa) = 3.60465 22.08973 12.84719
#
# Velocity S-wave (km/s) = 1.28000 3.16866 2.41649
# Velocity P-wave (km/s) = 2.93618 5.68975 4.52739
#
# Compressibility (1/GPa) = 0.07061586
#
# Stress axis : x y z
#
# Youngs Moduli (GPa) = 18.40735 84.98679 31.33458
#
# Poissons Ratio (x) = 0.67133 0.22113
# Poissons Ratio (y) = 0.14540 -0.03951
# Poissons Ratio (z) = 0.12990 -0.10717
#
# Static dielectric constant tensor:
#      x y z
#    x 1.811130 0.000000 -0.006660 
#    y 0.000000 2.291550 0.000000 
#    z -0.006660 0.000000 1.813920 
# 
# From -- ./inp_files/39670.got.cif
#   From: 2010.05.17/outbox.cif.g08.bks.cpg/sg11_20_cif.got.tgz:39670.got - 2010.06.03 12:22:45.
