data_PCOD9157916
_publ_section_title
;
Structure prediction by ZEFSAII (Michael W. Deem and Ramdas Pophale) SiO2 
 PCOD9157916
Probable space group: P 21/M
;
_chemical_formula_sum "Si O2"
_cell_formula_units_Z 28
_cell_length_a 28.843881
_cell_length_b 8.631251
_cell_length_c 9.921298
_cell_angle_alpha 90.000000
_cell_angle_beta 39.310862
_cell_angle_gamma 90.000000
_cell_volume 1564.809417
_symmetry_space_group_name_H-M "P 21/M"
_symmetry_group_IT_number 11
_symmetry_cell_setting 'monoclinic'
loop_
_space_group_symop_operation_xyz
x,y,z
-x,1/2+y,-z
-x,-y,-z
x,1/2-y,z
loop_
_atom_site_type_symbol
_atom_site_label
_atom_site_fract_x
_atom_site_fract_y
_atom_site_fract_z
Si Si1 0.201188 0.433205 0.728876
Si Si2 0.554689 0.063366 0.194298
Si Si3 0.808913 0.062393 0.671298
Si Si4 0.080647 0.564450 0.798169
Si Si5 0.762465 0.435125 0.068751
Si Si6 0.312977 0.563836 0.276290
Si Si7 0.604724 0.565627 0.369524
O O1 0.193450 0.250000 0.737914
O O2 0.135932 0.511359 0.791080
O O3 0.202594 0.488711 0.878904
O O4 0.276879 0.484149 0.486112
O O5 0.561547 0.250000 0.198200
O O6 0.468718 0.026940 0.381087
O O7 0.586021 0.983064 0.258169
O O8 0.605320 0.021688 0.953530
O O9 0.810183 0.250000 0.673896
O O10 0.880847 0.011360 0.428254
O O11 0.739788 0.022851 0.731779
O O12 0.797508 0.007836 0.848894
O O13 0.078231 0.750000 0.802402
O O14 0.000000 0.500000 0.000000
O O15 0.770223 0.250000 0.059512
O O16 0.676860 0.478257 0.254483
O O17 0.308743 0.750000 0.304463
O O18 0.616847 0.750000 0.349180
#
# Coordination Sequence:
#
# PCOD9157916 Si02
#       7
#     4   4   4   4   4   4   4
#     4  11  23  37  54  82 113 142 176 224 273 322
#     4   9  17  31  50  73 105 143 185 227 274 323
#     4   8  16  31  56  81 104 136 180 219 257 310
#     4  10  20  39  63  88 112 141 174 214 260 317
#     4  11  20  36  56  77 107 148 185 221 270 327
#     4   9  16  33  55  76 101 141 188 228 267 323
#     4  10  19  29  47  78 110 140 178 232 279 318
#
# _framework density 17.893554000000002
#
# number of rings (size 3 to 8) (size 9 to 14) (size 15 to 20)
#    0.000    2.286    1.429    3.429    0.000    1.143 
#    0.000    3.571    0.000    0.000    0.000    0.000 
#    0.000    0.000    0.000    0.000    0.000    0.000 
#
# Total GULP energy -156195.829713 kJ/mol
# GULP energy per Si atom -5578.422490 kJ/mol
# Density = 1.785283 g / cm^3
# Si number density = 17.893554 Si / 1000 Ang^3
#
#
#
# Elastic Constant Matrix: (Units=GPa)
#
#
# Indices 1 2 3 4 5 6 
#
# 1 58.1397 15.7384 53.4913 0.0000 9.9664 0.0000
# 2 15.7384 46.2527 31.7005 0.0000 -0.7414 0.0000
# 3 53.4913 31.7005 140.6055 0.0000 -1.4954 0.0000
# 4 0.0000 0.0000 0.0000 22.9342 0.0000 -4.4170
# 5 9.9664 -0.7414 -1.4954 0.0000 29.7858 0.0000
# 6 0.0000 0.0000 0.0000 -4.4170 0.0000 25.8754
#
#
#
# Elastic Compliance Matrix: (Units=1/GPa)
#
#
# Indices 1 2 3 4 5 6 
#
# 1 0.029684 -0.002901 -0.010751 0.000000 -0.010544 0.000000
# 2 -0.002901 0.025859 -0.004712 0.000000 0.001378 0.000000
# 3 -0.010751 -0.004712 0.012308 0.000000 0.004098 0.000000
# 4 0.000000 0.000000 0.000000 0.045085 0.000000 0.007696
# 5 -0.010544 0.001378 0.004098 0.000000 0.037341 0.000000
# 6 0.000000 0.000000 0.000000 0.007696 0.000000 0.039960
#
#
# Mechanical properties :
#
#
# Convention : Reuss Voigt Hill
#
# Bulk Modulus (GPa) = 32.13016 49.65093 40.89054
# Shear Modulus (GPa) = 21.06677 25.32359 23.19518
#
# Velocity S-wave (km/s) = 3.43496 3.76604 3.60430
# Velocity P-wave (km/s) = 5.80751 6.83513 6.34217
#
# Compressibility (1/GPa) = 0.03112340
#
# Stress axis : x y z
#
# Youngs Moduli (GPa) = 33.68788 38.67133 81.24783
#
# Poissons Ratio (x) = 0.11219 0.87349
# Poissons Ratio (y) = 0.09774 0.38282
# Poissons Ratio (z) = 0.36218 0.18221
#
# Static dielectric constant tensor:
#      x y z
#    x 1.579330 0.000000 0.002880 
#    y 0.000000 1.602860 0.000000 
#    z 0.002880 0.000000 1.639050 
# 
# From -- ./inp_files/28450.got.cif
#   From: 2010.05.17/outbox.cif.g08.bks.cpg/sg11_15_cif.got.tgz:28450.got - 2010.06.03 12:22:45.
