data_PCOD9157680
_publ_section_title
;
Structure prediction by ZEFSAII (Michael W. Deem and Ramdas Pophale) SiO2 
 PCOD9157680
Probable space group: P 21/M
;
_chemical_formula_sum "Si O2"
_cell_formula_units_Z 32
_cell_length_a 27.348398
_cell_length_b 8.690643
_cell_length_c 21.259898
_cell_angle_alpha 90.000000
_cell_angle_beta 160.126763
_cell_angle_gamma 90.000000
_cell_volume 1717.701260
_symmetry_space_group_name_H-M "P 21/M"
_symmetry_group_IT_number 11
_symmetry_cell_setting 'monoclinic'
loop_
_space_group_symop_operation_xyz
x,y,z
-x,1/2+y,-z
-x,-y,-z
x,1/2-y,z
loop_
_atom_site_type_symbol
_atom_site_label
_atom_site_fract_x
_atom_site_fract_y
_atom_site_fract_z
Si Si1 0.650384 0.064972 0.347824
Si Si2 0.981262 0.064211 0.742833
Si Si3 0.787044 0.562620 0.078807
Si Si4 0.957667 0.066081 0.047304
Si Si5 0.434197 0.932766 0.984136
Si Si6 0.224928 0.066373 0.281354
Si Si7 0.468209 0.565386 0.657101
Si Si8 0.845940 0.564867 0.293885
O O1 0.635652 0.250000 0.321097
O O2 0.539999 0.981600 0.168543
O O3 0.610360 0.031771 0.371636
O O4 0.814666 0.019153 0.533282
O O5 0.984377 0.250000 0.748845
O O6 0.082936 0.012851 0.808798
O O7 0.036997 0.002155 0.876769
O O8 0.785374 0.750000 0.077290
O O9 0.808166 0.515169 0.176622
O O10 0.633010 0.513802 0.864734
O O11 0.954819 0.250000 0.046714
O O12 0.826055 0.006057 0.845879
O O13 0.102769 0.018821 0.184850
O O14 0.577056 0.250000 0.034020
O O15 0.278727 0.003219 0.811605
O O16 0.500000 0.000000 0.000000
O O17 0.221653 0.250000 0.272332
O O18 0.377303 0.010675 0.491743
O O19 0.466498 0.750000 0.646504
O O20 0.847774 0.750000 0.297725
O O21 0.000000 0.500000 0.500000
#
# Coordination Sequence:
#
# PCOD9157680 Si02
#       8
#     4   4   4   4   4   4   4   4
#     4  10  20  36  61  88 118 153 196 246 296 355
#     4  10  20  36  59  86 116 154 193 236 292 352
#     4   9  20  38  60  84 117 156 193 235 288 353
#     4  10  20  34  53  82 117 150 188 241 293 344
#     4  12  26  43  64  91 124 161 203 257 309 361
#     4  10  20  33  54  83 114 149 192 241 290 346
#     4  10  18  35  59  84 113 152 193 236 290 346
#     4  11  23  43  65  92 125 164 207 248 302 366
#
# _framework density 18.629549999999998
#
# number of rings (size 3 to 8) (size 9 to 14) (size 15 to 20)
#    0.000    1.750    2.500    2.250    1.750    2.000 
#    0.000    2.500    0.000    0.000    0.000    0.000 
#    0.000    0.000    0.000    0.000    0.000    0.000 
#
# Total GULP energy -178774.405796 kJ/mol
# GULP energy per Si atom -5586.700181 kJ/mol
# Density = 1.858715 g / cm^3
# Si number density = 18.629550 Si / 1000 Ang^3
#
#
#
# Elastic Constant Matrix: (Units=GPa)
#
#
# Indices 1 2 3 4 5 6 
#
# 1 83.8855 29.4716 50.4887 0.0000 17.1130 0.0000
# 2 29.4716 41.2422 38.7169 0.0000 1.9807 0.0000
# 3 50.4887 38.7169 153.2199 0.0000 10.1623 0.0000
# 4 0.0000 0.0000 0.0000 33.9431 0.0000 -6.8098
# 5 17.1130 1.9807 10.1623 0.0000 33.2369 0.0000
# 6 0.0000 0.0000 0.0000 -6.8098 0.0000 20.6087
#
#
#
# Elastic Compliance Matrix: (Units=1/GPa)
#
#
# Indices 1 2 3 4 5 6 
#
# 1 0.019127 -0.010316 -0.003147 0.000000 -0.008271 0.000000
# 2 -0.010316 0.037362 -0.006376 0.000000 0.005034 0.000000
# 3 -0.003147 -0.006376 0.009229 0.000000 -0.000821 0.000000
# 4 0.000000 0.000000 0.000000 0.031553 0.000000 0.010426
# 5 -0.008271 0.005034 -0.000821 0.000000 0.034297 0.000000
# 6 0.000000 0.000000 0.000000 0.010426 0.000000 0.051968
#
#
# Mechanical properties :
#
#
# Convention : Reuss Voigt Hill
#
# Bulk Modulus (GPa) = 38.40205 57.30021 47.85113
# Shear Modulus (GPa) = 21.56147 28.20242 24.88195
#
# Velocity S-wave (km/s) = 3.40572 3.89505 3.65857
# Velocity P-wave (km/s) = 6.01028 7.14514 6.60214
#
# Compressibility (1/GPa) = 0.02604028
#
# Stress axis : x y z
#
# Youngs Moduli (GPa) = 52.28189 26.76487 108.35210
#
# Poissons Ratio (x) = 0.27612 0.34102
# Poissons Ratio (y) = 0.53936 0.69080
# Poissons Ratio (z) = 0.16455 0.17064
#
# Static dielectric constant tensor:
#      x y z
#    x 1.628510 0.000000 0.012370 
#    y 0.000000 1.626880 0.000000 
#    z 0.012370 0.000000 1.631790 
# 
# From -- ./inp_files/67220.got.cif
#   From: 2010.05.17/outbox.cif.g08.bks.cpg/sg11_34_cif.got.tgz:67220.got - 2010.06.03 12:22:45.
