data_PCOD9157852
_publ_section_title
;
Structure prediction by ZEFSAII (Michael W. Deem and Ramdas Pophale) SiO2 
 PCOD9157852
Probable space group: P 21/M
;
_chemical_formula_sum "Si O2"
_cell_formula_units_Z 32
_cell_length_a 31.244274
_cell_length_b 8.936553
_cell_length_c 16.398387
_cell_angle_alpha 90.000000
_cell_angle_beta 150.454584
_cell_angle_gamma 90.000000
_cell_volume 2257.814830
_symmetry_space_group_name_H-M "P 21/M"
_symmetry_group_IT_number 11
_symmetry_cell_setting 'monoclinic'
loop_
_space_group_symop_operation_xyz
x,y,z
-x,1/2+y,-z
-x,-y,-z
x,1/2-y,z
loop_
_atom_site_type_symbol
_atom_site_label
_atom_site_fract_x
_atom_site_fract_y
_atom_site_fract_z
Si Si1 0.409096 0.429703 0.319808
Si Si2 0.633643 0.071593 0.249106
Si Si3 0.481821 0.928407 0.097284
Si Si4 0.808623 0.928371 0.592901
Si Si5 0.524345 0.928371 0.740068
Si Si6 0.179173 0.429325 0.193162
Si Si7 0.998384 0.429703 0.087671
Si Si8 0.334815 0.929325 0.348803
O O1 0.500000 0.500000 0.500000
O O2 0.411025 0.250000 0.332353
O O3 0.409039 0.463369 0.223193
O O4 0.339988 0.501317 0.266573
O O5 0.631319 0.250000 0.253628
O O6 0.571881 0.000000 0.215641
O O7 0.730548 0.012549 0.420208
O O8 0.589848 0.031084 0.089847
O O9 0.490992 0.750000 0.113301
O O10 0.459113 0.987450 0.148774
O O11 0.795638 0.750000 0.564386
O O12 0.807849 0.963989 0.688777
O O13 0.905115 0.963368 0.719269
O O14 0.526891 0.750000 0.758144
O O15 0.426922 0.963987 0.545993
O O16 0.177385 0.250000 0.182201
O O17 0.257081 0.499999 0.271244
O O18 0.086597 0.498684 0.013183
O O19 0.989697 0.250000 0.068368
O O20 0.000000 0.500000 0.000000
O O21 0.327429 0.750000 0.332244
#
# Coordination Sequence:
#
# PCOD9157852 Si02
#       8
#     4   4   4   4   4   4   4   4
#     4   9  17  29  43  60  82 108 139 172 207 247
#     4  10  20  31  43  60  82 109 141 176 211 245
#     4  10  20  31  43  60  82 109 141 176 211 245
#     4   9  18  30  44  61  81 109 142 173 207 246
#     4   9  18  30  44  61  81 109 142 173 207 246
#     4  10  19  29  42  62  86 112 142 173 207 246
#     4   9  17  29  43  60  82 108 139 172 207 247
#     4  10  19  29  42  62  86 112 142 173 207 246
#
# _framework density 14.172995999999999
#
# number of rings (size 3 to 8) (size 9 to 14) (size 15 to 20)
#    0.000    2.500    0.000    4.500    0.000    9.500 
#    0.000    0.000    0.000    0.000    0.000    0.000 
#    0.000    1.000    0.000    3.250    0.000    4.750 
#
# Total GULP energy -178291.784997 kJ/mol
# GULP energy per Si atom -5571.618281 kJ/mol
# Density = 1.414074 g / cm^3
# Si number density = 14.172996 Si / 1000 Ang^3
#
#
#
# Elastic Constant Matrix: (Units=GPa)
#
#
# Indices 1 2 3 4 5 6 
#
# 1 83.1144 35.5342 27.6425 0.0000 4.4901 0.0000
# 2 35.5342 45.3213 31.9961 0.0000 2.6399 0.0000
# 3 27.6425 31.9961 64.4451 0.0000 9.4379 0.0000
# 4 0.0000 0.0000 0.0000 23.6822 0.0000 2.0153
# 5 4.4901 2.6399 9.4379 0.0000 21.0356 0.0000
# 6 0.0000 0.0000 0.0000 2.0153 0.0000 26.3837
#
#
#
# Elastic Compliance Matrix: (Units=1/GPa)
#
#
# Indices 1 2 3 4 5 6 
#
# 1 0.018215 -0.013623 -0.000782 0.000000 -0.001828 0.000000
# 2 -0.013623 0.044409 -0.016927 0.000000 0.004929 0.000000
# 3 -0.000782 -0.016927 0.025603 0.000000 -0.009196 0.000000
# 4 0.000000 0.000000 0.000000 0.042502 0.000000 -0.003247
# 5 -0.001828 0.004929 -0.009196 0.000000 0.051436 0.000000
# 6 0.000000 0.000000 0.000000 -0.003247 0.000000 0.038150
#
#
# Mechanical properties :
#
#
# Convention : Reuss Voigt Hill
#
# Bulk Modulus (GPa) = 39.11814 42.58072 40.84943
# Shear Modulus (GPa) = 17.15276 20.73417 18.94346
#
# Velocity S-wave (km/s) = 3.48263 3.82898 3.65990
# Velocity P-wave (km/s) = 6.62057 7.04677 6.83699
#
# Compressibility (1/GPa) = 0.02556359
#
# Stress axis : x y z
#
# Youngs Moduli (GPa) = 54.90125 22.51811 39.05789
#
# Poissons Ratio (x) = 0.30676 0.03052
# Poissons Ratio (y) = 0.74791 0.66113
# Poissons Ratio (z) = 0.04291 0.38116
#
# Static dielectric constant tensor:
#      x y z
#    x 1.505150 0.000000 0.023840 
#    y 0.000000 1.469920 0.000000 
#    z 0.023840 0.000000 1.473190 
# 
# From -- ./inp_files/56190.got.cif
#   From: 2010.05.17/outbox.cif.g08.bks.cpg/sg11_29_cif.got.tgz:56190.got - 2010.06.03 12:22:45.
