data_PCOD9157156
_publ_section_title
;
Structure prediction by ZEFSAII (Michael W. Deem and Ramdas Pophale) SiO2 
 PCOD9157156
Probable space group: P 21/M
;
_chemical_formula_sum "Si O2"
_cell_formula_units_Z 32
_cell_length_a 12.607433
_cell_length_b 13.699473
_cell_length_c 7.138475
_cell_angle_alpha 90.000000
_cell_angle_beta 75.829245
_cell_angle_gamma 90.000000
_cell_volume 1195.405738
_symmetry_space_group_name_H-M "P 21/M"
_symmetry_group_IT_number 11
_symmetry_cell_setting 'monoclinic'
loop_
_space_group_symop_operation_xyz
x,y,z
-x,1/2+y,-z
-x,-y,-z
x,1/2-y,z
loop_
_atom_site_type_symbol
_atom_site_label
_atom_site_fract_x
_atom_site_fract_y
_atom_site_fract_z
Si Si1 0.617392 0.102356 0.858544
Si Si2 0.139281 0.913429 0.298096
Si Si3 0.200966 0.977007 0.643801
Si Si4 0.637075 0.637389 0.468623
Si Si5 0.378619 0.386529 0.975387
Si Si6 0.938614 0.855164 0.138478
Si Si7 0.601544 0.364964 0.417188
Si Si8 0.135593 0.144748 0.229835
O O1 0.501927 0.149899 0.971940
O O2 0.607679 0.111431 0.636387
O O3 0.745286 0.128553 0.827421
O O4 0.616435 0.996574 0.953000
O O5 0.121780 0.031841 0.297224
O O6 0.144347 0.904352 0.521927
O O7 0.044123 0.864592 0.221835
O O8 0.294828 0.918967 0.713176
O O9 0.270430 0.063333 0.507792
O O10 0.124669 0.043810 0.800036
O O11 0.651915 0.750000 0.513624
O O12 0.632595 0.629181 0.243959
O O13 0.518773 0.603618 0.593706
O O14 0.263151 0.350151 0.107070
O O15 0.882796 0.750000 0.210486
O O16 0.946071 0.851305 0.912928
O O17 0.609219 0.250000 0.388384
O O18 0.116816 0.250000 0.341557
#
# Coordination Sequence:
#
# PCOD9157156 Si02
#       8
#     4   4   4   4   4   4   4   4
#     4   8  17  31  53  81 111 146 183 231 284 338
#     4  10  22  38  55  82 117 151 191 235 292 338
#     4  11  21  36  57  87 114 149 197 243 288 334
#     4  10  18  31  55  86 119 155 192 234 286 349
#     4   9  15  30  54  84 113 140 182 232 284 339
#     4  11  23  40  61  83 109 147 198 245 290 345
#     4   9  19  34  54  82 118 158 195 231 286 350
#     4  10  20  36  59  85 111 145 188 238 289 344
#
# _framework density 26.769152999999999
#
# number of rings (size 3 to 8) (size 9 to 14) (size 15 to 20)
#    0.000    2.250    1.250    1.875    0.000    3.500 
#    0.000    0.625    0.000    1.500    0.000    1.750 
#    0.000    0.000    0.000    0.000    0.000    0.000 
#
# Total GULP energy -178621.345645 kJ/mol
# GULP energy per Si atom -5581.917051 kJ/mol
# Density = 2.670823 g / cm^3
# Si number density = 26.769153 Si / 1000 Ang^3
#
#
#
# Elastic Constant Matrix: (Units=GPa)
#
#
# Indices 1 2 3 4 5 6 
#
# 1 65.7542 21.1435 12.1545 0.0000 5.9228 0.0000
# 2 21.1435 121.7505 1.7793 0.0000 8.6876 0.0000
# 3 12.1545 1.7793 79.4199 0.0000 5.4408 0.0000
# 4 0.0000 0.0000 0.0000 27.9140 0.0000 40.0939
# 5 5.9228 8.6876 5.4408 0.0000 24.5431 0.0000
# 6 0.0000 0.0000 0.0000 40.0939 0.0000 153.6704
#
#
#
# Elastic Compliance Matrix: (Units=1/GPa)
#
#
# Indices 1 2 3 4 5 6 
#
# 1 0.016734 -0.002689 -0.002325 0.000000 -0.002571 0.000000
# 2 -0.002689 0.008858 0.000389 0.000000 -0.002573 0.000000
# 3 -0.002325 0.000389 0.013108 0.000000 -0.002483 0.000000
# 4 0.000000 0.000000 0.000000 0.057296 0.000000 -0.014949
# 5 -0.002571 -0.002573 -0.002483 0.000000 0.042826 0.000000
# 6 0.000000 0.000000 0.000000 -0.014949 0.000000 0.010408
#
#
# Mechanical properties :
#
#
# Convention : Reuss Voigt Hill
#
# Bulk Modulus (GPa) = 33.95250 37.45323 35.70286
# Shear Modulus (GPa) = 29.70944 56.68199 43.19572
#
# Velocity S-wave (km/s) = 3.33504 4.60655 4.02137
# Velocity P-wave (km/s) = 5.24795 6.50502 5.91000
#
# Compressibility (1/GPa) = 0.02945291
#
# Stress axis : x y z
#
# Youngs Moduli (GPa) = 59.75867 112.88790 76.28683
#
# Poissons Ratio (x) = 0.30351 0.17734
# Poissons Ratio (y) = 0.16067 -0.02970
# Poissons Ratio (z) = 0.13891 -0.04395
#
# Static dielectric constant tensor:
#      x y z
#    x 2.131610 0.000000 -0.050320 
#    y 0.000000 2.122380 0.000000 
#    z -0.050320 0.000000 2.084300 
# 
# From -- ./inp_files/18061.got.cif
#   From: 2010.05.17/outbox.cif.g08.bks.cpg/sg11_10_cif.got.tgz:18061.got - 2010.06.03 12:22:45.
