data_PCOD9157195
_publ_section_title
;
Structure prediction by ZEFSAII (Michael W. Deem and Ramdas Pophale) SiO2 
 PCOD9157195
Probable space group: P 21/M
;
_chemical_formula_sum "Si O2"
_cell_formula_units_Z 28
_cell_length_a 10.350476
_cell_length_b 13.255153
_cell_length_c 9.214365
_cell_angle_alpha 90.000000
_cell_angle_beta 71.558626
_cell_angle_gamma 90.000000
_cell_volume 1199.265933
_symmetry_space_group_name_H-M "P 21/M"
_symmetry_group_IT_number 11
_symmetry_cell_setting 'monoclinic'
loop_
_space_group_symop_operation_xyz
x,y,z
-x,1/2+y,-z
-x,-y,-z
x,1/2-y,z
loop_
_atom_site_type_symbol
_atom_site_label
_atom_site_fract_x
_atom_site_fract_y
_atom_site_fract_z
Si Si1 0.580339 0.638099 0.387830
Si Si2 0.163444 0.435343 0.526639
Si Si3 0.980933 0.367476 0.823579
Si Si4 0.141292 0.863191 0.709388
Si Si5 0.862807 0.929684 0.960656
Si Si6 0.681836 0.865974 0.794328
Si Si7 0.584091 0.079096 0.272799
O O1 0.570502 0.750000 0.328859
O O2 0.717430 0.625002 0.432630
O O3 0.466557 0.621030 0.552525
O O4 0.575287 0.541886 0.285803
O O5 0.160957 0.550011 0.583133
O O6 0.211029 0.427109 0.344729
O O7 0.026721 0.386660 0.640951
O O8 0.948900 0.250000 0.858338
O O9 0.875204 0.452799 0.912125
O O10 0.108792 0.400800 0.882696
O O11 0.150896 0.750000 0.649654
O O12 0.261872 0.882076 0.783684
O O13 0.994062 0.878925 0.835049
O O14 0.725188 0.887786 0.942607
O O15 0.708822 0.750000 0.751479
O O16 0.526601 0.887577 0.805521
#
# Coordination Sequence:
#
# PCOD9157195 Si02
#       7
#     4   4   4   4   4   4   4
#     4   9  15  28  46  71 102 136 170 213 254 303
#     4   9  19  31  53  80 104 135 180 214 256 314
#     4  10  19  37  57  76 102 142 179 212 249 307
#     4  10  18  32  50  76 107 140 173 215 258 308
#     4  10  23  36  55  81 106 135 178 213 256 313
#     4  11  20  35  53  79 110 135 165 221 269 302
#     4   9  18  28  48  75 101 133 175 207 254 315
#
# _framework density 23.347615000000001
#
# number of rings (size 3 to 8) (size 9 to 14) (size 15 to 20)
#    0.000    2.286    0.000    5.571    0.000    2.286 
#    0.000    2.857    0.000   13.714    0.000   12.000 
#    0.000    0.000    0.000    0.000    0.000    0.000 
#
# Total GULP energy -156459.487115 kJ/mol
# GULP energy per Si atom -5587.838826 kJ/mol
# Density = 2.329448 g / cm^3
# Si number density = 23.347615 Si / 1000 Ang^3
#
#
#
# Elastic Constant Matrix: (Units=GPa)
#
#
# Indices 1 2 3 4 5 6 
#
# 1 80.0749 15.0037 20.0189 0.0000 13.9579 0.0000
# 2 15.0037 195.4781 6.6298 0.0000 -2.3185 0.0000
# 3 20.0189 6.6298 45.4290 0.0000 -0.5603 0.0000
# 4 0.0000 0.0000 0.0000 13.1340 0.0000 1.5367
# 5 13.9579 -2.3185 -0.5603 0.0000 29.6189 0.0000
# 6 0.0000 0.0000 0.0000 1.5367 0.0000 6.4055
#
#
#
# Elastic Compliance Matrix: (Units=1/GPa)
#
#
# Indices 1 2 3 4 5 6 
#
# 1 0.015736 -0.001065 -0.006873 0.000000 -0.007629 0.000000
# 2 -0.001065 0.005218 -0.000281 0.000000 0.000905 0.000000
# 3 -0.006873 -0.000281 0.025128 0.000000 0.003692 0.000000
# 4 0.000000 0.000000 0.000000 0.078337 0.000000 -0.018793
# 5 -0.007629 0.000905 0.003692 0.000000 0.037498 0.000000
# 6 0.000000 0.000000 0.000000 -0.018793 0.000000 0.160625
#
#
# Mechanical properties :
#
#
# Convention : Reuss Voigt Hill
#
# Bulk Modulus (GPa) = 33.73455 44.92074 39.32765
# Shear Modulus (GPa) = 14.33240 28.45365 21.39302
#
# Velocity S-wave (km/s) = 2.48033 3.49477 3.03030
# Velocity P-wave (km/s) = 4.76266 5.96375 5.39672
#
# Compressibility (1/GPa) = 0.02964320
#
# Stress axis : x y z
#
# Youngs Moduli (GPa) = 63.54882 191.65599 39.79701
#
# Poissons Ratio (x) = 0.20415 0.27352
# Poissons Ratio (y) = 0.06769 0.01118
# Poissons Ratio (z) = 0.43676 0.05384
#
# Static dielectric constant tensor:
#      x y z
#    x 1.896360 0.000000 -0.023620 
#    y 0.000000 1.866240 0.000000 
#    z -0.023620 0.000000 1.970680 
# 
# From -- ./inp_files/17691.got.cif
#   From: 2010.05.17/outbox.cif.g08.bks.cpg/sg11_9_cif.got.tgz:17691.got - 2010.06.03 12:22:45.
