data_PCOD9157490
_publ_section_title
;
Structure prediction by ZEFSAII (Michael W. Deem and Ramdas Pophale) SiO2 
 PCOD9157490
Probable space group: P 21/M
;
_chemical_formula_sum "Si O2"
_cell_formula_units_Z 32
_cell_length_a 21.142446
_cell_length_b 7.861135
_cell_length_c 26.173146
_cell_angle_alpha 90.000000
_cell_angle_beta 22.631522
_cell_angle_gamma 90.000000
_cell_volume 1673.921413
_symmetry_space_group_name_H-M "P 21/M"
_symmetry_group_IT_number 11
_symmetry_cell_setting 'monoclinic'
loop_
_space_group_symop_operation_xyz
x,y,z
-x,1/2+y,-z
-x,-y,-z
x,1/2-y,z
loop_
_atom_site_type_symbol
_atom_site_label
_atom_site_fract_x
_atom_site_fract_y
_atom_site_fract_z
Si Si1 0.154694 0.452333 0.348641
Si Si2 0.638832 0.958682 0.714976
Si Si3 0.658255 0.455247 0.348056
Si Si4 0.056838 0.047551 0.583185
Si Si5 0.853493 0.956018 0.372978
Si Si6 0.342221 0.952235 0.868822
Si Si7 0.470694 0.958067 0.663889
Si Si8 0.022969 0.950773 0.829927
O O1 0.164306 0.250000 0.338178
O O2 0.310241 0.514610 0.265864
O O3 0.000000 0.500000 0.500000
O O4 0.105375 0.515641 0.329451
O O5 0.640755 0.750000 0.714488
O O6 0.784604 0.014104 0.567470
O O7 0.466963 0.017022 0.819484
O O8 0.500000 0.500000 0.500000
O O9 0.667822 0.250000 0.339560
O O10 0.626491 0.515495 0.313999
O O11 0.824019 0.521224 0.251075
O O12 0.077835 0.250000 0.570556
O O13 0.063498 0.983407 0.636110
O O14 0.857602 0.750000 0.368790
O O15 0.661795 0.007734 0.516983
O O16 0.938362 0.017328 0.258217
O O17 0.370755 0.750000 0.845349
O O18 0.394265 0.018727 0.774216
O O19 0.153341 0.979950 0.022572
O O20 0.467984 0.750000 0.665960
O O21 0.017388 0.750000 0.842804
#
# Coordination Sequence:
#
# PCOD9157490 Si02
#       8
#     4   4   4   4   4   4   4   4
#     4   9  16  26  43  71 107 139 168 210 261 309
#     4   8  14  27  48  73 100 131 169 212 252 296
#     4  10  20  35  55  78 106 136 172 216 262 311
#     4   9  16  28  49  78 105 128 168 222 263 304
#     4  10  18  33  58  80 100 135 182 221 254 310
#     4  10  19  35  57  77 100 138 182 218 252 305
#     4   9  17  32  58  82  98 129 180 223 253 297
#     4  11  24  37  49  76 114 141 166 215 270 316
#
# _framework density 19.116788
#
# number of rings (size 3 to 8) (size 9 to 14) (size 15 to 20)
#    0.000    2.500    2.500    1.500    0.000    1.500 
#    0.000    4.375    0.000    0.750    0.000    0.000 
#    0.000    0.000    0.000    0.000    0.000    0.000 
#
# Total GULP energy -178401.012645 kJ/mol
# GULP energy per Si atom -5575.031645 kJ/mol
# Density = 1.907328 g / cm^3
# Si number density = 19.116788 Si / 1000 Ang^3
#
#
#
# Elastic Constant Matrix: (Units=GPa)
#
#
# Indices 1 2 3 4 5 6 
#
# 1 175.1484 -4.6314 62.6661 0.0000 -25.2816 0.0000
# 2 -4.6314 11.7772 -10.0125 0.0000 -3.8495 0.0000
# 3 62.6661 -10.0125 98.1783 0.0000 -10.8172 0.0000
# 4 0.0000 0.0000 0.0000 6.7979 0.0000 -3.6611
# 5 -25.2816 -3.8495 -10.8172 0.0000 25.6819 0.0000
# 6 0.0000 0.0000 0.0000 -3.6611 0.0000 17.1313
#
#
#
# Elastic Compliance Matrix: (Units=1/GPa)
#
#
# Indices 1 2 3 4 5 6 
#
# 1 0.008267 0.001658 -0.004387 0.000000 0.006539 0.000000
# 2 0.001658 0.102849 0.011859 0.000000 0.022044 0.000000
# 3 -0.004387 0.011859 0.014592 0.000000 0.003605 0.000000
# 4 0.000000 0.000000 0.000000 0.166239 0.000000 0.035527
# 5 0.006539 0.022044 0.003605 0.000000 0.050197 0.000000
# 6 0.000000 0.000000 0.000000 0.035527 0.000000 0.065965
#
#
# Mechanical properties :
#
#
# Convention : Reuss Voigt Hill
#
# Bulk Modulus (GPa) = 6.94592 42.34981 24.64787
# Shear Modulus (GPa) = 11.41974 25.72766 18.57370
#
# Velocity S-wave (km/s) = 2.44676 3.67251 3.12042
# Velocity P-wave (km/s) = 3.40932 6.33912 5.08959
#
# Compressibility (1/GPa) = 0.14396939
#
# Stress axis : x y z
#
# Youngs Moduli (GPa) = 120.96672 9.72297 68.52897
#
# Poissons Ratio (x) = -0.01613 0.30064
# Poissons Ratio (y) = -0.20062 -0.81269
# Poissons Ratio (z) = 0.53068 -0.11530
#
# Static dielectric constant tensor:
#      x y z
#    x 1.712290 0.000000 -0.030730 
#    y 0.000000 1.689600 0.000000 
#    z -0.030730 0.000000 1.621340 
# 
# From -- ./inp_files/72044.got.cif
#   From: 2010.05.17/outbox.cif.g08.bks.cpg/sg11_37_cif.got.tgz:72044.got - 2010.06.03 12:22:45.
