data_PCOD9157437
_publ_section_title
;
Structure prediction by ZEFSAII (Michael W. Deem and Ramdas Pophale) SiO2 
 PCOD9157437
Probable space group: P 21/M
;
_chemical_formula_sum "Si O2"
_cell_formula_units_Z 32
_cell_length_a 20.678495
_cell_length_b 7.572265
_cell_length_c 21.154474
_cell_angle_alpha 90.000000
_cell_angle_beta 28.769128
_cell_angle_gamma 90.000000
_cell_volume 1594.211991
_symmetry_space_group_name_H-M "P 21/M"
_symmetry_group_IT_number 11
_symmetry_cell_setting 'monoclinic'
loop_
_space_group_symop_operation_xyz
x,y,z
-x,1/2+y,-z
-x,-y,-z
x,1/2-y,z
loop_
_atom_site_type_symbol
_atom_site_label
_atom_site_fract_x
_atom_site_fract_y
_atom_site_fract_z
Si Si1 0.151796 0.461412 0.348571
Si Si2 0.368246 0.962938 0.922468
Si Si3 0.087186 0.457533 0.772093
Si Si4 0.865673 0.541207 0.778165
Si Si5 0.787575 0.466588 0.065537
Si Si6 0.155810 0.046961 0.579370
Si Si7 0.329397 0.032729 0.313169
Si Si8 0.154884 0.540786 0.849266
O O1 0.168569 0.250000 0.332304
O O2 0.169486 0.526718 0.261819
O O3 0.254003 0.528026 0.314321
O O4 0.000000 0.500000 0.500000
O O5 0.371680 0.750000 0.917559
O O6 0.319059 0.023041 0.895399
O O7 0.516393 0.023526 0.814256
O O8 0.255760 0.013614 0.069609
O O9 0.067118 0.250000 0.776756
O O10 0.151813 0.533807 0.653090
O O11 0.172498 0.472324 0.763255
O O12 0.936546 0.526991 0.915337
O O13 0.893842 0.750000 0.749574
O O14 0.002194 0.455937 0.686865
O O15 0.790176 0.250000 0.064380
O O16 0.765634 0.524414 0.156895
O O17 0.201797 0.250000 0.546589
O O18 0.247524 0.970940 0.445136
O O19 0.325569 0.250000 0.315883
O O20 0.171538 0.750000 0.831379
O O21 0.000000 0.500000 0.000000
#
# Coordination Sequence:
#
# PCOD9157437 Si02
#       8
#     4   4   4   4   4   4   4   4
#     4  10  20  35  54  77 104 132 169 214 254 304
#     4  10  19  35  55  75 101 137 174 212 252 301
#     4   9  16  27  45  71  98 125 164 211 252 297
#     4  11  22  33  50  79 107 133 167 211 259 308
#     4   8  14  26  45  68  94 127 166 202 243 293
#     4  10  18  33  55  76 100 133 174 216 251 300
#     4   9  19  34  56  79  98 130 179 216 249 301
#     4   9  16  26  41  66  98 130 163 204 252 299
#
# _framework density 20.072613
#
# number of rings (size 3 to 8) (size 9 to 14) (size 15 to 20)
#    0.000    2.500    2.500    1.500    0.000    1.500 
#    0.000    1.875    0.000    0.750    0.000    0.000 
#    0.000    0.000    0.000    0.000    0.000    0.500 
#
# Total GULP energy -178447.338114 kJ/mol
# GULP energy per Si atom -5576.479316 kJ/mol
# Density = 2.002693 g / cm^3
# Si number density = 20.072613 Si / 1000 Ang^3
#
#
#
# Elastic Constant Matrix: (Units=GPa)
#
#
# Indices 1 2 3 4 5 6 
#
# 1 154.2136 -8.5530 42.3374 0.0000 23.3778 0.0000
# 2 -8.5530 44.0293 -12.7812 0.0000 1.9034 0.0000
# 3 42.3374 -12.7812 68.4977 0.0000 5.7594 0.0000
# 4 0.0000 0.0000 0.0000 -1.9204 0.0000 17.1462
# 5 23.3778 1.9034 5.7594 0.0000 33.9665 0.0000
# 6 0.0000 0.0000 0.0000 17.1462 0.0000 -8.1728
#
#
#
# Elastic Compliance Matrix: (Units=1/GPa)
#
#
# Indices 1 2 3 4 5 6 
#
# 1 0.008608 0.000503 -0.004794 0.000000 -0.005140 0.000000
# 2 0.000503 0.024196 0.004410 0.000000 -0.002450 0.000000
# 3 -0.004794 0.004410 0.018391 0.000000 -0.000066 0.000000
# 4 0.000000 0.000000 0.000000 0.029367 0.000000 0.061611
# 5 -0.005140 -0.002450 -0.000066 0.000000 0.033127 0.000000
# 6 0.000000 0.000000 0.000000 0.061611 0.000000 0.006900
#
#
# Mechanical properties :
#
#
# Convention : Reuss Voigt Hill
#
# Bulk Modulus (GPa) = 19.44355 34.30523 26.87439
# Shear Modulus (GPa) = 36.36475 21.15715 28.76095
#
# Velocity S-wave (km/s) = 4.26098 3.25011 3.78940
# Velocity P-wave (km/s) = 5.82371 5.58676 5.70646
#
# Compressibility (1/GPa) = 0.05143092
#
# Stress axis : x y z
#
# Youngs Moduli (GPa) = 116.17419 41.32940 54.37495
#
# Poissons Ratio (x) = -0.02077 0.26070
# Poissons Ratio (y) = -0.05838 -0.23980
# Poissons Ratio (z) = 0.55699 -0.18227
#
# Static dielectric constant tensor:
#      x y z
#    x 1.743570 0.000000 0.045240 
#    y 0.000000 1.862530 0.000000 
#    z 0.045240 0.000000 1.700650 
# 
# From -- ./inp_files/66431.got.cif
#   From: 2010.05.17/outbox.cif.g08.bks.cpg/sg11_34_cif.got.tgz:66431.got - 2010.06.03 12:22:45.
