data_PCOD9157093
_publ_section_title
;
Structure prediction by ZEFSAII (Michael W. Deem and Ramdas Pophale) SiO2 
 PCOD9157093
Probable space group: P 21/M
;
_chemical_formula_sum "Si O2"
_cell_formula_units_Z 32
_cell_length_a 20.998085
_cell_length_b 7.523970
_cell_length_c 20.566905
_cell_angle_alpha 90.000000
_cell_angle_beta 29.768839
_cell_angle_gamma 90.000000
_cell_volume 1613.305591
_symmetry_space_group_name_H-M "P 21/M"
_symmetry_group_IT_number 11
_symmetry_cell_setting 'monoclinic'
loop_
_space_group_symop_operation_xyz
x,y,z
-x,1/2+y,-z
-x,-y,-z
x,1/2-y,z
loop_
_atom_site_type_symbol
_atom_site_label
_atom_site_fract_x
_atom_site_fract_y
_atom_site_fract_z
Si Si1 0.826689 0.032215 0.319603
Si Si2 0.587002 0.467880 0.617800
Si Si3 0.147194 0.961168 0.851128
Si Si4 0.103370 0.467422 0.125219
Si Si5 0.547444 0.457956 0.797063
Si Si6 0.356624 0.039791 0.153377
Si Si7 0.696817 0.957287 0.160327
Si Si8 0.728497 0.967821 0.905458
O O1 0.827367 0.250000 0.318113
O O2 0.704176 0.972776 0.469230
O O3 0.824423 0.972657 0.246634
O O4 0.960468 0.975859 0.233763
O O5 0.591666 0.250000 0.611657
O O6 0.595931 0.526936 0.685115
O O7 0.447308 0.528105 0.716523
O O8 0.162656 0.750000 0.836767
O O9 0.240068 0.030398 0.824992
O O10 0.000000 0.000000 0.000000
O O11 0.102486 0.250000 0.124686
O O12 0.158412 0.521210 0.146478
O O13 0.203472 0.530330 0.981263
O O14 0.524145 0.250000 0.807052
O O15 0.643547 0.472964 0.772784
O O16 0.407785 0.529321 0.942866
O O17 0.340527 0.250000 0.171834
O O18 0.267552 0.973076 0.173314
O O19 0.500000 0.000000 0.000000
O O20 0.684539 0.750000 0.154004
O O21 0.725503 0.750000 0.906987
#
# Coordination Sequence:
#
# PCOD9157093 Si02
#       8
#     4   4   4   4   4   4   4   4
#     4   9  18  30  47  73  98 122 160 206 242 281
#     4   9  17  30  49  72  98 128 164 201 239 288
#     4  11  21  34  52  74 101 128 161 204 248 291
#     4   9  14  25  46  70  93 120 158 199 234 274
#     4   9  15  26  45  66  91 123 159 196 238 285
#     4   9  16  25  40  66  97 124 155 196 242 285
#     4  10  18  31  53  75  95 126 162 198 242 290
#     4   8  13  22  40  65  89 117 155 194 225 272
#
# _framework density 19.835052999999998
#
# number of rings (size 3 to 8) (size 9 to 14) (size 15 to 20)
#    0.000    2.750    2.500    1.500    0.000    0.500 
#    0.000    0.625    0.000    3.000    0.000    0.000 
#    0.000    0.000    0.000    0.000    0.000    0.500 
#
# Total GULP energy -178408.918425 kJ/mol
# GULP energy per Si atom -5575.278701 kJ/mol
# Density = 1.978991 g / cm^3
# Si number density = 19.835053 Si / 1000 Ang^3
#
#
#
# Elastic Constant Matrix: (Units=GPa)
#
#
# Indices 1 2 3 4 5 6 
#
# 1 202.3769 -11.2457 95.1991 0.0000 4.7932 0.0000
# 2 -11.2457 44.5904 1.2013 0.0000 -1.5433 0.0000
# 3 95.1991 1.2013 140.3153 0.0000 0.8625 0.0000
# 4 0.0000 0.0000 0.0000 0.6287 0.0000 3.7424
# 5 4.7932 -1.5433 0.8625 0.0000 25.6996 0.0000
# 6 0.0000 0.0000 0.0000 3.7424 0.0000 18.4514
#
#
#
# Elastic Compliance Matrix: (Units=1/GPa)
#
#
# Indices 1 2 3 4 5 6 
#
# 1 0.007465 0.001981 -0.005075 0.000000 -0.001103 0.000000
# 2 0.001981 0.023004 -0.001548 0.000000 0.001064 0.000000
# 3 -0.005075 -0.001548 0.010580 0.000000 0.000498 0.000000
# 4 0.000000 0.000000 0.000000 -7.667913 0.000000 1.555256
# 5 -0.001103 0.001064 0.000498 0.000000 0.039164 0.000000
# 6 0.000000 0.000000 0.000000 1.555256 0.000000 -0.261251
#
#
# Mechanical properties :
#
#
# Convention : Reuss Voigt Hill
#
# Bulk Modulus (GPa) = 31.47943 61.95465 46.71704
# Shear Modulus (GPa) = -0.63864 29.09779 14.22957
#
# Velocity S-wave (km/s) = -0.56805 3.83428 2.68133
# Velocity P-wave (km/s) = 3.93380 7.13478 5.76107
#
# Compressibility (1/GPa) = 0.03176678
#
# Stress axis : x y z
#
# Youngs Moduli (GPa) = 133.96493 43.46977 94.51808
#
# Poissons Ratio (x) = -0.08612 0.47965
# Poissons Ratio (y) = -0.26540 0.14628
# Poissons Ratio (z) = 0.67983 0.06727
#
# Static dielectric constant tensor:
#      x y z
#    x 1.711540 0.000000 0.014190 
#    y 0.000000 1.757720 0.000000 
#    z 0.014190 0.000000 1.658760 
# 
# From -- ./inp_files/66445.got.cif
#   From: 2010.05.17/outbox.cif.g08.bks.cpg/sg11_34_cif.got.tgz:66445.got - 2010.06.03 12:22:45.
