data_PCOD9157622
_publ_section_title
;
Structure prediction by ZEFSAII (Michael W. Deem and Ramdas Pophale) SiO2 
 PCOD9157622
Probable space group: P 21/M
;
_chemical_formula_sum "Si O2"
_cell_formula_units_Z 26
_cell_length_a 11.181594
_cell_length_b 18.445759
_cell_length_c 8.049604
_cell_angle_alpha 90.000000
_cell_angle_beta 40.107699
_cell_angle_gamma 90.000000
_cell_volume 1069.580038
_symmetry_space_group_name_H-M "P 21/M"
_symmetry_group_IT_number 11
_symmetry_cell_setting 'monoclinic'
loop_
_space_group_symop_operation_xyz
x,y,z
-x,1/2+y,-z
-x,-y,-z
x,1/2-y,z
loop_
_atom_site_type_symbol
_atom_site_label
_atom_site_fract_x
_atom_site_fract_y
_atom_site_fract_z
Si Si1 0.737077 0.750000 0.254899
Si Si2 0.635329 0.668693 0.060917
Si Si3 0.695320 0.119079 0.374741
Si Si4 0.890838 0.507058 0.353936
Si Si5 0.553797 0.595148 0.680560
Si Si6 0.740517 0.990417 0.872519
Si Si7 0.894223 0.250000 0.984222
Si Si8 0.445926 0.750000 0.841240
O O1 0.746690 0.683394 0.116588
O O2 0.537810 0.750000 0.556043
O O3 0.885783 0.750000 0.241859
O O4 0.641963 0.750000 0.975577
O O5 0.426654 0.650849 0.343297
O O6 0.717950 0.596631 0.892869
O O7 0.820878 0.053390 0.302637
O O8 0.546052 0.096367 0.392429
O O9 0.823948 0.180052 0.158281
O O10 0.771528 0.578624 0.439179
O O11 0.821411 0.483796 0.611757
O O12 0.110188 0.512895 0.145136
O O13 0.508727 0.669764 0.826131
O O14 0.451627 0.529170 0.881042
O O15 0.777044 0.250000 0.938702
#
# Coordination Sequence:
#
# PCOD9157622 Si02
#       8
#     2   4   4   4   4   4   2   2
#     4  10  18  34  59  87 128 161 196 252 310 353
#     4  10  19  38  62  90 122 157 208 252 303 371
#     4  11  20  38  64  96 123 157 208 257 307 364
#     4  11  25  42  61  87 127 165 205 259 303 369
#     4  11  22  41  65  90 126 162 204 254 315 363
#     4  11  25  43  61  90 124 168 211 250 312 367
#     4  10  18  34  59  89 128 163 194 257 302 363
#     4  10  22  40  56  96 126 158 204 257 308 372
#
# _framework density 24.308606000000001
#
# number of rings (size 3 to 8) (size 9 to 14) (size 15 to 20)
#    0.462    0.923    5.385    1.846    0.000    3.077 
#    1.385    0.769    3.385    0.000    0.000    0.000 
#    0.000    0.000    0.000    0.000    0.000    0.000 
#
# Total GULP energy -145307.179257 kJ/mol
# GULP energy per Si atom -5588.737664 kJ/mol
# Density = 2.425328 g / cm^3
# Si number density = 24.308606 Si / 1000 Ang^3
#
#
#
# Elastic Constant Matrix: (Units=GPa)
#
#
# Indices 1 2 3 4 5 6 
#
# 1 110.7331 47.7404 11.4304 0.0000 -19.7346 0.0000
# 2 47.7404 135.6262 14.2091 0.0000 -2.5763 0.0000
# 3 11.4304 14.2091 36.4349 0.0000 -3.9556 0.0000
# 4 0.0000 0.0000 0.0000 26.7524 0.0000 4.8436
# 5 -19.7346 -2.5763 -3.9556 0.0000 41.5655 0.0000
# 6 0.0000 0.0000 0.0000 4.8436 0.0000 36.5497
#
#
#
# Elastic Compliance Matrix: (Units=1/GPa)
#
#
# Indices 1 2 3 4 5 6 
#
# 1 0.011801 -0.003885 -0.001622 0.000000 0.005208 0.000000
# 2 -0.003885 0.008968 -0.002444 0.000000 -0.001521 0.000000
# 3 -0.001622 -0.002444 0.029109 0.000000 0.001849 0.000000
# 4 0.000000 0.000000 0.000000 0.038299 0.000000 -0.005075
# 5 0.005208 -0.001521 0.001849 0.000000 0.026613 0.000000
# 6 0.000000 0.000000 0.000000 -0.005075 0.000000 0.028033
#
#
# Mechanical properties :
#
#
# Convention : Reuss Voigt Hill
#
# Bulk Modulus (GPa) = 29.43191 47.72820 38.58006
# Shear Modulus (GPa) = 29.40334 34.93447 32.16891
#
# Velocity S-wave (km/s) = 3.48168 3.79505 3.64174
# Velocity P-wave (km/s) = 5.31947 6.23540 5.79555
#
# Compressibility (1/GPa) = 0.03397672
#
# Stress axis : x y z
#
# Youngs Moduli (GPa) = 84.73642 111.50856 34.35397
#
# Poissons Ratio (x) = 0.43324 0.05571
# Poissons Ratio (y) = 0.32922 0.08395
# Poissons Ratio (z) = 0.13742 0.27249
#
# Static dielectric constant tensor:
#      x y z
#    x 2.005040 0.000000 0.037020 
#    y 0.000000 1.953180 0.000000 
#    z 0.037020 0.000000 1.882030 
# 
# From -- ./inp_files/19334.got.cif
#   From: 2010.05.17/outbox.cif.g08.bks.cpg/sg11_10_cif.got.tgz:19334.got - 2010.06.03 12:22:45.
