data_PCOD9157925
_publ_section_title
;
Structure prediction by ZEFSAII (Michael W. Deem and Ramdas Pophale) SiO2 
 PCOD9157925
Probable space group: P 21/M
;
_chemical_formula_sum "Si O2"
_cell_formula_units_Z 28
_cell_length_a 14.870598
_cell_length_b 15.467815
_cell_length_c 5.673767
_cell_angle_alpha 90.000000
_cell_angle_beta 113.069743
_cell_angle_gamma 90.000000
_cell_volume 1200.688101
_symmetry_space_group_name_H-M "P 21/M"
_symmetry_group_IT_number 11
_symmetry_cell_setting 'monoclinic'
loop_
_space_group_symop_operation_xyz
x,y,z
-x,1/2+y,-z
-x,-y,-z
x,1/2-y,z
loop_
_atom_site_type_symbol
_atom_site_label
_atom_site_fract_x
_atom_site_fract_y
_atom_site_fract_z
Si Si1 0.375685 0.092403 0.150723
Si Si2 0.315803 0.888755 0.074023
Si Si3 0.102362 0.155940 0.297217
Si Si4 0.021590 0.070316 0.822078
Si Si5 0.608342 0.104536 0.348007
Si Si6 0.899932 0.093053 0.308056
Si Si7 0.304635 0.410342 0.578601
O O1 0.492578 0.095910 0.261233
O O2 0.341282 0.129853 0.367749
O O3 0.340133 0.991884 0.113998
O O4 0.336671 0.129637 0.862107
O O5 0.348347 0.855281 0.365224
O O6 0.368138 0.856462 0.886763
O O7 0.200768 0.877391 0.904143
O O8 0.137512 0.250000 0.400840
O O9 0.188088 0.090326 0.443032
O O10 0.996292 0.139333 0.301888
O O11 0.082423 0.146171 0.998656
O O12 0.920904 0.102806 0.606563
O O13 0.086391 0.009760 0.721467
O O14 0.000000 0.000000 0.000000
O O15 0.653440 0.007753 0.378284
#
# Coordination Sequence:
#
# PCOD9157925 Si02
#       7
#     4   4   4   4   4   4   4
#     4  10  19  34  55  87 123 149 184 250 312 362
#     4  10  19  29  53  83 119 150 191 233 304 365
#     4  11  25  40  56  84 125 170 208 251 309 385
#     4   9  20  35  58  80 117 154 204 253 307 354
#     4  10  19  32  55  89 122 149 184 251 315 360
#     4  10  22  35  58  87 121 158 202 263 304 365
#     4  10  20  33  55  79 114 157 198 236 297 371
#
# _framework density 23.319963000000001
#
# number of rings (size 3 to 8) (size 9 to 14) (size 15 to 20)
#    0.000    2.000    0.000    6.000   18.000    0.571 
#    0.000    0.000    0.000    0.000    0.000   11.000 
#    0.000    0.000    0.000    0.000    0.000    0.000 
#
# Total GULP energy -156107.042412 kJ/mol
# GULP energy per Si atom -5575.251515 kJ/mol
# Density = 2.326689 g / cm^3
# Si number density = 23.319963 Si / 1000 Ang^3
#
#
#
# Elastic Constant Matrix: (Units=GPa)
#
#
# Indices 1 2 3 4 5 6 
#
# 1 118.8075 0.6010 46.1799 0.0000 8.9321 0.0000
# 2 0.6010 -82.1056 6.3158 0.0000 14.8561 0.0000
# 3 46.1799 6.3158 189.1679 0.0000 -5.8753 0.0000
# 4 0.0000 0.0000 0.0000 -10.2822 0.0000 0.9061
# 5 8.9321 14.8561 -5.8753 0.0000 54.8796 0.0000
# 6 0.0000 0.0000 0.0000 0.9061 0.0000 -3.8160
#
#
#
# Elastic Compliance Matrix: (Units=1/GPa)
#
#
# Indices 1 2 3 4 5 6 
#
# 1 0.009458 -0.000415 -0.002347 0.000000 -0.001678 0.000000
# 2 -0.000415 -0.011548 0.000588 0.000000 0.003257 0.000000
# 3 -0.002347 0.000588 0.005866 0.000000 0.000851 0.000000
# 4 0.000000 0.000000 0.000000 -0.099334 0.000000 -0.023588
# 5 -0.001678 0.003257 0.000851 0.000000 0.017704 0.000000
# 6 0.000000 0.000000 0.000000 -0.023588 0.000000 -0.267657
#
#
# Mechanical properties :
#
#
# Convention : Reuss Voigt Hill
#
# Bulk Modulus (GPa) = -1746.89245 36.89591 -854.99827
# Shear Modulus (GPa) = -14.64753 19.67450 2.51348
#
# Velocity S-wave (km/s) = -2.50893 2.90776 1.03931
# Velocity P-wave (km/s) = 27.55207 5.20859 19.13096
#
# Compressibility (1/GPa) = -0.00057245
#
# Stress axis : x y z
#
# Youngs Moduli (GPa) = 105.73579 -86.59507 170.47191
#
# Poissons Ratio (x) = -0.03593 0.40011
# Poissons Ratio (y) = 0.04388 -0.10024
# Poissons Ratio (z) = 0.24817 0.05092
#
# Static dielectric constant tensor:
#      x y z
#    x 1.935490 0.000000 -0.155420 
#    y 0.000000 1.859440 0.000000 
#    z -0.155420 0.000000 2.083230 
# 
# From -- ./inp_files/6904.got.cif
#   From: 2010.05.17/outbox.cif.g08.bks.cpg/sg11_4_cif.got.tgz:6904.got - 2010.06.03 12:22:45.
