data_PCOD9157950
_publ_section_title
;
Structure prediction by ZEFSAII (Michael W. Deem and Ramdas Pophale) SiO2 
 PCOD9157950
Probable space group: P 21/M
;
_chemical_formula_sum "Si O2"
_cell_formula_units_Z 32
_cell_length_a 27.212459
_cell_length_b 9.162787
_cell_length_c 19.012376
_cell_angle_alpha 90.000000
_cell_angle_beta 28.474916
_cell_angle_gamma 90.000000
_cell_volume 2260.186672
_symmetry_space_group_name_H-M "P 21/M"
_symmetry_group_IT_number 11
_symmetry_cell_setting 'monoclinic'
loop_
_space_group_symop_operation_xyz
x,y,z
-x,1/2+y,-z
-x,-y,-z
x,1/2-y,z
loop_
_atom_site_type_symbol
_atom_site_label
_atom_site_fract_x
_atom_site_fract_y
_atom_site_fract_z
Si Si1 0.921856 0.081923 0.001727
Si Si2 0.836656 0.076771 0.699481
Si Si3 0.581219 0.924242 0.803499
Si Si4 0.989787 0.927272 0.254596
Si Si5 0.154563 0.081636 0.772775
Si Si6 0.768106 0.927725 0.469703
Si Si7 0.971394 0.923278 0.646132
Si Si8 0.631474 0.576749 0.903432
O O1 0.889861 0.250000 0.039455
O O2 0.936754 0.028551 0.903199
O O3 0.038139 0.078352 0.887468
O O4 0.850549 0.998255 0.146454
O O5 0.825425 0.250000 0.724931
O O6 0.921118 0.055207 0.531315
O O7 0.884548 0.999555 0.707698
O O8 0.729915 0.004239 0.811086
O O9 0.562824 0.750000 0.818957
O O10 0.666752 0.971635 0.639474
O O11 0.625636 0.946798 0.826328
O O12 0.474450 0.010503 0.933161
O O13 0.993125 0.750000 0.256093
O O14 0.872722 0.968083 0.379522
O O15 0.019849 0.002189 0.289169
O O16 0.181987 0.250000 0.749879
O O17 0.222845 0.020800 0.622523
O O18 0.769154 0.750000 0.465703
O O19 0.953232 0.750000 0.674421
O O20 0.637629 0.750000 0.908002
#
# Coordination Sequence:
#
# PCOD9157950 Si02
#       8
#     4   4   4   4   4   4   4   4
#     4   8  14  23  35  53  78 108 138 166 200 242
#     4  10  20  33  47  61  81 110 139 168 207 251
#     4   9  17  29  44  61  83 111 141 172 208 249
#     4   9  16  27  42  59  83 114 143 170 204 246
#     4   8  13  22  36  53  75 105 140 172 200 235
#     4   8  14  25  41  59  80 111 146 174 203 243
#     4  10  20  31  44  64  85 105 136 175 208 241
#     4  10  19  30  45  63  83 108 139 175 210 243
#
# _framework density 14.158123
#
# number of rings (size 3 to 8) (size 9 to 14) (size 15 to 20)
#    0.000    3.000    0.000    3.375    0.000    3.500 
#    0.000    3.125    0.000    0.000    0.000    0.000 
#    0.000    1.000    0.000    3.000    0.000    4.625 
#
# Total GULP energy -178176.440657 kJ/mol
# GULP energy per Si atom -5568.013771 kJ/mol
# Density = 1.412590 g / cm^3
# Si number density = 14.158123 Si / 1000 Ang^3
#
#
#
# Elastic Constant Matrix: (Units=GPa)
#
#
# Indices 1 2 3 4 5 6 
#
# 1 103.2015 58.1940 66.6653 0.0000 13.0395 0.0000
# 2 58.1940 57.2710 52.8539 0.0000 6.5173 0.0000
# 3 66.6653 52.8539 109.0980 0.0000 14.1330 0.0000
# 4 0.0000 0.0000 0.0000 19.6973 0.0000 2.1263
# 5 13.0395 6.5173 14.1330 0.0000 28.1544 0.0000
# 6 0.0000 0.0000 0.0000 2.1263 0.0000 24.3085
#
#
#
# Elastic Compliance Matrix: (Units=1/GPa)
#
#
# Indices 1 2 3 4 5 6 
#
# 1 0.024718 -0.020261 -0.004720 0.000000 -0.004389 0.000000
# 2 -0.020261 0.048193 -0.011484 0.000000 0.003993 0.000000
# 3 -0.004720 -0.011484 0.018168 0.000000 -0.004275 0.000000
# 4 0.000000 0.000000 0.000000 0.051252 0.000000 -0.004483
# 5 -0.004389 0.003993 -0.004275 0.000000 0.038773 0.000000
# 6 0.000000 0.000000 0.000000 -0.004483 0.000000 0.041530
#
#
# Mechanical properties :
#
#
# Convention : Reuss Voigt Hill
#
# Bulk Modulus (GPa) = 55.10213 69.44411 62.27312
# Shear Modulus (GPa) = 16.57750 20.55586 18.56668
#
# Velocity S-wave (km/s) = 3.42553 3.81448 3.62523
# Velocity P-wave (km/s) = 7.39251 8.27984 7.84873
#
# Compressibility (1/GPa) = 0.01814812
#
# Stress axis : x y z
#
# Youngs Moduli (GPa) = 40.45576 20.75011 55.04295
#
# Poissons Ratio (x) = 0.42043 0.25980
# Poissons Ratio (y) = 0.81969 0.63210
# Poissons Ratio (z) = 0.19095 0.23829
#
# Static dielectric constant tensor:
#      x y z
#    x 1.448950 0.000000 0.023680 
#    y 0.000000 1.472790 0.000000 
#    z 0.023680 0.000000 1.464160 
# 
# From -- ./inp_files/61751.got.cif
#   From: 2010.05.17/outbox.cif.g08.bks.cpg/sg11_31_cif.got.tgz:61751.got - 2010.06.03 12:22:45.
