data_PCOD9157881
_publ_section_title
;
Structure prediction by ZEFSAII (Michael W. Deem and Ramdas Pophale) SiO2 
 PCOD9157881
Probable space group: P 21/M
;
_chemical_formula_sum "Si O2"
_cell_formula_units_Z 24
_cell_length_a 11.774076
_cell_length_b 18.438500
_cell_length_c 6.873937
_cell_angle_alpha 90.000000
_cell_angle_beta 137.689205
_cell_angle_gamma 90.000000
_cell_volume 1004.548747
_symmetry_space_group_name_H-M "P 21/M"
_symmetry_group_IT_number 11
_symmetry_cell_setting 'monoclinic'
loop_
_space_group_symop_operation_xyz
x,y,z
-x,1/2+y,-z
-x,-y,-z
x,1/2-y,z
loop_
_atom_site_type_symbol
_atom_site_label
_atom_site_fract_x
_atom_site_fract_y
_atom_site_fract_z
Si Si1 0.826308 0.925472 0.778385
Si Si2 0.800417 0.409754 0.795059
Si Si3 0.749077 0.335156 0.325560
Si Si4 0.935730 0.920425 0.372314
Si Si5 0.483933 0.333617 0.526420
Si Si6 0.617905 0.665764 0.063028
O O1 0.765560 0.008399 0.674047
O O2 0.676635 0.868054 0.568167
O O3 0.879943 0.922021 0.074505
O O4 0.003623 0.911839 0.893575
O O5 0.790033 0.354999 0.601136
O O6 0.652275 0.382702 0.748444
O O7 0.752047 0.250000 0.304079
O O8 0.555091 0.358382 0.051680
O O9 0.901423 0.369811 0.402211
O O10 0.773426 0.888926 0.277422
O O11 0.000000 0.000000 0.500000
O O12 0.516256 0.250000 0.621509
O O13 0.430384 0.333469 0.229235
O O14 0.659507 0.750000 0.164320
#
# Coordination Sequence:
#
# PCOD9157881 Si02
#       6
#     4   4   4   4   4   4
#     4   9  18  29  43  66  95 120 147 186 228 267
#     4   9  16  28  46  68  91 115 142 183 232 271
#     4   9  17  30  50  71  87 110 149 192 228 265
#     4  10  19  29  44  68  94 123 154 184 221 264
#     4   9  16  26  44  68  90 115 148 186 228 270
#     4   8  15  28  45  65  87 113 150 192 225 255
#
# _framework density 23.891325999999999
#
# number of rings (size 3 to 8) (size 9 to 14) (size 15 to 20)
#    0.000    3.000    0.000    2.500    0.000    5.333 
#    0.000    0.000    0.000    4.000    0.000   14.000 
#    0.000    0.000    0.000    0.000    0.000    0.000 
#
# Total GULP energy -134214.495008 kJ/mol
# GULP energy per Si atom -5592.270625 kJ/mol
# Density = 2.383695 g / cm^3
# Si number density = 23.891326 Si / 1000 Ang^3
#
#
#
# Elastic Constant Matrix: (Units=GPa)
#
#
# Indices 1 2 3 4 5 6 
#
# 1 111.2736 47.2464 46.8600 0.0000 43.4021 0.0000
# 2 47.2464 119.8223 85.9344 0.0000 50.0515 0.0000
# 3 46.8600 85.9344 135.9143 0.0000 36.4933 0.0000
# 4 0.0000 0.0000 0.0000 42.1700 0.0000 13.9846
# 5 43.4021 50.0515 36.4933 0.0000 68.8355 0.0000
# 6 0.0000 0.0000 0.0000 13.9846 0.0000 27.5426
#
#
#
# Elastic Compliance Matrix: (Units=1/GPa)
#
#
# Indices 1 2 3 4 5 6 
#
# 1 0.012692 -0.000844 -0.002167 0.000000 -0.006240 0.000000
# 2 -0.000844 0.018867 -0.009441 0.000000 -0.008181 0.000000
# 3 -0.002167 -0.009441 0.013833 0.000000 0.000898 0.000000
# 4 0.000000 0.000000 0.000000 0.028515 0.000000 -0.014478
# 5 -0.006240 -0.008181 0.000898 0.000000 0.023935 0.000000
# 6 0.000000 0.000000 0.000000 -0.014478 0.000000 0.043659
#
#
# Mechanical properties :
#
#
# Convention : Reuss Voigt Hill
#
# Bulk Modulus (GPa) = 48.81000 80.78798 64.79899
# Shear Modulus (GPa) = 28.86285 40.17425 34.51855
#
# Velocity S-wave (km/s) = 3.47953 4.10511 3.80520
# Velocity P-wave (km/s) = 6.05121 7.50716 6.81816
#
# Compressibility (1/GPa) = 0.02048761
#
# Stress axis : x y z
#
# Youngs Moduli (GPa) = 78.79285 53.00266 72.29008
#
# Poissons Ratio (x) = 0.04472 0.15664
# Poissons Ratio (y) = 0.06649 0.68252
# Poissons Ratio (z) = 0.17073 0.50042
#
# Static dielectric constant tensor:
#      x y z
#    x 2.001360 0.000000 -0.055660 
#    y 0.000000 1.875880 0.000000 
#    z -0.055660 0.000000 1.926170 
# 
# From -- ./inp_files/17362.got.cif
#   From: 2010.05.17/outbox.cif.g08.bks.cpg/sg11_9_cif.got.tgz:17362.got - 2010.06.03 12:22:45.
