data_PCOD9157819
_publ_section_title
;
Structure prediction by ZEFSAII (Michael W. Deem and Ramdas Pophale) SiO2 
 PCOD9157819
Probable space group: P 21/M
;
_chemical_formula_sum "Si O2"
_cell_formula_units_Z 32
_cell_length_a 13.725041
_cell_length_b 8.713148
_cell_length_c 13.756616
_cell_angle_alpha 90.000000
_cell_angle_beta 122.044658
_cell_angle_gamma 90.000000
_cell_volume 1394.469875
_symmetry_space_group_name_H-M "P 21/M"
_symmetry_group_IT_number 11
_symmetry_cell_setting 'monoclinic'
loop_
_space_group_symop_operation_xyz
x,y,z
-x,1/2+y,-z
-x,-y,-z
x,1/2-y,z
loop_
_atom_site_type_symbol
_atom_site_label
_atom_site_fract_x
_atom_site_fract_y
_atom_site_fract_z
Si Si1 0.667613 0.060547 0.154401
Si Si2 0.226268 0.434926 0.125944
Si Si3 0.135675 0.936493 0.891556
Si Si4 0.962014 0.921328 0.637096
Si Si5 0.828359 0.420855 0.405656
Si Si6 0.313833 0.923471 0.362711
Si Si7 0.470219 0.429778 0.172714
Si Si8 0.430882 0.420218 0.596624
O O1 0.667637 0.250000 0.153785
O O2 0.746108 0.016893 0.103638
O O3 0.740058 0.000573 0.285766
O O4 0.539315 0.008058 0.116352
O O5 0.224295 0.250000 0.131136
O O6 0.231574 0.504076 0.236986
O O7 0.346974 0.491505 0.140488
O O8 0.134868 0.494734 0.998983
O O9 0.134273 0.750000 0.894461
O O10 0.028324 0.985346 0.766537
O O11 0.922512 0.750000 0.640593
O O12 0.061045 0.909772 0.606817
O O13 0.865078 0.009424 0.526905
O O14 0.785887 0.250000 0.402018
O O15 0.277945 0.750000 0.367938
O O16 0.442918 0.913724 0.385979
O O17 0.338833 0.029358 0.468275
O O18 0.453007 0.250000 0.147602
O O19 0.551133 0.457791 0.308814
O O20 0.405657 0.250000 0.621742
#
# Coordination Sequence:
#
# PCOD9157819 Si02
#       8
#     4   4   4   4   4   4   4   4
#     4   8  15  28  43  57  77 109 144 171 197 236
#     4  10  19  28  39  58  82 107 138 175 206 231
#     4   9  17  29  42  55  77 111 144 170 200 240
#     4   8  14  24  38  56  76  98 126 163 207 247
#     4   8  13  23  40  58  74  96 128 165 204 242
#     4   9  16  27  43  59  76 102 132 162 203 250
#     4   9  17  29  42  56  79 111 142 169 199 237
#     4   9  16  26  41  61  81  99 126 167 208 242
#
# _framework density 22.947790000000001
#
# number of rings (size 3 to 8) (size 9 to 14) (size 15 to 20)
#    0.000    3.250    0.000    2.625    0.000    4.500 
#    0.000    3.125    0.000    0.000    0.000    0.000 
#    0.000    1.000    0.000    3.000    0.000    4.625 
#
# Total GULP energy -178273.500882 kJ/mol
# GULP energy per Si atom -5571.046903 kJ/mol
# Density = 2.289556 g / cm^3
# Si number density = 22.947790 Si / 1000 Ang^3
#
#
#
# Elastic Constant Matrix: (Units=GPa)
#
#
# Indices 1 2 3 4 5 6 
#
# 1 34.4698 0.2080 -11.7809 0.0000 -18.0991 0.0000
# 2 0.2080 17.2297 6.7732 0.0000 11.3792 0.0000
# 3 -11.7809 6.7732 137.5612 0.0000 22.8734 0.0000
# 4 0.0000 0.0000 0.0000 27.1753 0.0000 1.0052
# 5 -18.0991 11.3792 22.8734 0.0000 -10.5162 0.0000
# 6 0.0000 0.0000 0.0000 1.0052 0.0000 4.8563
#
#
#
# Elastic Compliance Matrix: (Units=1/GPa)
#
#
# Indices 1 2 3 4 5 6 
#
# 1 0.021336 0.009479 0.004231 0.000000 -0.017261 0.000000
# 2 0.009479 0.045470 -0.005064 0.000000 0.021872 0.000000
# 3 0.004231 -0.005064 0.007346 0.000000 0.003217 0.000000
# 4 0.000000 0.000000 0.000000 0.037082 0.000000 -0.007676
# 5 -0.017261 0.021872 0.003217 0.000000 -0.034717 0.000000
# 6 0.000000 0.000000 0.000000 -0.007676 0.000000 0.207508
#
#
# Mechanical properties :
#
#
# Convention : Reuss Voigt Hill
#
# Bulk Modulus (GPa) = 10.93557 19.96239 15.44898
# Shear Modulus (GPa) = 16.82292 17.24043 17.03168
#
# Velocity S-wave (km/s) = 2.71051 2.74394 2.72728
# Velocity P-wave (km/s) = 3.81727 4.33092 4.08218
#
# Compressibility (1/GPa) = 0.09144469
#
# Stress axis : x y z
#
# Youngs Moduli (GPa) = 46.86885 21.99251 136.12571
#
# Poissons Ratio (x) = -0.20848 -0.57591
# Poissons Ratio (y) = -0.44429 0.68933
# Poissons Ratio (z) = -0.19829 0.11137
#
# Static dielectric constant tensor:
#      x y z
#    x 1.970170 0.000000 -0.008080 
#    y 0.000000 1.805280 0.000000 
#    z -0.008080 0.000000 1.864400 
# 
# From -- ./inp_files/42538.got.cif
#   From: 2010.05.17/outbox.cif.g08.bks.cpg/sg11_22_cif.got.tgz:42538.got - 2010.06.03 12:22:45.
