data_PCOD9157451
_publ_section_title
;
Structure prediction by ZEFSAII (Michael W. Deem and Ramdas Pophale) SiO2 
 PCOD9157451
Probable space group: P 21/M
;
_chemical_formula_sum "Si O2"
_cell_formula_units_Z 32
_cell_length_a 14.100622
_cell_length_b 16.626503
_cell_length_c 14.118328
_cell_angle_alpha 90.000000
_cell_angle_beta 147.576395
_cell_angle_gamma 90.000000
_cell_volume 1774.715283
_symmetry_space_group_name_H-M "P 21/M"
_symmetry_group_IT_number 11
_symmetry_cell_setting 'monoclinic'
loop_
_space_group_symop_operation_xyz
x,y,z
-x,1/2+y,-z
-x,-y,-z
x,1/2-y,z
loop_
_atom_site_type_symbol
_atom_site_label
_atom_site_fract_x
_atom_site_fract_y
_atom_site_fract_z
Si Si1 0.747711 0.015640 0.548381
Si Si2 0.990049 0.434949 0.576529
Si Si3 0.638066 0.994341 0.825936
Si Si4 0.129980 0.161179 0.353293
Si Si5 0.663521 0.007875 0.067988
Si Si6 0.175686 0.839643 0.062696
Si Si7 0.882436 0.161266 0.318594
Si Si8 0.001737 0.073953 0.927830
O O1 0.541746 0.036186 0.372682
O O2 0.758726 0.918811 0.568924
O O3 0.847649 0.039985 0.535363
O O4 0.860308 0.055774 0.726888
O O5 0.933545 0.356770 0.470212
O O6 0.000000 0.500000 0.500000
O O7 0.184349 0.440823 0.785937
O O8 0.607448 0.004361 0.912052
O O9 0.695703 0.083286 0.837176
O O10 0.801008 0.933120 0.947199
O O11 0.209864 0.250000 0.404768
O O12 0.960468 0.154534 0.140481
O O13 0.055010 0.157919 0.396937
O O14 0.755449 0.092770 0.170391
O O15 0.500000 0.000000 0.000000
O O16 0.255723 0.750000 0.127952
O O17 0.059922 0.851615 0.060486
O O18 0.804841 0.250000 0.242897
O O19 0.000000 0.000000 0.000000
#
# Coordination Sequence:
#
# PCOD9157451 Si02
#       8
#     4   4   4   4   4   4   4   4
#     4  12  20  36  59  86 116 152 188 243 282 346
#     4  10  18  34  55  80 114 150 198 234 280 342
#     4  11  21  34  61  86 113 148 196 235 287 343
#     4  10  18  33  55  82 116 145 178 235 299 338
#     4  11  20  34  57  87 117 156 196 242 286 346
#     4  10  20  38  60  82 115 151 184 238 297 344
#     4  10  19  34  55  80 114 153 188 240 294 340
#     4  10  20  38  57  82 112 148 192 235 288 338
#
# _framework density 18.031061999999999
#
# number of rings (size 3 to 8) (size 9 to 14) (size 15 to 20)
#    0.000    1.500    7.500    1.500    0.000    2.500 
#    0.000    1.250    0.000    3.000    0.000    0.000 
#    0.000    0.000    0.000    0.000    0.000    0.000 
#
# Total GULP energy -178320.090703 kJ/mol
# GULP energy per Si atom -5572.502834 kJ/mol
# Density = 1.799002 g / cm^3
# Si number density = 18.031062 Si / 1000 Ang^3
#
#
#
# Elastic Constant Matrix: (Units=GPa)
#
#
# Indices 1 2 3 4 5 6 
#
# 1 88.6163 11.6528 35.3894 0.0000 -2.4311 0.0000
# 2 11.6528 24.6898 8.4053 0.0000 -8.1227 0.0000
# 3 35.3894 8.4053 102.6584 0.0000 4.2270 0.0000
# 4 0.0000 0.0000 0.0000 6.1919 0.0000 1.2989
# 5 -2.4311 -8.1227 4.2270 0.0000 28.0807 0.0000
# 6 0.0000 0.0000 0.0000 1.2989 0.0000 17.0885
#
#
#
# Elastic Compliance Matrix: (Units=1/GPa)
#
#
# Indices 1 2 3 4 5 6 
#
# 1 0.013662 -0.004829 -0.004332 0.000000 0.000438 0.000000
# 2 -0.004829 0.048367 -0.002872 0.000000 0.014005 0.000000
# 3 -0.004332 -0.002872 0.011591 0.000000 -0.002951 0.000000
# 4 0.000000 0.000000 0.000000 0.164117 0.000000 -0.012474
# 5 0.000438 0.014005 -0.002951 0.000000 0.040145 0.000000
# 6 0.000000 0.000000 0.000000 -0.012474 0.000000 0.059467
#
#
# Mechanical properties :
#
#
# Convention : Reuss Voigt Hill
#
# Bulk Modulus (GPa) = 20.18034 36.31772 28.24903
# Shear Modulus (GPa) = 13.22985 20.97336 17.10160
#
# Velocity S-wave (km/s) = 2.71168 3.41424 3.08304
# Velocity P-wave (km/s) = 4.58481 5.97731 5.32676
#
# Compressibility (1/GPa) = 0.04955319
#
# Stress axis : x y z
#
# Youngs Moduli (GPa) = 73.19719 20.67530 86.27262
#
# Poissons Ratio (x) = 0.09984 0.37376
# Poissons Ratio (y) = 0.35346 0.24778
# Poissons Ratio (z) = 0.31711 0.05938
#
# Static dielectric constant tensor:
#      x y z
#    x 1.631050 0.000000 -0.008920 
#    y 0.000000 1.662040 0.000000 
#    z -0.008920 0.000000 1.629340 
# 
# From -- ./inp_files/52596.got.cif
#   From: 2010.05.17/outbox.cif.g08.bks.cpg/sg11_27_cif.got.tgz:52596.got - 2010.06.03 12:22:45.
