data_PCOD9157046
_publ_section_title
;
Structure prediction by ZEFSAII (Michael W. Deem and Ramdas Pophale) SiO2 
 PCOD9157046
Probable space group: P 21/M
;
_chemical_formula_sum "Si O2"
_cell_formula_units_Z 24
_cell_length_a 21.784084
_cell_length_b 8.594830
_cell_length_c 11.140529
_cell_angle_alpha 90.000000
_cell_angle_beta 146.952592
_cell_angle_gamma 90.000000
_cell_volume 1137.480647
_symmetry_space_group_name_H-M "P 21/M"
_symmetry_group_IT_number 11
_symmetry_cell_setting 'monoclinic'
loop_
_space_group_symop_operation_xyz
x,y,z
-x,1/2+y,-z
-x,-y,-z
x,1/2-y,z
loop_
_atom_site_type_symbol
_atom_site_label
_atom_site_fract_x
_atom_site_fract_y
_atom_site_fract_z
Si Si1 0.644860 0.064115 0.983682
Si Si2 0.768139 0.564657 0.950332
Si Si3 0.039929 0.563824 0.877612
Si Si4 0.437552 0.936703 0.516767
Si Si5 0.167820 0.935810 0.333766
Si Si6 0.626100 0.565327 0.205947
O O1 0.648665 0.250000 0.992916
O O2 0.720957 0.002444 0.998433
O O3 0.515992 0.009154 0.747504
O O4 0.678237 0.991498 0.164971
O O5 0.756556 0.750000 0.932257
O O6 0.688274 0.493721 0.714448
O O7 0.894084 0.512661 0.124653
O O8 0.040027 0.750000 0.865936
O O9 0.915226 0.503185 0.700402
O O10 0.110655 0.520309 0.113732
O O11 0.440498 0.750000 0.528437
O O12 0.500000 0.000000 0.500000
O O13 0.170322 0.750000 0.344790
O O14 0.292577 0.999729 0.557873
O O15 0.622472 0.750000 0.206293
O O16 0.500000 0.500000 0.000000
#
# Coordination Sequence:
#
# PCOD9157046 Si02
#       6
#     4   4   4   4   4   4
#     4  11  22  39  59  85 121 160 204 253 308 366
#     4  11  21  35  58  89 123 160 204 252 308 364
#     4  10  21  39  65  94 125 161 205 255 308 362
#     4  10  18  31  51  79 116 155 196 244 298 354
#     4  10  22  42  65  92 125 161 207 256 305 362
#     4  12  26  44  65  90 124 165 208 251 306 369
#
# _framework density 21.099257999999999
#
# number of rings (size 3 to 8) (size 9 to 14) (size 15 to 20)
#    0.000    1.333    0.000    9.000    2.333    2.000 
#    0.000    0.833    0.000    0.000    0.000    0.000 
#    0.000    0.000    0.000    0.000    0.000    0.000 
#
# Total GULP energy -134211.696784 kJ/mol
# GULP energy per Si atom -5592.154033 kJ/mol
# Density = 2.105124 g / cm^3
# Si number density = 21.099258 Si / 1000 Ang^3
#
#
#
# Elastic Constant Matrix: (Units=GPa)
#
#
# Indices 1 2 3 4 5 6 
#
# 1 84.4170 -7.4476 18.4147 0.0000 18.7046 0.0000
# 2 -7.4476 65.2780 17.8623 0.0000 0.9018 0.0000
# 3 18.4147 17.8623 80.1950 0.0000 8.3417 0.0000
# 4 0.0000 0.0000 0.0000 32.9682 0.0000 3.5915
# 5 18.7046 0.9018 8.3417 0.0000 37.3921 0.0000
# 6 0.0000 0.0000 0.0000 3.5915 0.0000 29.4591
#
#
#
# Elastic Compliance Matrix: (Units=1/GPa)
#
#
# Indices 1 2 3 4 5 6 
#
# 1 0.014193 0.002573 -0.003161 0.000000 -0.006457 0.000000
# 2 0.002573 0.016787 -0.004253 0.000000 -0.000743 0.000000
# 3 -0.003161 -0.004253 0.014299 0.000000 -0.001506 0.000000
# 4 0.000000 0.000000 0.000000 0.030741 0.000000 -0.003748
# 5 -0.006457 -0.000743 -0.001506 0.000000 0.030327 0.000000
# 6 0.000000 0.000000 0.000000 -0.003748 0.000000 0.034402
#
#
# Mechanical properties :
#
#
# Convention : Reuss Voigt Hill
#
# Bulk Modulus (GPa) = 28.09047 31.94987 30.02017
# Shear Modulus (GPa) = 30.80805 33.36793 32.08799
#
# Velocity S-wave (km/s) = 3.82533 3.98109 3.90399
# Velocity P-wave (km/s) = 5.73178 6.02558 5.88052
#
# Compressibility (1/GPa) = 0.03559927
#
# Stress axis : x y z
#
# Youngs Moduli (GPa) = 70.45684 59.57132 69.93374
#
# Poissons Ratio (x) = -0.15330 0.22103
# Poissons Ratio (y) = -0.18131 0.29740
# Poissons Ratio (z) = 0.22269 0.25333
#
# Static dielectric constant tensor:
#      x y z
#    x 1.798600 0.000000 -0.063590 
#    y 0.000000 1.687870 0.000000 
#    z -0.063590 0.000000 1.911670 
# 
# From -- ./inp_files/44023.got.cif
#   From: 2010.05.17/outbox.cif.g08.bks.cpg/sg11_23_cif.got.tgz:44023.got - 2010.06.03 12:22:45.
