data_PCOD9157854
_publ_section_title
;
Structure prediction by ZEFSAII (Michael W. Deem and Ramdas Pophale) SiO2 
 PCOD9157854
Probable space group: P 21/M
;
_chemical_formula_sum "Si O2"
_cell_formula_units_Z 28
_cell_length_a 21.918168
_cell_length_b 7.669569
_cell_length_c 11.536541
_cell_angle_alpha 90.000000
_cell_angle_beta 128.781925
_cell_angle_gamma 90.000000
_cell_volume 1511.773671
_symmetry_space_group_name_H-M "P 21/M"
_symmetry_group_IT_number 11
_symmetry_cell_setting 'monoclinic'
loop_
_space_group_symop_operation_xyz
x,y,z
-x,1/2+y,-z
-x,-y,-z
x,1/2-y,z
loop_
_atom_site_type_symbol
_atom_site_label
_atom_site_fract_x
_atom_site_fract_y
_atom_site_fract_z
Si Si1 0.421422 0.957865 0.836763
Si Si2 0.738514 0.955465 0.228652
Si Si3 0.771988 0.452893 0.006811
Si Si4 0.540953 0.040295 0.373485
Si Si5 0.619708 0.039798 0.703079
Si Si6 0.935432 0.035790 0.275953
Si Si7 0.102391 0.451664 0.502689
O O1 0.414165 0.750000 0.822270
O O2 0.430515 0.026415 0.716453
O O3 0.344925 0.023670 0.811607
O O4 0.500000 0.000000 0.000000
O O5 0.753309 0.750000 0.228546
O O6 0.809714 0.026017 0.394172
O O7 0.743900 0.037551 0.107447
O O8 0.778486 0.250000 0.982524
O O9 0.860959 0.522200 0.111649
O O10 0.702862 0.530071 0.846391
O O11 0.547874 0.250000 0.380789
O O12 0.590148 0.974621 0.542780
O O13 0.450117 0.999925 0.290239
O O14 0.624940 0.250000 0.702910
O O15 0.935116 0.250000 0.281744
O O16 0.023446 0.977185 0.348952
O O17 0.917760 0.966273 0.384134
O O18 0.107395 0.250000 0.472526
#
# Coordination Sequence:
#
# PCOD9157854 Si02
#       7
#     4   4   4   4   4   4   4
#     4  11  22  34  47  63  85 112 142 175 209 247
#     4  10  19  29  42  62  89 118 145 172 205 247
#     4   9  16  26  43  66  89 112 139 173 211 251
#     4   9  19  33  46  61  82 109 139 171 208 248
#     4   9  17  30  47  65  84 106 135 171 209 249
#     4   8  13  22  37  58  83 109 137 168 204 245
#     4   8  14  24  37  55  82 113 140 167 201 243
#
# _framework density 18.52129
#
# number of rings (size 3 to 8) (size 9 to 14) (size 15 to 20)
#    0.000    2.857    0.000    1.714    0.000    4.571 
#    0.000    0.000    0.000    0.000    0.000    1.000 
#    0.000    0.000    0.000    0.000    0.000    0.000 
#
# Total GULP energy -155897.088120 kJ/mol
# GULP energy per Si atom -5567.753147 kJ/mol
# Density = 1.847913 g / cm^3
# Si number density = 18.521290 Si / 1000 Ang^3
#
#
#
# Elastic Constant Matrix: (Units=GPa)
#
#
# Indices 1 2 3 4 5 6 
#
# 1 65.5103 -6.8392 45.6065 0.0000 27.9586 0.0000
# 2 -6.8392 39.3437 -3.9125 0.0000 -0.7929 0.0000
# 3 45.6065 -3.9125 122.0964 0.0000 46.0701 0.0000
# 4 0.0000 0.0000 0.0000 11.8306 0.0000 0.7515
# 5 27.9586 -0.7929 46.0701 0.0000 38.8437 0.0000
# 6 0.0000 0.0000 0.0000 0.7515 0.0000 8.0484
#
#
#
# Elastic Compliance Matrix: (Units=1/GPa)
#
#
# Indices 1 2 3 4 5 6 
#
# 1 0.023666 0.003454 -0.004215 0.000000 -0.011965 0.000000
# 2 0.003454 0.026016 0.000509 0.000000 -0.002558 0.000000
# 3 -0.004215 0.000509 0.015625 0.000000 -0.015488 0.000000
# 4 0.000000 0.000000 0.000000 0.085031 0.000000 -0.007940
# 5 -0.011965 -0.002558 -0.015488 0.000000 0.052673 0.000000
# 6 0.000000 0.000000 0.000000 -0.007940 0.000000 0.124989
#
#
# Mechanical properties :
#
#
# Convention : Reuss Voigt Hill
#
# Bulk Modulus (GPa) = 15.43138 32.96223 24.19680
# Shear Modulus (GPa) = 14.28145 24.55091 19.41618
#
# Velocity S-wave (km/s) = 2.77985 3.64476 3.24128
# Velocity P-wave (km/s) = 4.31894 5.96221 5.20582
#
# Compressibility (1/GPa) = 0.06480301
#
# Stress axis : x y z
#
# Youngs Moduli (GPa) = 42.25521 38.43724 64.00147
#
# Poissons Ratio (x) = -0.13275 0.26974
# Poissons Ratio (y) = -0.14593 -0.03258
# Poissons Ratio (z) = 0.17809 -0.01956
#
# Static dielectric constant tensor:
#      x y z
#    x 1.614260 0.000000 0.046880 
#    y 0.000000 1.728510 0.000000 
#    z 0.046880 0.000000 1.695960 
# 
# From -- ./inp_files/42136.got.cif
#   From: 2010.05.17/outbox.cif.g08.bks.cpg/sg11_22_cif.got.tgz:42136.got - 2010.06.03 12:22:45.
