data_PCOD9157339
_publ_section_title
;
Structure prediction by ZEFSAII (Michael W. Deem and Ramdas Pophale) SiO2 
 PCOD9157339
Probable space group: P 21/M
;
_chemical_formula_sum "Si O2"
_cell_formula_units_Z 20
_cell_length_a 7.784468
_cell_length_b 16.255744
_cell_length_c 7.203384
_cell_angle_alpha 90.000000
_cell_angle_beta 52.165232
_cell_angle_gamma 90.000000
_cell_volume 719.913151
_symmetry_space_group_name_H-M "P 21/M"
_symmetry_group_IT_number 11
_symmetry_cell_setting 'monoclinic'
loop_
_space_group_symop_operation_xyz
x,y,z
-x,1/2+y,-z
-x,-y,-z
x,1/2-y,z
loop_
_atom_site_type_symbol
_atom_site_label
_atom_site_fract_x
_atom_site_fract_y
_atom_site_fract_z
Si Si1 0.132013 0.948138 0.763836
Si Si2 0.747197 0.655570 0.871681
Si Si3 0.489018 0.658834 0.514088
Si Si4 0.940376 0.842734 0.335182
Si Si5 0.329148 0.579277 0.270049
O O1 0.350133 0.910277 0.709707
O O2 0.221599 0.980067 0.500672
O O3 0.967406 0.874922 0.821410
O O4 0.000000 0.000000 0.000000
O O5 0.692514 0.750000 0.961345
O O6 0.807915 0.659578 0.615542
O O7 0.567080 0.583344 0.019346
O O8 0.467721 0.750000 0.605271
O O9 0.742853 0.637912 0.326039
O O10 0.377963 0.653721 0.385194
O O11 0.018621 0.750000 0.240036
O O12 0.147080 0.899045 0.240688
#
# Coordination Sequence:
#
# PCOD9157339 Si02
#       5
#     4   4   4   4   4
#     4   9  20  35  53  75 106 142 175 211 255 307
#     4  10  18  32  56  79 102 135 172 215 263 306
#     4   9  17  33  55  75 102 136 170 213 260 305
#     4   9  17  31  50  77 105 129 165 214 263 309
#     4   9  19  33  54  74 106 132 169 213 262 301
#
# _framework density 27.781127999999999
#
# number of rings (size 3 to 8) (size 9 to 14) (size 15 to 20)
#    1.200    1.600    0.000    2.400    0.000    0.800 
#    3.600    4.000    0.000    2.400    0.000    0.000 
#    0.000    0.000    0.000    0.000    0.000    0.000 
#
# Total GULP energy -111574.928189 kJ/mol
# GULP energy per Si atom -5578.746409 kJ/mol
# Density = 2.771790 g / cm^3
# Si number density = 27.781128 Si / 1000 Ang^3
#
#
#
# Elastic Constant Matrix: (Units=GPa)
#
#
# Indices 1 2 3 4 5 6 
#
# 1 152.3830 24.5400 12.0081 0.0000 -31.2945 0.0000
# 2 24.5400 73.8397 -6.4052 0.0000 4.4402 0.0000
# 3 12.0081 -6.4052 103.9364 0.0000 -1.6714 0.0000
# 4 0.0000 0.0000 0.0000 28.6205 0.0000 -7.9779
# 5 -31.2945 4.4402 -1.6714 0.0000 34.9427 0.0000
# 6 0.0000 0.0000 0.0000 -7.9779 0.0000 46.6706
#
#
#
# Elastic Compliance Matrix: (Units=1/GPa)
#
#
# Indices 1 2 3 4 5 6 
#
# 1 0.008957 -0.003581 -0.001120 0.000000 0.008423 0.000000
# 2 -0.003581 0.015148 0.001266 0.000000 -0.005071 0.000000
# 3 -0.001120 0.001266 0.009817 0.000000 -0.000694 0.000000
# 4 0.000000 0.000000 0.000000 0.036688 0.000000 0.006272
# 5 0.008423 -0.005071 -0.000694 0.000000 0.036773 0.000000
# 6 0.000000 0.000000 0.000000 0.006272 0.000000 0.022499
#
#
# Mechanical properties :
#
#
# Convention : Reuss Voigt Hill
#
# Bulk Modulus (GPa) = 36.96548 43.38276 40.17412
# Shear Modulus (GPa) = 34.30062 42.04784 38.17423
#
# Velocity S-wave (km/s) = 3.51760 3.89464 3.71092
# Velocity P-wave (km/s) = 5.46195 5.98950 5.73180
#
# Compressibility (1/GPa) = 0.02705226
#
# Stress axis : x y z
#
# Youngs Moduli (GPa) = 111.64230 66.01743 101.85895
#
# Poissons Ratio (x) = 0.23638 0.11409
# Poissons Ratio (y) = 0.39974 -0.12891
# Poissons Ratio (z) = 0.12504 -0.08355
#
# Static dielectric constant tensor:
#      x y z
#    x 2.153630 0.000000 0.058150 
#    y 0.000000 2.272960 0.000000 
#    z 0.058150 0.000000 2.292500 
# 
# From -- ./inp_files/13064.got.cif
#   From: 2010.05.17/outbox.cif.g08.bks.cpg/sg11_7_cif.got.tgz:13064.got - 2010.06.03 12:22:45.
