data_PCOD9157845
_publ_section_title
;
Structure prediction by ZEFSAII (Michael W. Deem and Ramdas Pophale) SiO2 
 PCOD9157845
Probable space group: P 21/M
;
_chemical_formula_sum "Si O2"
_cell_formula_units_Z 32
_cell_length_a 18.996072
_cell_length_b 9.068977
_cell_length_c 13.693613
_cell_angle_alpha 90.000000
_cell_angle_beta 68.615690
_cell_angle_gamma 90.000000
_cell_volume 2196.658086
_symmetry_space_group_name_H-M "P 21/M"
_symmetry_group_IT_number 11
_symmetry_cell_setting 'monoclinic'
loop_
_space_group_symop_operation_xyz
x,y,z
-x,1/2+y,-z
-x,-y,-z
x,1/2-y,z
loop_
_atom_site_type_symbol
_atom_site_label
_atom_site_fract_x
_atom_site_fract_y
_atom_site_fract_z
Si Si1 0.888570 0.575868 0.105596
Si Si2 0.589099 0.576007 0.562763
Si Si3 0.045220 0.925285 0.333728
Si Si4 0.424212 0.925647 0.640107
Si Si5 0.884204 0.925370 0.516911
Si Si6 0.742275 0.075304 0.485703
Si Si7 0.026938 0.424938 0.139322
Si Si8 0.741951 0.076806 0.251320
O O1 0.894762 0.750000 0.121866
O O2 0.804346 0.519719 0.166578
O O3 0.945928 0.489882 0.147770
O O4 0.917805 0.548708 0.980750
O O5 0.604370 0.750000 0.560530
O O6 0.579861 0.525049 0.454728
O O7 0.505341 0.547289 0.648947
O O8 0.661571 0.486969 0.562748
O O9 0.057251 0.750000 0.325538
O O10 0.958842 0.952504 0.413125
O O11 0.098131 0.000093 0.388082
O O12 0.054272 0.995745 0.223076
O O13 0.423335 0.750000 0.612405
O O14 0.345189 0.951886 0.734695
O O15 0.875695 0.750000 0.532142
O O16 0.811395 0.994685 0.502703
O O17 0.746402 0.250000 0.499254
O O18 0.746207 0.049880 0.366324
O O19 0.020668 0.250000 0.158271
O O20 0.758071 0.250000 0.227361
#
# Coordination Sequence:
#
# PCOD9157845 Si02
#       8
#     4   4   4   4   4   4   4   4
#     4  10  20  31  44  64  86 110 144 180 212 250
#     4   9  15  24  39  57  79 109 143 175 208 248
#     4  10  20  33  49  66  84 109 141 176 213 253
#     4   8  15  26  38  55  80 110 142 173 208 251
#     4  10  20  32  46  65  87 111 141 175 211 251
#     4  10  19  29  41  60  87 116 146 178 211 248
#     4  10  20  33  47  62  84 113 142 176 216 253
#     4   9  17  28  42  60  85 116 145 176 213 250
#
# _framework density 14.567584
#
# number of rings (size 3 to 8) (size 9 to 14) (size 15 to 20)
#    0.000    2.500    0.000    3.750    0.000    8.000 
#    0.000    0.000    0.000    0.000    0.000    0.000 
#    0.000    1.000    0.000    3.000    0.000    4.875 
#
# Total GULP energy -178312.467848 kJ/mol
# GULP energy per Si atom -5572.264620 kJ/mol
# Density = 1.453443 g / cm^3
# Si number density = 14.567584 Si / 1000 Ang^3
#
#
#
# Elastic Constant Matrix: (Units=GPa)
#
#
# Indices 1 2 3 4 5 6 
#
# 1 92.9597 48.1585 24.6442 0.0000 -12.8019 0.0000
# 2 48.1585 60.5051 33.0112 0.0000 -3.2770 0.0000
# 3 24.6442 33.0112 38.0415 0.0000 -3.6108 0.0000
# 4 0.0000 0.0000 0.0000 21.9761 0.0000 -0.9000
# 5 -12.8019 -3.2770 -3.6108 0.0000 21.7837 0.0000
# 6 0.0000 0.0000 0.0000 -0.9000 0.0000 27.7493
#
#
#
# Elastic Compliance Matrix: (Units=1/GPa)
#
#
# Indices 1 2 3 4 5 6 
#
# 1 0.020199 -0.016931 0.002531 0.000000 0.009743 0.000000
# 2 -0.016931 0.045580 -0.029340 0.000000 -0.007956 0.000000
# 3 0.002531 -0.029340 0.050627 0.000000 0.005465 0.000000
# 4 0.000000 0.000000 0.000000 0.045565 0.000000 0.001478
# 5 0.009743 -0.007956 0.005465 0.000000 0.051341 0.000000
# 6 0.000000 0.000000 0.000000 0.001478 0.000000 0.036085
#
#
# Mechanical properties :
#
#
# Convention : Reuss Voigt Hill
#
# Bulk Modulus (GPa) = 34.57016 44.79267 39.68141
# Shear Modulus (GPa) = 14.42926 20.01464 17.22195
#
# Velocity S-wave (km/s) = 3.15064 3.71066 3.44206
# Velocity P-wave (km/s) = 6.08423 7.01239 6.56473
#
# Compressibility (1/GPa) = 0.02892668
#
# Stress axis : x y z
#
# Youngs Moduli (GPa) = 49.50704 21.93933 19.75240
#
# Poissons Ratio (x) = 0.37145 -0.05000
# Poissons Ratio (y) = 0.83818 0.57954
# Poissons Ratio (z) = -0.12531 0.64371
#
# Static dielectric constant tensor:
#      x y z
#    x 1.492460 0.000000 -0.024410 
#    y 0.000000 1.483760 0.000000 
#    z -0.024410 0.000000 1.465220 
# 
# From -- ./inp_files/52944.got.cif
#   From: 2010.05.17/outbox.cif.g08.bks.cpg/sg11_27_cif.got.tgz:52944.got - 2010.06.03 12:22:45.
