data_PCOD9157704
_publ_section_title
;
Structure prediction by ZEFSAII (Michael W. Deem and Ramdas Pophale) SiO2 
 PCOD9157704
Probable space group: P 21/M
;
_chemical_formula_sum "Si O2"
_cell_formula_units_Z 24
_cell_length_a 7.072455
_cell_length_b 18.860442
_cell_length_c 9.833304
_cell_angle_alpha 90.000000
_cell_angle_beta 133.148087
_cell_angle_gamma 90.000000
_cell_volume 956.972687
_symmetry_space_group_name_H-M "P 21/M"
_symmetry_group_IT_number 11
_symmetry_cell_setting 'monoclinic'
loop_
_space_group_symop_operation_xyz
x,y,z
-x,1/2+y,-z
-x,-y,-z
x,1/2-y,z
loop_
_atom_site_type_symbol
_atom_site_label
_atom_site_fract_x
_atom_site_fract_y
_atom_site_fract_z
Si Si1 0.628602 0.128877 0.182108
Si Si2 0.386667 0.099900 0.361673
Si Si3 0.161837 0.519673 0.912018
Si Si4 0.923115 0.250000 0.890088
Si Si5 0.213124 0.909013 0.212206
Si Si6 0.944237 0.250000 0.451452
Si Si7 0.610153 0.750000 0.664369
Si Si8 0.671557 0.750000 0.131392
O O1 0.493446 0.112164 0.260730
O O2 0.687933 0.054197 0.139202
O O3 0.881633 0.176766 0.341753
O O4 0.478627 0.181311 0.002420
O O5 0.601118 0.073287 0.571474
O O6 0.347677 0.179497 0.396244
O O7 0.117041 0.059890 0.227853
O O8 0.070533 0.438015 0.877561
O O9 0.284409 0.546232 0.113496
O O10 0.789658 0.326652 0.833709
O O11 0.053327 0.250000 0.807998
O O12 0.166925 0.250000 0.111819
O O13 0.679204 0.250000 0.416171
O O14 0.222334 0.250000 0.662635
#
# Coordination Sequence:
#
# PCOD9157704 Si02
#       8
#     4   4   4   2   4   2   2   2
#     4  10  22  40  67  98 131 176 220 268 331 382
#     4  11  21  43  67  97 133 177 220 271 327 386
#     4  11  25  45  63  98 141 169 216 277 327 395
#     4  12  18  41  70  90 127 171 219 268 323 392
#     4  11  25  42  69  98 130 178 220 268 334 394
#     4   9  19  36  62  96 133 166 226 273 319 384
#     4  10  18  35  68  96 120 173 220 265 324 379
#     4  11  19  38  66 100 134 170 219 280 318 389
#
# _framework density 25.079084999999999
#
# number of rings (size 3 to 8) (size 9 to 14) (size 15 to 20)
#    0.000    1.333    5.000    3.000    0.000    4.667 
#    0.000    7.500    0.000    0.000    0.000    0.000 
#    0.000    0.000    0.000    0.000    0.000    0.000 
#
# Total GULP energy -134097.204929 kJ/mol
# GULP energy per Si atom -5587.383539 kJ/mol
# Density = 2.502200 g / cm^3
# Si number density = 25.079085 Si / 1000 Ang^3
#
#
#
# Elastic Constant Matrix: (Units=GPa)
#
#
# Indices 1 2 3 4 5 6 
#
# 1 83.2025 16.0053 33.7410 0.0000 4.4742 0.0000
# 2 16.0053 146.8122 51.9332 0.0000 0.0410 0.0000
# 3 33.7410 51.9332 204.8164 0.0000 -19.8252 0.0000
# 4 0.0000 0.0000 0.0000 15.7159 0.0000 -9.5902
# 5 4.4742 0.0410 -19.8252 0.0000 8.1007 0.0000
# 6 0.0000 0.0000 0.0000 -9.5902 0.0000 21.1147
#
#
#
# Elastic Compliance Matrix: (Units=1/GPa)
#
#
# Indices 1 2 3 4 5 6 
#
# 1 0.014718 -0.000126 -0.004167 0.000000 -0.018326 0.000000
# 2 -0.000126 0.007724 -0.002535 0.000000 -0.006175 0.000000
# 3 -0.004167 -0.002535 0.008434 0.000000 0.022954 0.000000
# 4 0.000000 0.000000 0.000000 0.088027 0.000000 0.039981
# 5 -0.018326 -0.006175 0.022954 0.000000 0.189776 0.000000
# 6 0.000000 0.000000 0.000000 0.039981 0.000000 0.065520
#
#
# Mechanical properties :
#
#
# Convention : Reuss Voigt Hill
#
# Bulk Modulus (GPa) = 58.07140 70.91000 64.49070
# Shear Modulus (GPa) = 12.70344 31.19636 21.94990
#
# Velocity S-wave (km/s) = 2.25308 3.53075 2.96163
# Velocity P-wave (km/s) = 5.47486 6.70504 6.12093
#
# Compressibility (1/GPa) = 0.01722018
#
# Stress axis : x y z
#
# Youngs Moduli (GPa) = 67.94319 129.47140 118.57424
#
# Poissons Ratio (x) = 0.01625 0.49406
# Poissons Ratio (y) = 0.00853 0.30064
# Poissons Ratio (z) = 0.28310 0.32827
#
# Static dielectric constant tensor:
#      x y z
#    x 2.029470 0.000000 -0.009240 
#    y 0.000000 2.143230 0.000000 
#    z -0.009240 0.000000 1.999080 
# 
# From -- ./inp_files/32750.got.cif
#   From: 2010.05.17/outbox.cif.g08.bks.cpg/sg11_17_cif.got.tgz:32750.got - 2010.06.03 12:22:45.
