data_PCOD9157145
_publ_section_title
;
Structure prediction by ZEFSAII (Michael W. Deem and Ramdas Pophale) SiO2 
 PCOD9157145
Probable space group: P 21/M
;
_chemical_formula_sum "Si O2"
_cell_formula_units_Z 32
_cell_length_a 16.006202
_cell_length_b 20.545302
_cell_length_c 9.745125
_cell_angle_alpha 90.000000
_cell_angle_beta 148.936347
_cell_angle_gamma 90.000000
_cell_volume 1653.596513
_symmetry_space_group_name_H-M "P 21/M"
_symmetry_group_IT_number 11
_symmetry_cell_setting 'monoclinic'
loop_
_space_group_symop_operation_xyz
x,y,z
-x,1/2+y,-z
-x,-y,-z
x,1/2-y,z
loop_
_atom_site_type_symbol
_atom_site_label
_atom_site_fract_x
_atom_site_fract_y
_atom_site_fract_z
Si Si1 0.692062 0.822932 0.129393
Si Si2 0.445951 0.124195 0.782804
Si Si3 0.782325 0.048302 0.323272
Si Si4 0.230097 0.951815 0.114096
Si Si5 0.952894 0.128281 0.348077
Si Si6 0.373490 0.677789 0.216857
Si Si7 0.731151 0.497895 0.541308
Si Si8 0.633572 0.951155 0.915284
O O1 0.656687 0.750000 0.037528
O O2 0.604073 0.838579 0.149944
O O3 0.881748 0.834123 0.423648
O O4 0.647322 0.874412 0.948534
O O5 0.492955 0.164292 0.712645
O O6 0.305547 0.073078 0.544200
O O7 0.611218 0.085299 0.054641
O O8 0.919866 0.089977 0.442886
O O9 0.807275 0.036230 0.516998
O O10 0.750379 0.980764 0.198503
O O11 0.350309 0.887779 0.277954
O O12 0.186727 0.978403 0.201230
O O13 0.314847 0.009588 0.147401
O O14 0.076624 0.925564 0.812591
O O15 0.799148 0.175041 0.105680
O O16 0.394079 0.750000 0.307370
O O17 0.548868 0.470072 0.304562
#
# Coordination Sequence:
#
# PCOD9157145 Si02
#       8
#     4   4   4   4   4   4   4   4
#     4  12  22  34  56  81 111 146 181 230 283 328
#     4  10  18  31  54  85 109 136 179 229 274 321
#     4   9  16  33  58  81 104 137 179 229 268 303
#     4   9  20  32  58  84 105 147 186 222 266 322
#     4   8  20  36  53  79 103 142 184 225 263 320
#     4   9  17  34  53  76 109 144 186 218 261 327
#     4  11  16  33  59  83 110 140 176 232 274 320
#     4  10  18  33  55  82 115 133 179 230 275 318
#
# _framework density 19.351759999999999
#
# number of rings (size 3 to 8) (size 9 to 14) (size 15 to 20)
#    0.750    1.500    5.000    1.875    0.000    2.000 
#    0.000    1.250    0.000    0.000    0.000    0.000 
#    0.000    0.000    0.000    0.000    0.000    0.000 
#
# Total GULP energy -178355.877744 kJ/mol
# GULP energy per Si atom -5573.621179 kJ/mol
# Density = 1.930771 g / cm^3
# Si number density = 19.351760 Si / 1000 Ang^3
#
#
#
# Elastic Constant Matrix: (Units=GPa)
#
#
# Indices 1 2 3 4 5 6 
#
# 1 94.8576 28.7199 13.6995 0.0000 -17.7102 0.0000
# 2 28.7199 120.1042 1.4115 0.0000 -7.5507 0.0000
# 3 13.6995 1.4115 19.7691 0.0000 0.3937 0.0000
# 4 0.0000 0.0000 0.0000 8.0300 0.0000 -4.0977
# 5 -17.7102 -7.5507 0.3937 0.0000 29.3461 0.0000
# 6 0.0000 0.0000 0.0000 -4.0977 0.0000 15.4942
#
#
#
# Elastic Compliance Matrix: (Units=1/GPa)
#
#
# Indices 1 2 3 4 5 6 
#
# 1 0.014322 -0.002802 -0.009885 0.000000 0.008055 0.000000
# 2 -0.002802 0.009020 0.001286 0.000000 0.000612 0.000000
# 3 -0.009885 0.001286 0.057470 0.000000 -0.006406 0.000000
# 4 0.000000 0.000000 0.000000 0.143961 0.000000 0.038073
# 5 0.008055 0.000612 -0.006406 0.000000 0.039181 0.000000
# 6 0.000000 0.000000 0.000000 0.038073 0.000000 0.074609
#
#
# Mechanical properties :
#
#
# Convention : Reuss Voigt Hill
#
# Bulk Modulus (GPa) = 17.23895 35.82140 26.53017
# Shear Modulus (GPa) = 13.13362 23.30074 18.21718
#
# Velocity S-wave (km/s) = 2.60797 3.47373 3.07151
# Velocity P-wave (km/s) = 4.24220 5.88557 5.13011
#
# Compressibility (1/GPa) = 0.05800819
#
# Stress axis : x y z
#
# Youngs Moduli (GPa) = 69.82253 110.87012 17.40042
#
# Poissons Ratio (x) = 0.31068 0.17201
# Poissons Ratio (y) = 0.19566 -0.02237
# Poissons Ratio (z) = 0.69020 -0.14254
#
# Static dielectric constant tensor:
#      x y z
#    x 1.670060 0.000000 0.001860 
#    y 0.000000 1.716650 0.000000 
#    z 0.001860 0.000000 1.701930 
# 
# From -- ./inp_files/41963.got.cif
#   From: 2010.05.17/outbox.cif.g08.bks.cpg/sg11_21_cif.got.tgz:41963.got - 2010.06.03 12:22:45.
