data_PCOD9157767
_publ_section_title
;
Structure prediction by ZEFSAII (Michael W. Deem and Ramdas Pophale) SiO2 
 PCOD9157767
Probable space group: P 21/M
;
_chemical_formula_sum "Si O2"
_cell_formula_units_Z 28
_cell_length_a 13.851846
_cell_length_b 18.424132
_cell_length_c 19.846779
_cell_angle_alpha 90.000000
_cell_angle_beta 16.266812
_cell_angle_gamma 90.000000
_cell_volume 1418.777950
_symmetry_space_group_name_H-M "P 21/M"
_symmetry_group_IT_number 11
_symmetry_cell_setting 'monoclinic'
loop_
_space_group_symop_operation_xyz
x,y,z
-x,1/2+y,-z
-x,-y,-z
x,1/2-y,z
loop_
_atom_site_type_symbol
_atom_site_label
_atom_site_fract_x
_atom_site_fract_y
_atom_site_fract_z
Si Si1 0.426560 0.335916 0.364796
Si Si2 0.824029 0.835055 0.677040
Si Si3 0.816709 0.391182 0.979422
Si Si4 0.454993 0.665567 0.557161
Si Si5 0.137404 0.968685 0.716536
Si Si6 0.272810 0.834432 0.244397
Si Si7 0.225231 0.438545 0.164336
O O1 0.488800 0.250000 0.310306
O O2 0.478337 0.349529 0.408575
O O3 0.036970 0.349513 0.601179
O O4 0.677999 0.379711 0.147433
O O5 0.822716 0.750000 0.697936
O O6 0.872838 0.889645 0.706150
O O7 0.109412 0.845426 0.427604
O O8 0.460305 0.853982 0.884817
O O9 0.186909 0.353673 0.720337
O O10 0.856227 0.475763 0.934110
O O11 0.374242 0.750000 0.602698
O O12 0.156689 0.613141 0.730416
O O13 0.091409 0.969957 0.666696
O O14 0.500000 0.000000 0.500000
O O15 0.368689 0.750000 0.173502
O O16 0.577548 0.886915 0.020575
O O17 0.500000 0.500000 0.000000
#
# Coordination Sequence:
#
# PCOD9157767 Si02
#       7
#     4   4   4   4   4   4   4
#     4   9  18  33  59  91 115 149 203 248 293 355
#     4  10  20  37  64  93 120 154 200 254 302 352
#     4  10  18  37  58  87 120 155 197 247 298 354
#     4  10  20  35  57  81 116 161 198 245 298 353
#     4  10  24  41  57  85 124 159 201 243 294 358
#     4   9  20  37  60  93 122 149 198 253 299 355
#     4  12  23  39  61  89 120 160 197 242 303 361
#
# _framework density 19.735294
#
# number of rings (size 3 to 8) (size 9 to 14) (size 15 to 20)
#    0.000    2.000    1.429    3.429    2.000    3.429 
#    0.000    2.857    0.000    3.429    0.000    0.000 
#    0.000    0.000    0.000    0.000    0.000    0.000 
#
# Total GULP energy -156347.103567 kJ/mol
# GULP energy per Si atom -5583.825127 kJ/mol
# Density = 1.969038 g / cm^3
# Si number density = 19.735294 Si / 1000 Ang^3
#
#
#
# Elastic Constant Matrix: (Units=GPa)
#
#
# Indices 1 2 3 4 5 6 
#
# 1 68.5576 45.7779 29.8810 0.0000 -25.0129 0.0000
# 2 45.7779 88.3420 20.0958 0.0000 -0.1455 0.0000
# 3 29.8810 20.0958 31.8042 0.0000 5.7772 0.0000
# 4 0.0000 0.0000 0.0000 21.1059 0.0000 -0.4247
# 5 -25.0129 -0.1455 5.7772 0.0000 12.0993 0.0000
# 6 0.0000 0.0000 0.0000 -0.4247 0.0000 37.0739
#
#
#
# Elastic Compliance Matrix: (Units=1/GPa)
#
#
# Indices 1 2 3 4 5 6 
#
# 1 -0.021271 0.004704 0.027364 0.000000 -0.056983 0.000000
# 2 0.004704 0.012411 -0.015390 0.000000 0.017223 0.000000
# 3 0.027364 -0.015390 0.005711 0.000000 0.053656 0.000000
# 4 0.000000 0.000000 0.000000 0.047391 0.000000 0.000543
# 5 -0.056983 0.017223 0.053656 0.000000 -0.060564 0.000000
# 6 0.000000 0.000000 0.000000 0.000543 0.000000 0.026979
#
#
# Mechanical properties :
#
#
# Convention : Reuss Voigt Hill
#
# Bulk Modulus (GPa) = 33.10585 42.24591 37.67588
# Shear Modulus (GPa) = -395.94619 20.25241 -187.84689
#
# Velocity S-wave (km/s) = -14.17970 3.20692 -9.76677
# Velocity P-wave (km/s) = 15.85162 5.93002 10.39492
#
# Compressibility (1/GPa) = 0.03020614
#
# Stress axis : x y z
#
# Youngs Moduli (GPa) = -47.01197 80.57147 175.08666
#
# Poissons Ratio (x) = -0.37901 -4.79098
# Poissons Ratio (y) = 0.22115 2.69464
# Poissons Ratio (z) = 1.28641 1.24002
#
# Static dielectric constant tensor:
#      x y z
#    x 1.697450 0.000000 -0.024220 
#    y 0.000000 1.736520 0.000000 
#    z -0.024220 0.000000 1.689470 
# 
# From -- ./inp_files/59706.got.cif
#   From: 2010.05.17/outbox.cif.g08.bks.cpg/sg11_30_cif.got.tgz:59706.got - 2010.06.03 12:22:45.
